REMARK WARNING: 32 MAX_TORS EXCEEDED!!!
REMARK  51 active torsions:
REMARK  status: ('A' for Active; 'I' for Inactive)
REMARK    1  A    between atoms: N_1  and  CA_2 
REMARK    2  A    between atoms: CA_2  and  C_3 
REMARK    3  A    between atoms: CA_2  and  CB_5 
REMARK       I    between atoms: C_3  and  N_10 
REMARK    4  A    between atoms: CB_5  and  CG_6 
REMARK    5  A    between atoms: CG_6  and  CD_7 
REMARK    6  A    between atoms: CD_7  and  CE_8 
REMARK    7  A    between atoms: CE_8  and  NZ_9 
REMARK    8  A    between atoms: N_10  and  CA_11 
REMARK    9  A    between atoms: CA_11  and  C_12 
REMARK   10  A    between atoms: CA_11  and  CB_14 
REMARK       I    between atoms: C_12  and  N_15 
REMARK   11  A    between atoms: N_15  and  CA_16 
REMARK   12  A    between atoms: CA_16  and  C_17 
REMARK   13  A    between atoms: CA_16  and  CB_19 
REMARK       I    between atoms: C_17  and  N_23 
REMARK   14  A    between atoms: CB_19  and  CG1_20 
REMARK   15  A    between atoms: CB_19  and  CG2_21 
REMARK   16  A    between atoms: CG1_20  and  CD1_22 
REMARK   17  A    between atoms: N_23  and  CA_24 
REMARK   18  A    between atoms: CA_24  and  C_25 
REMARK   19  A    between atoms: CA_24  and  CB_27 
REMARK       I    between atoms: C_25  and  N_31 
REMARK   20  A    between atoms: CB_27  and  CG_28 
REMARK   21  A    between atoms: N_31  and  CA_32 
REMARK   22  A    between atoms: CA_32  and  C_33 
REMARK   23  A    between atoms: CA_32  and  CB_35 
REMARK       I    between atoms: C_33  and  N_36 
REMARK   24  A    between atoms: N_36  and  CA_37 
REMARK   25  A    between atoms: CA_37  and  C_38 
REMARK   26  A    between atoms: CA_37  and  CB_40 
REMARK       I    between atoms: C_38  and  N_41 
REMARK   27  A    between atoms: N_41  and  CA_42 
REMARK   28  A    between atoms: CA_42  and  C_43 
REMARK   29  A    between atoms: CA_42  and  CB_45 
REMARK       I    between atoms: C_43  and  N_48 
REMARK   30  A    between atoms: CB_45  and  OG1_46 
REMARK   31  A    between atoms: CB_45  and  CG2_47 
REMARK   32  A    between atoms: N_48  and  CA_49 
REMARK   33  A    between atoms: CA_49  and  C_50 
REMARK   34  A    between atoms: CA_49  and  CB_52 
REMARK       I    between atoms: C_50  and  N_57 
REMARK   35  A    between atoms: CB_52  and  CG_53 
REMARK   36  A    between atoms: CG_53  and  CD_54 
REMARK       I    between atoms: CD_54  and  NE2_56 
REMARK   37  A    between atoms: N_57  and  CA_58 
REMARK   38  A    between atoms: CA_58  and  C_59 
REMARK   39  A    between atoms: CA_58  and  CB_61 
REMARK       I    between atoms: C_59  and  N_64 
REMARK   40  A    between atoms: CB_61  and  OG1_62 
REMARK   41  A    between atoms: CB_61  and  CG2_63 
REMARK   42  A    between atoms: N_64  and  CA_65 
REMARK   43  A    between atoms: CA_65  and  C_66 
REMARK   44  A    between atoms: CA_65  and  CB_68 
REMARK       I    between atoms: C_66  and  N_73 
REMARK   45  A    between atoms: CB_68  and  CG_69 
REMARK   46  A    between atoms: CG_69  and  CD_70 
REMARK   47  A    between atoms: N_73  and  CA_74 
REMARK   48  A    between atoms: CA_74  and  C_75 
REMARK   49  A    between atoms: CA_74  and  CB_77 
REMARK   50  A    between atoms: CB_77  and  CG_78 
REMARK   51  A    between atoms: CG_78  and  CD_79 
ROOT
ATOM      1  CA  ALA d   1     -14.576  19.361 -21.179  0.00  0.00     0.086 C 
ATOM      2  H42 ALA d   1     -15.239  18.491 -21.294  0.00  0.00     0.086 H 
ENDROOT
BRANCH   1   3
ATOM      3  N   ALA d   1     -15.362  20.527 -20.815  0.00  0.00    -0.346 N 
ATOM      4  C   ALA d   1     -16.676  20.523 -20.621  0.00  0.00     0.240 C 
ATOM      5  O   ALA d   1     -17.389  19.548 -20.818  0.00  0.00    -0.271 OA
ATOM      6  H41 ALA d   1     -14.879  21.395 -20.702  0.00  0.00     0.163 HD
BRANCH   4   7
ATOM      7  CA  ALA d   1     -17.272  21.849 -20.148  0.00  0.00     0.086 C 
ATOM      8  H37 ALA d   1     -16.618  22.674 -20.467  0.00  0.00     0.086 H 
BRANCH   7   9
ATOM      9  N   ALA d   1     -18.580  22.016 -20.756  0.00  0.00    -0.346 N 
ATOM     10  C   ASP d   1     -19.027  23.185 -21.190  0.00  0.00     0.241 C 
ATOM     11  O   ASP d   1     -18.400  24.241 -21.038  0.00  0.00    -0.271 OA
ATOM     12  H36 ALA d   1     -19.169  21.213 -20.851  0.00  0.00     0.163 HD
BRANCH  10  13
ATOM     13  CA  ASP d   1     -20.385  23.173 -21.914  0.00  0.00     0.098 C 
ATOM     14  H33 ASP d   1     -20.954  22.281 -21.614  0.00  0.00     0.088 H 
BRANCH  13  15
ATOM     15  N   ASP d   1     -21.141  24.367 -21.547  0.00  0.00    -0.345 N 
ATOM     16  C   ILE d   1     -21.770  24.474 -20.380  0.00  0.00     0.241 C 
ATOM     17  O   ILE d   1     -21.885  23.547 -19.610  0.00  0.00    -0.271 OA
ATOM     18  H32 ASP d   1     -21.187  25.128 -22.194  0.00  0.00     0.163 HD
BRANCH  16  19
ATOM     19  CA  ILE d   1     -22.318  25.838 -19.998  0.00  0.00     0.092 C 
ATOM     20  H22 ILE d   1     -22.351  26.500 -20.876  0.00  0.00     0.088 H 
BRANCH  19  21
ATOM     21  N   ILE d   1     -23.657  25.660 -19.467  0.00  0.00    -0.346 N 
ATOM     22  C   ALA d   1     -24.706  26.354 -19.886  0.00  0.00     0.240 C 
ATOM     23  O   ALA d   1     -24.660  27.135 -20.830  0.00  0.00    -0.271 OA
ATOM     24  H21 ILE d   1     -23.795  24.979 -18.748  0.00  0.00     0.163 HD
BRANCH  22  25
ATOM     25  CA  ALA d   1     -26.008  26.089 -19.137  0.00  0.00     0.086 C 
ATOM     26  H17 ALA d   1     -25.756  25.723 -18.131  0.00  0.00     0.086 H 
BRANCH  25  27
ATOM     27  N   ALA d   1     -26.810  27.307 -18.988  0.00  0.00    -0.346 N 
ATOM     28  C   LYS d   1     -27.265  27.713 -17.801  0.00  0.00     0.248 C 
ATOM     29  O   LYS d   1     -26.979  27.149 -16.736  0.00  0.00    -0.271 OA
ATOM     30  H16 ALA d   1     -27.023  27.850 -19.800  0.00  0.00     0.163 HD
BRANCH  28  31
ATOM     31  CA  LYS d   1     -28.169  28.941 -17.807  0.00  0.00     0.176 C 
ATOM     32  H4  LYS d   1     -28.555  29.095 -18.826  0.00  0.00     0.099 H 
BRANCH  31  33
ATOM     33  N   LYS d   1     -29.300  28.730 -16.905  0.00  0.00    -0.067 N 
ATOM     34  H1  LYS d   1     -29.893  29.545 -16.914  0.00  0.00     0.275 HD
ATOM     35  H2  LYS d   1     -28.959  28.573 -15.970  0.00  0.00     0.275 HD
ATOM     36  H3  LYS d   1     -29.828  27.927 -17.210  0.00  0.00     0.275 HD
ENDBRANCH  31  33
BRANCH  31  37
ATOM     37  CB  LYS d   1     -27.364  30.176 -17.394  0.00  0.00    -0.030 C 
ATOM     38  H5  LYS d   1     -26.787  30.519 -18.266  0.00  0.00     0.036 H 
ATOM     39  H6  LYS d   1     -26.674  29.884 -16.589  0.00  0.00     0.036 H 
BRANCH  37  40
ATOM     40  CG  LYS d   1     -28.209  31.335 -16.898  0.00  0.00    -0.061 C 
ATOM     41  H7  LYS d   1     -28.841  30.986 -16.068  0.00  0.00     0.033 H 
ATOM     42  H8  LYS d   1     -28.847  31.689 -17.721  0.00  0.00     0.033 H 
BRANCH  40  43
ATOM     43  CD  LYS d   1     -27.344  32.496 -16.407  0.00  0.00    -0.043 C 
ATOM     44  H9  LYS d   1     -27.855  33.441 -16.642  0.00  0.00     0.035 H 
ATOM     45  H10 LYS d   1     -26.377  32.462 -16.930  0.00  0.00     0.035 H 
BRANCH  43  46
ATOM     46  CE  LYS d   1     -27.089  32.437 -14.901  0.00  0.00     0.080 C 
ATOM     47  H11 LYS d   1     -26.500  33.320 -14.613  0.00  0.00     0.075 H 
ATOM     48  H12 LYS d   1     -26.514  31.525 -14.681  0.00  0.00     0.075 H 
BRANCH  46  49
ATOM     49  NZ  LYS d   1     -28.341  32.416 -14.083  0.00  0.00    -0.079 N 
ATOM     50  H13 LYS d   1     -28.102  32.377 -13.104  0.00  0.00     0.274 HD
ATOM     51  H14 LYS d   1     -28.889  31.606 -14.328  0.00  0.00     0.274 HD
ATOM     52  H15 LYS d   1     -28.876  33.251 -14.265  0.00  0.00     0.274 HD
ENDBRANCH  46  49
ENDBRANCH  43  46
ENDBRANCH  40  43
ENDBRANCH  37  40
ENDBRANCH  31  37
ENDBRANCH  28  31
ENDBRANCH  25  27
BRANCH  25  53
ATOM     53  CB  ALA d   1     -26.803  25.013 -19.854  0.00  0.00    -0.049 C 
ATOM     54  H18 ALA d   1     -26.186  24.108 -19.956  0.00  0.00     0.030 H 
ATOM     55  H19 ALA d   1     -27.092  25.374 -20.852  0.00  0.00     0.030 H 
ATOM     56  H20 ALA d   1     -27.707  24.777 -19.273  0.00  0.00     0.030 H 
ENDBRANCH  25  53
ENDBRANCH  22  25
ENDBRANCH  19  21
BRANCH  19  57
ATOM     57  CB  ILE d   1     -21.371  26.425 -18.929  0.00  0.00    -0.030 C 
ATOM     58  H23 ILE d   1     -21.195  25.651 -18.168  0.00  0.00     0.043 H 
BRANCH  57  59
ATOM     59  CG1 ILE d   1     -21.981  27.633 -18.227  0.00  0.00    -0.063 C 
ATOM     60  H24 ILE d   1     -22.956  27.343 -17.809  0.00  0.00     0.033 H 
ATOM     61  H25 ILE d   1     -22.123  28.436 -18.965  0.00  0.00     0.033 H 
BRANCH  59  62
ATOM     62  CD1 ILE d   1     -21.096  28.158 -17.093  0.00  0.00    -0.076 C 
ATOM     63  H29 ILE d   1     -21.580  29.026 -16.622  0.00  0.00     0.027 H 
ATOM     64  H30 ILE d   1     -20.119  28.459 -17.500  0.00  0.00     0.027 H 
ATOM     65  H31 ILE d   1     -20.953  27.366 -16.343  0.00  0.00     0.027 H 
ENDBRANCH  59  62
ENDBRANCH  57  59
BRANCH  57  66
ATOM     66  CG2 ILE d   1     -20.056  26.766 -19.562  0.00  0.00    -0.071 C 
ATOM     67  H26 ILE d   1     -19.646  25.874 -20.058  0.00  0.00     0.028 H 
ATOM     68  H27 ILE d   1     -19.355  27.110 -18.788  0.00  0.00     0.028 H 
ATOM     69  H28 ILE d   1     -20.203  27.564 -20.305  0.00  0.00     0.028 H 
ENDBRANCH  57  66
ENDBRANCH  19  57
ENDBRANCH  16  19
ENDBRANCH  13  15
BRANCH  13  70
ATOM     70  CB  ASP d   1     -20.130  23.125 -23.432  0.00  0.00     0.043 C 
ATOM     71  H34 ASP d   1     -19.462  22.278 -23.646  0.00  0.00     0.052 H 
ATOM     72  H35 ASP d   1     -19.641  24.063 -23.733  0.00  0.00     0.052 H 
BRANCH  70  73
ATOM     73  CG  ASP d   1     -21.397  22.958 -24.254  0.00  0.00     0.175 C 
ATOM     74  OD1 ASP d   1     -22.463  22.609 -23.710  0.00  0.00    -0.648 OA
ATOM     75  OD2 ASP d   1     -21.308  23.177 -25.489  0.00  0.00    -0.648 OA
ENDBRANCH  70  73
ENDBRANCH  13  70
ENDBRANCH  10  13
ENDBRANCH   7   9
BRANCH   7  76
ATOM     76  CB  ALA d   1     -17.385  21.870 -18.606  0.00  0.00    -0.049 C 
ATOM     77  H38 ALA d   1     -16.386  21.742 -18.163  0.00  0.00     0.030 H 
ATOM     78  H39 ALA d   1     -18.040  21.051 -18.275  0.00  0.00     0.030 H 
ATOM     79  H40 ALA d   1     -17.809  22.832 -18.282  0.00  0.00     0.030 H 
ENDBRANCH   7  76
ENDBRANCH   4   7
ENDBRANCH   1   3
BRANCH   1  80
ATOM     80  C   ALA d   1     -13.554  19.100 -20.101  0.00  0.00     0.240 C 
ATOM     81  O   ALA d   1     -13.013  20.031 -19.502  0.00  0.00    -0.271 OA
ATOM     82  N   THR d   1     -13.326  17.824 -19.846  0.00  0.00    -0.344 N 
ATOM     83  H46 THR d   1     -13.886  17.129 -20.296  0.00  0.00     0.163 HD
BRANCH  82  84
ATOM     84  CA  THR d   1     -12.274  17.403 -18.921  0.00  0.00     0.113 C 
ATOM     85  H47 THR d   1     -11.611  18.263 -18.746  0.00  0.00     0.091 H 
BRANCH  84  86
ATOM     86  C   THR d   1     -11.462  16.283 -19.542  0.00  0.00     0.243 C 
ATOM     87  O   THR d   1     -11.966  15.498 -20.355  0.00  0.00    -0.271 OA
ATOM     88  N   GLN d   1     -10.200  16.206 -19.157  0.00  0.00    -0.346 N 
ATOM     89  H53 GLN d   1      -9.826  16.900 -18.542  0.00  0.00     0.163 HD
BRANCH  88  90
ATOM     90  CA  GLN d   1      -9.341  15.106 -19.627  0.00  0.00     0.090 C 
ATOM     91  H54 GLN d   1      -9.956  14.229 -19.877  0.00  0.00     0.087 H 
BRANCH  90  92
ATOM     92  C   GLN d   1      -8.370  14.762 -18.487  0.00  0.00     0.241 C 
ATOM     93  O   GLN d   1      -7.661  15.637 -18.012  0.00  0.00    -0.271 OA
ATOM     94  N   THR d   1      -8.337  13.482 -18.096  0.00  0.00    -0.344 N 
ATOM     95  H61 THR d   1      -8.988  12.833 -18.490  0.00  0.00     0.163 HD
BRANCH  94  96
ATOM     96  CA  THR d   1      -7.367  13.011 -17.102  0.00  0.00     0.113 C 
ATOM     97  H62 THR d   1      -7.493  13.623 -16.197  0.00  0.00     0.091 H 
BRANCH  96  98
ATOM     98  C   THR d   1      -5.945  13.137 -17.569  0.00  0.00     0.243 C 
ATOM     99  O   THR d   1      -5.683  13.086 -18.783  0.00  0.00    -0.271 OA
ATOM    100  N   GLU d   1      -5.047  13.263 -16.620  0.00  0.00    -0.346 N 
ATOM    101  H68 GLU d   1      -5.358  13.296 -15.670  0.00  0.00     0.163 HD
BRANCH 100 102
ATOM    102  CA  GLU d   1      -3.645  13.355 -16.883  0.00  0.00     0.090 C 
ATOM    103  H69 GLU d   1      -3.483  14.097 -17.679  0.00  0.00     0.087 H 
BRANCH 102 104
ATOM    104  C   GLU d   1      -3.127  12.032 -17.341  0.00  0.00     0.241 C 
ATOM    105  O   GLU d   1      -2.297  11.982 -18.191  0.00  0.00    -0.271 OA
ATOM    106  N   GLU d   1      -3.634  10.950 -16.796  0.00  0.00    -0.345 N 
ATOM    107  H74 GLU d   1      -4.297  11.046 -16.053  0.00  0.00     0.163 HD
BRANCH 106 108
ATOM    108  CA  GLU d   1      -3.261   9.620 -17.239  0.00  0.00     0.097 C 
ATOM    109  H75 GLU d   1      -2.369   9.714 -17.875  0.00  0.00     0.089 H 
BRANCH 108 110
ATOM    110  C   GLU d   1      -4.392   8.964 -18.057  0.00  0.00     0.196 C 
ATOM    111  O   GLU d   1      -5.362   9.649 -18.433  0.00  0.00    -0.646 OA
ATOM    112  OXT GLU d   1      -4.243   7.723 -18.264  0.00  0.00    -0.646 OA
ENDBRANCH 108 110
BRANCH 108 113
ATOM    113  CB  GLU d   1      -2.939   8.685 -16.084  0.00  0.00    -0.028 C 
ATOM    114  H76 GLU d   1      -2.500   7.765 -16.498  0.00  0.00     0.037 H 
ATOM    115  H77 GLU d   1      -3.878   8.442 -15.566  0.00  0.00     0.037 H 
BRANCH 113 116
ATOM    116  CG  GLU d   1      -1.980   9.250 -15.077  0.00  0.00     0.018 C 
ATOM    117  H78 GLU d   1      -1.825   8.507 -14.281  0.00  0.00     0.049 H 
ATOM    118  H79 GLU d   1      -2.417  10.163 -14.647  0.00  0.00     0.049 H 
BRANCH 116 119
ATOM    119  CD  GLU d   1      -0.653   9.591 -15.680  0.00  0.00     0.172 C 
ATOM    120  OE1 GLU d   1       0.004  10.504 -15.136  0.00  0.00    -0.648 OA
ATOM    121  OE2 GLU d   1      -0.292   8.961 -16.699  0.00  0.00    -0.648 OA
ENDBRANCH 116 119
ENDBRANCH 113 116
ENDBRANCH 108 113
ENDBRANCH 106 108
ENDBRANCH 102 104
BRANCH 102 122
ATOM    122  CB  GLU d   1      -2.891  13.798 -15.641  0.00  0.00    -0.029 C 
ATOM    123  H70 GLU d   1      -1.927  14.222 -15.959  0.00  0.00     0.037 H 
ATOM    124  H71 GLU d   1      -2.713  12.911 -15.015  0.00  0.00     0.037 H 
BRANCH 122 125
ATOM    125  CG  GLU d   1      -3.601  14.827 -14.803  0.00  0.00     0.018 C 
ATOM    126  H72 GLU d   1      -3.320  14.665 -13.752  0.00  0.00     0.049 H 
ATOM    127  H73 GLU d   1      -4.684  14.675 -14.920  0.00  0.00     0.049 H 
BRANCH 125 128
ATOM    128  CD  GLU d   1      -3.291  16.240 -15.153  0.00  0.00     0.172 C 
ATOM    129  OE1 GLU d   1      -2.176  16.532 -15.586  0.00  0.00    -0.648 OA
ATOM    130  OE2 GLU d   1      -4.165  17.072 -14.957  0.00  0.00    -0.648 OA
ENDBRANCH 125 128
ENDBRANCH 122 125
ENDBRANCH 102 122
ENDBRANCH 100 102
ENDBRANCH  96  98
BRANCH  96 131
ATOM    131  CB  THR d   1      -7.596  11.535 -16.737  0.00  0.00     0.060 C 
ATOM    132  H63 THR d   1      -6.744  11.183 -16.137  0.00  0.00     0.086 H 
BRANCH 131 133
ATOM    133  OG1 THR d   1      -7.691  10.731 -17.934  0.00  0.00    -0.393 OA
ATOM    134  H64 THR d   1      -6.884  10.807 -18.430  0.00  0.00     0.210 HD
ENDBRANCH 131 133
BRANCH 131 135
ATOM    135  CG2 THR d   1      -8.866  11.380 -15.924  0.00  0.00    -0.050 C 
ATOM    136  H65 THR d   1      -9.013  10.319 -15.672  0.00  0.00     0.031 H 
ATOM    137  H66 THR d   1      -9.724  11.740 -16.511  0.00  0.00     0.031 H 
ATOM    138  H67 THR d   1      -8.783  11.968 -14.998  0.00  0.00     0.031 H 
ENDBRANCH 131 135
ENDBRANCH  96 131
ENDBRANCH  94  96
ENDBRANCH  90  92
BRANCH  90 139
ATOM    139  CB  GLN d   1      -8.561  15.543 -20.851  0.00  0.00    -0.030 C 
ATOM    140  H55 GLN d   1      -7.963  16.427 -20.583  0.00  0.00     0.037 H 
ATOM    141  H56 GLN d   1      -9.278  15.811 -21.641  0.00  0.00     0.037 H 
BRANCH 139 142
ATOM    142  CG  GLN d   1      -7.621  14.478 -21.400  0.00  0.00     0.011 C 
ATOM    143  H57 GLN d   1      -6.886  14.220 -20.623  0.00  0.00     0.047 H 
ATOM    144  H58 GLN d   1      -7.099  14.886 -22.278  0.00  0.00     0.047 H 
BRANCH 142 145
ATOM    145  CD  GLN d   1      -8.349  13.233 -21.807  0.00  0.00     0.215 C 
ATOM    146  OE1 GLN d   1      -9.246  13.283 -22.631  0.00  0.00    -0.274 OA
ATOM    147  NE2 GLN d   1      -7.993  12.085 -21.204  0.00  0.00    -0.370 N 
ATOM    148  H59 GLN d   1      -8.453  11.230 -21.445  0.00  0.00     0.159 HD
ATOM    149  H60 GLN d   1      -7.269  12.086 -20.515  0.00  0.00     0.159 HD
ENDBRANCH 142 145
ENDBRANCH 139 142
ENDBRANCH  90 139
ENDBRANCH  88  90
ENDBRANCH  84  86
BRANCH  84 150
ATOM    150  CB  THR d   1     -12.843  16.935 -17.532  0.00  0.00     0.060 C 
ATOM    151  H48 THR d   1     -11.994  16.833 -16.840  0.00  0.00     0.086 H 
BRANCH 150 152
ATOM    152  OG1 THR d   1     -13.496  15.667 -17.639  0.00  0.00    -0.393 OA
ATOM    153  H49 THR d   1     -14.217  15.734 -18.255  0.00  0.00     0.210 HD
ENDBRANCH 150 152
BRANCH 150 154
ATOM    154  CG2 THR d   1     -13.829  17.939 -16.935  0.00  0.00    -0.050 C 
ATOM    155  H50 THR d   1     -14.194  17.563 -15.968  0.00  0.00     0.031 H 
ATOM    156  H51 THR d   1     -14.678  18.072 -17.622  0.00  0.00     0.031 H 
ATOM    157  H52 THR d   1     -13.324  18.905 -16.786  0.00  0.00     0.031 H 
ENDBRANCH 150 154
ENDBRANCH  84 150
ENDBRANCH  82  84
ENDBRANCH   1  80
BRANCH   1 158
ATOM    158  CB  ALA d   1     -13.845  19.601 -22.429  0.00  0.00    -0.049 C 
ATOM    159  H43 ALA d   1     -13.257  18.708 -22.687  0.00  0.00     0.030 H 
ATOM    160  H44 ALA d   1     -13.170  20.460 -22.300  0.00  0.00     0.030 H 
ATOM    161  H45 ALA d   1     -14.560  19.815 -23.237  0.00  0.00     0.030 H 
ENDBRANCH   1 158
TORSDOF 51
