REMARK WARNING: 32 MAX_TORS EXCEEDED!!!
REMARK  45 active torsions:
REMARK  status: ('A' for Active; 'I' for Inactive)
REMARK    1  A    between atoms: N_1  and  CA_2 
REMARK    2  A    between atoms: CA_2  and  C_3 
REMARK    3  A    between atoms: CA_2  and  CB_5 
REMARK       I    between atoms: C_3  and  N_12 
REMARK    4  A    between atoms: CB_5  and  CG_6 
REMARK    5  A    between atoms: CG_6  and  CD_7 
REMARK    6  A    between atoms: CD_7  and  NE_8 
REMARK       I    between atoms: NE_8  and  CZ_9 
REMARK       I    between atoms: CZ_9  and  NH1_10 
REMARK    7  A    between atoms: N_12  and  CA_13 
REMARK    8  A    between atoms: CA_13  and  C_14 
REMARK    9  A    between atoms: CA_13  and  CB_16 
REMARK       I    between atoms: C_14  and  N_18 
REMARK   10  A    between atoms: CB_16  and  OG_17 
REMARK   11  A    between atoms: N_18  and  CA_19 
REMARK   12  A    between atoms: CA_19  and  C_20 
REMARK   13  A    between atoms: CA_19  and  CB_22 
REMARK       I    between atoms: C_20  and  N_25 
REMARK   14  A    between atoms: CB_22  and  OG1_23 
REMARK   15  A    between atoms: CB_22  and  CG2_24 
REMARK   16  A    between atoms: N_25  and  CA_26 
REMARK   17  A    between atoms: CA_26  and  C_27 
REMARK   18  A    between atoms: CA_26  and  CB_29 
REMARK       I    between atoms: C_27  and  N_32 
REMARK   19  A    between atoms: CB_29  and  OG1_30 
REMARK   20  A    between atoms: CB_29  and  CG2_31 
REMARK   21  A    between atoms: N_32  and  CA_33 
REMARK   22  A    between atoms: CA_33  and  C_34 
REMARK   23  A    between atoms: CA_33  and  CB_36 
REMARK       I    between atoms: C_34  and  N_39 
REMARK   24  A    between atoms: CB_36  and  OG1_37 
REMARK   25  A    between atoms: CB_36  and  CG2_38 
REMARK   26  A    between atoms: N_39  and  CA_40 
REMARK   27  A    between atoms: CA_40  and  C_41 
REMARK   28  A    between atoms: CA_40  and  CB_43 
REMARK       I    between atoms: C_41  and  N_48 
REMARK   29  A    between atoms: CB_43  and  CG_44 
REMARK   30  A    between atoms: CG_44  and  CD_45 
REMARK       I    between atoms: CD_45  and  NE2_47 
REMARK   31  A    between atoms: N_48  and  CA_49 
REMARK   32  A    between atoms: CA_49  and  C_50 
REMARK   33  A    between atoms: CA_49  and  CB_52 
REMARK       I    between atoms: C_50  and  N_55 
REMARK   34  A    between atoms: CB_52  and  OG1_53 
REMARK   35  A    between atoms: CB_52  and  CG2_54 
REMARK   36  A    between atoms: N_55  and  CA_56 
REMARK   37  A    between atoms: CA_56  and  C_57 
REMARK   38  A    between atoms: CA_56  and  CB_59 
REMARK       I    between atoms: C_57  and  N_63 
REMARK   39  A    between atoms: CB_59  and  CG_60 
REMARK   40  A    between atoms: N_63  and  CA_64 
REMARK   41  A    between atoms: CA_64  and  C_65 
REMARK   42  A    between atoms: CA_64  and  CB_67 
REMARK   43  A    between atoms: CB_67  and  CG_68 
REMARK   44  A    between atoms: CG_68  and  SD_69 
REMARK   45  A    between atoms: SD_69  and  CE_70 
ROOT
ATOM      1  CA  THR d   1     -12.392  17.415 -18.967  0.00  0.00     0.113 C 
ATOM      2  H36 THR d   1     -11.755  18.278 -18.724  0.00  0.00     0.091 H 
ENDROOT
BRANCH   1   3
ATOM      3  N   THR d   1     -13.370  17.808 -19.962  0.00  0.00    -0.344 N 
ATOM      4  C   THR d   1     -13.567  19.080 -20.283  0.00  0.00     0.243 C 
ATOM      5  O   THR d   1     -13.159  20.040 -19.603  0.00  0.00    -0.271 OA
ATOM      6  H35 THR d   1     -13.911  17.102 -20.419  0.00  0.00     0.163 HD
BRANCH   4   7
ATOM      7  CA  THR d   1     -14.352  19.303 -21.556  0.00  0.00     0.113 C 
ATOM      8  H29 THR d   1     -15.097  18.503 -21.675  0.00  0.00     0.091 H 
BRANCH   7   9
ATOM      9  N   THR d   1     -15.045  20.569 -21.471  0.00  0.00    -0.344 N 
ATOM     10  C   THR d   1     -16.331  20.638 -21.148  0.00  0.00     0.243 C 
ATOM     11  O   THR d   1     -17.054  19.651 -20.998  0.00  0.00    -0.271 OA
ATOM     12  H28 THR d   1     -14.543  21.413 -21.660  0.00  0.00     0.163 HD
BRANCH  10  13
ATOM     13  CA  THR d   1     -16.890  22.032 -21.006  0.00  0.00     0.113 C 
ATOM     14  H22 THR d   1     -16.455  22.668 -21.791  0.00  0.00     0.091 H 
BRANCH  13  15
ATOM     15  N   THR d   1     -18.334  22.026 -21.179  0.00  0.00    -0.344 N 
ATOM     16  C   SER d   1     -18.940  22.999 -21.846  0.00  0.00     0.243 C 
ATOM     17  O   SER d   1     -18.342  23.966 -22.288  0.00  0.00    -0.271 OA
ATOM     18  H21 THR d   1     -18.876  21.280 -20.791  0.00  0.00     0.163 HD
BRANCH  16  19
ATOM     19  CA  SER d   1     -20.439  22.870 -22.032  0.00  0.00     0.109 C 
ATOM     20  H17 SER d   1     -20.818  22.102 -21.341  0.00  0.00     0.090 H 
BRANCH  19  21
ATOM     21  N   SER d   1     -21.071  24.138 -21.715  0.00  0.00    -0.344 N 
ATOM     22  C   ARG d   1     -21.690  24.335 -20.561  0.00  0.00     0.249 C 
ATOM     23  O   ARG d   1     -21.817  23.455 -19.710  0.00  0.00    -0.271 OA
ATOM     24  H16 SER d   1     -21.038  24.880 -22.384  0.00  0.00     0.163 HD
BRANCH  22  25
ATOM     25  CA  ARG d   1     -22.250  25.732 -20.346  0.00  0.00     0.176 C 
ATOM     26  H4  ARG d   1     -22.636  26.105 -21.306  0.00  0.00     0.099 H 
BRANCH  25  27
ATOM     27  N   ARG d   1     -23.345  25.706 -19.390  0.00  0.00    -0.067 N 
ATOM     28  H1  ARG d   1     -23.701  26.640 -19.262  0.00  0.00     0.275 HD
ATOM     29  H2  ARG d   1     -23.012  25.349 -18.508  0.00  0.00     0.275 HD
ATOM     30  H3  ARG d   1     -24.080  25.111 -19.738  0.00  0.00     0.275 HD
ENDBRANCH  25  27
BRANCH  25  31
ATOM     31  CB  ARG d   1     -21.139  26.675 -19.869  0.00  0.00    -0.029 C 
ATOM     32  H5  ARG d   1     -21.574  27.673 -19.709  0.00  0.00     0.036 H 
ATOM     33  H6  ARG d   1     -20.369  26.731 -20.653  0.00  0.00     0.036 H 
BRANCH  31  34
ATOM     34  CG  ARG d   1     -20.483  26.230 -18.588  0.00  0.00    -0.047 C 
ATOM     35  H7  ARG d   1     -19.947  25.288 -18.776  0.00  0.00     0.035 H 
ATOM     36  H8  ARG d   1     -21.265  26.062 -17.833  0.00  0.00     0.035 H 
BRANCH  34  37
ATOM     37  CD  ARG d   1     -19.495  27.251 -18.046  0.00  0.00     0.009 C 
ATOM     38  H9  ARG d   1     -20.051  28.055 -17.543  0.00  0.00     0.064 H 
ATOM     39  H10 ARG d   1     -18.919  27.672 -18.884  0.00  0.00     0.064 H 
BRANCH  37  40
ATOM     40  NE  ARG d   1     -18.566  26.640 -17.087  0.00  0.00    -0.227 N 
ATOM     41  CZ  ARG d   1     -17.265  26.437 -17.299  0.00  0.00     0.665 C 
ATOM     42  NH1 ARG d   1     -16.694  26.818 -18.436  0.00  0.00    -0.235 N 
ATOM     43  NH2 ARG d   1     -16.521  25.865 -16.356  0.00  0.00    -0.235 N 
ATOM     44  H12 ARG d   1     -15.688  26.655 -18.587  0.00  0.00     0.174 HD
ATOM     45  H13 ARG d   1     -17.257  27.276 -19.167  0.00  0.00     0.174 HD
ATOM     46  H14 ARG d   1     -16.953  25.566 -15.470  0.00  0.00     0.174 HD
ATOM     47  H15 ARG d   1     -15.513  25.722 -16.512  0.00  0.00     0.174 HD
ATOM     48  H11 ARG d   1     -18.950  26.345 -16.178  0.00  0.00     0.177 HD
ENDBRANCH  37  40
ENDBRANCH  34  37
ENDBRANCH  31  34
ENDBRANCH  25  31
ENDBRANCH  22  25
ENDBRANCH  19  21
BRANCH  19  49
ATOM     49  CB  SER d   1     -20.770  22.442 -23.462  0.00  0.00     0.044 C 
ATOM     50  H18 SER d   1     -20.291  21.474 -23.669  0.00  0.00     0.077 H 
ATOM     51  H19 SER d   1     -20.387  23.198 -24.163  0.00  0.00     0.077 H 
BRANCH  49  52
ATOM     52  OG  SER d   1     -22.171  22.314 -23.636  0.00  0.00    -0.398 OA
ATOM     53  H20 SER d   1     -22.505  21.659 -23.034  0.00  0.00     0.209 HD
ENDBRANCH  49  52
ENDBRANCH  19  49
ENDBRANCH  16  19
ENDBRANCH  13  15
BRANCH  13  54
ATOM     54  CB  THR d   1     -16.477  22.596 -19.640  0.00  0.00     0.060 C 
ATOM     55  H23 THR d   1     -15.443  22.289 -19.424  0.00  0.00     0.086 H 
BRANCH  54  56
ATOM     56  OG1 THR d   1     -17.343  22.084 -18.620  0.00  0.00    -0.393 OA
ATOM     57  H24 THR d   1     -17.082  22.437 -17.778  0.00  0.00     0.210 HD
ENDBRANCH  54  56
BRANCH  54  58
ATOM     58  CG2 THR d   1     -16.551  24.101 -19.652  0.00  0.00    -0.050 C 
ATOM     59  H25 THR d   1     -16.253  24.491 -18.668  0.00  0.00     0.031 H 
ATOM     60  H26 THR d   1     -17.581  24.416 -19.874  0.00  0.00     0.031 H 
ATOM     61  H27 THR d   1     -15.873  24.495 -20.423  0.00  0.00     0.031 H 
ENDBRANCH  54  58
ENDBRANCH  13  54
ENDBRANCH  10  13
ENDBRANCH   7   9
BRANCH   7  62
ATOM     62  CB  THR d   1     -13.368  19.241 -22.729  0.00  0.00     0.060 C 
ATOM     63  H30 THR d   1     -12.838  18.278 -22.698  0.00  0.00     0.086 H 
BRANCH  62  64
ATOM     64  OG1 THR d   1     -12.418  20.304 -22.599  0.00  0.00    -0.393 OA
ATOM     65  H31 THR d   1     -11.947  20.207 -21.780  0.00  0.00     0.210 HD
ENDBRANCH  62  64
BRANCH  62  66
ATOM     66  CG2 THR d   1     -14.090  19.355 -24.055  0.00  0.00    -0.050 C 
ATOM     67  H32 THR d   1     -13.359  19.307 -24.876  0.00  0.00     0.031 H 
ATOM     68  H33 THR d   1     -14.628  20.314 -24.098  0.00  0.00     0.031 H 
ATOM     69  H34 THR d   1     -14.807  18.527 -24.154  0.00  0.00     0.031 H 
ENDBRANCH  62  66
ENDBRANCH   7  62
ENDBRANCH   4   7
ENDBRANCH   1   3
BRANCH   1  70
ATOM     70  C   THR d   1     -11.558  16.328 -19.608  0.00  0.00     0.243 C 
ATOM     71  O   THR d   1     -12.034  15.587 -20.466  0.00  0.00    -0.271 OA
ATOM     72  N   GLN d   1     -10.300  16.247 -19.213  0.00  0.00    -0.346 N 
ATOM     73  H42 GLN d   1      -9.939  16.942 -18.592  0.00  0.00     0.163 HD
BRANCH  72  74
ATOM     74  CA  GLN d   1      -9.431  15.180 -19.655  0.00  0.00     0.090 C 
ATOM     75  H43 GLN d   1     -10.045  14.302 -19.903  0.00  0.00     0.087 H 
BRANCH  74  76
ATOM     76  C   GLN d   1      -8.466  14.804 -18.536  0.00  0.00     0.241 C 
ATOM     77  O   GLN d   1      -7.761  15.655 -18.017  0.00  0.00    -0.271 OA
ATOM     78  N   THR d   1      -8.433  13.528 -18.174  0.00  0.00    -0.344 N 
ATOM     79  H50 THR d   1      -9.054  12.878 -18.612  0.00  0.00     0.163 HD
BRANCH  78  80
ATOM     80  CA  THR d   1      -7.513  13.058 -17.155  0.00  0.00     0.113 C 
ATOM     81  H51 THR d   1      -7.653  13.676 -16.256  0.00  0.00     0.091 H 
BRANCH  80  82
ATOM     82  C   THR d   1      -6.074  13.198 -17.627  0.00  0.00     0.243 C 
ATOM     83  O   THR d   1      -5.777  13.040 -18.814  0.00  0.00    -0.271 OA
ATOM     84  N   ASP d   1      -5.192  13.496 -16.678  0.00  0.00    -0.345 N 
ATOM     85  H57 ASP d   1      -5.525  13.642 -15.746  0.00  0.00     0.163 HD
BRANCH  84  86
ATOM     86  CA  ASP d   1      -3.760  13.620 -16.934  0.00  0.00     0.098 C 
ATOM     87  H58 ASP d   1      -3.609  14.350 -17.743  0.00  0.00     0.088 H 
BRANCH  86  88
ATOM     88  C   ASP d   1      -3.179  12.282 -17.372  0.00  0.00     0.241 C 
ATOM     89  O   ASP d   1      -2.309  12.219 -18.242  0.00  0.00    -0.271 OA
ATOM     90  N   MET d   1      -3.664  11.213 -16.749  0.00  0.00    -0.345 N 
ATOM     91  H61 MET d   1      -4.324  11.346 -16.009  0.00  0.00     0.163 HD
BRANCH  90  92
ATOM     92  CA  MET d   1      -3.271   9.853 -17.103  0.00  0.00     0.097 C 
ATOM     93  H62 MET d   1      -2.361   9.901 -17.720  0.00  0.00     0.089 H 
BRANCH  92  94
ATOM     94  C   MET d   1      -4.384   9.172 -17.920  0.00  0.00     0.196 C 
ATOM     95  O   MET d   1      -4.354   7.968 -18.183  0.00  0.00    -0.646 OA
ATOM     96  OXT MET d   1      -5.363   9.798 -18.330  0.00  0.00    -0.646 OA
ENDBRANCH  92  94
BRANCH  92  97
ATOM     97  CB  MET d   1      -2.964   9.035 -15.842  0.00  0.00    -0.029 C 
ATOM     98  H63 MET d   1      -3.406   8.036 -15.969  0.00  0.00     0.037 H 
ATOM     99  H64 MET d   1      -3.436   9.539 -14.986  0.00  0.00     0.037 H 
BRANCH  97 100
ATOM    100  CG  MET d   1      -1.479   8.858 -15.526  0.00  0.00    -0.021 C 
ATOM    101  H65 MET d   1      -1.020   8.285 -16.346  0.00  0.00     0.049 H 
ATOM    102  H66 MET d   1      -1.394   8.289 -14.589  0.00  0.00     0.049 H 
BRANCH 100 103
ATOM    103  SD  MET d   1      -0.557  10.400 -15.333  0.00  0.00    -0.173 SA
BRANCH 103 104
ATOM    104  CE  MET d   1      -1.286  11.081 -13.836  0.00  0.00    -0.035 C 
ATOM    105  H67 MET d   1      -0.806  12.042 -13.599  0.00  0.00     0.041 H 
ATOM    106  H68 MET d   1      -1.134  10.380 -13.002  0.00  0.00     0.041 H 
ATOM    107  H69 MET d   1      -2.364  11.238 -13.992  0.00  0.00     0.041 H 
ENDBRANCH 103 104
ENDBRANCH 100 103
ENDBRANCH  97 100
ENDBRANCH  92  97
ENDBRANCH  90  92
ENDBRANCH  86  88
BRANCH  86 108
ATOM    108  CB  ASP d   1      -3.042  14.126 -15.673  0.00  0.00     0.043 C 
ATOM    109  H59 ASP d   1      -1.973  14.246 -15.901  0.00  0.00     0.052 H 
ATOM    110  H60 ASP d   1      -3.165  13.380 -14.874  0.00  0.00     0.052 H 
BRANCH 108 111
ATOM    111  CG  ASP d   1      -3.590  15.464 -15.181  0.00  0.00     0.175 C 
ATOM    112  OD1 ASP d   1      -4.031  16.275 -16.023  0.00  0.00    -0.648 OA
ATOM    113  OD2 ASP d   1      -3.571  15.709 -13.954  0.00  0.00    -0.648 OA
ENDBRANCH 108 111
ENDBRANCH  86 108
ENDBRANCH  84  86
ENDBRANCH  80  82
BRANCH  80 114
ATOM    114  CB  THR d   1      -7.765  11.591 -16.781  0.00  0.00     0.060 C 
ATOM    115  H52 THR d   1      -6.937  11.239 -16.149  0.00  0.00     0.086 H 
BRANCH 114 116
ATOM    116  OG1 THR d   1      -7.824  10.788 -17.966  0.00  0.00    -0.393 OA
ATOM    117  H53 THR d   1      -7.000  10.855 -18.434  0.00  0.00     0.210 HD
ENDBRANCH 114 116
BRANCH 114 118
ATOM    118  CG2 THR d   1      -9.056  11.448 -16.019  0.00  0.00    -0.050 C 
ATOM    119  H54 THR d   1      -9.215  10.390 -15.762  0.00  0.00     0.031 H 
ATOM    120  H55 THR d   1      -9.890  11.804 -16.641  0.00  0.00     0.031 H 
ATOM    121  H56 THR d   1      -9.006  12.046 -15.097  0.00  0.00     0.031 H 
ENDBRANCH 114 118
ENDBRANCH  80 114
ENDBRANCH  78  80
ENDBRANCH  74  76
BRANCH  74 122
ATOM    122  CB  GLN d   1      -8.662  15.608 -20.904  0.00  0.00    -0.030 C 
ATOM    123  H44 GLN d   1      -8.115  16.534 -20.674  0.00  0.00     0.037 H 
ATOM    124  H45 GLN d   1      -9.387  15.801 -21.708  0.00  0.00     0.037 H 
BRANCH 122 125
ATOM    125  CG  GLN d   1      -7.672  14.580 -21.394  0.00  0.00     0.011 C 
ATOM    126  H46 GLN d   1      -6.978  14.336 -20.576  0.00  0.00     0.047 H 
ATOM    127  H47 GLN d   1      -7.109  15.002 -22.239  0.00  0.00     0.047 H 
BRANCH 125 128
ATOM    128  CD  GLN d   1      -8.355  13.319 -21.845  0.00  0.00     0.215 C 
ATOM    129  OE1 GLN d   1      -9.292  13.370 -22.634  0.00  0.00    -0.274 OA
ATOM    130  NE2 GLN d   1      -7.914  12.178 -21.320  0.00  0.00    -0.370 N 
ATOM    131  H48 GLN d   1      -8.334  11.310 -21.586  0.00  0.00     0.159 HD
ATOM    132  H49 GLN d   1      -7.163  12.189 -20.660  0.00  0.00     0.159 HD
ENDBRANCH 125 128
ENDBRANCH 122 125
ENDBRANCH  74 122
ENDBRANCH  72  74
ENDBRANCH   1  70
BRANCH   1 133
ATOM    133  CB  THR d   1     -13.037  16.901 -17.658  0.00  0.00     0.060 C 
ATOM    134  H37 THR d   1     -12.258  16.830 -16.885  0.00  0.00     0.086 H 
BRANCH 133 135
ATOM    135  OG1 THR d   1     -13.599  15.603 -17.877  0.00  0.00    -0.393 OA
ATOM    136  H38 THR d   1     -12.913  15.004 -18.148  0.00  0.00     0.210 HD
ENDBRANCH 133 135
BRANCH 133 137
ATOM    137  CG2 THR d   1     -14.128  17.852 -17.170  0.00  0.00    -0.050 C 
ATOM    138  H39 THR d   1     -14.567  17.461 -16.240  0.00  0.00     0.031 H 
ATOM    139  H40 THR d   1     -14.911  17.936 -17.938  0.00  0.00     0.031 H 
ATOM    140  H41 THR d   1     -13.692  18.844 -16.980  0.00  0.00     0.031 H 
ENDBRANCH 133 137
ENDBRANCH   1 133
TORSDOF 45
