REMARK  27 active torsions:
REMARK  status: ('A' for Active; 'I' for Inactive)
REMARK    1  A    between atoms: N_1  and  CA_2 
REMARK    2  A    between atoms: CA_2  and  C_3 
REMARK    3  A    between atoms: CA_2  and  CB_5 
REMARK       I    between atoms: C_3  and  N_7 
REMARK    4  A    between atoms: CB_5  and  OG_6 
REMARK    5  A    between atoms: CA_8  and  C_9 
REMARK       I    between atoms: C_9  and  N_14 
REMARK    6  A    between atoms: N_14  and  CA_15 
REMARK    7  A    between atoms: CA_15  and  C_16 
REMARK    8  A    between atoms: CA_15  and  CB_18 
REMARK       I    between atoms: C_16  and  N_23 
REMARK    9  A    between atoms: CB_18  and  CG_19 
REMARK   10  A    between atoms: CG_19  and  CD_20 
REMARK   11  A    between atoms: CD_20  and  CE_21 
REMARK   12  A    between atoms: CE_21  and  NZ_22 
REMARK   13  A    between atoms: N_23  and  CA_24 
REMARK   14  A    between atoms: CA_24  and  C_25 
REMARK   15  A    between atoms: CA_24  and  CB_27 
REMARK       I    between atoms: C_25  and  N_34 
REMARK   16  A    between atoms: CB_27  and  CG_28 
REMARK   17  A    between atoms: CG_28  and  CD_29 
REMARK   18  A    between atoms: CD_29  and  NE_30 
REMARK       I    between atoms: NE_30  and  CZ_31 
REMARK       I    between atoms: CZ_31  and  NH1_32 
REMARK   19  A    between atoms: N_34  and  CA_35 
REMARK   20  A    between atoms: CA_35  and  C_36 
REMARK   21  A    between atoms: CA_35  and  CB_38 
REMARK       I    between atoms: C_36  and  N_42 
REMARK   22  A    between atoms: CB_38  and  CG1_39 
REMARK   23  A    between atoms: CB_38  and  CG2_40 
REMARK   24  A    between atoms: CG1_39  and  CD1_41 
REMARK   25  A    between atoms: N_42  and  CA_43 
REMARK   26  A    between atoms: CA_43  and  C_44 
REMARK   27  A    between atoms: CA_43  and  CB_46 
ROOT
ATOM      1  CA  ARG d   1      -2.471  32.262 -16.916  0.00  0.00     0.089 C 
ATOM      2  H29 ARG d   1      -2.703  31.537 -16.122  0.00  0.00     0.087 H 
ENDROOT
BRANCH   1   3
ATOM      3  N   ARG d   1      -1.292  33.032 -16.526  0.00  0.00    -0.346 N 
ATOM      4  C   LYS d   1      -0.103  32.475 -16.298  0.00  0.00     0.241 C 
ATOM      5  O   LYS d   1       0.105  31.265 -16.415  0.00  0.00    -0.271 OA
ATOM      6  H28 ARG d   1      -1.381  34.023 -16.425  0.00  0.00     0.163 HD
BRANCH   4   7
ATOM      7  CA  LYS d   1       0.987  33.442 -15.942  0.00  0.00     0.089 C 
ATOM      8  H16 LYS d   1       0.533  34.228 -15.320  0.00  0.00     0.087 H 
BRANCH   7   9
ATOM      9  N   LYS d   1       2.076  32.838 -15.155  0.00  0.00    -0.346 N 
ATOM     10  C   PRO d   1       2.879  33.601 -14.435  0.00  0.00     0.241 C 
ATOM     11  O   PRO d   1       2.756  34.830 -14.324  0.00  0.00    -0.271 OA
ATOM     12  H15 LYS d   1       2.208  31.847 -15.166  0.00  0.00     0.163 HD
BRANCH  10  13
ATOM     13  CA  PRO d   1       4.091  32.921 -13.803  0.00  0.00     0.091 C 
ATOM     14  N   PRO d   1       5.224  33.831 -13.833  0.00  0.00    -0.337 N 
ATOM     15  C   SER d   1       5.550  34.369 -15.036  0.00  0.00     0.253 C 
ATOM     16  CD  PRO d   1       5.667  34.222 -12.486  0.00  0.00    -0.001 C 
ATOM     17  O   SER d   1       5.066  33.896 -16.095  0.00  0.00    -0.271 OA
ATOM     18  CG  PRO d   1       4.467  33.850 -11.648  0.00  0.00    -0.048 C 
ATOM     19  H13 PRO d   1       5.876  35.300 -12.430  0.00  0.00     0.064 H 
ATOM     20  H14 PRO d   1       6.561  33.659 -12.179  0.00  0.00     0.064 H 
ATOM     21  CB  PRO d   1       3.845  32.687 -12.290  0.00  0.00    -0.036 C 
ATOM     22  H11 PRO d   1       4.784  33.594 -10.626  0.00  0.00     0.035 H 
ATOM     23  H12 PRO d   1       3.756  34.688 -11.612  0.00  0.00     0.035 H 
ATOM     24  H9  PRO d   1       4.322  31.754 -11.956  0.00  0.00     0.036 H 
ATOM     25  H10 PRO d   1       2.768  32.648 -12.070  0.00  0.00     0.036 H 
ATOM     26  H8  PRO d   1       4.315  31.978 -14.324  0.00  0.00     0.087 H 
BRANCH  15  27
ATOM     27  CA  SER d   1       6.405  35.596 -15.050  0.00  0.00     0.196 C 
ATOM     28  H4  SER d   1       7.245  35.481 -14.350  0.00  0.00     0.102 H 
BRANCH  27  29
ATOM     29  N   SER d   1       6.922  35.822 -16.454  0.00  0.00    -0.064 N 
ATOM     30  H1  SER d   1       7.499  36.648 -16.471  0.00  0.00     0.275 HD
ATOM     31  H2  SER d   1       6.144  35.943 -17.083  0.00  0.00     0.275 HD
ATOM     32  H3  SER d   1       7.467  35.025 -16.744  0.00  0.00     0.275 HD
ENDBRANCH  27  29
BRANCH  27  33
ATOM     33  CB  SER d   1       5.528  36.816 -14.645  0.00  0.00     0.051 C 
ATOM     34  H5  SER d   1       5.142  36.657 -13.627  0.00  0.00     0.077 H 
ATOM     35  H6  SER d   1       4.686  36.901 -15.348  0.00  0.00     0.077 H 
BRANCH  33  36
ATOM     36  OG  SER d   1       6.267  38.008 -14.672  0.00  0.00    -0.398 OA
ATOM     37  H7  SER d   1       6.994  37.943 -14.063  0.00  0.00     0.209 HD
ENDBRANCH  33  36
ENDBRANCH  27  33
ENDBRANCH  15  27
ENDBRANCH  10  13
ENDBRANCH   7   9
BRANCH   7  38
ATOM     38  CB  LYS d   1       1.556  34.115 -17.216  0.00  0.00    -0.038 C 
ATOM     39  H17 LYS d   1       2.366  34.799 -16.923  0.00  0.00     0.036 H 
ATOM     40  H18 LYS d   1       0.752  34.687 -17.703  0.00  0.00     0.036 H 
BRANCH  38  41
ATOM     41  CG  LYS d   1       2.106  33.101 -18.208  0.00  0.00    -0.061 C 
ATOM     42  H19 LYS d   1       1.319  32.365 -18.430  0.00  0.00     0.033 H 
ATOM     43  H20 LYS d   1       2.966  32.591 -17.748  0.00  0.00     0.033 H 
BRANCH  41  44
ATOM     44  CD  LYS d   1       2.562  33.738 -19.520  0.00  0.00    -0.043 C 
ATOM     45  H21 LYS d   1       1.714  34.291 -19.951  0.00  0.00     0.035 H 
ATOM     46  H22 LYS d   1       2.864  32.936 -20.209  0.00  0.00     0.035 H 
BRANCH  44  47
ATOM     47  CE  LYS d   1       3.715  34.686 -19.362  0.00  0.00     0.080 C 
ATOM     48  H23 LYS d   1       4.497  34.195 -18.764  0.00  0.00     0.075 H 
ATOM     49  H24 LYS d   1       3.363  35.587 -18.837  0.00  0.00     0.075 H 
BRANCH  47  50
ATOM     50  NZ  LYS d   1       4.297  35.091 -20.667  0.00  0.00    -0.079 N 
ATOM     51  H25 LYS d   1       5.065  35.725 -20.510  0.00  0.00     0.274 HD
ATOM     52  H26 LYS d   1       3.591  35.549 -21.222  0.00  0.00     0.274 HD
ATOM     53  H27 LYS d   1       4.630  34.274 -21.154  0.00  0.00     0.274 HD
ENDBRANCH  47  50
ENDBRANCH  44  47
ENDBRANCH  41  44
ENDBRANCH  38  41
ENDBRANCH   7  38
ENDBRANCH   4   7
ENDBRANCH   1   3
BRANCH   1  54
ATOM     54  C   ARG d   1      -2.227  31.503 -18.221  0.00  0.00     0.241 C 
ATOM     55  O   ARG d   1      -1.649  32.067 -19.164  0.00  0.00    -0.271 OA
ATOM     56  N   ILE d   1      -2.660  30.253 -18.269  0.00  0.00    -0.346 N 
ATOM     57  H41 ILE d   1      -3.047  29.843 -17.443  0.00  0.00     0.163 HD
BRANCH  56  58
ATOM     58  CA  ILE d   1      -2.589  29.442 -19.508  0.00  0.00     0.092 C 
ATOM     59  H42 ILE d   1      -1.544  29.402 -19.848  0.00  0.00     0.088 H 
BRANCH  58  60
ATOM     60  C   ILE d   1      -3.426  30.174 -20.556  0.00  0.00     0.241 C 
ATOM     61  O   ILE d   1      -4.580  30.505 -20.308  0.00  0.00    -0.271 OA
ATOM     62  N   ALA d   1      -2.831  30.496 -21.715  0.00  0.00    -0.345 N 
ATOM     63  H52 ALA d   1      -1.867  30.271 -21.855  0.00  0.00     0.163 HD
BRANCH  62  64
ATOM     64  CA  ALA d   1      -3.577  31.173 -22.776  0.00  0.00     0.093 C 
ATOM     65  H53 ALA d   1      -4.126  32.018 -22.335  0.00  0.00     0.089 H 
BRANCH  64  66
ATOM     66  C   ALA d   1      -4.573  30.220 -23.410  0.00  0.00     0.196 C 
ATOM     67  O   ALA d   1      -4.342  29.007 -23.490  0.00  0.00    -0.646 OA
ATOM     68  OXT ALA d   1      -5.632  30.683 -23.860  0.00  0.00    -0.646 OA
ENDBRANCH  64  66
BRANCH  64  69
ATOM     69  CB  ALA d   1      -2.629  31.708 -23.841  0.00  0.00    -0.048 C 
ATOM     70  H54 ALA d   1      -3.209  32.212 -24.628  0.00  0.00     0.030 H 
ATOM     71  H55 ALA d   1      -2.063  30.874 -24.280  0.00  0.00     0.030 H 
ATOM     72  H56 ALA d   1      -1.931  32.425 -23.384  0.00  0.00     0.030 H 
ENDBRANCH  64  69
ENDBRANCH  62  64
ENDBRANCH  58  60
BRANCH  58  73
ATOM     73  CB  ILE d   1      -3.071  27.997 -19.296  0.00  0.00    -0.030 C 
ATOM     74  H43 ILE d   1      -4.061  28.038 -18.818  0.00  0.00     0.043 H 
BRANCH  73  75
ATOM     75  CG1 ILE d   1      -2.118  27.238 -18.364  0.00  0.00    -0.063 C 
ATOM     76  H44 ILE d   1      -1.970  27.841 -17.456  0.00  0.00     0.033 H 
ATOM     77  H45 ILE d   1      -1.156  27.113 -18.882  0.00  0.00     0.033 H 
BRANCH  75  78
ATOM     78  CD1 ILE d   1      -2.616  25.871 -17.950  0.00  0.00    -0.076 C 
ATOM     79  H49 ILE d   1      -1.878  25.397 -17.286  0.00  0.00     0.027 H 
ATOM     80  H50 ILE d   1      -2.759  25.247 -18.844  0.00  0.00     0.027 H 
ATOM     81  H51 ILE d   1      -3.573  25.975 -17.418  0.00  0.00     0.027 H 
ENDBRANCH  75  78
ENDBRANCH  73  75
BRANCH  73  82
ATOM     82  CG2 ILE d   1      -3.214  27.244 -20.615  0.00  0.00    -0.071 C 
ATOM     83  H46 ILE d   1      -3.898  27.793 -21.278  0.00  0.00     0.028 H 
ATOM     84  H47 ILE d   1      -3.618  26.239 -20.422  0.00  0.00     0.028 H 
ATOM     85  H48 ILE d   1      -2.229  27.157 -21.096  0.00  0.00     0.028 H 
ENDBRANCH  73  82
ENDBRANCH  58  73
ENDBRANCH  56  58
ENDBRANCH   1  54
BRANCH   1  86
ATOM     86  CB  ARG d   1      -3.659  33.220 -17.091  0.00  0.00    -0.036 C 
ATOM     87  H30 ARG d   1      -3.412  33.919 -17.904  0.00  0.00     0.036 H 
ATOM     88  H31 ARG d   1      -3.783  33.779 -16.152  0.00  0.00     0.036 H 
BRANCH  86  89
ATOM     89  CG  ARG d   1      -4.996  32.567 -17.426  0.00  0.00    -0.048 C 
ATOM     90  H32 ARG d   1      -5.305  31.927 -16.586  0.00  0.00     0.035 H 
ATOM     91  H33 ARG d   1      -4.880  31.954 -18.332  0.00  0.00     0.035 H 
BRANCH  89  92
ATOM     92  CD  ARG d   1      -6.075  33.626 -17.672  0.00  0.00     0.009 C 
ATOM     93  H34 ARG d   1      -6.995  33.132 -18.017  0.00  0.00     0.064 H 
ATOM     94  H35 ARG d   1      -5.724  34.328 -18.442  0.00  0.00     0.064 H 
BRANCH  92  95
ATOM     95  NE  ARG d   1      -6.357  34.364 -16.439  0.00  0.00    -0.227 N 
ATOM     96  CZ  ARG d   1      -7.142  33.917 -15.459  0.00  0.00     0.665 C 
ATOM     97  NH1 ARG d   1      -7.759  32.740 -15.574  0.00  0.00    -0.235 N 
ATOM     98  NH2 ARG d   1      -7.320  34.643 -14.368  0.00  0.00    -0.235 N 
ATOM     99  H37 ARG d   1      -8.364  32.400 -14.813  0.00  0.00     0.174 HD
ATOM    100  H38 ARG d   1      -7.630  32.172 -16.423  0.00  0.00     0.174 HD
ATOM    101  H39 ARG d   1      -6.847  35.553 -14.272  0.00  0.00     0.174 HD
ATOM    102  H40 ARG d   1      -7.932  34.298 -13.614  0.00  0.00     0.174 HD
ATOM    103  H36 ARG d   1      -5.920  35.289 -16.321  0.00  0.00     0.177 HD
ENDBRANCH  92  95
ENDBRANCH  89  92
ENDBRANCH  86  89
ENDBRANCH   1  86
TORSDOF 27
