REMARK  28 active torsions:
REMARK  status: ('A' for Active; 'I' for Inactive)
REMARK    1  A    between atoms: N_1  and  CA_2 
REMARK    2  A    between atoms: CA_2  and  C_3 
REMARK    3  A    between atoms: CA_2  and  CB_5 
REMARK       I    between atoms: C_3  and  N_13 
REMARK    4  A    between atoms: CB_5  and  CG_6 
REMARK    5  A    between atoms: CZ_11  and  OH_12 
REMARK    6  A    between atoms: CA_14  and  C_15 
REMARK       I    between atoms: C_15  and  N_20 
REMARK    7  A    between atoms: N_20  and  CA_21 
REMARK    8  A    between atoms: CA_21  and  C_22 
REMARK    9  A    between atoms: CA_21  and  CB_24 
REMARK       I    between atoms: C_22  and  N_29 
REMARK   10  A    between atoms: CB_24  and  CG_25 
REMARK   11  A    between atoms: CG_25  and  CD_26 
REMARK   12  A    between atoms: CD_26  and  CE_27 
REMARK   13  A    between atoms: CE_27  and  NZ_28 
REMARK   14  A    between atoms: N_29  and  CA_30 
REMARK   15  A    between atoms: CA_30  and  C_31 
REMARK   16  A    between atoms: CA_30  and  CB_33 
REMARK       I    between atoms: C_31  and  N_40 
REMARK   17  A    between atoms: CB_33  and  CG_34 
REMARK   18  A    between atoms: CG_34  and  CD_35 
REMARK   19  A    between atoms: CD_35  and  NE_36 
REMARK       I    between atoms: NE_36  and  CZ_37 
REMARK       I    between atoms: CZ_37  and  NH1_38 
REMARK   20  A    between atoms: N_40  and  CA_41 
REMARK   21  A    between atoms: CA_41  and  C_42 
REMARK   22  A    between atoms: CA_41  and  CB_44 
REMARK       I    between atoms: C_42  and  N_48 
REMARK   23  A    between atoms: CB_44  and  CG1_45 
REMARK   24  A    between atoms: CB_44  and  CG2_46 
REMARK   25  A    between atoms: CG1_45  and  CD1_47 
REMARK   26  A    between atoms: N_48  and  CA_49 
REMARK   27  A    between atoms: CA_49  and  C_50 
REMARK   28  A    between atoms: CA_49  and  CB_52 
ROOT
ATOM      1  CA  LYS d   1       0.904  32.965 -16.195  0.00  0.00     0.089 C 
ATOM      2  H20 LYS d   1       0.561  33.982 -15.953  0.00  0.00     0.087 H 
ENDROOT
BRANCH   1   3
ATOM      3  N   LYS d   1       1.694  32.448 -15.100  0.00  0.00    -0.346 N 
ATOM      4  C   PRO d   1       2.260  33.271 -14.225  0.00  0.00     0.241 C 
ATOM      5  O   PRO d   1       2.029  34.465 -14.166  0.00  0.00    -0.271 OA
ATOM      6  H19 LYS d   1       1.815  31.460 -15.001  0.00  0.00     0.163 HD
BRANCH   4   7
ATOM      7  CA  PRO d   1       3.303  32.648 -13.299  0.00  0.00     0.091 C 
ATOM      8  N   PRO d   1       4.532  33.437 -13.397  0.00  0.00    -0.337 N 
ATOM      9  C   TYR d   1       5.118  33.721 -14.570  0.00  0.00     0.251 C 
ATOM     10  CD  PRO d   1       4.989  33.897 -12.070  0.00  0.00    -0.001 C 
ATOM     11  O   TYR d   1       4.693  33.266 -15.623  0.00  0.00    -0.271 OA
ATOM     12  CG  PRO d   1       4.119  33.137 -11.143  0.00  0.00    -0.048 C 
ATOM     13  H17 PRO d   1       4.841  34.981 -11.954  0.00  0.00     0.064 H 
ATOM     14  H18 PRO d   1       6.049  33.652 -11.909  0.00  0.00     0.064 H 
ATOM     15  CB  PRO d   1       2.881  32.795 -11.826  0.00  0.00    -0.036 C 
ATOM     16  H15 PRO d   1       4.632  32.217 -10.827  0.00  0.00     0.035 H 
ATOM     17  H16 PRO d   1       3.895  33.753 -10.260  0.00  0.00     0.035 H 
ATOM     18  H13 PRO d   1       2.469  31.851 -11.440  0.00  0.00     0.036 H 
ATOM     19  H14 PRO d   1       2.135  33.595 -11.710  0.00  0.00     0.036 H 
ATOM     20  H12 PRO d   1       3.472  31.594 -13.563  0.00  0.00     0.087 H 
BRANCH   9  21
ATOM     21  CA  TYR d   1       6.286  34.671 -14.595  0.00  0.00     0.179 C 
ATOM     22  H4  TYR d   1       6.968  34.401 -13.776  0.00  0.00     0.099 H 
BRANCH  21  23
ATOM     23  N   TYR d   1       7.015  34.531 -15.890  0.00  0.00    -0.066 N 
ATOM     24  H1  TYR d   1       7.797  35.167 -15.906  0.00  0.00     0.275 HD
ATOM     25  H2  TYR d   1       6.391  34.746 -16.652  0.00  0.00     0.275 HD
ATOM     26  H3  TYR d   1       7.350  33.585 -15.987  0.00  0.00     0.275 HD
ENDBRANCH  21  23
BRANCH  21  27
ATOM     27  CB  TYR d   1       5.845  36.134 -14.391  0.00  0.00    -0.006 C 
ATOM     28  H5  TYR d   1       6.740  36.730 -14.160  0.00  0.00     0.043 H 
ATOM     29  H6  TYR d   1       5.154  36.165 -13.536  0.00  0.00     0.043 H 
BRANCH  27  30
ATOM     30  CG  TYR d   1       5.157  36.765 -15.568  0.00  0.00    -0.056 A 
ATOM     31  CD1 TYR d   1       3.820  36.525 -15.820  0.00  0.00    -0.074 A 
ATOM     32  CE1 TYR d   1       3.199  37.071 -16.925  0.00  0.00    -0.051 A 
ATOM     33  H7  TYR d   1       3.251  35.900 -15.141  0.00  0.00     0.084 H 
ATOM     34  CZ  TYR d   1       3.928  37.819 -17.786  0.00  0.00     0.065 A 
ATOM     35  H9  TYR d   1       2.143  36.903 -17.101  0.00  0.00     0.087 H 
ATOM     36  CE2 TYR d   1       5.259  38.062 -17.576  0.00  0.00    -0.051 A 
ATOM     37  CD2 TYR d   1       5.858  37.519 -16.460  0.00  0.00    -0.074 A 
ATOM     38  H10 TYR d   1       5.829  38.668 -18.272  0.00  0.00     0.087 H 
ATOM     39  H8  TYR d   1       6.913  37.696 -16.288  0.00  0.00     0.084 H 
BRANCH  34  40
ATOM     40  OH  TYR d   1       3.322  38.342 -18.903  0.00  0.00    -0.361 OA
ATOM     41  H11 TYR d   1       3.751  38.006 -19.681  0.00  0.00     0.217 HD
ENDBRANCH  34  40
ENDBRANCH  27  30
ENDBRANCH  21  27
ENDBRANCH   9  21
ENDBRANCH   4   7
ENDBRANCH   1   3
BRANCH   1  42
ATOM     42  C   LYS d   1      -0.290  32.094 -16.501  0.00  0.00     0.241 C 
ATOM     43  O   LYS d   1      -0.172  30.891 -16.634  0.00  0.00    -0.271 OA
ATOM     44  N   ARG d   1      -1.454  32.719 -16.694  0.00  0.00    -0.346 N 
ATOM     45  H32 ARG d   1      -1.507  33.710 -16.572  0.00  0.00     0.163 HD
BRANCH  44  46
ATOM     46  CA  ARG d   1      -2.661  31.970 -17.084  0.00  0.00     0.089 C 
ATOM     47  H33 ARG d   1      -2.885  31.235 -16.297  0.00  0.00     0.087 H 
BRANCH  46  48
ATOM     48  C   ARG d   1      -2.448  31.221 -18.404  0.00  0.00     0.241 C 
ATOM     49  O   ARG d   1      -1.895  31.788 -19.353  0.00  0.00    -0.271 OA
ATOM     50  N   ILE d   1      -2.890  29.974 -18.460  0.00  0.00    -0.346 N 
ATOM     51  H45 ILE d   1      -3.273  29.558 -17.635  0.00  0.00     0.163 HD
BRANCH  50  52
ATOM     52  CA  ILE d   1      -2.835  29.179 -19.702  0.00  0.00     0.092 C 
ATOM     53  H46 ILE d   1      -1.792  29.155 -20.052  0.00  0.00     0.088 H 
BRANCH  52  54
ATOM     54  C   ILE d   1      -3.680  29.889 -20.748  0.00  0.00     0.241 C 
ATOM     55  O   ILE d   1      -4.863  30.192 -20.521  0.00  0.00    -0.271 OA
ATOM     56  N   ALA d   1      -3.058  30.199 -21.892  0.00  0.00    -0.345 N 
ATOM     57  H56 ALA d   1      -2.095  29.959 -22.012  0.00  0.00     0.163 HD
BRANCH  56  58
ATOM     58  CA  ALA d   1      -3.766  30.878 -22.957  0.00  0.00     0.093 C 
ATOM     59  H57 ALA d   1      -4.390  31.674 -22.524  0.00  0.00     0.089 H 
BRANCH  58  60
ATOM     60  C   ALA d   1      -4.657  29.890 -23.682  0.00  0.00     0.196 C 
ATOM     61  O   ALA d   1      -4.449  28.673 -23.692  0.00  0.00    -0.646 OA
ATOM     62  OXT ALA d   1      -5.644  30.329 -24.275  0.00  0.00    -0.646 OA
ENDBRANCH  58  60
BRANCH  58  63
ATOM     63  CB  ALA d   1      -2.779  31.496 -23.922  0.00  0.00    -0.048 C 
ATOM     64  H58 ALA d   1      -3.325  32.009 -24.727  0.00  0.00     0.030 H 
ATOM     65  H59 ALA d   1      -2.146  30.707 -24.354  0.00  0.00     0.030 H 
ATOM     66  H60 ALA d   1      -2.148  32.221 -23.387  0.00  0.00     0.030 H 
ENDBRANCH  58  63
ENDBRANCH  56  58
ENDBRANCH  52  54
BRANCH  52  67
ATOM     67  CB  ILE d   1      -3.285  27.735 -19.497  0.00  0.00    -0.030 C 
ATOM     68  H47 ILE d   1      -4.292  27.738 -19.054  0.00  0.00     0.043 H 
BRANCH  67  69
ATOM     69  CG1 ILE d   1      -2.321  27.005 -18.543  0.00  0.00    -0.063 C 
ATOM     70  H48 ILE d   1      -2.250  27.587 -17.612  0.00  0.00     0.033 H 
ATOM     71  H49 ILE d   1      -1.332  26.957 -19.022  0.00  0.00     0.033 H 
BRANCH  69  72
ATOM     72  CD1 ILE d   1      -2.747  25.593 -18.190  0.00  0.00    -0.076 C 
ATOM     73  H53 ILE d   1      -2.008  25.146 -17.509  0.00  0.00     0.027 H 
ATOM     74  H54 ILE d   1      -2.812  24.989 -19.107  0.00  0.00     0.027 H 
ATOM     75  H55 ILE d   1      -3.730  25.619 -17.698  0.00  0.00     0.027 H 
ENDBRANCH  69  72
ENDBRANCH  67  69
BRANCH  67  76
ATOM     76  CG2 ILE d   1      -3.334  26.995 -20.829  0.00  0.00    -0.071 C 
ATOM     77  H50 ILE d   1      -4.022  27.515 -21.512  0.00  0.00     0.028 H 
ATOM     78  H51 ILE d   1      -3.688  25.967 -20.664  0.00  0.00     0.028 H 
ATOM     79  H52 ILE d   1      -2.327  26.970 -21.272  0.00  0.00     0.028 H 
ENDBRANCH  67  76
ENDBRANCH  52  67
ENDBRANCH  50  52
ENDBRANCH  46  48
BRANCH  46  80
ATOM     80  CB  ARG d   1      -3.849  32.923 -17.220  0.00  0.00    -0.036 C 
ATOM     81  H34 ARG d   1      -3.603  33.658 -18.000  0.00  0.00     0.036 H 
ATOM     82  H35 ARG d   1      -3.979  33.439 -16.257  0.00  0.00     0.036 H 
BRANCH  80  83
ATOM     83  CG  ARG d   1      -5.185  32.279 -17.589  0.00  0.00    -0.048 C 
ATOM     84  H36 ARG d   1      -5.448  31.529 -16.829  0.00  0.00     0.035 H 
ATOM     85  H37 ARG d   1      -5.093  31.790 -18.570  0.00  0.00     0.035 H 
BRANCH  83  86
ATOM     86  CD  ARG d   1      -6.281  33.330 -17.655  0.00  0.00     0.009 C 
ATOM     87  H38 ARG d   1      -7.154  32.910 -18.177  0.00  0.00     0.064 H 
ATOM     88  H39 ARG d   1      -5.910  34.206 -18.207  0.00  0.00     0.064 H 
BRANCH  86  89
ATOM     89  NE  ARG d   1      -6.675  33.740 -16.320  0.00  0.00    -0.227 N 
ATOM     90  CZ  ARG d   1      -7.532  33.057 -15.567  0.00  0.00     0.665 C 
ATOM     91  NH1 ARG d   1      -8.085  31.952 -16.035  0.00  0.00    -0.235 N 
ATOM     92  NH2 ARG d   1      -7.829  33.482 -14.359  0.00  0.00    -0.235 N 
ATOM     93  H41 ARG d   1      -8.749  31.422 -15.453  0.00  0.00     0.174 HD
ATOM     94  H42 ARG d   1      -7.852  31.621 -16.982  0.00  0.00     0.174 HD
ATOM     95  H43 ARG d   1      -7.397  34.344 -13.995  0.00  0.00     0.174 HD
ATOM     96  H44 ARG d   1      -8.494  32.953 -13.776  0.00  0.00     0.174 HD
ATOM     97  H40 ARG d   1      -6.270  34.605 -15.936  0.00  0.00     0.177 HD
ENDBRANCH  86  89
ENDBRANCH  83  86
ENDBRANCH  80  83
ENDBRANCH  46  80
ENDBRANCH  44  46
ENDBRANCH   1  42
BRANCH   1  98
ATOM     98  CB  LYS d   1       1.815  32.986 -17.449  0.00  0.00    -0.038 C 
ATOM     99  H21 LYS d   1       2.130  31.952 -17.651  0.00  0.00     0.036 H 
ATOM    100  H22 LYS d   1       2.697  33.598 -17.211  0.00  0.00     0.036 H 
BRANCH  98 101
ATOM    101  CG  LYS d   1       1.206  33.532 -18.707  0.00  0.00    -0.061 C 
ATOM    102  H23 LYS d   1       0.814  34.541 -18.512  0.00  0.00     0.033 H 
ATOM    103  H24 LYS d   1       0.384  32.875 -19.026  0.00  0.00     0.033 H 
BRANCH 101 104
ATOM    104  CD  LYS d   1       2.245  33.604 -19.809  0.00  0.00    -0.043 C 
ATOM    105  H25 LYS d   1       1.733  33.797 -20.763  0.00  0.00     0.035 H 
ATOM    106  H26 LYS d   1       2.769  32.638 -19.863  0.00  0.00     0.035 H 
BRANCH 104 107
ATOM    107  CE  LYS d   1       3.246  34.676 -19.581  0.00  0.00     0.080 C 
ATOM    108  H27 LYS d   1       3.942  34.350 -18.794  0.00  0.00     0.075 H 
ATOM    109  H28 LYS d   1       2.723  35.586 -19.254  0.00  0.00     0.075 H 
BRANCH 107 110
ATOM    110  NZ  LYS d   1       4.027  34.987 -20.815  0.00  0.00    -0.079 N 
ATOM    111  H29 LYS d   1       4.693  35.717 -20.616  0.00  0.00     0.274 HD
ATOM    112  H30 LYS d   1       3.399  35.293 -21.542  0.00  0.00     0.274 HD
ATOM    113  H31 LYS d   1       4.516  34.160 -21.120  0.00  0.00     0.274 HD
ENDBRANCH 107 110
ENDBRANCH 104 107
ENDBRANCH 101 104
ENDBRANCH  98 101
ENDBRANCH   1  98
TORSDOF 28
