REMARK  8 active torsions:
REMARK  status: ('A' for Active; 'I' for Inactive)
REMARK    1  A    between atoms: O2_14  and  C1_1 
REMARK    2  A    between atoms: C3_2  and  O2_14 
REMARK    3  A    between atoms: C8_4  and  O9_18 
REMARK    4  A    between atoms: O9_18  and  C10_5 
REMARK    5  A    between atoms: C12_6  and  C5_16 
REMARK    6  A    between atoms: N21_26  and  C22_10 
REMARK    7  A    between atoms: C22_10  and  C23_27 
REMARK    8  A    between atoms: C17_22  and  N21_26 
ROOT
ATOM      1  C12 5JG d   1     -17.845 -20.332  15.232  0.00  0.00     0.144 A 
ATOM      2  C14 5JG d   1     -16.115 -21.085  14.097  0.00  0.00     0.180 A 
ATOM      3  C15 5JG d   1     -15.951 -21.318  15.453  0.00  0.00     0.110 A 
ATOM      4  C19 5JG d   1     -14.139 -22.053  13.531  0.00  0.00     0.028 A 
ATOM      5  N13 5JG d   1     -17.332 -20.448  13.970  0.00  0.00    -0.208 NA
ATOM      6  N16 5JG d   1     -17.042 -20.843  16.155  0.00  0.00    -0.335 N 
ATOM      7  C17 5JG d   1     -14.774 -21.967  15.860  0.00  0.00     0.082 A 
ATOM      8  C18 5JG d   1     -13.871 -22.335  14.861  0.00  0.00     0.080 A 
ATOM      9  N20 5JG d   1     -15.253 -21.428  13.127  0.00  0.00    -0.238 NA
ATOM     10 CL   5JG d   1     -12.403 -23.155  15.295  0.00  0.00    -0.080 Cl
ATOM     11  H8  5JG d   1     -13.414 -22.352  12.783  0.00  0.00     0.117 H 
ATOM     12  H18 5JG d   1     -17.198 -20.878  17.173  0.00  0.00     0.168 HD
ENDROOT
BRANCH   7  13
ATOM     13  N21 5JG d   1     -14.501 -22.219  17.221  0.00  0.00    -0.386 N 
ATOM     14  H19 5JG d   1     -13.626 -22.704  17.465  0.00  0.00     0.159 HD
BRANCH  13  15
ATOM     15  C22 5JG d   1     -15.398 -21.826  18.294  0.00  0.00    -0.004 C 
ATOM     16  H9  5JG d   1     -16.312 -21.439  17.820  0.00  0.00     0.064 H 
ATOM     17  H10 5JG d   1     -14.900 -21.015  18.846  0.00  0.00     0.064 H 
BRANCH  15  18
ATOM     18  C23 5JG d   1     -15.832 -22.848  19.314  0.00  0.00    -0.036 C 
ATOM     19  C24 5JG d   1     -17.234 -22.430  19.749  0.00  0.00    -0.038 C 
ATOM     20  C25 5JG d   1     -17.812 -23.437  20.713  0.00  0.00     0.082 C 
ATOM     21  H11 5JG d   1     -17.883 -22.363  18.863  0.00  0.00     0.036 H 
ATOM     22  H12 5JG d   1     -17.182 -21.447  20.240  0.00  0.00     0.036 H 
ATOM     23  N26 5JG d   1     -17.759 -24.820  20.206  0.00  0.00    -0.075 N 
ATOM     24  H21 5JG d   1     -18.863 -23.175  20.905  0.00  0.00     0.075 H 
ATOM     25  H22 5JG d   1     -17.244 -23.387  21.654  0.00  0.00     0.075 H 
ATOM     26  C27 5JG d   1     -16.435 -25.193  19.667  0.00  0.00     0.082 C 
ATOM     27  H13 5JG d   1     -17.985 -25.447  20.962  0.00  0.00     0.277 HD
ATOM     28  H14 5JG d   1     -18.443 -24.918  19.472  0.00  0.00     0.277 HD
ATOM     29  C28 5JG d   1     -15.891 -24.220  18.659  0.00  0.00    -0.038 C 
ATOM     30  H15 5JG d   1     -16.522 -26.178  19.185  0.00  0.00     0.075 H 
ATOM     31  H16 5JG d   1     -15.725 -25.256  20.505  0.00  0.00     0.075 H 
ATOM     32  H23 5JG d   1     -16.551 -24.186  17.779  0.00  0.00     0.036 H 
ATOM     33  H24 5JG d   1     -14.882 -24.529  18.349  0.00  0.00     0.036 H 
ATOM     34  H20 5JG d   1     -15.143 -22.866  20.172  0.00  0.00     0.042 H 
ENDBRANCH  15  18
ENDBRANCH  13  15
ENDBRANCH   7  13
BRANCH   1  35
ATOM     35  C5  5JG d   1     -19.129 -19.717  15.597  0.00  0.00     0.051 A 
ATOM     36  C4  5JG d   1     -19.521 -19.688  16.936  0.00  0.00    -0.031 A 
ATOM     37  C3  5JG d   1     -20.731 -19.122  17.311  0.00  0.00     0.102 A 
ATOM     38  H17 5JG d   1     -18.872 -20.113  17.693  0.00  0.00     0.089 H 
ATOM     39  C8  5JG d   1     -21.578 -18.561  16.330  0.00  0.00     0.104 A 
ATOM     40  C7  5JG d   1     -21.194 -18.580  14.997  0.00  0.00    -0.010 A 
ATOM     41  C6  5JG d   1     -19.989 -19.152  14.665  0.00  0.00     0.133 A 
ATOM     42  H4  5JG d   1     -21.832 -18.152  14.232  0.00  0.00     0.092 H 
ATOM     43  F11 5JG d   1     -19.624 -19.155  13.368  0.00  0.00    -0.205 F 
BRANCH  37  44
ATOM     44  O2  5JG d   1     -21.199 -19.064  18.597  0.00  0.00    -0.353 OA
BRANCH  44  45
ATOM     45  C1  5JG d   1     -20.862 -20.142  19.479  0.00  0.00     0.010 C 
ATOM     46  H1  5JG d   1     -21.305 -19.958  20.469  0.00  0.00     0.066 H 
ATOM     47  H2  5JG d   1     -19.768 -20.210  19.573  0.00  0.00     0.066 H 
ATOM     48  H3  5JG d   1     -21.255 -21.085  19.072  0.00  0.00     0.066 H 
ENDBRANCH  44  45
ENDBRANCH  37  44
BRANCH  39  49
ATOM     49  O9  5JG d   1     -22.748 -18.032  16.805  0.00  0.00    -0.353 OA
BRANCH  49  50
ATOM     50  C10 5JG d   1     -23.746 -17.653  15.854  0.00  0.00     0.010 C 
ATOM     51  H5  5JG d   1     -24.621 -17.248  16.383  0.00  0.00     0.066 H 
ATOM     52  H6  5JG d   1     -24.047 -18.534  15.268  0.00  0.00     0.066 H 
ATOM     53  H7  5JG d   1     -23.338 -16.886  15.180  0.00  0.00     0.066 H 
ENDBRANCH  49  50
ENDBRANCH  39  49
ENDBRANCH   1  35
TORSDOF 8
