REMARK  24 active torsions:
REMARK  status: ('A' for Active; 'I' for Inactive)
REMARK    1  A    between atoms: CA_2  and  C_3 
REMARK       I    between atoms: C_3  and  N_8 
REMARK    2  A    between atoms: CA_9  and  C_10 
REMARK       I    between atoms: C_10  and  N_15 
REMARK    3  A    between atoms: N_15  and  CA_16 
REMARK    4  A    between atoms: CA_16  and  C_17 
REMARK    5  A    between atoms: CA_16  and  CB_19 
REMARK       I    between atoms: C_17  and  N_24 
REMARK    6  A    between atoms: CB_19  and  CG_20 
REMARK    7  A    between atoms: CG_20  and  CD_21 
REMARK    8  A    between atoms: CD_21  and  CE_22 
REMARK    9  A    between atoms: CE_22  and  NZ_23 
REMARK   10  A    between atoms: N_24  and  CA_25 
REMARK   11  A    between atoms: CA_25  and  C_26 
REMARK   12  A    between atoms: CA_25  and  CB_28 
REMARK       I    between atoms: C_26  and  N_35 
REMARK   13  A    between atoms: CB_28  and  CG_29 
REMARK   14  A    between atoms: CG_29  and  CD_30 
REMARK   15  A    between atoms: CD_30  and  NE_31 
REMARK       I    between atoms: NE_31  and  CZ_32 
REMARK       I    between atoms: CZ_32  and  NH1_33 
REMARK   16  A    between atoms: N_35  and  CA_36 
REMARK   17  A    between atoms: CA_36  and  C_37 
REMARK   18  A    between atoms: CA_36  and  CB_39 
REMARK       I    between atoms: C_37  and  N_43 
REMARK   19  A    between atoms: CB_39  and  CG1_40 
REMARK   20  A    between atoms: CB_39  and  CG2_41 
REMARK   21  A    between atoms: CG1_40  and  CD1_42 
REMARK   22  A    between atoms: N_43  and  CA_44 
REMARK   23  A    between atoms: CA_44  and  C_45 
REMARK   24  A    between atoms: CA_44  and  CB_47 
ROOT
ATOM      1  C   LYS d   1      -0.051  32.483 -16.354  0.00  0.00     0.241 C 
ATOM      2  O   LYS d   1       0.148  31.262 -16.491  0.00  0.00    -0.271 OA
ATOM      3  N   ARG d   1      -1.246  33.060 -16.537  0.00  0.00    -0.346 N 
ATOM      4  H30 ARG d   1      -1.339  34.044 -16.386  0.00  0.00     0.163 HD
ENDROOT
BRANCH   3   5
ATOM      5  CA  ARG d   1      -2.411  32.297 -16.949  0.00  0.00     0.089 C 
ATOM      6  H31 ARG d   1      -2.597  31.521 -16.192  0.00  0.00     0.087 H 
BRANCH   5   7
ATOM      7  C   ARG d   1      -2.166  31.598 -18.297  0.00  0.00     0.241 C 
ATOM      8  O   ARG d   1      -1.575  32.173 -19.219  0.00  0.00    -0.271 OA
ATOM      9  N   ILE d   1      -2.594  30.347 -18.380  0.00  0.00    -0.346 N 
ATOM     10  H43 ILE d   1      -2.983  29.919 -17.564  0.00  0.00     0.163 HD
BRANCH   9  11
ATOM     11  CA  ILE d   1      -2.521  29.566 -19.613  0.00  0.00     0.092 C 
ATOM     12  H44 ILE d   1      -1.481  29.552 -19.971  0.00  0.00     0.088 H 
BRANCH  11  13
ATOM     13  C   ILE d   1      -3.400  30.277 -20.629  0.00  0.00     0.241 C 
ATOM     14  O   ILE d   1      -4.576  30.539 -20.370  0.00  0.00    -0.271 OA
ATOM     15  N   ALA d   1      -2.800  30.652 -21.754  0.00  0.00    -0.345 N 
ATOM     16  H54 ALA d   1      -1.817  30.496 -21.850  0.00  0.00     0.163 HD
BRANCH  15  17
ATOM     17  CA  ALA d   1      -3.523  31.285 -22.859  0.00  0.00     0.093 C 
ATOM     18  H55 ALA d   1      -4.086  32.144 -22.464  0.00  0.00     0.089 H 
BRANCH  17  19
ATOM     19  C   ALA d   1      -4.500  30.315 -23.501  0.00  0.00     0.196 C 
ATOM     20  O   ALA d   1      -4.285  29.107 -23.500  0.00  0.00    -0.646 OA
ATOM     21  OXT ALA d   1      -5.528  30.747 -24.033  0.00  0.00    -0.646 OA
ENDBRANCH  17  19
BRANCH  17  22
ATOM     22  CB  ALA d   1      -2.538  31.780 -23.906  0.00  0.00    -0.048 C 
ATOM     23  H56 ALA d   1      -3.088  32.254 -24.732  0.00  0.00     0.030 H 
ATOM     24  H57 ALA d   1      -1.956  30.930 -24.293  0.00  0.00     0.030 H 
ATOM     25  H58 ALA d   1      -1.857  32.514 -23.451  0.00  0.00     0.030 H 
ENDBRANCH  17  22
ENDBRANCH  15  17
ENDBRANCH  11  13
BRANCH  11  26
ATOM     26  CB  ILE d   1      -2.988  28.109 -19.420  0.00  0.00    -0.030 C 
ATOM     27  H45 ILE d   1      -3.994  28.127 -18.976  0.00  0.00     0.043 H 
BRANCH  26  28
ATOM     28  CG1 ILE d   1      -2.042  27.371 -18.469  0.00  0.00    -0.063 C 
ATOM     29  H46 ILE d   1      -1.930  27.974 -17.556  0.00  0.00     0.033 H 
ATOM     30  H47 ILE d   1      -1.065  27.270 -18.964  0.00  0.00     0.033 H 
BRANCH  28  31
ATOM     31  CD1 ILE d   1      -2.518  25.989 -18.070  0.00  0.00    -0.076 C 
ATOM     32  H51 ILE d   1      -1.785  25.531 -17.390  0.00  0.00     0.027 H 
ATOM     33  H52 ILE d   1      -2.625  25.364 -18.969  0.00  0.00     0.027 H 
ATOM     34  H53 ILE d   1      -3.490  26.069 -17.561  0.00  0.00     0.027 H 
ENDBRANCH  28  31
ENDBRANCH  26  28
BRANCH  26  35
ATOM     35  CG2 ILE d   1      -3.057  27.348 -20.746  0.00  0.00    -0.071 C 
ATOM     36  H48 ILE d   1      -3.735  27.873 -21.435  0.00  0.00     0.028 H 
ATOM     37  H49 ILE d   1      -3.433  26.330 -20.566  0.00  0.00     0.028 H 
ATOM     38  H50 ILE d   1      -2.052  27.294 -21.191  0.00  0.00     0.028 H 
ENDBRANCH  26  35
ENDBRANCH  11  26
ENDBRANCH   9  11
ENDBRANCH   5   7
BRANCH   5  39
ATOM     39  CB  ARG d   1      -3.642  33.199 -17.020  0.00  0.00    -0.036 C 
ATOM     40  H32 ARG d   1      -3.473  33.951 -17.805  0.00  0.00     0.036 H 
ATOM     41  H33 ARG d   1      -3.756  33.703 -16.049  0.00  0.00     0.036 H 
BRANCH  39  42
ATOM     42  CG  ARG d   1      -4.944  32.468 -17.333  0.00  0.00    -0.048 C 
ATOM     43  H34 ARG d   1      -5.179  31.778 -16.509  0.00  0.00     0.035 H 
ATOM     44  H35 ARG d   1      -4.824  31.898 -18.266  0.00  0.00     0.035 H 
BRANCH  42  45
ATOM     45  CD  ARG d   1      -6.082  33.460 -17.495  0.00  0.00     0.009 C 
ATOM     46  H36 ARG d   1      -6.972  32.942 -17.881  0.00  0.00     0.064 H 
ATOM     47  H37 ARG d   1      -5.785  34.252 -18.198  0.00  0.00     0.064 H 
BRANCH  45  48
ATOM     48  NE  ARG d   1      -6.381  34.044 -16.197  0.00  0.00    -0.227 N 
ATOM     49  CZ  ARG d   1      -7.234  33.549 -15.299  0.00  0.00     0.665 C 
ATOM     50  NH1 ARG d   1      -7.947  32.457 -15.547  0.00  0.00    -0.235 N 
ATOM     51  NH2 ARG d   1      -7.389  34.178 -14.141  0.00  0.00    -0.235 N 
ATOM     52  H39 ARG d   1      -8.599  32.095 -14.836  0.00  0.00     0.174 HD
ATOM     53  H40 ARG d   1      -7.848  31.971 -16.450  0.00  0.00     0.174 HD
ATOM     54  H41 ARG d   1      -6.841  35.026 -13.938  0.00  0.00     0.174 HD
ATOM     55  H42 ARG d   1      -8.057  33.818 -13.445  0.00  0.00     0.174 HD
ATOM     56  H38 ARG d   1      -5.891  34.916 -15.950  0.00  0.00     0.177 HD
ENDBRANCH  45  48
ENDBRANCH  42  45
ENDBRANCH  39  42
ENDBRANCH   5  39
ENDBRANCH   3   5
BRANCH   1  57
ATOM     57  CA  LYS d   1       1.060  33.444 -15.980  0.00  0.00     0.089 C 
ATOM     58  H18 LYS d   1       0.604  34.226 -15.356  0.00  0.00     0.087 H 
BRANCH  57  59
ATOM     59  N   LYS d   1       2.156  32.856 -15.190  0.00  0.00    -0.346 N 
ATOM     60  C   PRO d   1       2.959  33.613 -14.452  0.00  0.00     0.241 C 
ATOM     61  O   PRO d   1       2.861  34.846 -14.356  0.00  0.00    -0.271 OA
ATOM     62  H17 LYS d   1       2.298  31.866 -15.210  0.00  0.00     0.163 HD
BRANCH  60  63
ATOM     63  CA  PRO d   1       4.116  32.922 -13.745  0.00  0.00     0.091 C 
ATOM     64  N   PRO d   1       5.274  33.812 -13.738  0.00  0.00    -0.337 N 
ATOM     65  C   PRO d   1       5.671  34.315 -14.916  0.00  0.00     0.251 C 
ATOM     66  CD  PRO d   1       5.647  34.231 -12.375  0.00  0.00    -0.001 C 
ATOM     67  O   PRO d   1       5.253  33.874 -15.998  0.00  0.00    -0.271 OA
ATOM     68  CG  PRO d   1       4.402  33.885 -11.588  0.00  0.00    -0.048 C 
ATOM     69  H15 PRO d   1       5.860  35.309 -12.332  0.00  0.00     0.064 H 
ATOM     70  H16 PRO d   1       6.520  33.670 -12.009  0.00  0.00     0.064 H 
ATOM     71  CB  PRO d   1       3.799  32.731 -12.243  0.00  0.00    -0.036 C 
ATOM     72  H13 PRO d   1       4.667  33.636 -10.550  0.00  0.00     0.035 H 
ATOM     73  H14 PRO d   1       3.702  34.733 -11.594  0.00  0.00     0.035 H 
ATOM     74  H11 PRO d   1       4.243  31.797 -11.869  0.00  0.00     0.036 H 
ATOM     75  H12 PRO d   1       2.712  32.714 -12.075  0.00  0.00     0.036 H 
ATOM     76  H10 PRO d   1       4.343  31.963 -14.233  0.00  0.00     0.087 H 
BRANCH  65  77
ATOM     77  CA  PRO d   1       6.592  35.508 -14.896  0.00  0.00     0.178 C 
ATOM     78  N   PRO d   1       7.022  35.815 -16.280  0.00  0.00    -0.062 N 
ATOM     79  CD  PRO d   1       6.238  36.933 -16.865  0.00  0.00     0.083 C 
ATOM     80  H1  PRO d   1       6.896  34.994 -16.851  0.00  0.00     0.278 HD
ATOM     81  H2  PRO d   1       7.997  36.070 -16.270  0.00  0.00     0.278 HD
ATOM     82  CG  PRO d   1       5.167  37.209 -15.808  0.00  0.00    -0.040 C 
ATOM     83  H8  PRO d   1       5.780  36.635 -17.820  0.00  0.00     0.075 H 
ATOM     84  H9  PRO d   1       6.872  37.818 -17.023  0.00  0.00     0.075 H 
ATOM     85  CB  PRO d   1       5.783  36.771 -14.511  0.00  0.00    -0.028 C 
ATOM     86  H6  PRO d   1       4.921  38.281 -15.777  0.00  0.00     0.035 H 
ATOM     87  H7  PRO d   1       4.256  36.629 -16.019  0.00  0.00     0.035 H 
ATOM     88  H4  PRO d   1       6.444  37.552 -14.107  0.00  0.00     0.036 H 
ATOM     89  H5  PRO d   1       5.007  36.529 -13.770  0.00  0.00     0.036 H 
ATOM     90  H3  PRO d   1       7.444  35.336 -14.222  0.00  0.00     0.099 H 
ENDBRANCH  65  77
ENDBRANCH  60  63
ENDBRANCH  57  59
BRANCH  57  91
ATOM     91  CB  LYS d   1       1.630  34.127 -17.250  0.00  0.00    -0.038 C 
ATOM     92  H19 LYS d   1       2.445  34.804 -16.956  0.00  0.00     0.036 H 
ATOM     93  H20 LYS d   1       0.829  34.706 -17.734  0.00  0.00     0.036 H 
BRANCH  91  94
ATOM     94  CG  LYS d   1       2.169  33.108 -18.241  0.00  0.00    -0.061 C 
ATOM     95  H21 LYS d   1       1.376  32.377 -18.456  0.00  0.00     0.033 H 
ATOM     96  H22 LYS d   1       3.026  32.594 -17.782  0.00  0.00     0.033 H 
BRANCH  94  97
ATOM     97  CD  LYS d   1       2.626  33.729 -19.560  0.00  0.00    -0.043 C 
ATOM     98  H23 LYS d   1       1.764  34.227 -20.028  0.00  0.00     0.035 H 
ATOM     99  H24 LYS d   1       2.987  32.925 -20.218  0.00  0.00     0.035 H 
BRANCH  97 100
ATOM    100  CE  LYS d   1       3.735  34.745 -19.391  0.00  0.00     0.080 C 
ATOM    101  H25 LYS d   1       4.533  34.289 -18.787  0.00  0.00     0.075 H 
ATOM    102  H26 LYS d   1       3.326  35.618 -18.860  0.00  0.00     0.075 H 
BRANCH 100 103
ATOM    103  NZ  LYS d   1       4.330  35.214 -20.675  0.00  0.00    -0.079 N 
ATOM    104  H27 LYS d   1       5.057  35.885 -20.483  0.00  0.00     0.274 HD
ATOM    105  H28 LYS d   1       3.615  35.646 -21.239  0.00  0.00     0.274 HD
ATOM    106  H29 LYS d   1       4.720  34.428 -21.171  0.00  0.00     0.274 HD
ENDBRANCH 100 103
ENDBRANCH  97 100
ENDBRANCH  94  97
ENDBRANCH  91  94
ENDBRANCH  57  91
ENDBRANCH   1  57
TORSDOF 24
