REMARK  29 active torsions:
REMARK  status: ('A' for Active; 'I' for Inactive)
REMARK    1  A    between atoms: N_1  and  CA_2 
REMARK    2  A    between atoms: CA_2  and  C_3 
REMARK    3  A    between atoms: CA_2  and  CB_5 
REMARK       I    between atoms: C_3  and  N_12 
REMARK    4  A    between atoms: CB_5  and  CG_6 
REMARK    5  A    between atoms: CG_6  and  CD_7 
REMARK    6  A    between atoms: CD_7  and  NE_8 
REMARK       I    between atoms: NE_8  and  CZ_9 
REMARK       I    between atoms: CZ_9  and  NH1_10 
REMARK       I    between atoms: CZ_9  and  NH2_11 
REMARK    7  A    between atoms: CA_13  and  C_14 
REMARK       I    between atoms: C_14  and  N_19 
REMARK    8  A    between atoms: N_19  and  CA_20 
REMARK    9  A    between atoms: CA_20  and  C_21 
REMARK   10  A    between atoms: CA_20  and  CB_23 
REMARK       I    between atoms: C_21  and  N_28 
REMARK   11  A    between atoms: CB_23  and  CG_24 
REMARK   12  A    between atoms: CG_24  and  CD_25 
REMARK   13  A    between atoms: CD_25  and  CE_26 
REMARK   14  A    between atoms: CE_26  and  NZ_27 
REMARK   15  A    between atoms: N_28  and  CA_29 
REMARK   16  A    between atoms: CA_29  and  C_30 
REMARK   17  A    between atoms: CA_29  and  CB_32 
REMARK       I    between atoms: C_30  and  N_39 
REMARK   18  A    between atoms: CB_32  and  CG_33 
REMARK   19  A    between atoms: CG_33  and  CD_34 
REMARK   20  A    between atoms: CD_34  and  NE_35 
REMARK       I    between atoms: NE_35  and  CZ_36 
REMARK       I    between atoms: CZ_36  and  NH1_37 
REMARK   21  A    between atoms: N_39  and  CA_40 
REMARK   22  A    between atoms: CA_40  and  C_41 
REMARK   23  A    between atoms: CA_40  and  CB_43 
REMARK       I    between atoms: C_41  and  N_47 
REMARK   24  A    between atoms: CB_43  and  CG1_44 
REMARK   25  A    between atoms: CB_43  and  CG2_45 
REMARK   26  A    between atoms: CG1_44  and  CD1_46 
REMARK   27  A    between atoms: N_47  and  CA_48 
REMARK   28  A    between atoms: CA_48  and  C_49 
REMARK   29  A    between atoms: CA_48  and  CB_51 
ROOT
ATOM      1  CA  LYS d   1       1.084  33.743 -16.108  0.00  0.00     0.089 C 
ATOM      2  H24 LYS d   1       0.637  34.551 -15.510  0.00  0.00     0.087 H 
ENDROOT
BRANCH   1   3
ATOM      3  N   LYS d   1       2.180  33.192 -15.326  0.00  0.00    -0.346 N 
ATOM      4  C   PRO d   1       3.044  33.988 -14.709  0.00  0.00     0.241 C 
ATOM      5  O   PRO d   1       2.949  35.198 -14.698  0.00  0.00    -0.271 OA
ATOM      6  H23 LYS d   1       2.284  32.200 -15.252  0.00  0.00     0.163 HD
BRANCH   4   7
ATOM      7  CA  PRO d   1       4.247  33.343 -14.028  0.00  0.00     0.091 C 
ATOM      8  N   PRO d   1       5.421  34.234 -14.079  0.00  0.00    -0.337 N 
ATOM      9  C   ARG d   1       5.982  34.505 -15.281  0.00  0.00     0.251 C 
ATOM     10  CD  PRO d   1       5.797  34.726 -12.744  0.00  0.00    -0.001 C 
ATOM     11  O   ARG d   1       5.600  33.951 -16.320  0.00  0.00    -0.271 OA
ATOM     12  CG  PRO d   1       4.646  34.313 -11.878  0.00  0.00    -0.048 C 
ATOM     13  H21 PRO d   1       5.913  35.820 -12.747  0.00  0.00     0.064 H 
ATOM     14  H22 PRO d   1       6.732  34.259 -12.403  0.00  0.00     0.064 H 
ATOM     15  CB  PRO d   1       3.973  33.171 -12.527  0.00  0.00    -0.036 C 
ATOM     16  H19 PRO d   1       5.014  34.014 -10.885  0.00  0.00     0.035 H 
ATOM     17  H20 PRO d   1       3.941  35.150 -11.771  0.00  0.00     0.035 H 
ATOM     18  H17 PRO d   1       4.391  32.220 -12.165  0.00  0.00     0.036 H 
ATOM     19  H18 PRO d   1       2.892  33.196 -12.327  0.00  0.00     0.036 H 
ATOM     20  H16 PRO d   1       4.468  32.376 -14.503  0.00  0.00     0.087 H 
BRANCH   9  21
ATOM     21  CA  ARG d   1       7.120  35.513 -15.338  0.00  0.00     0.176 C 
ATOM     22  H4  ARG d   1       7.724  35.425 -14.423  0.00  0.00     0.099 H 
BRANCH  21  23
ATOM     23  N   ARG d   1       7.987  35.238 -16.526  0.00  0.00    -0.067 N 
ATOM     24  H1  ARG d   1       8.738  35.910 -16.556  0.00  0.00     0.275 HD
ATOM     25  H2  ARG d   1       7.437  35.311 -17.367  0.00  0.00     0.275 HD
ATOM     26  H3  ARG d   1       8.370  34.309 -16.454  0.00  0.00     0.275 HD
ENDBRANCH  21  23
BRANCH  21  27
ATOM     27  CB  ARG d   1       6.553  36.942 -15.432  0.00  0.00    -0.029 C 
ATOM     28  H5  ARG d   1       7.382  37.628 -15.659  0.00  0.00     0.036 H 
ATOM     29  H6  ARG d   1       6.116  37.205 -14.457  0.00  0.00     0.036 H 
BRANCH  27  30
ATOM     30  CG  ARG d   1       5.483  37.117 -16.498  0.00  0.00    -0.047 C 
ATOM     31  H7  ARG d   1       4.511  36.827 -16.072  0.00  0.00     0.035 H 
ATOM     32  H8  ARG d   1       5.722  36.461 -17.348  0.00  0.00     0.035 H 
BRANCH  30  33
ATOM     33  CD  ARG d   1       5.386  38.546 -17.000  0.00  0.00     0.009 C 
ATOM     34  H9  ARG d   1       6.365  38.861 -17.389  0.00  0.00     0.064 H 
ATOM     35  H10 ARG d   1       5.093  39.204 -16.169  0.00  0.00     0.064 H 
BRANCH  33  36
ATOM     36  NE  ARG d   1       4.389  38.643 -18.067  0.00  0.00    -0.227 N 
ATOM     37  CZ  ARG d   1       3.082  38.729 -17.871  0.00  0.00     0.665 C 
ATOM     38  NH1 ARG d   1       2.574  38.759 -16.650  0.00  0.00    -0.235 N 
ATOM     39  NH2 ARG d   1       2.272  38.798 -18.901  0.00  0.00    -0.235 N 
ATOM     40  H12 ARG d   1       1.555  38.826 -16.518  0.00  0.00     0.174 HD
ATOM     41  H13 ARG d   1       3.198  38.715 -15.832  0.00  0.00     0.174 HD
ATOM     42  H14 ARG d   1       2.653  38.776 -19.858  0.00  0.00     0.174 HD
ATOM     43  H15 ARG d   1       1.256  38.874 -18.753  0.00  0.00     0.174 HD
ATOM     44  H11 ARG d   1       4.728  38.645 -19.040  0.00  0.00     0.177 HD
ENDBRANCH  33  36
ENDBRANCH  30  33
ENDBRANCH  27  30
ENDBRANCH  21  27
ENDBRANCH   9  21
ENDBRANCH   4   7
ENDBRANCH   1   3
BRANCH   1  45
ATOM     45  C   LYS d   1      -0.008  32.752 -16.400  0.00  0.00     0.241 C 
ATOM     46  O   LYS d   1       0.201  31.534 -16.466  0.00  0.00    -0.271 OA
ATOM     47  N   ARG d   1      -1.196  33.301 -16.636  0.00  0.00    -0.346 N 
ATOM     48  H36 ARG d   1      -1.282  34.295 -16.564  0.00  0.00     0.163 HD
BRANCH  47  49
ATOM     49  CA  ARG d   1      -2.375  32.531 -16.993  0.00  0.00     0.089 C 
ATOM     50  H37 ARG d   1      -2.579  31.789 -16.207  0.00  0.00     0.087 H 
BRANCH  49  51
ATOM     51  C   ARG d   1      -2.114  31.797 -18.312  0.00  0.00     0.241 C 
ATOM     52  O   ARG d   1      -1.504  32.345 -19.230  0.00  0.00    -0.271 OA
ATOM     53  N   ILE d   1      -2.538  30.543 -18.361  0.00  0.00    -0.346 N 
ATOM     54  H49 ILE d   1      -2.895  30.125 -17.526  0.00  0.00     0.163 HD
BRANCH  53  55
ATOM     55  CA  ILE d   1      -2.506  29.760 -19.561  0.00  0.00     0.092 C 
ATOM     56  H50 ILE d   1      -1.469  29.701 -19.922  0.00  0.00     0.088 H 
BRANCH  55  57
ATOM     57  C   ILE d   1      -3.364  30.462 -20.616  0.00  0.00     0.241 C 
ATOM     58  O   ILE d   1      -4.553  30.731 -20.400  0.00  0.00    -0.271 OA
ATOM     59  N   ALA d   1      -2.729  30.796 -21.735  0.00  0.00    -0.345 N 
ATOM     60  H60 ALA d   1      -1.747  30.620 -21.806  0.00  0.00     0.163 HD
BRANCH  59  61
ATOM     61  CA  ALA d   1      -3.416  31.409 -22.858  0.00  0.00     0.093 C 
ATOM     62  H61 ALA d   1      -3.971  32.285 -22.492  0.00  0.00     0.089 H 
BRANCH  61  63
ATOM     63  C   ALA d   1      -4.415  30.424 -23.474  0.00  0.00     0.196 C 
ATOM     64  O   ALA d   1      -4.229  29.191 -23.455  0.00  0.00    -0.646 OA
ATOM     65  OXT ALA d   1      -5.452  30.855 -23.999  0.00  0.00    -0.646 OA
ENDBRANCH  61  63
BRANCH  61  66
ATOM     66  CB  ALA d   1      -2.407  31.877 -23.904  0.00  0.00    -0.048 C 
ATOM     67  H62 ALA d   1      -2.941  32.339 -24.748  0.00  0.00     0.030 H 
ATOM     68  H63 ALA d   1      -1.827  31.015 -24.265  0.00  0.00     0.030 H 
ATOM     69  H64 ALA d   1      -1.727  32.614 -23.453  0.00  0.00     0.030 H 
ENDBRANCH  61  66
ENDBRANCH  59  61
ENDBRANCH  55  57
BRANCH  55  70
ATOM     70  CB  ILE d   1      -3.015  28.335 -19.309  0.00  0.00    -0.030 C 
ATOM     71  H51 ILE d   1      -3.972  28.396 -18.770  0.00  0.00     0.043 H 
BRANCH  70  72
ATOM     72  CG1 ILE d   1      -2.000  27.589 -18.422  0.00  0.00    -0.063 C 
ATOM     73  H52 ILE d   1      -1.887  28.150 -17.483  0.00  0.00     0.033 H 
ATOM     74  H53 ILE d   1      -1.036  27.562 -18.951  0.00  0.00     0.033 H 
BRANCH  72  75
ATOM     75  CD1 ILE d   1      -2.392  26.163 -18.078  0.00  0.00    -0.076 C 
ATOM     76  H57 ILE d   1      -1.613  25.711 -17.446  0.00  0.00     0.027 H 
ATOM     77  H58 ILE d   1      -2.498  25.578 -19.004  0.00  0.00     0.027 H 
ATOM     78  H59 ILE d   1      -3.349  26.166 -17.535  0.00  0.00     0.027 H 
ENDBRANCH  72  75
ENDBRANCH  70  72
BRANCH  70  79
ATOM     79  CG2 ILE d   1      -3.257  27.586 -20.626  0.00  0.00    -0.071 C 
ATOM     80  H54 ILE d   1      -3.984  28.142 -21.236  0.00  0.00     0.028 H 
ATOM     81  H55 ILE d   1      -3.651  26.582 -20.410  0.00  0.00     0.028 H 
ATOM     82  H56 ILE d   1      -2.309  27.497 -21.177  0.00  0.00     0.028 H 
ENDBRANCH  70  79
ENDBRANCH  55  70
ENDBRANCH  53  55
ENDBRANCH  49  51
BRANCH  49  83
ATOM     83  CB  ARG d   1      -3.581  33.489 -17.102  0.00  0.00    -0.036 C 
ATOM     84  H38 ARG d   1      -3.302  34.300 -17.791  0.00  0.00     0.036 H 
ATOM     85  H39 ARG d   1      -3.768  33.906 -16.101  0.00  0.00     0.036 H 
BRANCH  83  86
ATOM     86  CG  ARG d   1      -4.883  32.888 -17.601  0.00  0.00    -0.048 C 
ATOM     87  H40 ARG d   1      -5.244  32.147 -16.872  0.00  0.00     0.035 H 
ATOM     88  H41 ARG d   1      -4.708  32.395 -18.569  0.00  0.00     0.035 H 
BRANCH  86  89
ATOM     89  CD  ARG d   1      -5.942  33.987 -17.775  0.00  0.00     0.009 C 
ATOM     90  H42 ARG d   1      -6.834  33.570 -18.265  0.00  0.00     0.064 H 
ATOM     91  H43 ARG d   1      -5.534  34.803 -18.390  0.00  0.00     0.064 H 
BRANCH  89  92
ATOM     92  NE  ARG d   1      -6.297  34.495 -16.451  0.00  0.00    -0.227 N 
ATOM     93  CZ  ARG d   1      -7.142  33.888 -15.610  0.00  0.00     0.665 C 
ATOM     94  NH1 ARG d   1      -7.764  32.747 -15.946  0.00  0.00    -0.235 N 
ATOM     95  NH2 ARG d   1      -7.369  34.431 -14.418  0.00  0.00    -0.235 N 
ATOM     96  H45 ARG d   1      -8.410  32.298 -15.282  0.00  0.00     0.174 HD
ATOM     97  H46 ARG d   1      -7.595  32.321 -16.868  0.00  0.00     0.174 HD
ATOM     98  H47 ARG d   1      -6.896  35.306 -14.152  0.00  0.00     0.174 HD
ATOM     99  H48 ARG d   1      -8.018  33.976 -13.760  0.00  0.00     0.174 HD
ATOM    100  H44 ARG d   1      -5.868  35.380 -16.145  0.00  0.00     0.177 HD
ENDBRANCH  89  92
ENDBRANCH  86  89
ENDBRANCH  83  86
ENDBRANCH  49  83
ENDBRANCH  47  49
ENDBRANCH   1  45
BRANCH   1 101
ATOM    101  CB  LYS d   1       1.608  34.369 -17.432  0.00  0.00    -0.038 C 
ATOM    102  H25 LYS d   1       2.470  35.012 -17.198  0.00  0.00     0.036 H 
ATOM    103  H26 LYS d   1       0.805  34.978 -17.873  0.00  0.00     0.036 H 
BRANCH 101 104
ATOM    104  CG  LYS d   1       2.043  33.330 -18.453  0.00  0.00    -0.061 C 
ATOM    105  H27 LYS d   1       1.185  32.678 -18.675  0.00  0.00     0.033 H 
ATOM    106  H28 LYS d   1       2.855  32.731 -18.016  0.00  0.00     0.033 H 
BRANCH 104 107
ATOM    107  CD  LYS d   1       2.547  33.946 -19.780  0.00  0.00    -0.043 C 
ATOM    108  H29 LYS d   1       1.757  34.591 -20.192  0.00  0.00     0.035 H 
ATOM    109  H30 LYS d   1       2.762  33.132 -20.488  0.00  0.00     0.035 H 
BRANCH 107 110
ATOM    110  CE  LYS d   1       3.801  34.773 -19.597  0.00  0.00     0.080 C 
ATOM    111  H31 LYS d   1       4.567  34.151 -19.110  0.00  0.00     0.075 H 
ATOM    112  H32 LYS d   1       3.566  35.635 -18.955  0.00  0.00     0.075 H 
BRANCH 110 113
ATOM    113  NZ  LYS d   1       4.341  35.273 -20.888  0.00  0.00    -0.079 N 
ATOM    114  H33 LYS d   1       5.173  35.816 -20.716  0.00  0.00     0.274 HD
ATOM    115  H34 LYS d   1       3.650  35.851 -21.340  0.00  0.00     0.274 HD
ATOM    116  H35 LYS d   1       4.567  34.491 -21.483  0.00  0.00     0.274 HD
ENDBRANCH 110 113
ENDBRANCH 107 110
ENDBRANCH 104 107
ENDBRANCH 101 104
ENDBRANCH   1 101
TORSDOF 29
