REMARK  8 active torsions:
REMARK  status: ('A' for Active; 'I' for Inactive)
REMARK    1  A    between atoms: C4_3  and  S7_4 
REMARK    2  A    between atoms: S7_4  and  N10_6 
REMARK    3  A    between atoms: C6_12  and  N19_20 
REMARK    4  A    between atoms: C1_13  and  S11_14 
REMARK    5  A    between atoms: S11_14  and  C15_17 
REMARK    6  A    between atoms: C15_17  and  C18_18 
REMARK    7  A    between atoms: C18_18  and  O21_19 
REMARK    8  A    between atoms: N19_20  and  C14_21 
ROOT
ATOM      1  F20 V14 d   1      13.550  34.887  17.867  0.00  0.00    -0.202 F 
ATOM      2  C5  V14 d   1      14.359  35.621  17.083  0.00  0.00     0.170 A 
ATOM      3  C4  V14 d   1      15.172  36.586  17.752  0.00  0.00     0.161 A 
ATOM      4  C3  V14 d   1      16.007  37.323  16.913  0.00  0.00     0.182 A 
ATOM      5  F12 V14 d   1      16.832  38.278  17.362  0.00  0.00    -0.201 F 
ATOM      6  C2  V14 d   1      16.069  37.142  15.567  0.00  0.00     0.180 A 
ATOM      7  F13 V14 d   1      16.950  37.951  14.906  0.00  0.00    -0.201 F 
ATOM      8  C6  V14 d   1      14.448  35.400  15.693  0.00  0.00     0.094 A 
ATOM      9  C1  V14 d   1      15.332  36.165  14.918  0.00  0.00     0.130 A 
ENDROOT
BRANCH   8  10
ATOM     10  N19 V14 d   1      13.615  34.425  15.047  0.00  0.00    -0.382 N 
ATOM     11  H8  V14 d   1      14.044  33.822  14.331  0.00  0.00     0.160 HD
BRANCH  10  12
ATOM     12  C14 V14 d   1      12.188  34.235  15.345  0.00  0.00     0.010 C 
ATOM     13  C28 V14 d   1      11.404  35.567  15.406  0.00  0.00    -0.046 C 
ATOM     14  C27 V14 d   1       9.904  35.244  15.468  0.00  0.00    -0.063 C 
ATOM     15  H10 V14 d   1      11.618  36.166  14.508  0.00  0.00     0.035 H 
ATOM     16  H11 V14 d   1      11.700  36.132  16.303  0.00  0.00     0.035 H 
ATOM     17  C26 V14 d   1       9.102  35.959  14.362  0.00  0.00    -0.065 C 
ATOM     18  H12 V14 d   1       9.515  35.560  16.447  0.00  0.00     0.033 H 
ATOM     19  H13 V14 d   1       9.772  34.158  15.354  0.00  0.00     0.033 H 
ATOM     20  C25 V14 d   1       8.548  34.949  13.352  0.00  0.00    -0.065 C 
ATOM     21  H14 V14 d   1       9.761  36.667  13.839  0.00  0.00     0.033 H 
ATOM     22  H15 V14 d   1       8.265  36.507  14.820  0.00  0.00     0.033 H 
ATOM     23  C24 V14 d   1       9.532  33.804  13.088  0.00  0.00    -0.065 C 
ATOM     24  H16 V14 d   1       8.345  35.469  12.404  0.00  0.00     0.033 H 
ATOM     25  H17 V14 d   1       7.611  34.529  13.747  0.00  0.00     0.033 H 
ATOM     26  C23 V14 d   1      10.013  33.180  14.416  0.00  0.00    -0.063 C 
ATOM     27  H18 V14 d   1      10.400  34.194  12.537  0.00  0.00     0.033 H 
ATOM     28  H19 V14 d   1       9.033  33.031  12.486  0.00  0.00     0.033 H 
ATOM     29  C22 V14 d   1      11.552  33.180  14.407  0.00  0.00    -0.046 C 
ATOM     30  H20 V14 d   1       9.640  32.149  14.502  0.00  0.00     0.033 H 
ATOM     31  H21 V14 d   1       9.644  33.775  15.264  0.00  0.00     0.033 H 
ATOM     32  H22 V14 d   1      11.899  32.184  14.720  0.00  0.00     0.035 H 
ATOM     33  H23 V14 d   1      11.892  33.381  13.380  0.00  0.00     0.035 H 
ATOM     34  H9  V14 d   1      12.138  33.811  16.359  0.00  0.00     0.072 H 
ENDBRANCH  10  12
ENDBRANCH   8  10
BRANCH   9  35
ATOM     35  S11 V14 d   1      15.490  36.110  13.145  0.00  0.00     0.182 S 
ATOM     36  O16 V14 d   1      14.648  34.929  12.632  0.00  0.00    -0.222 OA
ATOM     37  O17 V14 d   1      16.975  35.852  12.902  0.00  0.00    -0.222 OA
BRANCH  35  38
ATOM     38  C15 V14 d   1      14.997  37.618  12.240  0.00  0.00     0.053 C 
ATOM     39  H3  V14 d   1      15.334  37.506  11.199  0.00  0.00     0.059 H 
ATOM     40  H4  V14 d   1      15.516  38.469  12.704  0.00  0.00     0.059 H 
BRANCH  38  41
ATOM     41  C18 V14 d   1      13.506  37.947  12.210  0.00  0.00     0.029 C 
ATOM     42  H5  V14 d   1      13.138  37.802  11.184  0.00  0.00     0.075 H 
ATOM     43  H6  V14 d   1      13.376  39.000  12.501  0.00  0.00     0.075 H 
BRANCH  41  44
ATOM     44  O21 V14 d   1      12.742  37.153  13.070  0.00  0.00    -0.400 OA
ATOM     45  H7  V14 d   1      12.837  36.240  12.825  0.00  0.00     0.209 HD
ENDBRANCH  41  44
ENDBRANCH  38  41
ENDBRANCH  35  38
ENDBRANCH   9  35
BRANCH   3  46
ATOM     46  S7  V14 d   1      15.065  36.871  19.530  0.00  0.00     0.263 S 
ATOM     47  O9  V14 d   1      14.840  35.592  20.191  0.00  0.00    -0.201 OA
ATOM     48  O8  V14 d   1      14.008  37.946  19.763  0.00  0.00    -0.201 OA
BRANCH  46  49
ATOM     49  N10 V14 d   1      16.473  37.598  19.963  0.00  0.00    -0.324 N 
ATOM     50  H1  V14 d   1      16.633  37.850  20.917  0.00  0.00     0.169 HD
ATOM     51  H2  V14 d   1      17.171  37.788  19.272  0.00  0.00     0.169 HD
ENDBRANCH  46  49
ENDBRANCH   3  46
TORSDOF 8
