REMARK  8 active torsions:
REMARK  status: ('A' for Active; 'I' for Inactive)
REMARK    1  A    between atoms: C4_3  and  S7_4 
REMARK    2  A    between atoms: S7_4  and  N10_6 
REMARK    3  A    between atoms: C6_12  and  N19_20 
REMARK    4  A    between atoms: C1_13  and  S11_14 
REMARK    5  A    between atoms: S11_14  and  C15_17 
REMARK    6  A    between atoms: C15_17  and  C18_18 
REMARK    7  A    between atoms: C18_18  and  O21_19 
REMARK    8  A    between atoms: N19_20  and  C14_21 
ROOT
ATOM      1  F20 V14 d   1       9.177  -7.464 -25.693  0.00  0.00    -0.202 F 
ATOM      2  C5  V14 d   1       9.112  -7.244 -24.366  0.00  0.00     0.170 A 
ATOM      3  C4  V14 d   1       8.010  -7.551 -23.622  0.00  0.00     0.161 A 
ATOM      4  C3  V14 d   1       7.852  -7.351 -22.278  0.00  0.00     0.182 A 
ATOM      5  F12 V14 d   1       6.651  -7.715 -21.727  0.00  0.00    -0.201 F 
ATOM      6  C2  V14 d   1       8.900  -6.837 -21.592  0.00  0.00     0.180 A 
ATOM      7  F13 V14 d   1       8.752  -6.614 -20.236  0.00  0.00    -0.201 F 
ATOM      8  C6  V14 d   1      10.186  -6.677 -23.655  0.00  0.00     0.094 A 
ATOM      9  C1  V14 d   1      10.020  -6.498 -22.290  0.00  0.00     0.130 A 
ENDROOT
BRANCH   8  10
ATOM     10  N19 V14 d   1      11.327  -6.336 -24.442  0.00  0.00    -0.382 N 
ATOM     11  H8  V14 d   1      11.849  -5.528 -24.074  0.00  0.00     0.160 HD
BRANCH  10  12
ATOM     12  C14 V14 d   1      11.915  -6.897 -25.670  0.00  0.00     0.010 C 
ATOM     13  C28 V14 d   1      11.565  -6.259 -27.014  0.00  0.00    -0.046 C 
ATOM     14  C27 V14 d   1      11.602  -4.734 -27.080  0.00  0.00    -0.063 C 
ATOM     15  H10 V14 d   1      10.547  -6.579 -27.280  0.00  0.00     0.035 H 
ATOM     16  H11 V14 d   1      12.277  -6.642 -27.760  0.00  0.00     0.035 H 
ATOM     17  C26 V14 d   1      12.983  -4.082 -26.802  0.00  0.00    -0.065 C 
ATOM     18  H12 V14 d   1      10.889  -4.346 -26.337  0.00  0.00     0.033 H 
ATOM     19  H13 V14 d   1      11.282  -4.431 -28.088  0.00  0.00     0.033 H 
ATOM     20  C25 V14 d   1      13.419  -3.948 -25.299  0.00  0.00    -0.065 C 
ATOM     21  H14 V14 d   1      12.965  -3.070 -27.234  0.00  0.00     0.033 H 
ATOM     22  H15 V14 d   1      13.745  -4.687 -27.316  0.00  0.00     0.033 H 
ATOM     23  C24 V14 d   1      13.377  -5.105 -24.338  0.00  0.00    -0.065 C 
ATOM     24  H16 V14 d   1      12.779  -3.166 -24.864  0.00  0.00     0.033 H 
ATOM     25  H17 V14 d   1      14.463  -3.601 -25.314  0.00  0.00     0.033 H 
ATOM     26  C23 V14 d   1      14.340  -6.156 -24.867  0.00  0.00    -0.063 C 
ATOM     27  H18 V14 d   1      12.358  -5.517 -24.287  0.00  0.00     0.033 H 
ATOM     28  H19 V14 d   1      13.690  -4.776 -23.336  0.00  0.00     0.033 H 
ATOM     29  C22 V14 d   1      13.471  -7.210 -25.511  0.00  0.00    -0.046 C 
ATOM     30  H20 V14 d   1      14.925  -6.591 -24.043  0.00  0.00     0.033 H 
ATOM     31  H21 V14 d   1      15.022  -5.714 -25.608  0.00  0.00     0.033 H 
ATOM     32  H22 V14 d   1      13.873  -7.396 -26.518  0.00  0.00     0.035 H 
ATOM     33  H23 V14 d   1      13.562  -8.124 -24.906  0.00  0.00     0.035 H 
ATOM     34  H9  V14 d   1      11.446  -7.890 -25.739  0.00  0.00     0.072 H 
ENDBRANCH  10  12
ENDBRANCH   8  10
BRANCH   9  35
ATOM     35  S11 V14 d   1      11.372  -5.835 -21.310  0.00  0.00     0.182 S 
ATOM     36  O16 V14 d   1      10.753  -4.559 -20.754  0.00  0.00    -0.222 OA
ATOM     37  O17 V14 d   1      12.169  -5.437 -22.569  0.00  0.00    -0.222 OA
BRANCH  35  38
ATOM     38  C15 V14 d   1      12.312  -6.736 -20.088  0.00  0.00     0.053 C 
ATOM     39  H3  V14 d   1      12.723  -6.025 -19.356  0.00  0.00     0.059 H 
ATOM     40  H4  V14 d   1      13.137  -7.264 -20.589  0.00  0.00     0.059 H 
BRANCH  38  41
ATOM     41  C18 V14 d   1      11.453  -7.741 -19.366  0.00  0.00     0.029 C 
ATOM     42  H5  V14 d   1      11.200  -8.580 -20.031  0.00  0.00     0.075 H 
ATOM     43  H6  V14 d   1      10.528  -7.268 -19.005  0.00  0.00     0.075 H 
BRANCH  41  44
ATOM     44  O21 V14 d   1      12.225  -8.185 -18.293  0.00  0.00    -0.400 OA
ATOM     45  H7  V14 d   1      11.733  -8.827 -17.795  0.00  0.00     0.209 HD
ENDBRANCH  41  44
ENDBRANCH  38  41
ENDBRANCH  35  38
ENDBRANCH   9  35
BRANCH   3  46
ATOM     46  S7  V14 d   1       6.716  -8.315 -24.423  0.00  0.00     0.263 S 
ATOM     47  O9  V14 d   1       5.671  -7.464 -24.158  0.00  0.00    -0.201 OA
ATOM     48  O8  V14 d   1       6.191  -9.442 -23.798  0.00  0.00    -0.201 OA
BRANCH  46  49
ATOM     49  N10 V14 d   1       6.807  -8.376 -26.230  0.00  0.00    -0.324 N 
ATOM     50  H1  V14 d   1       6.075  -8.812 -26.753  0.00  0.00     0.169 HD
ATOM     51  H2  V14 d   1       7.589  -7.973 -26.705  0.00  0.00     0.169 HD
ENDBRANCH  46  49
ENDBRANCH   3  46
TORSDOF 8
