REMARK WARNING: 32 MAX_TORS EXCEEDED!!!
REMARK  35 active torsions:
REMARK  status: ('A' for Active; 'I' for Inactive)
REMARK    1  A    between atoms: N_1  and  CA_2 
REMARK    2  A    between atoms: CA_2  and  C_3 
REMARK    3  A    between atoms: CA_2  and  CB_5 
REMARK       I    between atoms: C_3  and  N_9 
REMARK    4  A    between atoms: CB_5  and  CG_6 
REMARK    5  A    between atoms: N_9  and  CA_10 
REMARK    6  A    between atoms: CA_10  and  C_11 
REMARK    7  A    between atoms: CA_10  and  CB_13 
REMARK       I    between atoms: C_11  and  N_20 
REMARK    8  A    between atoms: CB_13  and  CG_14 
REMARK    9  A    between atoms: CG_14  and  CD_15 
REMARK   10  A    between atoms: CD_15  and  NE_16 
REMARK       I    between atoms: NE_16  and  CZ_17 
REMARK       I    between atoms: CZ_17  and  NH1_18 
REMARK   11  A    between atoms: N_20  and  CA_21 
REMARK   12  A    between atoms: CA_21  and  C_22 
REMARK   13  A    between atoms: CA_21  and  CB_24 
REMARK       I    between atoms: C_22  and  N_27 
REMARK   14  A    between atoms: CB_24  and  CG1_25 
REMARK   15  A    between atoms: CB_24  and  CG2_26 
REMARK   16  A    between atoms: N_27  and  CA_28 
REMARK   17  A    between atoms: CA_28  and  C_29 
REMARK   18  A    between atoms: CA_28  and  CB_31 
REMARK       I    between atoms: C_29  and  N_39 
REMARK   19  A    between atoms: CB_31  and  CG_32 
REMARK   20  A    between atoms: CZ_37  and  OH_38 
REMARK   21  A    between atoms: N_39  and  CA_40 
REMARK   22  A    between atoms: CA_40  and  C_41 
REMARK   23  A    between atoms: CA_40  and  CB_43 
REMARK       I    between atoms: C_41  and  N_47 
REMARK   24  A    between atoms: CB_43  and  CG1_44 
REMARK   25  A    between atoms: CB_43  and  CG2_45 
REMARK   26  A    between atoms: CG1_44  and  CD1_46 
REMARK   27  A    between atoms: N_47  and  CA_48 
REMARK   28  A    between atoms: CA_48  and  C_49 
REMARK   29  A    between atoms: CA_48  and  CB_51 
REMARK       I    between atoms: C_49  and  N_57 
REMARK   30  A    between atoms: CB_51  and  CG_52 
REMARK   31  A    between atoms: CA_58  and  C_59 
REMARK       I    between atoms: C_59  and  N_64 
REMARK   32  A    between atoms: N_64  and  CA_65 
REMARK   33  A    between atoms: CA_65  and  C_66 
REMARK   34  A    between atoms: CA_65  and  CB_68 
REMARK   35  A    between atoms: CB_68  and  CG_69 
ROOT
ATOM      1  CA  TYR d   1     252.130 -21.535  82.630  0.00  0.00     0.093 C 
ATOM      2  H30 TYR d   1     251.515 -20.623  82.626  0.00  0.00     0.088 H 
ENDROOT
BRANCH   1   3
ATOM      3  N   TYR d   1     252.894 -21.545  83.873  0.00  0.00    -0.346 N 
ATOM      4  C   VAL d   1     252.781 -20.556  84.753  0.00  0.00     0.241 C 
ATOM      5  O   VAL d   1     252.008 -19.612  84.595  0.00  0.00    -0.271 OA
ATOM      6  H29 TYR d   1     253.512 -22.308  84.065  0.00  0.00     0.163 HD
BRANCH   4   7
ATOM      7  CA  VAL d   1     253.661 -20.631  85.995  0.00  0.00     0.092 C 
ATOM      8  H21 VAL d   1     254.464 -21.364  85.827  0.00  0.00     0.088 H 
BRANCH   7   9
ATOM      9  N   VAL d   1     254.263 -19.325  86.229  0.00  0.00    -0.346 N 
ATOM     10  C   ARG d   1     255.577 -19.124  86.203  0.00  0.00     0.241 C 
ATOM     11  O   ARG d   1     256.398 -20.034  86.100  0.00  0.00    -0.271 OA
ATOM     12  H20 VAL d   1     253.663 -18.547  86.417  0.00  0.00     0.163 HD
BRANCH  10  13
ATOM     13  CA  ARG d   1     256.020 -17.670  86.325  0.00  0.00     0.089 C 
ATOM     14  H8  ARG d   1     255.347 -17.171  87.038  0.00  0.00     0.087 H 
BRANCH  13  15
ATOM     15  N   ARG d   1     257.383 -17.534  86.829  0.00  0.00    -0.346 N 
ATOM     16  C   ASP d   1     257.625 -17.045  88.041  0.00  0.00     0.249 C 
ATOM     17  O   ASP d   1     256.729 -16.747  88.830  0.00  0.00    -0.271 OA
ATOM     18  H7  ARG d   1     258.150 -17.814  86.251  0.00  0.00     0.163 HD
BRANCH  16  19
ATOM     19  CA  ASP d   1     259.091 -16.866  88.423  0.00  0.00     0.185 C 
ATOM     20  H4  ASP d   1     259.682 -16.782  87.499  0.00  0.00     0.100 H 
BRANCH  19  21
ATOM     21  N   ASP d   1     259.275 -15.645  89.199  0.00  0.00    -0.066 N 
ATOM     22  H1  ASP d   1     260.248 -15.544  89.442  0.00  0.00     0.275 HD
ATOM     23  H2  ASP d   1     258.723 -15.695  90.041  0.00  0.00     0.275 HD
ATOM     24  H3  ASP d   1     258.981 -14.851  88.651  0.00  0.00     0.275 HD
ENDBRANCH  19  21
BRANCH  19  25
ATOM     25  CB  ASP d   1     259.591 -18.081  89.208  0.00  0.00     0.050 C 
ATOM     26  H5  ASP d   1     259.486 -18.976  88.577  0.00  0.00     0.052 H 
ATOM     27  H6  ASP d   1     258.974 -18.195  90.112  0.00  0.00     0.052 H 
BRANCH  25  28
ATOM     28  CG  ASP d   1     261.045 -17.948  89.625  0.00  0.00     0.175 C 
ATOM     29  OD1 ASP d   1     261.798 -17.214  88.949  0.00  0.00    -0.648 OA
ATOM     30  OD2 ASP d   1     261.435 -18.580  90.629  0.00  0.00    -0.648 OA
ENDBRANCH  25  28
ENDBRANCH  19  25
ENDBRANCH  16  19
ENDBRANCH  13  15
BRANCH  13  31
ATOM     31  CB  ARG d   1     255.888 -16.974  84.966  0.00  0.00    -0.036 C 
ATOM     32  H9  ARG d   1     254.982 -17.353  84.470  0.00  0.00     0.036 H 
ATOM     33  H10 ARG d   1     256.771 -17.227  84.361  0.00  0.00     0.036 H 
BRANCH  31  34
ATOM     34  CG  ARG d   1     255.787 -15.460  85.054  0.00  0.00    -0.048 C 
ATOM     35  H11 ARG d   1     256.325 -15.118  85.951  0.00  0.00     0.035 H 
ATOM     36  H12 ARG d   1     254.727 -15.177  85.132  0.00  0.00     0.035 H 
BRANCH  34  37
ATOM     37  CD  ARG d   1     256.388 -14.784  83.831  0.00  0.00     0.009 C 
ATOM     38  H13 ARG d   1     257.321 -15.304  83.569  0.00  0.00     0.064 H 
ATOM     39  H14 ARG d   1     256.610 -13.737  84.086  0.00  0.00     0.064 H 
BRANCH  37  40
ATOM     40  NE  ARG d   1     255.509 -14.799  82.667  0.00  0.00    -0.227 N 
ATOM     41  CZ  ARG d   1     254.942 -13.716  82.144  0.00  0.00     0.665 C 
ATOM     42  NH1 ARG d   1     255.159 -12.522  82.681  0.00  0.00    -0.235 N 
ATOM     43  NH2 ARG d   1     254.160 -13.824  81.079  0.00  0.00    -0.235 N 
ATOM     44  H16 ARG d   1     254.718 -11.686  82.273  0.00  0.00     0.174 HD
ATOM     45  H17 ARG d   1     255.769 -12.432  83.506  0.00  0.00     0.174 HD
ATOM     46  H18 ARG d   1     253.988 -14.748  80.658  0.00  0.00     0.174 HD
ATOM     47  H19 ARG d   1     253.724 -12.984  80.673  0.00  0.00     0.174 HD
ATOM     48  H15 ARG d   1     255.315 -15.707  82.222  0.00  0.00     0.177 HD
ENDBRANCH  37  40
ENDBRANCH  34  37
ENDBRANCH  31  34
ENDBRANCH  13  31
ENDBRANCH  10  13
ENDBRANCH   7   9
BRANCH   7  49
ATOM     49  CB  VAL d   1     252.810 -21.099  87.191  0.00  0.00    -0.033 C 
ATOM     50  H22 VAL d   1     251.873 -20.523  87.197  0.00  0.00     0.042 H 
BRANCH  49  51
ATOM     51  CG1 VAL d   1     252.467 -22.572  87.047  0.00  0.00    -0.071 C 
ATOM     52  H23 VAL d   1     251.860 -22.893  87.906  0.00  0.00     0.028 H 
ATOM     53  H24 VAL d   1     253.394 -23.163  87.012  0.00  0.00     0.028 H 
ATOM     54  H25 VAL d   1     251.898 -22.727  86.118  0.00  0.00     0.028 H 
ENDBRANCH  49  51
BRANCH  49  55
ATOM     55  CG2 VAL d   1     253.537 -20.840  88.502  0.00  0.00    -0.071 C 
ATOM     56  H26 VAL d   1     253.775 -19.769  88.584  0.00  0.00     0.028 H 
ATOM     57  H27 VAL d   1     254.468 -21.425  88.527  0.00  0.00     0.028 H 
ATOM     58  H28 VAL d   1     252.894 -21.138  89.343  0.00  0.00     0.028 H 
ENDBRANCH  49  55
ENDBRANCH   7  49
ENDBRANCH   4   7
ENDBRANCH   1   3
BRANCH   1  59
ATOM     59  C   TYR d   1     251.195 -22.730  82.486  0.00  0.00     0.241 C 
ATOM     60  O   TYR d   1     251.376 -23.764  83.129  0.00  0.00    -0.271 OA
ATOM     61  N   ILE d   1     250.195 -22.569  81.627  0.00  0.00    -0.346 N 
ATOM     62  H38 ILE d   1     250.065 -21.673  81.202  0.00  0.00     0.163 HD
BRANCH  61  63
ATOM     63  CA  ILE d   1     249.282 -23.648  81.282  0.00  0.00     0.092 C 
ATOM     64  H39 ILE d   1     249.619 -24.564  81.790  0.00  0.00     0.088 H 
BRANCH  63  65
ATOM     65  C   ILE d   1     249.304 -23.881  79.778  0.00  0.00     0.241 C 
ATOM     66  O   ILE d   1     249.040 -22.968  78.997  0.00  0.00    -0.271 OA
ATOM     67  N   HIS d   1     249.630 -25.104  79.377  0.00  0.00    -0.346 N 
ATOM     68  H49 HIS d   1     249.855 -25.799  80.060  0.00  0.00     0.163 HD
BRANCH  67  69
ATOM     69  CA  HIS d   1     249.667 -25.456  77.965  0.00  0.00     0.095 C 
ATOM     70  H50 HIS d   1     249.075 -24.716  77.406  0.00  0.00     0.088 H 
BRANCH  69  71
ATOM     71  C   HIS d   1     249.048 -26.834  77.746  0.00  0.00     0.243 C 
ATOM     72  O   HIS d   1     249.357 -27.772  78.481  0.00  0.00    -0.271 OA
ATOM     73  N   PRO d   1     248.170 -26.967  76.735  0.00  0.00    -0.337 N 
ATOM     74  CA  PRO d   1     247.726 -25.946  75.774  0.00  0.00     0.091 C 
ATOM     75  CD  PRO d   1     247.602 -28.288  76.420  0.00  0.00    -0.001 C 
ATOM     76  CB  PRO d   1     246.873 -26.746  74.779  0.00  0.00    -0.036 C 
ATOM     77  H56 PRO d   1     248.595 -25.497  75.271  0.00  0.00     0.087 H 
ATOM     78  CG  PRO d   1     247.285 -28.170  74.966  0.00  0.00    -0.048 C 
ATOM     79  H57 PRO d   1     247.074 -26.419  73.748  0.00  0.00     0.036 H 
ATOM     80  H58 PRO d   1     245.803 -26.622  75.001  0.00  0.00     0.036 H 
ATOM     81  H59 PRO d   1     248.171 -28.400  74.356  0.00  0.00     0.035 H 
ATOM     82  H60 PRO d   1     246.465 -28.850  74.692  0.00  0.00     0.035 H 
ATOM     83  H61 PRO d   1     246.694 -28.480  77.010  0.00  0.00     0.064 H 
ATOM     84  H62 PRO d   1     248.334 -29.088  76.603  0.00  0.00     0.064 H 
BRANCH  74  85
ATOM     85  C   PRO d   1     246.895 -24.832  76.409  0.00  0.00     0.241 C 
ATOM     86  O   PRO d   1     246.354 -25.011  77.500  0.00  0.00    -0.271 OA
ATOM     87  N   PHE d   1     246.805 -23.695  75.727  0.00  0.00    -0.344 N 
ATOM     88  H63 PHE d   1     247.213 -23.639  74.816  0.00  0.00     0.163 HD
BRANCH  87  89
ATOM     89  CA  PHE d   1     246.126 -22.528  76.274  0.00  0.00     0.100 C 
ATOM     90  H64 PHE d   1     245.520 -22.853  77.133  0.00  0.00     0.090 H 
BRANCH  89  91
ATOM     91  C   PHE d   1     245.194 -21.890  75.249  0.00  0.00     0.197 C 
ATOM     92  O   PHE d   1     245.635 -21.287  74.270  0.00  0.00    -0.646 OA
ATOM     93  OXT PHE d   1     243.971 -21.959  75.379  0.00  0.00    -0.646 OA
ENDBRANCH  89  91
BRANCH  89  94
ATOM     94  CB  PHE d   1     247.155 -21.505  76.765  0.00  0.00    -0.013 C 
ATOM     95  H65 PHE d   1     247.720 -21.137  75.895  0.00  0.00     0.043 H 
ATOM     96  H66 PHE d   1     247.841 -22.011  77.460  0.00  0.00     0.043 H 
BRANCH  94  97
ATOM     97  CG  PHE d   1     246.552 -20.324  77.471  0.00  0.00    -0.056 A 
ATOM     98  CD1 PHE d   1     246.112 -20.433  78.779  0.00  0.00    -0.077 A 
ATOM     99  CE1 PHE d   1     245.560 -19.348  79.432  0.00  0.00    -0.082 A 
ATOM    100  H67 PHE d   1     246.202 -21.381  79.297  0.00  0.00     0.084 H 
ATOM    101  CZ  PHE d   1     245.447 -18.136  78.779  0.00  0.00    -0.083 A 
ATOM    102  H69 PHE d   1     245.216 -19.448  80.455  0.00  0.00     0.083 H 
ATOM    103  CE2 PHE d   1     245.885 -18.013  77.476  0.00  0.00    -0.082 A 
ATOM    104  H71 PHE d   1     245.015 -17.283  79.289  0.00  0.00     0.083 H 
ATOM    105  CD2 PHE d   1     246.436 -19.102  76.829  0.00  0.00    -0.077 A 
ATOM    106  H70 PHE d   1     245.797 -17.063  76.961  0.00  0.00     0.083 H 
ATOM    107  H68 PHE d   1     246.782 -18.999  75.807  0.00  0.00     0.084 H 
ENDBRANCH  94  97
ENDBRANCH  89  94
ENDBRANCH  87  89
ENDBRANCH  74  85
ENDBRANCH  69  71
BRANCH  69 108
ATOM    108  CB  HIS d   1     251.102 -25.422  77.439  0.00  0.00     0.004 C 
ATOM    109  H51 HIS d   1     251.650 -26.272  77.871  0.00  0.00     0.046 H 
ATOM    110  H52 HIS d   1     251.569 -24.481  77.765  0.00  0.00     0.046 H 
BRANCH 108 111
ATOM    111  CG  HIS d   1     251.198 -25.506  75.948  0.00  0.00     0.053 A 
ATOM    112  ND1 HIS d   1     250.939 -24.432  75.126  0.00  0.00    -0.247 NA
ATOM    113  CE1 HIS d   1     251.096 -24.797  73.866  0.00  0.00     0.064 A 
ATOM    114  NE2 HIS d   1     251.444 -26.071  73.842  0.00  0.00    -0.359 N 
ATOM    115  H54 HIS d   1     250.961 -24.157  72.996  0.00  0.00     0.143 H 
ATOM    116  CD2 HIS d   1     251.513 -26.539  75.132  0.00  0.00     0.002 A 
ATOM    117  H55 HIS d   1     251.633 -26.624  72.994  0.00  0.00     0.166 HD
ATOM    118  H53 HIS d   1     251.772 -27.551  75.440  0.00  0.00     0.114 H 
ENDBRANCH 108 111
ENDBRANCH  69 108
ENDBRANCH  67  69
ENDBRANCH  63  65
BRANCH  63 119
ATOM    119  CB  ILE d   1     247.844 -23.344  81.728  0.00  0.00    -0.030 C 
ATOM    120  H40 ILE d   1     247.575 -22.337  81.377  0.00  0.00     0.043 H 
BRANCH 119 121
ATOM    121  CG1 ILE d   1     247.744 -23.372  83.252  0.00  0.00    -0.063 C 
ATOM    122  H41 ILE d   1     248.478 -22.664  83.663  0.00  0.00     0.033 H 
ATOM    123  H42 ILE d   1     247.981 -24.389  83.599  0.00  0.00     0.033 H 
BRANCH 121 124
ATOM    124  CD1 ILE d   1     246.382 -22.998  83.763  0.00  0.00    -0.076 C 
ATOM    125  H46 ILE d   1     246.379 -23.038  84.862  0.00  0.00     0.027 H 
ATOM    126  H47 ILE d   1     245.636 -23.703  83.368  0.00  0.00     0.027 H 
ATOM    127  H48 ILE d   1     246.134 -21.979  83.433  0.00  0.00     0.027 H 
ENDBRANCH 121 124
ENDBRANCH 119 121
BRANCH 119 128
ATOM    128  CG2 ILE d   1     246.871 -24.343  81.123  0.00  0.00    -0.071 C 
ATOM    129  H43 ILE d   1     246.951 -24.315  80.026  0.00  0.00     0.028 H 
ATOM    130  H44 ILE d   1     245.845 -24.083  81.422  0.00  0.00     0.028 H 
ATOM    131  H45 ILE d   1     247.113 -25.354  81.482  0.00  0.00     0.028 H 
ENDBRANCH 119 128
ENDBRANCH  63 119
ENDBRANCH  61  63
ENDBRANCH   1  59
BRANCH   1 132
ATOM    132  CB  TYR d   1     253.071 -21.489  81.425  0.00  0.00    -0.014 C 
ATOM    133  H31 TYR d   1     252.527 -21.868  80.547  0.00  0.00     0.043 H 
ATOM    134  H32 TYR d   1     253.931 -22.142  81.634  0.00  0.00     0.043 H 
BRANCH 132 135
ATOM    135  CG  TYR d   1     253.591 -20.110  81.100  0.00  0.00    -0.056 A 
ATOM    136  CD1 TYR d   1     252.768 -19.160  80.507  0.00  0.00    -0.074 A 
ATOM    137  CE1 TYR d   1     253.239 -17.898  80.202  0.00  0.00    -0.051 A 
ATOM    138  H33 TYR d   1     251.739 -19.414  80.280  0.00  0.00     0.084 H 
ATOM    139  CZ  TYR d   1     254.548 -17.574  80.486  0.00  0.00     0.065 A 
ATOM    140  H35 TYR d   1     252.583 -17.167  79.742  0.00  0.00     0.087 H 
ATOM    141  CE2 TYR d   1     255.386 -18.499  81.071  0.00  0.00    -0.051 A 
ATOM    142  CD2 TYR d   1     254.906 -19.760  81.372  0.00  0.00    -0.074 A 
ATOM    143  H36 TYR d   1     256.415 -18.239  81.294  0.00  0.00     0.087 H 
ATOM    144  H34 TYR d   1     255.568 -20.487  81.828  0.00  0.00     0.084 H 
BRANCH 139 145
ATOM    145  OH  TYR d   1     255.022 -16.319  80.183  0.00  0.00    -0.361 OA
ATOM    146  H37 TYR d   1     254.327 -15.806  79.788  0.00  0.00     0.217 HD
ENDBRANCH 139 145
ENDBRANCH 132 135
ENDBRANCH   1 132
TORSDOF 35
