REMARK  29 active torsions:
REMARK  status: ('A' for Active; 'I' for Inactive)
REMARK    1  A    between atoms: N_1  and  CA_2 
REMARK    2  A    between atoms: CA_2  and  C_3 
REMARK       I    between atoms: C_3  and  N_5 
REMARK    3  A    between atoms: N_5  and  CA_6 
REMARK    4  A    between atoms: CA_6  and  CB_7 
REMARK    5  A    between atoms: CA_6  and  C_9 
REMARK    6  A    between atoms: CB_7  and  OG_8 
REMARK    7  A    between atoms: OG_8  and  P_11 
REMARK       I    between atoms: C_9  and  N_15 
REMARK    8  A    between atoms: CA_16  and  C_17 
REMARK       I    between atoms: C_17  and  N_22 
REMARK    9  A    between atoms: N_22  and  CA_23 
REMARK   10  A    between atoms: CA_23  and  C_24 
REMARK       I    between atoms: C_24  and  N_26 
REMARK   11  A    between atoms: N_26  and  CA_27 
REMARK   12  A    between atoms: CA_27  and  CB_28 
REMARK   13  A    between atoms: CA_27  and  C_35 
REMARK   14  A    between atoms: CB_28  and  CG2_29 
REMARK   15  A    between atoms: CB_28  and  OG1_30 
REMARK   16  A    between atoms: OG1_30  and  P_31 
REMARK       I    between atoms: C_35  and  N_37 
REMARK   17  A    between atoms: CA_38  and  C_39 
REMARK       I    between atoms: C_39  and  N_44 
REMARK   18  A    between atoms: N_44  and  CA_45 
REMARK   19  A    between atoms: CA_45  and  C_46 
REMARK       I    between atoms: C_46  and  N_48 
REMARK   20  A    between atoms: N_48  and  CA_49 
REMARK   21  A    between atoms: CA_49  and  C_50 
REMARK   22  A    between atoms: CA_49  and  CB_52 
REMARK       I    between atoms: C_50  and  N_54 
REMARK   23  A    between atoms: CB_52  and  OG_53 
REMARK   24  A    between atoms: N_54  and  CA_55 
REMARK   25  A    between atoms: CA_55  and  C_56 
REMARK   26  A    between atoms: CA_55  and  CB_58 
REMARK   27  A    between atoms: CB_58  and  CG_59 
REMARK   28  A    between atoms: CG_59  and  CD_60 
REMARK   29  A    between atoms: CD_60  and  NE_61 
REMARK       I    between atoms: NE_61  and  CZ_62 
REMARK       I    between atoms: CZ_62  and  NH1_63 
ROOT
ATOM      1  CA  TPO d   1      23.559   9.769  71.827  0.00  0.00     0.114 C 
ATOM      2  H21 TPO d   1      23.905   8.755  71.578  0.00  0.00     0.091 H 
ENDROOT
BRANCH   1   3
ATOM      3  N   TPO d   1      22.296   9.650  72.565  0.00  0.00    -0.344 N 
ATOM      4  C   GLY d   1      22.175   8.831  73.608  0.00  0.00     0.236 C 
ATOM      5  O   GLY d   1      23.079   8.065  73.974  0.00  0.00    -0.272 OA
ATOM      6  H20 TPO d   1      21.509  10.196  72.278  0.00  0.00     0.163 HD
BRANCH   4   7
ATOM      7  CA  GLY d   1      20.847   8.880  74.347  0.00  0.00     0.069 C 
ATOM      8  H18 GLY d   1      20.805   9.812  74.930  0.00  0.00     0.078 H 
ATOM      9  H19 GLY d   1      20.034   8.874  73.606  0.00  0.00     0.078 H 
BRANCH   7  10
ATOM     10  N   GLY d   1      20.655   7.750  75.260  0.00  0.00    -0.351 N 
ATOM     11  C   PRO d   1      20.383   6.522  74.824  0.00  0.00     0.241 C 
ATOM     12  O   PRO d   1      20.232   6.255  73.631  0.00  0.00    -0.271 OA
ATOM     13  H17 GLY d   1      20.731   7.907  76.245  0.00  0.00     0.163 HD
BRANCH  11  14
ATOM     14  CA  PRO d   1      20.255   5.404  75.870  0.00  0.00     0.091 C 
ATOM     15  N   PRO d   1      20.640   5.776  77.241  0.00  0.00    -0.337 N 
ATOM     16  C   SEP d   1      21.926   5.965  77.594  0.00  0.00     0.245 C 
ATOM     17  CD  PRO d   1      19.468   5.886  78.129  0.00  0.00    -0.001 C 
ATOM     18  O   SEP d   1      22.870   5.739  76.828  0.00  0.00    -0.271 OA
ATOM     19  CG  PRO d   1      18.470   4.994  77.469  0.00  0.00    -0.048 C 
ATOM     20  H15 PRO d   1      19.103   6.923  78.177  0.00  0.00     0.064 H 
ATOM     21  H16 PRO d   1      19.705   5.533  79.144  0.00  0.00     0.064 H 
ATOM     22  CB  PRO d   1      18.783   4.968  76.008  0.00  0.00    -0.036 C 
ATOM     23  H13 PRO d   1      18.541   3.979  77.886  0.00  0.00     0.035 H 
ATOM     24  H14 PRO d   1      17.454   5.385  77.628  0.00  0.00     0.035 H 
ATOM     25  H11 PRO d   1      18.648   3.952  75.608  0.00  0.00     0.036 H 
ATOM     26  H12 PRO d   1      18.127   5.665  75.466  0.00  0.00     0.036 H 
ATOM     27  H10 PRO d   1      20.873   4.557  75.538  0.00  0.00     0.087 H 
BRANCH  16  28
ATOM     28  CA  SEP d   1      22.188   6.484  79.015  0.00  0.00     0.110 C 
ATOM     29  H7  SEP d   1      21.259   6.356  79.591  0.00  0.00     0.090 H 
BRANCH  28  30
ATOM     30  N   SEP d   1      23.238   5.749  79.717  0.00  0.00    -0.344 N 
ATOM     31  C   GLY d   1      23.087   4.477  80.086  0.00  0.00     0.243 C 
ATOM     32  O   GLY d   1      22.090   3.801  79.808  0.00  0.00    -0.272 OA
ATOM     33  H6  SEP d   1      24.097   6.215  79.927  0.00  0.00     0.163 HD
BRANCH  31  34
ATOM     34  CA  GLY d   1      24.228   3.880  80.886  0.00  0.00     0.152 C 
ATOM     35  H4  GLY d   1      24.601   4.639  81.589  0.00  0.00     0.090 H 
ATOM     36  H5  GLY d   1      23.850   3.014  81.448  0.00  0.00     0.090 H 
BRANCH  34  37
ATOM     37  N   GLY d   1      25.355   3.434  80.021  0.00  0.00    -0.071 N 
ATOM     38  H1  GLY d   1      26.087   3.046  80.596  0.00  0.00     0.274 HD
ATOM     39  H2  GLY d   1      25.715   4.222  79.505  0.00  0.00     0.274 HD
ATOM     40  H3  GLY d   1      25.026   2.732  79.376  0.00  0.00     0.274 HD
ENDBRANCH  34  37
ENDBRANCH  31  34
ENDBRANCH  28  30
BRANCH  28  41
ATOM     41  CB  SEP d   1      22.509   7.981  78.962  0.00  0.00     0.059 C 
ATOM     42  H8  SEP d   1      23.498   8.132  78.504  0.00  0.00     0.079 H 
ATOM     43  H9  SEP d   1      22.509   8.396  79.981  0.00  0.00     0.079 H 
BRANCH  41  44
ATOM     44  OG  SEP d   1      21.521   8.628  78.185  0.00  0.00    -0.280 OA
BRANCH  44  45
ATOM     45  P   SEP d   1      21.614  10.229  78.105  0.00  0.00     0.422 P 
ATOM     46  O1P SEP d   1      22.876  10.671  77.214  0.00  0.00    -0.617 OA
ATOM     47  O2P SEP d   1      21.757  10.830  79.589  0.00  0.00    -0.617 OA
ATOM     48  O3P SEP d   1      20.239  10.728  77.446  0.00  0.00    -0.617 OA
ENDBRANCH  44  45
ENDBRANCH  41  44
ENDBRANCH  28  41
ENDBRANCH  16  28
ENDBRANCH  11  14
ENDBRANCH   7  10
ENDBRANCH   4   7
ENDBRANCH   1   3
BRANCH   1  49
ATOM     49  CB  TPO d   1      23.375  10.552  70.528  0.00  0.00     0.076 C 
ATOM     50  H22 TPO d   1      23.152  11.599  70.780  0.00  0.00     0.087 H 
BRANCH  49  51
ATOM     51  CG2 TPO d   1      24.616  10.510  69.632  0.00  0.00    -0.049 C 
ATOM     52  H23 TPO d   1      24.426  11.088  68.716  0.00  0.00     0.031 H 
ATOM     53  H24 TPO d   1      24.842   9.466  69.367  0.00  0.00     0.031 H 
ATOM     54  H25 TPO d   1      25.471  10.945  70.169  0.00  0.00     0.031 H 
ENDBRANCH  49  51
BRANCH  49  55
ATOM     55  OG1 TPO d   1      22.292   9.999  69.784  0.00  0.00    -0.275 OA
BRANCH  55  56
ATOM     56  P   TPO d   1      20.947  10.841  69.491  0.00  0.00     0.422 P 
ATOM     57  O1P TPO d   1      20.169   9.871  68.635  0.00  0.00    -0.617 OA
ATOM     58  O2P TPO d   1      20.352  11.080  70.868  0.00  0.00    -0.617 OA
ATOM     59  O3P TPO d   1      21.319  12.107  68.758  0.00  0.00    -0.617 OA
ENDBRANCH  55  56
ENDBRANCH  49  55
ENDBRANCH   1  49
BRANCH   1  60
ATOM     60  C   TPO d   1      24.619  10.447  72.663  0.00  0.00     0.246 C 
ATOM     61  O   TPO d   1      24.397  11.559  73.166  0.00  0.00    -0.271 OA
ATOM     62  N   PRO d   1      25.785   9.791  72.824  0.00  0.00    -0.337 N 
ATOM     63  CA  PRO d   1      26.896  10.420  73.555  0.00  0.00     0.091 C 
ATOM     64  CD  PRO d   1      26.129   8.439  72.337  0.00  0.00    -0.001 C 
ATOM     65  CB  PRO d   1      27.877   9.264  73.772  0.00  0.00    -0.036 C 
ATOM     66  H26 PRO d   1      26.554  10.832  74.516  0.00  0.00     0.087 H 
ATOM     67  CG  PRO d   1      27.600   8.306  72.650  0.00  0.00    -0.048 C 
ATOM     68  H27 PRO d   1      27.699   8.783  74.745  0.00  0.00     0.036 H 
ATOM     69  H28 PRO d   1      28.915   9.624  73.726  0.00  0.00     0.036 H 
ATOM     70  H29 PRO d   1      27.832   7.277  72.961  0.00  0.00     0.035 H 
ATOM     71  H30 PRO d   1      28.203   8.567  71.768  0.00  0.00     0.035 H 
ATOM     72  H31 PRO d   1      25.950   8.355  71.255  0.00  0.00     0.064 H 
ATOM     73  H32 PRO d   1      25.545   7.672  72.866  0.00  0.00     0.064 H 
BRANCH  63  74
ATOM     74  C   PRO d   1      27.530  11.531  72.721  0.00  0.00     0.241 C 
ATOM     75  O   PRO d   1      27.683  11.373  71.510  0.00  0.00    -0.271 OA
ATOM     76  N   GLY d   1      27.892  12.641  73.363  0.00  0.00    -0.351 N 
ATOM     77  H33 GLY d   1      27.728  12.711  74.347  0.00  0.00     0.163 HD
BRANCH  76  78
ATOM     78  CA  GLY d   1      28.525  13.762  72.662  0.00  0.00     0.069 C 
ATOM     79  H34 GLY d   1      28.293  14.692  73.203  0.00  0.00     0.078 H 
ATOM     80  H35 GLY d   1      28.114  13.818  71.643  0.00  0.00     0.078 H 
BRANCH  78  81
ATOM     81  C   GLY d   1      30.035  13.616  72.570  0.00  0.00     0.236 C 
ATOM     82  O   GLY d   1      30.568  12.510  72.703  0.00  0.00    -0.272 OA
ATOM     83  N   SER d   1      30.726  14.731  72.343  0.00  0.00    -0.344 N 
ATOM     84  H36 SER d   1      30.231  15.583  72.171  0.00  0.00     0.163 HD
BRANCH  83  85
ATOM     85  CA  SER d   1      32.198  14.747  72.337  0.00  0.00     0.109 C 
ATOM     86  H37 SER d   1      32.538  14.045  71.561  0.00  0.00     0.090 H 
BRANCH  85  87
ATOM     87  C   SER d   1      32.780  14.290  73.675  0.00  0.00     0.243 C 
ATOM     88  O   SER d   1      32.357  14.758  74.740  0.00  0.00    -0.271 OA
ATOM     89  N   ARG d   1      33.748  13.376  73.610  0.00  0.00    -0.345 N 
ATOM     90  H41 ARG d   1      34.035  13.043  72.712  0.00  0.00     0.163 HD
BRANCH  89  91
ATOM     91  CA  ARG d   1      34.409  12.840  74.803  0.00  0.00     0.096 C 
ATOM     92  H42 ARG d   1      33.641  12.639  75.564  0.00  0.00     0.089 H 
BRANCH  91  93
ATOM     93  C   ARG d   1      35.400  13.857  75.369  0.00  0.00     0.196 C 
ATOM     94  O   ARG d   1      35.770  13.794  76.543  0.00  0.00    -0.646 OA
ATOM     95  OXT ARG d   1      35.850  14.762  74.663  0.00  0.00    -0.646 OA
ENDBRANCH  91  93
BRANCH  91  96
ATOM     96  CB  ARG d   1      35.133  11.525  74.484  0.00  0.00    -0.035 C 
ATOM     97  H43 ARG d   1      35.555  11.133  75.421  0.00  0.00     0.036 H 
ATOM     98  H44 ARG d   1      35.948  11.747  73.779  0.00  0.00     0.036 H 
BRANCH  96  99
ATOM     99  CG  ARG d   1      34.260  10.437  73.868  0.00  0.00    -0.047 C 
ATOM    100  H45 ARG d   1      34.852   9.899  73.113  0.00  0.00     0.035 H 
ATOM    101  H46 ARG d   1      33.396  10.915  73.383  0.00  0.00     0.035 H 
BRANCH  99 102
ATOM    102  CD  ARG d   1      33.744   9.424  74.896  0.00  0.00     0.009 C 
ATOM    103  H47 ARG d   1      34.561   9.194  75.596  0.00  0.00     0.064 H 
ATOM    104  H48 ARG d   1      33.450   8.508  74.362  0.00  0.00     0.064 H 
BRANCH 102 105
ATOM    105  NE  ARG d   1      32.593   9.896  75.670  0.00  0.00    -0.227 N 
ATOM    106  CZ  ARG d   1      31.402  10.212  75.160  0.00  0.00     0.665 C 
ATOM    107  NH1 ARG d   1      31.171  10.117  73.856  0.00  0.00    -0.235 N 
ATOM    108  NH2 ARG d   1      30.432  10.628  75.962  0.00  0.00    -0.235 N 
ATOM    109  H50 ARG d   1      30.246  10.365  73.478  0.00  0.00     0.174 HD
ATOM    110  H51 ARG d   1      31.917   9.796  73.223  0.00  0.00     0.174 HD
ATOM    111  H52 ARG d   1      30.599  10.706  76.975  0.00  0.00     0.174 HD
ATOM    112  H53 ARG d   1      29.511  10.873  75.572  0.00  0.00     0.174 HD
ATOM    113  H49 ARG d   1      32.713   9.991  76.689  0.00  0.00     0.177 HD
ENDBRANCH 102 105
ENDBRANCH  99 102
ENDBRANCH  96  99
ENDBRANCH  91  96
ENDBRANCH  89  91
ENDBRANCH  85  87
BRANCH  85 114
ATOM    114  CB  SER d   1      32.729  16.143  71.986  0.00  0.00     0.044 C 
ATOM    115  H38 SER d   1      33.815  16.168  72.159  0.00  0.00     0.077 H 
ATOM    116  H39 SER d   1      32.238  16.887  72.631  0.00  0.00     0.077 H 
BRANCH 114 117
ATOM    117  OG  SER d   1      32.470  16.463  70.633  0.00  0.00    -0.398 OA
ATOM    118  H40 SER d   1      32.895  15.826  70.071  0.00  0.00     0.209 HD
ENDBRANCH 114 117
ENDBRANCH  85 114
ENDBRANCH  83  85
ENDBRANCH  78  81
ENDBRANCH  76  78
ENDBRANCH  63  74
ENDBRANCH   1  60
TORSDOF 29
