REMARK  1 active torsions:
REMARK  status: ('A' for Active; 'I' for Inactive)
REMARK    1  A    between atoms: C8_4  and  S8_9 
ROOT
ATOM      1  C4  5JL d   1       7.223 -10.322   4.621  0.00  0.00     0.144 A 
ATOM      2  C5  5JL d   1       7.173 -10.732   3.341  0.00  0.00     0.171 A 
ATOM      3  C6  5JL d   1       7.860 -11.821   2.939  0.00  0.00     0.280 A 
ATOM      4  C8  5JL d   1       5.953  -8.967   3.574  0.00  0.00     0.166 A 
ATOM      5  N1  5JL d   1       8.639 -12.549   3.842  0.00  0.00    -0.298 N 
ATOM      6  N3  5JL d   1       7.984 -11.013   5.568  0.00  0.00    -0.317 N 
ATOM      7  O6  5JL d   1       7.832 -12.228   1.776  0.00  0.00    -0.265 OA
ATOM      8  N7  5JL d   1       6.371  -9.876   2.688  0.00  0.00    -0.215 NA
ATOM      9  N9  5JL d   1       6.471  -9.231   4.765  0.00  0.00    -0.319 N 
ATOM     10  C2  5JL d   1       8.703 -12.141   5.176  0.00  0.00     0.180 A 
ATOM     11  S2  5JL d   1       9.656 -13.013   6.332  0.00  0.00    -0.040 SA
ATOM     12  H1  5JL d   1       9.146 -13.355   3.536  0.00  0.00     0.171 HD
ATOM     13  H2  5JL d   1       8.012 -10.701   6.518  0.00  0.00     0.170 HD
ATOM     14  H4  5JL d   1       6.322  -8.697   5.633  0.00  0.00     0.169 HD
ENDROOT
BRANCH   4  15
ATOM     15  S8  5JL d   1       4.867  -7.592   3.254  0.00  0.00    -0.105 SA
ATOM     16  H3  5JL d   1       4.723  -7.073   4.106  0.00  0.00     0.110 HD
ENDBRANCH   4  15
TORSDOF 1
