REMARK  0 active torsions:
REMARK  status: ('A' for Active; 'I' for Inactive)
ROOT
ATOM      1  C2  5JQ d   1      12.538   0.978  -5.992  0.00  0.00     0.143 A 
ATOM      2  C3  5JQ d   1      10.799   0.534  -7.135  0.00  0.00     0.326 A 
ATOM      3  C4  5JQ d   1      14.830   1.344  -5.379  0.00  0.00     0.179 A 
ATOM      4  C5  5JQ d   1      14.234   0.746  -7.545  0.00  0.00     0.211 A 
ATOM      5  O2  5JQ d   1      14.572   0.460  -8.823  0.00  0.00    -0.169 OA
ATOM      6  N4  5JQ d   1      15.177   1.061  -6.642  0.00  0.00    -0.309 N 
ATOM      7  S1  5JQ d   1      16.024   1.751  -4.188  0.00  0.00    -0.040 SA
ATOM      8  N3  5JQ d   1      13.483   1.307  -5.021  0.00  0.00    -0.317 N 
ATOM      9  C1  5JQ d   1      12.931   0.702  -7.240  0.00  0.00     0.135 A 
ATOM     10  N2  5JQ d   1      11.841   0.422  -7.960  0.00  0.00    -0.302 N 
ATOM     11  O1  5JQ d   1       9.618   0.353  -7.435  0.00  0.00    -0.247 OA
ATOM     12  N1  5JQ d   1      11.212   0.874  -5.923  0.00  0.00    -0.292 N 
ATOM     13  H1  5JQ d   1      16.139   1.084  -6.913  0.00  0.00     0.170 HD
ATOM     14  H2  5JQ d   1      13.200   1.513  -4.084  0.00  0.00     0.170 HD
ATOM     15  H3  5JQ d   1      11.812   0.176  -8.929  0.00  0.00     0.171 HD
ATOM     16  H4  5JQ d   1      10.641   1.023  -5.116  0.00  0.00     0.172 HD
ENDROOT
TORSDOF 0
