REMARK WARNING: 32 MAX_TORS EXCEEDED!!!
REMARK  48 active torsions:
REMARK  status: ('A' for Active; 'I' for Inactive)
REMARK    1  A    between atoms: N_1  and  CA_2 
REMARK    2  A    between atoms: CA_2  and  C_3 
REMARK    3  A    between atoms: CA_2  and  CB_5 
REMARK       I    between atoms: C_3  and  N_10 
REMARK    4  A    between atoms: CB_5  and  CG_6 
REMARK    5  A    between atoms: CG_6  and  CD_7 
REMARK    6  A    between atoms: CD_7  and  CE_8 
REMARK    7  A    between atoms: CE_8  and  NZ_9 
REMARK    8  A    between atoms: N_10  and  CA_11 
REMARK    9  A    between atoms: CA_11  and  C_12 
REMARK   10  A    between atoms: CA_11  and  CB_14 
REMARK       I    between atoms: C_12  and  N_21 
REMARK   11  A    between atoms: CB_14  and  CG_15 
REMARK   12  A    between atoms: CG_15  and  CD_16 
REMARK   13  A    between atoms: CD_16  and  NE_17 
REMARK       I    between atoms: NE_17  and  CZ_18 
REMARK       I    between atoms: CZ_18  and  NH1_19 
REMARK       I    between atoms: CZ_18  and  NH2_20 
REMARK   14  A    between atoms: N_21  and  CA_22 
REMARK   15  A    between atoms: CA_22  and  C_23 
REMARK   16  A    between atoms: CA_22  and  CB_25 
REMARK       I    between atoms: C_23  and  N_27 
REMARK   17  A    between atoms: CB_25  and  OG_26 
REMARK   18  A    between atoms: N_27  and  CA_28 
REMARK   19  A    between atoms: CA_28  and  C_29 
REMARK   20  A    between atoms: CA_28  and  CB_31 
REMARK       I    between atoms: C_29  and  N_36 
REMARK   21  A    between atoms: CB_31  and  CG_32 
REMARK   22  A    between atoms: CG_32  and  CD_33 
REMARK   23  A    between atoms: CD_33  and  CE_34 
REMARK   24  A    between atoms: CE_34  and  NZ_35 
REMARK   25  A    between atoms: N_36  and  CA_37 
REMARK   26  A    between atoms: CA_37  and  C_38 
REMARK   27  A    between atoms: CA_37  and  CB_40 
REMARK       I    between atoms: C_38  and  N_47 
REMARK   28  A    between atoms: CB_40  and  CG_41 
REMARK   29  A    between atoms: CG_41  and  CD_42 
REMARK   30  A    between atoms: CD_42  and  NE_43 
REMARK       I    between atoms: NE_43  and  CZ_44 
REMARK       I    between atoms: CZ_44  and  NH1_45 
REMARK       I    between atoms: CZ_44  and  NH2_46 
REMARK   31  A    between atoms: N_47  and  CA_48 
REMARK   32  A    between atoms: CA_48  and  C_49 
REMARK   33  A    between atoms: CA_48  and  CB_51 
REMARK       I    between atoms: C_49  and  N_56 
REMARK   34  A    between atoms: CB_51  and  CG_52 
REMARK   35  A    between atoms: CG_52  and  CD_53 
REMARK   36  A    between atoms: CD_53  and  CE_54 
REMARK   37  A    between atoms: CE_54  and  NZ_55 
REMARK   38  A    between atoms: N_56  and  CA_57 
REMARK   39  A    between atoms: CA_57  and  C_58 
REMARK   40  A    between atoms: CA_57  and  CB_60 
REMARK       I    between atoms: C_58  and  N_67 
REMARK   41  A    between atoms: CB_60  and  CG_61 
REMARK   42  A    between atoms: CG_61  and  CD_62 
REMARK   43  A    between atoms: CD_62  and  NE_63 
REMARK       I    between atoms: NE_63  and  CZ_64 
REMARK       I    between atoms: CZ_64  and  NH1_65 
REMARK       I    between atoms: CZ_64  and  NH2_66 
REMARK   44  A    between atoms: N_67  and  CA_68 
REMARK   45  A    between atoms: CA_68  and  C_69 
REMARK   46  A    between atoms: CA_68  and  CB_71 
REMARK   47  A    between atoms: CB_71  and  OG1_72 
REMARK   48  A    between atoms: CB_71  and  CG2_73 
ROOT
ATOM      1  C   LYS d   1     -23.249  59.755 -27.593  0.00  0.00     0.241 C 
ATOM      2  O   LYS d   1     -22.739  60.649 -28.283  0.00  0.00    -0.271 OA
ATOM      3  N   ARG d   1     -24.551  59.495 -27.578  0.00  0.00    -0.346 N 
ATOM      4  H47 ARG d   1     -24.900  58.779 -26.973  0.00  0.00     0.163 HD
ENDROOT
BRANCH   3   5
ATOM      5  CA  ARG d   1     -25.476  60.225 -28.417  0.00  0.00     0.089 C 
ATOM      6  H48 ARG d   1     -25.134  61.267 -28.494  0.00  0.00     0.087 H 
BRANCH   5   7
ATOM      7  C   ARG d   1     -26.878  60.225 -27.823  0.00  0.00     0.241 C 
ATOM      8  O   ARG d   1     -27.299  59.253 -27.195  0.00  0.00    -0.271 OA
ATOM      9  N   LYS d   1     -27.593  61.323 -28.044  0.00  0.00    -0.346 N 
ATOM     10  H60 LYS d   1     -27.172  62.070 -28.559  0.00  0.00     0.163 HD
BRANCH   9  11
ATOM     11  CA  LYS d   1     -28.958  61.490 -27.572  0.00  0.00     0.089 C 
ATOM     12  H61 LYS d   1     -28.969  61.345 -26.482  0.00  0.00     0.087 H 
BRANCH  11  13
ATOM     13  C   LYS d   1     -29.872  60.441 -28.201  0.00  0.00     0.241 C 
ATOM     14  O   LYS d   1     -29.584  59.935 -29.284  0.00  0.00    -0.271 OA
ATOM     15  N   ARG d   1     -30.976  60.124 -27.528  0.00  0.00    -0.346 N 
ATOM     16  H73 ARG d   1     -31.249  60.703 -26.760  0.00  0.00     0.163 HD
BRANCH  15  17
ATOM     17  CA  ARG d   1     -31.812  58.964 -27.860  0.00  0.00     0.089 C 
ATOM     18  H74 ARG d   1     -31.190  58.062 -27.758  0.00  0.00     0.087 H 
BRANCH  17  19
ATOM     19  C   ARG d   1     -32.363  58.987 -29.301  0.00  0.00     0.241 C 
ATOM     20  O   ARG d   1     -33.109  58.089 -29.704  0.00  0.00    -0.271 OA
ATOM     21  N   THR d   1     -31.992  60.015 -30.066  0.00  0.00    -0.343 N 
ATOM     22  H86 THR d   1     -31.473  60.754 -29.637  0.00  0.00     0.163 HD
BRANCH  21  23
ATOM     23  CA  THR d   1     -32.298  60.130 -31.497  0.00  0.00     0.120 C 
ATOM     24  H87 THR d   1     -31.750  61.002 -31.882  0.00  0.00     0.093 H 
BRANCH  23  25
ATOM     25  C   THR d   1     -33.787  60.366 -31.724  0.00  0.00     0.199 C 
ATOM     26  O   THR d   1     -34.183  60.959 -32.729  0.00  0.00    -0.646 OA
ATOM     27  OXT THR d   1     -34.618  59.967 -30.906  0.00  0.00    -0.646 OA
ENDBRANCH  23  25
BRANCH  23  28
ATOM     28  CB  THR d   1     -31.846  58.885 -32.314  0.00  0.00     0.061 C 
ATOM     29  H88 THR d   1     -32.006  59.092 -33.382  0.00  0.00     0.086 H 
BRANCH  28  30
ATOM     30  OG1 THR d   1     -32.625  57.740 -31.943  0.00  0.00    -0.393 OA
ATOM     31  H89 THR d   1     -32.507  57.565 -31.017  0.00  0.00     0.210 HD
ENDBRANCH  28  30
BRANCH  28  32
ATOM     32  CG2 THR d   1     -30.368  58.591 -32.092  0.00  0.00    -0.050 C 
ATOM     33  H90 THR d   1     -30.077  57.708 -32.680  0.00  0.00     0.031 H 
ATOM     34  H91 THR d   1     -30.189  58.395 -31.024  0.00  0.00     0.031 H 
ATOM     35  H92 THR d   1     -29.770  59.457 -32.411  0.00  0.00     0.031 H 
ENDBRANCH  28  32
ENDBRANCH  23  28
ENDBRANCH  21  23
ENDBRANCH  17  19
BRANCH  17  36
ATOM     36  CB  ARG d   1     -32.968  58.874 -26.853  0.00  0.00    -0.036 C 
ATOM     37  H75 ARG d   1     -33.672  59.690 -27.073  0.00  0.00     0.036 H 
ATOM     38  H76 ARG d   1     -32.549  59.012 -25.845  0.00  0.00     0.036 H 
BRANCH  36  39
ATOM     39  CG  ARG d   1     -33.754  57.564 -26.858  0.00  0.00    -0.048 C 
ATOM     40  H77 ARG d   1     -33.819  57.191 -27.891  0.00  0.00     0.035 H 
ATOM     41  H78 ARG d   1     -34.766  57.754 -26.472  0.00  0.00     0.035 H 
BRANCH  39  42
ATOM     42  CD  ARG d   1     -33.088  56.506 -25.994  0.00  0.00     0.009 C 
ATOM     43  H79 ARG d   1     -32.012  56.485 -26.223  0.00  0.00     0.064 H 
ATOM     44  H80 ARG d   1     -33.531  55.526 -26.226  0.00  0.00     0.064 H 
BRANCH  42  45
ATOM     45  NE  ARG d   1     -33.263  56.779 -24.571  0.00  0.00    -0.227 N 
ATOM     46  CZ  ARG d   1     -32.284  56.732 -23.673  0.00  0.00     0.665 C 
ATOM     47  NH1 ARG d   1     -31.051  56.420 -24.049  0.00  0.00    -0.235 N 
ATOM     48  NH2 ARG d   1     -32.538  56.996 -22.398  0.00  0.00    -0.235 N 
ATOM     49  H82 ARG d   1     -30.294  56.384 -23.352  0.00  0.00     0.174 HD
ATOM     50  H83 ARG d   1     -30.851  56.214 -25.038  0.00  0.00     0.174 HD
ATOM     51  H84 ARG d   1     -33.495  57.239 -22.103  0.00  0.00     0.174 HD
ATOM     52  H85 ARG d   1     -31.779  56.958 -21.703  0.00  0.00     0.174 HD
ATOM     53  H81 ARG d   1     -34.207  57.024 -24.241  0.00  0.00     0.177 HD
ENDBRANCH  42  45
ENDBRANCH  39  42
ENDBRANCH  36  39
ENDBRANCH  17  36
ENDBRANCH  15  17
ENDBRANCH  11  13
BRANCH  11  54
ATOM     54  CB  LYS d   1     -29.450  62.904 -27.871  0.00  0.00    -0.038 C 
ATOM     55  H62 LYS d   1     -30.537  62.941 -27.706  0.00  0.00     0.036 H 
ATOM     56  H63 LYS d   1     -29.231  63.138 -28.923  0.00  0.00     0.036 H 
BRANCH  54  57
ATOM     57  CG  LYS d   1     -28.786  63.956 -26.989  0.00  0.00    -0.061 C 
ATOM     58  H64 LYS d   1     -27.698  63.797 -27.008  0.00  0.00     0.033 H 
ATOM     59  H65 LYS d   1     -29.156  63.838 -25.960  0.00  0.00     0.033 H 
BRANCH  57  60
ATOM     60  CD  LYS d   1     -29.080  65.372 -27.454  0.00  0.00    -0.043 C 
ATOM     61  H66 LYS d   1     -30.160  65.563 -27.371  0.00  0.00     0.035 H 
ATOM     62  H67 LYS d   1     -28.768  65.480 -28.503  0.00  0.00     0.035 H 
BRANCH  60  63
ATOM     63  CE  LYS d   1     -28.326  66.384 -26.600  0.00  0.00     0.080 C 
ATOM     64  H68 LYS d   1     -27.254  66.137 -26.623  0.00  0.00     0.075 H 
ATOM     65  H69 LYS d   1     -28.695  66.318 -25.566  0.00  0.00     0.075 H 
BRANCH  63  66
ATOM     66  NZ  LYS d   1     -28.505  67.781 -27.084  0.00  0.00    -0.079 N 
ATOM     67  H70 LYS d   1     -27.990  68.411 -26.490  0.00  0.00     0.274 HD
ATOM     68  H71 LYS d   1     -29.483  68.022 -27.061  0.00  0.00     0.274 HD
ATOM     69  H72 LYS d   1     -28.163  67.856 -28.029  0.00  0.00     0.274 HD
ENDBRANCH  63  66
ENDBRANCH  60  63
ENDBRANCH  57  60
ENDBRANCH  54  57
ENDBRANCH  11  54
ENDBRANCH   9  11
ENDBRANCH   5   7
BRANCH   5  70
ATOM     70  CB  ARG d   1     -25.477  59.602 -29.816  0.00  0.00    -0.036 C 
ATOM     71  H49 ARG d   1     -25.384  58.512 -29.702  0.00  0.00     0.036 H 
ATOM     72  H50 ARG d   1     -24.603  59.989 -30.360  0.00  0.00     0.036 H 
BRANCH  70  73
ATOM     73  CG  ARG d   1     -26.707  59.880 -30.652  0.00  0.00    -0.048 C 
ATOM     74  H51 ARG d   1     -26.694  60.930 -30.980  0.00  0.00     0.035 H 
ATOM     75  H52 ARG d   1     -27.607  59.696 -30.047  0.00  0.00     0.035 H 
BRANCH  73  76
ATOM     76  CD  ARG d   1     -26.727  58.978 -31.865  0.00  0.00     0.009 C 
ATOM     77  H53 ARG d   1     -25.870  59.227 -32.508  0.00  0.00     0.064 H 
ATOM     78  H54 ARG d   1     -27.662  59.147 -32.419  0.00  0.00     0.064 H 
BRANCH  76  79
ATOM     79  NE  ARG d   1     -26.645  57.568 -31.494  0.00  0.00    -0.227 N 
ATOM     80  CZ  ARG d   1     -26.587  56.575 -32.372  0.00  0.00     0.665 C 
ATOM     81  NH1 ARG d   1     -26.602  56.842 -33.667  0.00  0.00    -0.235 N 
ATOM     82  NH2 ARG d   1     -26.516  55.314 -31.963  0.00  0.00    -0.235 N 
ATOM     83  H56 ARG d   1     -26.557  56.074 -34.352  0.00  0.00     0.174 HD
ATOM     84  H57 ARG d   1     -26.659  57.818 -33.991  0.00  0.00     0.174 HD
ATOM     85  H58 ARG d   1     -26.504  55.099 -30.956  0.00  0.00     0.174 HD
ATOM     86  H59 ARG d   1     -26.473  54.550 -32.653  0.00  0.00     0.174 HD
ATOM     87  H55 ARG d   1     -26.631  57.330 -30.492  0.00  0.00     0.177 HD
ENDBRANCH  76  79
ENDBRANCH  73  76
ENDBRANCH  70  73
ENDBRANCH   5  70
ENDBRANCH   3   5
BRANCH   1  88
ATOM     88  CA  LYS d   1     -22.400  58.862 -26.698  0.00  0.00     0.089 C 
ATOM     89  H35 LYS d   1     -22.790  57.834 -26.740  0.00  0.00     0.087 H 
BRANCH  88  90
ATOM     90  N   LYS d   1     -21.024  58.856 -27.178  0.00  0.00    -0.346 N 
ATOM     91  C   SER d   1     -20.584  57.826 -27.886  0.00  0.00     0.243 C 
ATOM     92  O   SER d   1     -21.307  56.874 -28.167  0.00  0.00    -0.271 OA
ATOM     93  H34 LYS d   1     -20.416  59.624 -26.974  0.00  0.00     0.163 HD
BRANCH  91  94
ATOM     94  CA  SER d   1     -19.133  57.860 -28.353  0.00  0.00     0.109 C 
ATOM     95  H30 SER d   1     -18.529  58.351 -27.576  0.00  0.00     0.090 H 
BRANCH  94  96
ATOM     96  N   SER d   1     -18.630  56.510 -28.544  0.00  0.00    -0.344 N 
ATOM     97  C   ARG d   1     -17.689  55.941 -27.805  0.00  0.00     0.241 C 
ATOM     98  O   ARG d   1     -17.104  56.508 -26.880  0.00  0.00    -0.271 OA
ATOM     99  H29 SER d   1     -19.023  55.971 -29.288  0.00  0.00     0.163 HD
BRANCH  97 100
ATOM    100  CA  ARG d   1     -17.400  54.493 -28.184  0.00  0.00     0.089 C 
ATOM    101  H17 ARG d   1     -17.726  54.343 -29.224  0.00  0.00     0.087 H 
BRANCH 100 102
ATOM    102  N   ARG d   1     -15.978  54.146 -28.116  0.00  0.00    -0.346 N 
ATOM    103  C   LYS d   1     -15.178  54.320 -29.168  0.00  0.00     0.248 C 
ATOM    104  O   LYS d   1     -15.560  54.840 -30.220  0.00  0.00    -0.271 OA
ATOM    105  H16 ARG d   1     -15.602  53.773 -27.268  0.00  0.00     0.163 HD
BRANCH 103 106
ATOM    106  CA  LYS d   1     -13.731  53.857 -29.014  0.00  0.00     0.176 C 
ATOM    107  H4  LYS d   1     -13.624  52.880 -29.508  0.00  0.00     0.099 H 
BRANCH 106 108
ATOM    108  N   LYS d   1     -12.814  54.796 -29.650  0.00  0.00    -0.067 N 
ATOM    109  H1  LYS d   1     -11.867  54.470 -29.536  0.00  0.00     0.275 HD
ATOM    110  H2  LYS d   1     -12.911  55.703 -29.221  0.00  0.00     0.275 HD
ATOM    111  H3  LYS d   1     -13.030  54.863 -30.632  0.00  0.00     0.275 HD
ENDBRANCH 106 108
BRANCH 106 112
ATOM    112  CB  LYS d   1     -13.389  53.693 -27.532  0.00  0.00    -0.030 C 
ATOM    113  H5  LYS d   1     -14.038  54.365 -26.951  0.00  0.00     0.036 H 
ATOM    114  H6  LYS d   1     -12.338  53.982 -27.386  0.00  0.00     0.036 H 
BRANCH 112 115
ATOM    115  CG  LYS d   1     -13.574  52.276 -27.007  0.00  0.00    -0.061 C 
ATOM    116  H7  LYS d   1     -12.671  51.690 -27.234  0.00  0.00     0.033 H 
ATOM    117  H8  LYS d   1     -14.442  51.820 -27.505  0.00  0.00     0.033 H 
BRANCH 115 118
ATOM    118  CD  LYS d   1     -13.805  52.266 -25.504  0.00  0.00    -0.043 C 
ATOM    119  H9  LYS d   1     -12.987  52.812 -25.011  0.00  0.00     0.035 H 
ATOM    120  H10 LYS d   1     -13.818  51.225 -25.149  0.00  0.00     0.035 H 
BRANCH 118 121
ATOM    121  CE  LYS d   1     -15.127  52.928 -25.153  0.00  0.00     0.080 C 
ATOM    122  H11 LYS d   1     -15.934  52.418 -25.700  0.00  0.00     0.075 H 
ATOM    123  H12 LYS d   1     -15.086  53.983 -25.460  0.00  0.00     0.075 H 
BRANCH 121 124
ATOM    124  NZ  LYS d   1     -15.423  52.865 -23.697  0.00  0.00    -0.079 N 
ATOM    125  H13 LYS d   1     -16.306  53.315 -23.514  0.00  0.00     0.274 HD
ATOM    126  H14 LYS d   1     -14.693  53.336 -23.185  0.00  0.00     0.274 HD
ATOM    127  H15 LYS d   1     -15.470  51.901 -23.405  0.00  0.00     0.274 HD
ENDBRANCH 121 124
ENDBRANCH 118 121
ENDBRANCH 115 118
ENDBRANCH 112 115
ENDBRANCH 106 112
ENDBRANCH 103 106
ENDBRANCH 100 102
BRANCH 100 128
ATOM    128  CB  ARG d   1     -18.236  53.580 -27.278  0.00  0.00    -0.036 C 
ATOM    129  H18 ARG d   1     -19.235  54.030 -27.188  0.00  0.00     0.036 H 
ATOM    130  H19 ARG d   1     -17.751  53.561 -26.291  0.00  0.00     0.036 H 
BRANCH 128 131
ATOM    131  CG  ARG d   1     -18.425  52.131 -27.723  0.00  0.00    -0.048 C 
ATOM    132  H20 ARG d   1     -17.445  51.658 -27.882  0.00  0.00     0.035 H 
ATOM    133  H21 ARG d   1     -19.004  52.099 -28.658  0.00  0.00     0.035 H 
BRANCH 131 134
ATOM    134  CD  ARG d   1     -19.183  51.397 -26.618  0.00  0.00     0.009 C 
ATOM    135  H22 ARG d   1     -19.308  52.105 -25.785  0.00  0.00     0.064 H 
ATOM    136  H23 ARG d   1     -18.550  50.558 -26.294  0.00  0.00     0.064 H 
BRANCH 134 137
ATOM    137  NE  ARG d   1     -20.504  50.849 -26.919  0.00  0.00    -0.227 N 
ATOM    138  CZ  ARG d   1     -21.243  50.239 -25.993  0.00  0.00     0.665 C 
ATOM    139  NH1 ARG d   1     -20.770  50.133 -24.758  0.00  0.00    -0.235 N 
ATOM    140  NH2 ARG d   1     -22.439  49.742 -26.282  0.00  0.00    -0.235 N 
ATOM    141  H25 ARG d   1     -21.329  49.664 -24.031  0.00  0.00     0.174 HD
ATOM    142  H26 ARG d   1     -19.844  50.519 -24.526  0.00  0.00     0.174 HD
ATOM    143  H27 ARG d   1     -22.812  49.821 -27.239  0.00  0.00     0.174 HD
ATOM    144  H28 ARG d   1     -22.994  49.277 -25.549  0.00  0.00     0.174 HD
ATOM    145  H24 ARG d   1     -20.875  50.937 -27.876  0.00  0.00     0.177 HD
ENDBRANCH 134 137
ENDBRANCH 131 134
ENDBRANCH 128 131
ENDBRANCH 100 128
ENDBRANCH  97 100
ENDBRANCH  94  96
BRANCH  94 146
ATOM    146  CB  SER d   1     -19.001  58.662 -29.646  0.00  0.00     0.044 C 
ATOM    147  H31 SER d   1     -19.213  59.721 -29.437  0.00  0.00     0.077 H 
ATOM    148  H32 SER d   1     -19.725  58.281 -30.382  0.00  0.00     0.077 H 
BRANCH 146 149
ATOM    149  OG  SER d   1     -17.692  58.547 -30.179  0.00  0.00    -0.398 OA
ATOM    150  H33 SER d   1     -17.506  57.634 -30.364  0.00  0.00     0.209 HD
ENDBRANCH 146 149
ENDBRANCH  94 146
ENDBRANCH  91  94
ENDBRANCH  88  90
BRANCH  88 151
ATOM    151  CB  LYS d   1     -22.498  59.362 -25.261  0.00  0.00    -0.038 C 
ATOM    152  H36 LYS d   1     -23.473  59.048 -24.860  0.00  0.00     0.036 H 
ATOM    153  H37 LYS d   1     -22.446  60.461 -25.281  0.00  0.00     0.036 H 
BRANCH 151 154
ATOM    154  CG  LYS d   1     -21.430  58.866 -24.321  0.00  0.00    -0.061 C 
ATOM    155  H38 LYS d   1     -20.444  58.957 -24.799  0.00  0.00     0.033 H 
ATOM    156  H39 LYS d   1     -21.619  57.812 -24.068  0.00  0.00     0.033 H 
BRANCH 154 157
ATOM    157  CD  LYS d   1     -21.467  59.708 -23.062  0.00  0.00    -0.043 C 
ATOM    158  H40 LYS d   1     -22.478  59.651 -22.632  0.00  0.00     0.035 H 
ATOM    159  H41 LYS d   1     -21.241  60.750 -23.331  0.00  0.00     0.035 H 
BRANCH 157 160
ATOM    160  CE  LYS d   1     -20.465  59.249 -22.009  0.00  0.00     0.080 C 
ATOM    161  H42 LYS d   1     -19.526  59.803 -22.155  0.00  0.00     0.075 H 
ATOM    162  H43 LYS d   1     -20.281  58.173 -22.147  0.00  0.00     0.075 H 
BRANCH 160 163
ATOM    163  NZ  LYS d   1     -20.938  59.475 -20.609  0.00  0.00    -0.079 N 
ATOM    164  H44 LYS d   1     -20.236  59.153 -19.961  0.00  0.00     0.274 HD
ATOM    165  H45 LYS d   1     -21.794  58.965 -20.457  0.00  0.00     0.274 HD
ATOM    166  H46 LYS d   1     -21.102  60.459 -20.465  0.00  0.00     0.274 HD
ENDBRANCH 160 163
ENDBRANCH 157 160
ENDBRANCH 154 157
ENDBRANCH 151 154
ENDBRANCH  88 151
ENDBRANCH   1  88
TORSDOF 48
