REMARK  4 active torsions:
REMARK  status: ('A' for Active; 'I' for Inactive)
REMARK    1  A    between atoms: N_1  and  CA_2 
REMARK    2  A    between atoms: CA_2  and  CB_3 
REMARK    3  A    between atoms: CA_2  and  C_13 
REMARK    4  A    between atoms: CB_3  and  CG_4 
ROOT
ATOM      1  CG  DTR d   1      96.244 -39.044 -19.049  0.00  0.00    -0.028 A 
ATOM      2  CD1 DTR d   1      96.374 -37.747 -18.563  0.00  0.00    -0.015 A 
ATOM      3  NE1 DTR d   1      97.613 -37.549 -18.089  0.00  0.00    -0.365 N 
ATOM      4  CE2 DTR d   1      98.366 -38.681 -18.290  0.00  0.00     0.042 A 
ATOM      5  CZ2 DTR d   1      99.719 -38.950 -17.979  0.00  0.00    -0.056 A 
ATOM      6  CH2 DTR d   1     100.204 -40.212 -18.315  0.00  0.00    -0.081 A 
ATOM      7  CZ3 DTR d   1      99.399 -41.172 -18.932  0.00  0.00    -0.082 A 
ATOM      8  CE3 DTR d   1      98.083 -40.900 -19.200  0.00  0.00    -0.070 A 
ATOM      9  CD2 DTR d   1      97.552 -39.659 -18.881  0.00  0.00    -0.002 A 
ATOM     10  H7  DTR d   1      95.582 -36.999 -18.567  0.00  0.00     0.112 H 
ATOM     11  H8  DTR d   1      97.948 -36.683 -17.643  0.00  0.00     0.165 HD
ATOM     12  H9  DTR d   1     100.349 -38.209 -17.501  0.00  0.00     0.086 H 
ATOM     13  H10 DTR d   1     101.236 -40.456 -18.091  0.00  0.00     0.083 H 
ATOM     14  H11 DTR d   1      99.817 -42.136 -19.200  0.00  0.00     0.083 H 
ATOM     15  H12 DTR d   1      97.457 -41.655 -19.662  0.00  0.00     0.084 H 
ENDROOT
BRANCH   1  16
ATOM     16  CB  DTR d   1      95.051 -39.672 -19.723  0.00  0.00    -0.003 C 
ATOM     17  H5  DTR d   1      94.789 -39.090 -20.619  0.00  0.00     0.044 H 
ATOM     18  H6  DTR d   1      95.297 -40.703 -20.015  0.00  0.00     0.044 H 
BRANCH  16  19
ATOM     19  CA  DTR d   1      93.871 -39.686 -18.766  0.00  0.00     0.186 C 
ATOM     20  H4  DTR d   1      93.927 -38.809 -18.104  0.00  0.00     0.101 H 
BRANCH  19  21
ATOM     21  N   DTR d   1      92.611 -39.618 -19.563  0.00  0.00    -0.065 N 
ATOM     22  H1  DTR d   1      92.608 -38.774 -20.115  0.00  0.00     0.275 HD
ATOM     23  H2  DTR d   1      91.819 -39.615 -18.940  0.00  0.00     0.275 HD
ATOM     24  H3  DTR d   1      92.556 -40.419 -20.173  0.00  0.00     0.275 HD
ENDBRANCH  19  21
BRANCH  19  25
ATOM     25  C   DTR d   1      93.914 -40.933 -17.928  0.00  0.00     0.204 C 
ATOM     26  O   DTR d   1      93.046 -41.860 -18.090  0.00  0.00    -0.646 OA
ATOM     27  OXT DTR d   1      94.740 -40.922 -17.014  0.00  0.00    -0.646 OA
ENDBRANCH  19  25
ENDBRANCH  16  19
ENDBRANCH   1  16
TORSDOF 4
