REMARK  8 active torsions:
REMARK  status: ('A' for Active; 'I' for Inactive)
REMARK    1  A    between atoms: C01_1  and  N02_2 
REMARK    2  A    between atoms: N07_7  and  C08_8 
REMARK    3  A    between atoms: C13_13  and  N14_14 
REMARK    4  A    between atoms: N14_14  and  C15_15 
REMARK    5  A    between atoms: C20_20  and  O21_21 
REMARK    6  A    between atoms: O21_21  and  C22_22 
REMARK    7  A    between atoms: C27_27  and  N28_28 
REMARK       I    between atoms: N28_28  and  C29_29 
REMARK    8  A    between atoms: C29_29  and  C30_30 
ROOT
ATOM      1  C08 5KW d   1     -17.768 -48.895 -19.570  0.00  0.00     0.030 A 
ATOM      2  C09 5KW d   1     -18.170 -47.828 -18.826  0.00  0.00    -0.055 A 
ATOM      3  C10 5KW d   1     -17.166 -47.127 -18.130  0.00  0.00    -0.054 A 
ATOM      4  C11 5KW d   1     -16.487 -49.401 -19.699  0.00  0.00    -0.055 A 
ATOM      5  C12 5KW d   1     -15.497 -48.735 -18.924  0.00  0.00    -0.054 A 
ATOM      6  C13 5KW d   1     -15.842 -47.590 -18.169  0.00  0.00     0.049 A 
ATOM      7  H13 5KW d   1     -19.212 -47.532 -18.772  0.00  0.00     0.087 H 
ATOM      8  H14 5KW d   1     -17.415 -46.235 -17.567  0.00  0.00     0.087 H 
ATOM      9  H15 5KW d   1     -16.255 -50.242 -20.342  0.00  0.00     0.087 H 
ATOM     10  H16 5KW d   1     -14.478 -49.105 -18.912  0.00  0.00     0.087 H 
ENDROOT
BRANCH   6  11
ATOM     11  N14 5KW d   1     -14.949 -46.806 -17.388  0.00  0.00    -0.188 N 
ATOM     12  H17 5KW d   1     -15.236 -45.836 -17.191  0.00  0.00     0.184 HD
BRANCH  11  13
ATOM     13  C15 5KW d   1     -13.747 -47.209 -16.871  0.00  0.00     0.729 C 
ATOM     14  N16 5KW d   1     -13.147 -46.324 -16.095  0.00  0.00    -0.073 NA
ATOM     15  C17 5KW d   1     -11.890 -46.568 -15.646  0.00  0.00     0.046 C 
ATOM     16  C18 5KW d   1     -11.288 -47.769 -15.786  0.00  0.00     0.105 C 
ATOM     17  H18 5KW d   1     -11.348 -45.768 -15.156  0.00  0.00     0.118 H 
ATOM     18 CL1  5KW d   1      -9.657 -48.192 -15.184  0.00  0.00    -0.078 Cl
ATOM     19  C20 5KW d   1     -12.007 -48.618 -16.575  0.00  0.00     0.212 C 
ATOM     20  N32 5KW d   1     -13.190 -48.377 -17.123  0.00  0.00    -0.036 NA
BRANCH  19  21
ATOM     21  O21 5KW d   1     -11.339 -49.832 -16.788  0.00  0.00    -0.288 OA
BRANCH  21  22
ATOM     22  C22 5KW d   1     -11.848 -50.661 -17.793  0.00  0.00     0.104 A 
ATOM     23  C23 5KW d   1     -13.148 -51.117 -17.764  0.00  0.00    -0.048 A 
ATOM     24  C24 5KW d   1     -13.583 -51.968 -18.790  0.00  0.00    -0.080 A 
ATOM     25  H19 5KW d   1     -13.820 -50.824 -16.965  0.00  0.00     0.087 H 
ATOM     26  C25 5KW d   1     -12.688 -52.266 -19.837  0.00  0.00    -0.081 A 
ATOM     27  H20 5KW d   1     -14.583 -52.386 -18.778  0.00  0.00     0.083 H 
ATOM     28  C26 5KW d   1     -11.358 -51.758 -19.889  0.00  0.00    -0.054 A 
ATOM     29  H21 5KW d   1     -13.027 -52.911 -20.639  0.00  0.00     0.083 H 
ATOM     30  C27 5KW d   1     -10.954 -50.935 -18.842  0.00  0.00     0.069 A 
ATOM     31  H22 5KW d   1     -10.691 -52.002 -20.708  0.00  0.00     0.087 H 
BRANCH  30  32
ATOM     32  N28 5KW d   1      -9.683 -50.362 -18.675  0.00  0.00    -0.325 N 
ATOM     33  C29 5KW d   1      -8.510 -50.818 -19.275  0.00  0.00     0.218 C 
ATOM     34  O31 5KW d   1      -8.554 -51.757 -20.135  0.00  0.00    -0.274 OA
ATOM     35  H23 5KW d   1      -9.614 -49.563 -18.078  0.00  0.00     0.169 HD
BRANCH  33  36
ATOM     36  C30 5KW d   1      -7.220 -50.135 -18.831  0.00  0.00    -0.003 C 
ATOM     37  H24 5KW d   1      -6.368 -50.576 -19.369  0.00  0.00     0.040 H 
ATOM     38  H25 5KW d   1      -7.083 -50.277 -17.749  0.00  0.00     0.040 H 
ATOM     39  H26 5KW d   1      -7.279 -49.060 -19.055  0.00  0.00     0.040 H 
ENDBRANCH  33  36
ENDBRANCH  30  32
ENDBRANCH  21  22
ENDBRANCH  19  21
ENDBRANCH  11  13
ENDBRANCH   6  11
BRANCH   1  40
ATOM     40  N07 5KW d   1     -18.807 -49.538 -20.215  0.00  0.00    -0.378 N 
ATOM     41  C04 5KW d   1     -19.787 -48.661 -20.852  0.00  0.00     0.018 C 
ATOM     42  C03 5KW d   1     -20.831 -49.645 -21.411  0.00  0.00     0.098 C 
ATOM     43  H7  5KW d   1     -20.241 -47.979 -20.118  0.00  0.00     0.066 H 
ATOM     44  H8  5KW d   1     -19.325 -48.075 -21.660  0.00  0.00     0.066 H 
ATOM     45  N02 5KW d   1     -20.270 -50.854 -21.934  0.00  0.00    -0.072 N 
ATOM     46  H5  5KW d   1     -21.527 -49.909 -20.601  0.00  0.00     0.078 H 
ATOM     47  H6  5KW d   1     -21.383 -49.142 -22.219  0.00  0.00     0.078 H 
ATOM     48  C05 5KW d   1     -19.030 -51.304 -21.637  0.00  0.00     0.098 C 
ATOM     49  H4  5KW d   1     -20.058 -50.514 -22.859  0.00  0.00     0.279 HD
ATOM     50  C06 5KW d   1     -18.520 -50.803 -20.555  0.00  0.00     0.018 C 
ATOM     51  H9  5KW d   1     -18.364 -51.056 -22.477  0.00  0.00     0.078 H 
ATOM     52  H10 5KW d   1     -19.080 -52.397 -21.519  0.00  0.00     0.078 H 
ATOM     53  H11 5KW d   1     -17.427 -50.867 -20.657  0.00  0.00     0.066 H 
ATOM     54  H12 5KW d   1     -18.848 -51.441 -19.721  0.00  0.00     0.066 H 
BRANCH  45  55
ATOM     55  C01 5KW d   1     -21.266 -51.845 -22.279  0.00  0.00     0.066 C 
ATOM     56  H1  5KW d   1     -22.221 -51.345 -22.496  0.00  0.00     0.068 H 
ATOM     57  H2  5KW d   1     -21.399 -52.540 -21.437  0.00  0.00     0.068 H 
ATOM     58  H3  5KW d   1     -20.935 -52.404 -23.167  0.00  0.00     0.068 H 
ENDBRANCH  45  55
ENDBRANCH   1  40
TORSDOF 8
