REMARK  9 active torsions:
REMARK  status: ('A' for Active; 'I' for Inactive)
REMARK    1  A    between atoms: CBE_1  and  CAZ_2 
REMARK    2  A    between atoms: CAY_8  and  NAW_9 
REMARK       I    between atoms: NAW_9  and  CAV_10 
REMARK    3  A    between atoms: CAV_10  and  CAU_12 
REMARK    4  A    between atoms: CAU_12  and  CAT_13 
REMARK    5  A    between atoms: CAT_13  and  CAS_14 
REMARK    6  A    between atoms: CAS_14  and  NAA_15 
REMARK    7  A    between atoms: CAC_19  and  CAL_20 
REMARK    8  A    between atoms: CAG_22  and  CAK_23 
REMARK    9  A    between atoms: NAH_26  and  CAM_27 
ROOT
ATOM      1  NAA 5KP d   1      -1.954  -4.466  -4.468  0.00  0.00    -0.233 N 
ATOM      2  CAF 5KP d   1      -1.520  -3.340  -3.861  0.00  0.00     0.295 A 
ATOM      3  OAJ 5KP d   1      -1.052  -2.417  -4.517  0.00  0.00    -0.264 OA
ATOM      4  NAB 5KP d   1      -2.438  -5.419  -3.780  0.00  0.00    -0.174 NA
ATOM      5  CAC 5KP d   1      -2.532  -5.307  -2.436  0.00  0.00     0.066 A 
ATOM      6  CAD 5KP d   1      -2.087  -4.192  -1.837  0.00  0.00     0.050 A 
ATOM      7  CAG 5KP d   1      -2.002  -3.728  -0.601  0.00  0.00     0.047 A 
ATOM      8  CAE 5KP d   1      -1.584  -3.211  -2.556  0.00  0.00     0.161 A 
ATOM      9  NAI 5KP d   1      -1.215  -2.227  -1.745  0.00  0.00    -0.161 NA
ATOM     10  NAH 5KP d   1      -1.449  -2.520  -0.629  0.00  0.00    -0.237 N 
ENDROOT
BRANCH   1  11
ATOM     11  CAS 5KP d   1      -1.810  -4.513  -5.943  0.00  0.00     0.021 C 
ATOM     12  H12 5KP d   1      -2.377  -3.681  -6.387  0.00  0.00     0.067 H 
ATOM     13  H13 5KP d   1      -0.746  -4.413  -6.204  0.00  0.00     0.067 H 
BRANCH  11  14
ATOM     14  CAT 5KP d   1      -2.328  -5.804  -6.489  0.00  0.00    -0.040 C 
ATOM     15  H10 5KP d   1      -1.837  -6.656  -5.997  0.00  0.00     0.036 H 
ATOM     16  H11 5KP d   1      -3.416  -5.875  -6.346  0.00  0.00     0.036 H 
BRANCH  14  17
ATOM     17  CAU 5KP d   1      -1.986  -5.773  -7.966  0.00  0.00     0.011 C 
ATOM     18  H8  5KP d   1      -2.912  -5.822  -8.558  0.00  0.00     0.047 H 
ATOM     19  H9  5KP d   1      -1.451  -4.841  -8.199  0.00  0.00     0.047 H 
BRANCH  17  20
ATOM     20  CAV 5KP d   1      -1.110  -6.954  -8.305  0.00  0.00     0.222 C 
ATOM     21  NAW 5KP d   1      -0.394  -6.732  -9.437  0.00  0.00    -0.327 N 
ATOM     22  H7  5KP d   1      -0.430  -5.828  -9.864  0.00  0.00     0.169 HD
ATOM     23  OAX 5KP d   1      -1.064  -7.964  -7.602  0.00  0.00    -0.273 OA
BRANCH  21  24
ATOM     24  CAY 5KP d   1       0.353  -7.679  -9.996  0.00  0.00     0.042 A 
ATOM     25  CAZ 5KP d   1       1.408  -8.253  -9.298  0.00  0.00    -0.013 A 
ATOM     26  CBA 5KP d   1       2.134  -9.242  -9.959  0.00  0.00     0.042 A 
ATOM     27 CL1  5KP d   1       3.415  -9.971  -9.136  0.00  0.00    -0.084 Cl
ATOM     28  CBB 5KP d   1       1.841  -9.641 -11.263  0.00  0.00    -0.061 A 
ATOM     29  CBC 5KP d   1       0.794  -9.045 -11.949  0.00  0.00    -0.079 A 
ATOM     30  H4  5KP d   1       2.431 -10.416 -11.739  0.00  0.00     0.086 H 
ATOM     31  CBD 5KP d   1       0.047  -8.064 -11.304  0.00  0.00    -0.057 A 
ATOM     32  H5  5KP d   1       0.562  -9.337 -12.967  0.00  0.00     0.083 H 
ATOM     33  H6  5KP d   1      -0.781  -7.593 -11.822  0.00  0.00     0.086 H 
BRANCH  25  34
ATOM     34  CBE 5KP d   1       1.770  -7.899  -7.987  0.00  0.00    -0.048 C 
ATOM     35  H1  5KP d   1       2.635  -8.501  -7.670  0.00  0.00     0.033 H 
ATOM     36  H2  5KP d   1       0.924  -8.088  -7.309  0.00  0.00     0.033 H 
ATOM     37  H3  5KP d   1       2.035  -6.832  -7.955  0.00  0.00     0.033 H 
ENDBRANCH  25  34
ENDBRANCH  21  24
ENDBRANCH  17  20
ENDBRANCH  14  17
ENDBRANCH  11  14
ENDBRANCH   1  11
BRANCH   5  38
ATOM     38  CAL 5KP d   1      -3.084  -6.353  -1.695  0.00  0.00    -0.033 C 
ATOM     39  H14 5KP d   1      -3.079  -6.088  -0.627  0.00  0.00     0.035 H 
ATOM     40  H15 5KP d   1      -2.489  -7.265  -1.849  0.00  0.00     0.035 H 
ATOM     41  H16 5KP d   1      -4.119  -6.530  -2.024  0.00  0.00     0.035 H 
ENDBRANCH   5  38
BRANCH   7  42
ATOM     42  CAK 5KP d   1      -2.455  -4.463   0.666  0.00  0.00    -0.035 C 
ATOM     43  H17 5KP d   1      -2.875  -5.442   0.392  0.00  0.00     0.035 H 
ATOM     44  H18 5KP d   1      -3.222  -3.866   1.182  0.00  0.00     0.035 H 
ATOM     45  H19 5KP d   1      -1.593  -4.608   1.334  0.00  0.00     0.035 H 
ENDBRANCH   7  42
BRANCH  10  46
ATOM     46  CAM 5KP d   1      -1.192  -1.757   0.417  0.00  0.00     0.058 A 
ATOM     47  CAN 5KP d   1      -0.406  -2.279   1.439  0.00  0.00    -0.055 A 
ATOM     48  CAO 5KP d   1      -0.114  -1.512   2.554  0.00  0.00    -0.081 A 
ATOM     49  H20 5KP d   1      -0.021  -3.289   1.362  0.00  0.00     0.087 H 
ATOM     50  CAP 5KP d   1      -0.597  -0.217   2.618  0.00  0.00    -0.083 A 
ATOM     51  H21 5KP d   1       0.482  -1.919   3.363  0.00  0.00     0.083 H 
ATOM     52  CAQ 5KP d   1      -1.366   0.310   1.579  0.00  0.00    -0.081 A 
ATOM     53  H22 5KP d   1      -0.376   0.395   3.485  0.00  0.00     0.083 H 
ATOM     54  CAR 5KP d   1      -1.671  -0.459   0.471  0.00  0.00    -0.055 A 
ATOM     55  H23 5KP d   1      -1.727   1.330   1.641  0.00  0.00     0.083 H 
ATOM     56  H24 5KP d   1      -2.271  -0.055  -0.336  0.00  0.00     0.087 H 
ENDBRANCH  10  46
TORSDOF 9
