REMARK  14 active torsions:
REMARK  status: ('A' for Active; 'I' for Inactive)
REMARK    1  A    between atoms: C5_2  and  C6_1 
REMARK    2  A    between atoms: C6_1  and  O6_13 
REMARK    3  A    between atoms: C1_27  and  S1_3 
REMARK    4  A    between atoms: S1_3  and  C1'_28 
REMARK    5  A    between atoms: C2_4  and  O2_26 
REMARK    6  A    between atoms: C4_6  and  O4_15 
REMARK    7  A    between atoms: C5'_7  and  C6'_12 
REMARK    8  A    between atoms: C4'_8  and  O4'_33 
REMARK    9  A    between atoms: C2'_10  and  O2'_31 
REMARK   10  A    between atoms: C3'_32  and  N1'_11 
REMARK   11  A    between atoms: C6'_12  and  O6'_30 
REMARK   12  A    between atoms: N1_17  and  C3_16 
REMARK   13  A    between atoms: CB_19  and  CD_20 
REMARK   14  A    between atoms: CB'_35  and  CD'_37 
ROOT
ATOM      1  S1  5KT d   1      21.089 -10.503  -0.702  0.00  0.00    -0.100 SA
ENDROOT
BRANCH   1   2
ATOM      2  C1  5KT d   1      20.181  -9.122  -1.317  0.00  0.00     0.112 C 
ATOM      3  C2  5KT d   1      18.681  -9.373  -1.174  0.00  0.00     0.093 C 
ATOM      4  C3  5KT d   1      17.913  -8.112  -1.537  0.00  0.00     0.086 C 
ATOM      5  H4  5KT d   1      18.461  -9.648  -0.132  0.00  0.00     0.091 H 
ATOM      6  C4  5KT d   1      18.460  -6.931  -0.742  0.00  0.00     0.086 C 
ATOM      7  H13 5KT d   1      18.055  -7.919  -2.611  0.00  0.00     0.083 H 
ATOM      8  C5  5KT d   1      19.956  -6.775  -0.956  0.00  0.00     0.087 C 
ATOM      9  H5  5KT d   1      17.958  -6.014  -1.084  0.00  0.00     0.090 H 
ATOM     10  O5  5KT d   1      20.609  -7.984  -0.563  0.00  0.00    -0.363 OA
ATOM     11  H3  5KT d   1      20.143  -6.591  -2.024  0.00  0.00     0.090 H 
ATOM     12  H19 5KT d   1      20.414  -8.966  -2.381  0.00  0.00     0.104 H 
BRANCH   3  13
ATOM     13  O2  5KT d   1      18.264 -10.434  -2.040  0.00  0.00    -0.390 OA
ATOM     14  H18 5KT d   1      18.445 -10.195  -2.942  0.00  0.00     0.210 HD
ENDBRANCH   3  13
BRANCH   4  15
ATOM     15  N1  5KT d   1      16.460  -8.231  -1.269  0.00  0.00    -0.273 N 
ATOM     16  N2  5KT d   1      15.660  -7.936  -2.385  0.00  0.00     0.005 NA
ATOM     17  N3  5KT d   1      14.329  -8.071  -1.961  0.00  0.00    -0.158 NA
ATOM     18  CB  5KT d   1      14.423  -8.416  -0.662  0.00  0.00     0.102 A 
ATOM     19  CA  5KT d   1      15.719  -8.522  -0.189  0.00  0.00     0.025 A 
ATOM     20  H17 5KT d   1      16.055  -8.779   0.814  0.00  0.00     0.117 H 
BRANCH  18  21
ATOM     21  CD  5KT d   1      13.205  -8.653   0.168  0.00  0.00     0.002 A 
ATOM     22  CF  5KT d   1      11.951  -8.712  -0.418  0.00  0.00    -0.064 A 
ATOM     23  CG  5KT d   1      11.020  -8.934   0.581  0.00  0.00    -0.044 A 
ATOM     24  H14 5KT d   1      11.736  -8.603  -1.480  0.00  0.00     0.085 H 
ATOM     25  S2  5KT d   1      11.667  -9.065   2.197  0.00  0.00    -0.113 SA
ATOM     26  H16 5KT d   1       9.955  -9.021   0.373  0.00  0.00     0.095 H 
ATOM     27  CE  5KT d   1      13.259  -8.806   1.536  0.00  0.00    -0.033 A 
ATOM     28  H15 5KT d   1      14.174  -8.770   2.126  0.00  0.00     0.096 H 
ENDBRANCH  18  21
ENDBRANCH   4  15
BRANCH   6  29
ATOM     29  O4  5KT d   1      18.188  -7.118   0.650  0.00  0.00    -0.391 OA
ATOM     30  H12 5KT d   1      17.252  -7.215   0.778  0.00  0.00     0.210 HD
ENDBRANCH   6  29
BRANCH   8  31
ATOM     31  C6  5KT d   1      20.532  -5.614  -0.151  0.00  0.00     0.043 C 
ATOM     32  H1  5KT d   1      20.421  -5.818   0.924  0.00  0.00     0.078 H 
ATOM     33  H2  5KT d   1      19.998  -4.686  -0.406  0.00  0.00     0.078 H 
BRANCH  31  34
ATOM     34  O6  5KT d   1      21.919  -5.476  -0.474  0.00  0.00    -0.398 OA
ATOM     35  H11 5KT d   1      22.376  -6.280  -0.255  0.00  0.00     0.209 HD
ENDBRANCH  31  34
ENDBRANCH   8  31
ENDBRANCH   1   2
BRANCH   1  36
ATOM     36  C1' 5KT d   1      22.758 -10.054  -1.030  0.00  0.00     0.112 C 
ATOM     37  C2' 5KT d   1      23.629 -10.254   0.211  0.00  0.00     0.093 C 
ATOM     38  C3' 5KT d   1      25.065  -9.874  -0.145  0.00  0.00     0.086 C 
ATOM     39  H8  5KT d   1      23.600 -11.315   0.501  0.00  0.00     0.091 H 
ATOM     40  C4' 5KT d   1      25.536 -10.735  -1.319  0.00  0.00     0.086 C 
ATOM     41  H23 5KT d   1      25.067  -8.826  -0.479  0.00  0.00     0.083 H 
ATOM     42  C5' 5KT d   1      24.583 -10.520  -2.494  0.00  0.00     0.087 C 
ATOM     43  H7  5KT d   1      26.548 -10.418  -1.612  0.00  0.00     0.090 H 
ATOM     44  O5' 5KT d   1      23.245 -10.861  -2.113  0.00  0.00    -0.363 OA
ATOM     45  H6  5KT d   1      24.610  -9.456  -2.772  0.00  0.00     0.090 H 
ATOM     46  H20 5KT d   1      22.795  -8.994  -1.322  0.00  0.00     0.104 H 
BRANCH  37  47
ATOM     47  O2' 5KT d   1      23.150  -9.468   1.314  0.00  0.00    -0.390 OA
ATOM     48  H22 5KT d   1      23.166  -8.548   1.077  0.00  0.00     0.210 HD
ENDBRANCH  37  47
BRANCH  38  49
ATOM     49  N1' 5KT d   1      25.960  -9.959   1.044  0.00  0.00    -0.273 N 
ATOM     50  N2' 5KT d   1      25.959 -11.174   1.746  0.00  0.00     0.005 NA
ATOM     51  N3' 5KT d   1      26.853 -11.013   2.822  0.00  0.00    -0.158 NA
ATOM     52  CB' 5KT d   1      27.309  -9.753   2.684  0.00  0.00     0.102 A 
ATOM     53  CA' 5KT d   1      26.778  -9.068   1.617  0.00  0.00     0.025 A 
ATOM     54  H25 5KT d   1      26.976  -8.042   1.310  0.00  0.00     0.117 H 
BRANCH  52  55
ATOM     55  CD' 5KT d   1      28.272  -9.147   3.654  0.00  0.00     0.002 A 
ATOM     56  CF' 5KT d   1      28.447  -7.774   3.708  0.00  0.00    -0.064 A 
ATOM     57  CG' 5KT d   1      29.363  -7.464   4.698  0.00  0.00    -0.044 A 
ATOM     58  H26 5KT d   1      27.942  -7.050   3.070  0.00  0.00     0.085 H 
ATOM     59  S2' 5KT d   1      29.951  -8.884   5.536  0.00  0.00    -0.113 SA
ATOM     60  H28 5KT d   1      29.683  -6.449   4.930  0.00  0.00     0.095 H 
ATOM     61  CE' 5KT d   1      28.963  -9.937   4.554  0.00  0.00    -0.033 A 
ATOM     62  H27 5KT d   1      28.902 -11.021   4.636  0.00  0.00     0.096 H 
ENDBRANCH  52  55
ENDBRANCH  38  49
BRANCH  40  63
ATOM     63  O4' 5KT d   1      25.576 -12.123  -0.962  0.00  0.00    -0.391 OA
ATOM     64  H24 5KT d   1      26.177 -12.245  -0.236  0.00  0.00     0.210 HD
ENDBRANCH  40  63
BRANCH  42  65
ATOM     65  C6' 5KT d   1      24.997 -11.347  -3.709  0.00  0.00     0.043 C 
ATOM     66  H9  5KT d   1      24.849 -12.415  -3.493  0.00  0.00     0.078 H 
ATOM     67  H10 5KT d   1      26.057 -11.162  -3.935  0.00  0.00     0.078 H 
BRANCH  65  68
ATOM     68  O6' 5KT d   1      24.196 -10.972  -4.834  0.00  0.00    -0.398 OA
ATOM     69  H21 5KT d   1      23.281 -11.133  -4.637  0.00  0.00     0.209 HD
ENDBRANCH  65  68
ENDBRANCH  42  65
ENDBRANCH   1  36
TORSDOF 14
