REMARK  14 active torsions:
REMARK  status: ('A' for Active; 'I' for Inactive)
REMARK    1  A    between atoms: C5_2  and  C6_1 
REMARK    2  A    between atoms: C6_1  and  O6_13 
REMARK    3  A    between atoms: C1_29  and  S1_3 
REMARK    4  A    between atoms: S1_3  and  C1'_30 
REMARK    5  A    between atoms: C2_4  and  O2_28 
REMARK    6  A    between atoms: C4_6  and  O4_15 
REMARK    7  A    between atoms: C5'_7  and  C6'_12 
REMARK    8  A    between atoms: C4'_8  and  O4'_35 
REMARK    9  A    between atoms: C2'_10  and  O2'_33 
REMARK   10  A    between atoms: C3'_34  and  N1'_11 
REMARK   11  A    between atoms: C6'_12  and  O6'_32 
REMARK   12  A    between atoms: N1_17  and  C3_16 
REMARK   13  A    between atoms: CB_19  and  CD_21 
REMARK   14  A    between atoms: CB'_37  and  CD'_39 
ROOT
ATOM      1  S1  5KS d   1      21.178 -10.506  -0.581  0.00  0.00    -0.100 SA
ENDROOT
BRANCH   1   2
ATOM      2  C1  5KS d   1      20.265  -9.115  -1.171  0.00  0.00     0.112 C 
ATOM      3  C2  5KS d   1      18.770  -9.347  -1.027  0.00  0.00     0.093 C 
ATOM      4  C3  5KS d   1      18.037  -8.093  -1.433  0.00  0.00     0.086 C 
ATOM      5  H4  5KS d   1      18.530  -9.594   0.018  0.00  0.00     0.091 H 
ATOM      6  C4  5KS d   1      18.561  -6.907  -0.623  0.00  0.00     0.086 C 
ATOM      7  H13 5KS d   1      18.221  -7.911  -2.502  0.00  0.00     0.083 H 
ATOM      8  C5  5KS d   1      20.060  -6.778  -0.834  0.00  0.00     0.087 C 
ATOM      9  H5  5KS d   1      18.076  -5.988  -0.983  0.00  0.00     0.090 H 
ATOM     10  O5  5KS d   1      20.701  -7.995  -0.393  0.00  0.00    -0.363 OA
ATOM     11  H3  5KS d   1      20.256  -6.625  -1.906  0.00  0.00     0.090 H 
ATOM     12  H20 5KS d   1      20.495  -8.941  -2.232  0.00  0.00     0.104 H 
BRANCH   3  13
ATOM     13  O2  5KS d   1      18.381 -10.431  -1.880  0.00  0.00    -0.390 OA
ATOM     14  H19 5KS d   1      17.445 -10.573  -1.802  0.00  0.00     0.210 HD
ENDBRANCH   3  13
BRANCH   4  15
ATOM     15  N1  5KS d   1      16.589  -8.208  -1.216  0.00  0.00    -0.273 N 
ATOM     16  N2  5KS d   1      15.728  -7.942  -2.286  0.00  0.00     0.005 NA
ATOM     17  N3  5KS d   1      14.440  -8.108  -1.748  0.00  0.00    -0.158 NA
ATOM     18  CB  5KS d   1      14.615  -8.454  -0.461  0.00  0.00     0.101 A 
ATOM     19  CA  5KS d   1      15.937  -8.500  -0.114  0.00  0.00     0.025 A 
ATOM     20  H14 5KS d   1      16.358  -8.729   0.864  0.00  0.00     0.117 H 
BRANCH  18  21
ATOM     21  CD  5KS d   1      13.385  -8.651   0.344  0.00  0.00    -0.004 A 
ATOM     22  CI  5KS d   1      13.503  -8.515   1.711  0.00  0.00    -0.068 A 
ATOM     23  CH  5KS d   1      12.387  -8.680   2.516  0.00  0.00    -0.045 A 
ATOM     24  H15 5KS d   1      14.464  -8.280   2.154  0.00  0.00     0.085 H 
ATOM     25  CG  5KS d   1      11.152  -8.934   1.949  0.00  0.00     0.116 A 
ATOM     26  H16 5KS d   1      12.483  -8.610   3.594  0.00  0.00     0.088 H 
ATOM     27  F   5KS d   1      10.063  -9.070   2.762  0.00  0.00    -0.206 F 
ATOM     28  CF  5KS d   1      11.023  -9.041   0.569  0.00  0.00    -0.045 A 
ATOM     29  CE  5KS d   1      12.143  -8.888  -0.245  0.00  0.00    -0.068 A 
ATOM     30  H17 5KS d   1      10.054  -9.243   0.128  0.00  0.00     0.088 H 
ATOM     31  H18 5KS d   1      12.050  -8.952  -1.323  0.00  0.00     0.085 H 
ENDBRANCH  18  21
ENDBRANCH   4  15
BRANCH   6  32
ATOM     32  O4  5KS d   1      18.237  -7.077   0.773  0.00  0.00    -0.391 OA
ATOM     33  H12 5KS d   1      17.295  -7.154   0.871  0.00  0.00     0.210 HD
ENDBRANCH   6  32
BRANCH   8  34
ATOM     34  C6  5KS d   1      20.653  -5.617  -0.055  0.00  0.00     0.043 C 
ATOM     35  H1  5KS d   1      20.500  -5.793   1.020  0.00  0.00     0.078 H 
ATOM     36  H2  5KS d   1      20.142  -4.689  -0.351  0.00  0.00     0.078 H 
BRANCH  34  37
ATOM     37  O6  5KS d   1      22.040  -5.478  -0.306  0.00  0.00    -0.398 OA
ATOM     38  H11 5KS d   1      22.489  -6.274  -0.048  0.00  0.00     0.209 HD
ENDBRANCH  34  37
ENDBRANCH   8  34
ENDBRANCH   1   2
BRANCH   1  39
ATOM     39  C1' 5KS d   1      22.833 -10.014  -0.924  0.00  0.00     0.112 C 
ATOM     40  C2' 5KS d   1      23.714 -10.213   0.298  0.00  0.00     0.093 C 
ATOM     41  C3' 5KS d   1      25.168  -9.835  -0.030  0.00  0.00     0.086 C 
ATOM     42  H8  5KS d   1      23.696 -11.277   0.576  0.00  0.00     0.091 H 
ATOM     43  C4' 5KS d   1      25.645 -10.672  -1.217  0.00  0.00     0.086 C 
ATOM     44  H24 5KS d   1      25.186  -8.776  -0.327  0.00  0.00     0.083 H 
ATOM     45  C5' 5KS d   1      24.686 -10.453  -2.386  0.00  0.00     0.087 C 
ATOM     46  H7  5KS d   1      26.650 -10.332  -1.508  0.00  0.00     0.090 H 
ATOM     47  O5' 5KS d   1      23.361 -10.823  -2.005  0.00  0.00    -0.363 OA
ATOM     48  H6  5KS d   1      24.695  -9.383  -2.640  0.00  0.00     0.090 H 
ATOM     49  H21 5KS d   1      22.844  -8.953  -1.215  0.00  0.00     0.104 H 
BRANCH  40  50
ATOM     50  O2' 5KS d   1      23.171  -9.455   1.392  0.00  0.00    -0.390 OA
ATOM     51  H23 5KS d   1      23.149  -8.535   1.158  0.00  0.00     0.210 HD
ENDBRANCH  40  50
BRANCH  41  52
ATOM     52  N1' 5KS d   1      26.076  -9.988   1.149  0.00  0.00    -0.273 N 
ATOM     53  N2' 5KS d   1      26.065 -11.235   1.772  0.00  0.00     0.005 NA
ATOM     54  N3' 5KS d   1      26.974 -11.125   2.831  0.00  0.00    -0.158 NA
ATOM     55  CB' 5KS d   1      27.491  -9.871   2.827  0.00  0.00     0.101 A 
ATOM     56  CA' 5KS d   1      26.921  -9.163   1.774  0.00  0.00     0.025 A 
ATOM     57  H26 5KS d   1      27.126  -8.127   1.508  0.00  0.00     0.117 H 
BRANCH  55  58
ATOM     58  CD' 5KS d   1      28.475  -9.359   3.832  0.00  0.00    -0.004 A 
ATOM     59  CI' 5KS d   1      28.623  -7.986   4.042  0.00  0.00    -0.068 A 
ATOM     60  CH' 5KS d   1      29.524  -7.512   4.996  0.00  0.00    -0.045 A 
ATOM     61  H27 5KS d   1      28.035  -7.285   3.461  0.00  0.00     0.085 H 
ATOM     62  CG' 5KS d   1      30.277  -8.407   5.753  0.00  0.00     0.116 A 
ATOM     63  H28 5KS d   1      29.638  -6.445   5.149  0.00  0.00     0.088 H 
ATOM     64  CF' 5KS d   1      30.122  -9.778   5.557  0.00  0.00    -0.045 A 
ATOM     65  F'  5KS d   1      31.161  -7.932   6.681  0.00  0.00    -0.206 F 
ATOM     66  CE' 5KS d   1      29.219 -10.252   4.606  0.00  0.00    -0.068 A 
ATOM     67  H29 5KS d   1      30.705 -10.478   6.145  0.00  0.00     0.088 H 
ATOM     68  H30 5KS d   1      29.094 -11.320   4.467  0.00  0.00     0.085 H 
ENDBRANCH  55  58
ENDBRANCH  41  52
BRANCH  43  69
ATOM     69  O4' 5KS d   1      25.715 -12.073  -0.886  0.00  0.00    -0.391 OA
ATOM     70  H25 5KS d   1      26.324 -12.197  -0.167  0.00  0.00     0.210 HD
ENDBRANCH  43  69
BRANCH  45  71
ATOM     71  C6' 5KS d   1      25.095 -11.243  -3.630  0.00  0.00     0.043 C 
ATOM     72  H9  5KS d   1      24.913 -12.315  -3.463  0.00  0.00     0.078 H 
ATOM     73  H10 5KS d   1      26.163 -11.081  -3.836  0.00  0.00     0.078 H 
BRANCH  71  74
ATOM     74  O6' 5KS d   1      24.313 -10.788  -4.748  0.00  0.00    -0.398 OA
ATOM     75  H22 5KS d   1      23.391 -10.928  -4.566  0.00  0.00     0.209 HD
ENDBRANCH  71  74
ENDBRANCH  45  71
ENDBRANCH   1  39
TORSDOF 14
