REMARK  11 active torsions:
REMARK  status: ('A' for Active; 'I' for Inactive)
REMARK    1  A    between atoms: N1_4  and  C13_12 
REMARK    2  A    between atoms: N1_4  and  C14_13 
REMARK    3  A    between atoms: C15_14  and  N1_4 
REMARK    4  A    between atoms: C9_8  and  C8_6 
REMARK    5  A    between atoms: C16_15  and  N2_7 
REMARK    6  A    between atoms: C13_12  and  C12_11 
REMARK    7  A    between atoms: C15_14  and  C16_15 
REMARK    8  A    between atoms: C3_17  and  O_18 
REMARK    9  A    between atoms: O_18  and  C1_19 
REMARK   10  A    between atoms: C1_19  and  C2_20 
REMARK   11  A    between atoms: C1_19  and  C_21 
ROOT
ATOM      1  C9  5L6 d   1     -31.868  19.093  -6.159  0.00  0.00    -0.001 A 
ATOM      2  C10 5L6 d   1     -32.817  20.004  -6.570  0.00  0.00    -0.012 A 
ATOM      3  C11 5L6 d   1     -32.279  20.526  -4.464  0.00  0.00    -0.015 A 
ATOM      4  C12 5L6 d   1     -31.502  19.432  -4.770  0.00  0.00    -0.005 A 
ATOM      5  N   5L6 d   1     -33.055  20.862  -5.536  0.00  0.00    -0.374 N 
ATOM      6  H9  5L6 d   1     -33.294  20.034  -7.549  0.00  0.00     0.112 H 
ATOM      7  H10 5L6 d   1     -32.275  21.047  -3.508  0.00  0.00     0.112 H 
ATOM      8  H20 5L6 d   1     -33.721  21.647  -5.561  0.00  0.00     0.164 HD
ENDROOT
BRANCH   1   9
ATOM      9  C8  5L6 d   1     -31.377  17.973  -6.999  0.00  0.00    -0.024 A 
ATOM     10  C5  5L6 d   1     -32.275  17.125  -7.639  0.00  0.00    -0.070 A 
ATOM     11  C4  5L6 d   1     -31.831  16.028  -8.352  0.00  0.00    -0.050 A 
ATOM     12  H2  5L6 d   1     -33.338  17.328  -7.577  0.00  0.00     0.085 H 
ATOM     13  C3  5L6 d   1     -30.474  15.770  -8.446  0.00  0.00     0.069 A 
ATOM     14  H1  5L6 d   1     -32.544  15.371  -8.837  0.00  0.00     0.087 H 
ATOM     15  C6  5L6 d   1     -29.562  16.617  -7.830  0.00  0.00    -0.050 A 
ATOM     16  C7  5L6 d   1     -30.014  17.716  -7.122  0.00  0.00    -0.070 A 
ATOM     17  H3  5L6 d   1     -28.499  16.418  -7.904  0.00  0.00     0.087 H 
ATOM     18  H5  5L6 d   1     -29.299  18.385  -6.657  0.00  0.00     0.085 H 
BRANCH  13  19
ATOM     19  O   5L6 d   1     -30.175  14.640  -9.177  0.00  0.00    -0.347 OA
BRANCH  19  20
ATOM     20  C1  5L6 d   1     -28.968  14.597 -10.001  0.00  0.00     0.038 C 
ATOM     21  H21 5L6 d   1     -28.084  14.798  -9.378  0.00  0.00     0.082 H 
BRANCH  20  22
ATOM     22  C2  5L6 d   1     -29.064  15.661 -11.052  0.00  0.00    -0.052 C 
ATOM     23  H22 5L6 d   1     -28.161  15.639 -11.680  0.00  0.00     0.030 H 
ATOM     24  H23 5L6 d   1     -29.152  16.646 -10.570  0.00  0.00     0.030 H 
ATOM     25  H24 5L6 d   1     -29.950  15.479 -11.678  0.00  0.00     0.030 H 
ENDBRANCH  20  22
BRANCH  20  26
ATOM     26  C   5L6 d   1     -28.859  13.208 -10.566  0.00  0.00    -0.052 C 
ATOM     27  H25 5L6 d   1     -27.959  13.137 -11.194  0.00  0.00     0.030 H 
ATOM     28  H26 5L6 d   1     -29.749  12.989 -11.174  0.00  0.00     0.030 H 
ATOM     29  H27 5L6 d   1     -28.790  12.482  -9.743  0.00  0.00     0.030 H 
ENDBRANCH  20  26
ENDBRANCH  19  20
ENDBRANCH  13  19
ENDBRANCH   1   9
BRANCH   4  30
ATOM     30  C13 5L6 d   1     -30.511  18.767  -3.852  0.00  0.00     0.109 C 
ATOM     31  H11 5L6 d   1     -29.937  18.023  -4.424  0.00  0.00     0.083 H 
ATOM     32  H12 5L6 d   1     -29.827  19.529  -3.451  0.00  0.00     0.083 H 
BRANCH  30  33
ATOM     33  N1  5L6 d   1     -31.183  18.095  -2.735  0.00  0.00    -0.069 N 
ATOM     34  H4  5L6 d   1     -31.856  18.772  -2.412  0.00  0.00     0.279 HD
BRANCH  33  35
ATOM     35  C14 5L6 d   1     -31.993  16.948  -3.197  0.00  0.00     0.067 C 
ATOM     36  H13 5L6 d   1     -32.480  16.471  -2.333  0.00  0.00     0.068 H 
ATOM     37  H14 5L6 d   1     -31.342  16.218  -3.700  0.00  0.00     0.068 H 
ATOM     38  H15 5L6 d   1     -32.760  17.301  -3.902  0.00  0.00     0.068 H 
ENDBRANCH  33  35
BRANCH  33  39
ATOM     39  C15 5L6 d   1     -30.380  17.803  -1.534  0.00  0.00     0.105 C 
ATOM     40  H16 5L6 d   1     -30.997  17.228  -0.828  0.00  0.00     0.078 H 
ATOM     41  H17 5L6 d   1     -30.081  18.754  -1.069  0.00  0.00     0.078 H 
BRANCH  39  42
ATOM     42  C16 5L6 d   1     -29.129  17.002  -1.851  0.00  0.00     0.102 C 
ATOM     43  H18 5L6 d   1     -29.428  15.985  -2.145  0.00  0.00     0.077 H 
ATOM     44  H19 5L6 d   1     -28.604  17.486  -2.688  0.00  0.00     0.077 H 
BRANCH  42  45
ATOM     45  N2  5L6 d   1     -28.215  16.910  -0.718  0.00  0.00    -0.078 N 
ATOM     46  H6  5L6 d   1     -27.406  16.370  -0.982  0.00  0.00     0.274 HD
ATOM     47  H7  5L6 d   1     -28.681  16.460   0.054  0.00  0.00     0.274 HD
ATOM     48  H8  5L6 d   1     -27.926  17.836  -0.443  0.00  0.00     0.274 HD
ENDBRANCH  42  45
ENDBRANCH  39  42
ENDBRANCH  33  39
ENDBRANCH  30  33
ENDBRANCH   4  30
TORSDOF 11
