REMARK  7 active torsions:
REMARK  status: ('A' for Active; 'I' for Inactive)
REMARK    1  A    between atoms: C25_2  and  N3_31 
REMARK    2  A    between atoms: C23_4  and  N4_34 
REMARK    3  A    between atoms: C22_5  and  O6_32 
REMARK    4  A    between atoms: C21_6  and  C26_7 
REMARK    5  A    between atoms: C21_6  and  N2_8 
REMARK    6  A    between atoms: O6_32  and  C27_33 
REMARK    7  A    between atoms: N4_34  and  C28_35 
ROOT
ATOM      1  O4  STU d   1       1.078   8.846   7.606  0.00  0.00    -0.333 OA
ATOM      2  C25 STU d   1       0.408   7.712   7.057  0.00  0.00     0.115 C 
ATOM      3  C24 STU d   1       0.193   6.583   8.055  0.00  0.00     0.005 C 
ATOM      4  C23 STU d   1       0.861   6.945   9.392  0.00  0.00     0.134 C 
ATOM      5  C22 STU d   1       2.311   7.341   9.134  0.00  0.00     0.113 C 
ATOM      6  C21 STU d   1       2.264   8.715   8.395  0.00  0.00     0.168 C 
ATOM      7  H1  STU d   1      -0.611   8.044   6.811  0.00  0.00     0.118 H 
ATOM      8  H2  STU d   1       0.638   5.657   7.662  0.00  0.00     0.042 H 
ATOM      9  H3  STU d   1      -0.885   6.434   8.213  0.00  0.00     0.042 H 
ATOM     10  H4  STU d   1       0.334   7.830   9.778  0.00  0.00     0.088 H 
ATOM     11  H5  STU d   1       2.866   7.449  10.078  0.00  0.00     0.094 H 
ENDROOT
BRANCH   4  12
ATOM     12  N4  STU d   1       0.792   5.932  10.445  0.00  0.00    -0.072 N 
ATOM     13  H23 STU d   1       1.440   5.194  10.217  0.00  0.00     0.277 HD
ATOM     14  H24 STU d   1      -0.145   5.561  10.466  0.00  0.00     0.277 HD
BRANCH  12  15
ATOM     15  C28 STU d   1       1.123   6.441  11.802  0.00  0.00     0.065 C 
ATOM     16  H25 STU d   1       1.047   5.620  12.530  0.00  0.00     0.067 H 
ATOM     17  H26 STU d   1       0.418   7.240  12.076  0.00  0.00     0.067 H 
ATOM     18  H27 STU d   1       2.148   6.840  11.804  0.00  0.00     0.067 H 
ENDBRANCH  12  15
ENDBRANCH   4  12
BRANCH   5  19
ATOM     19  O6  STU d   1       2.891   6.276   8.354  0.00  0.00    -0.384 OA
BRANCH  19  20
ATOM     20  C27 STU d   1       4.281   6.014   8.557  0.00  0.00     0.005 C 
ATOM     21  H20 STU d   1       4.597   5.185   7.907  0.00  0.00     0.066 H 
ATOM     22  H21 STU d   1       4.453   5.741   9.609  0.00  0.00     0.066 H 
ATOM     23  H22 STU d   1       4.864   6.914   8.312  0.00  0.00     0.066 H 
ENDBRANCH  19  20
ENDBRANCH   5  19
BRANCH   2  24
ATOM     24  N3  STU d   1       1.034   7.428   5.778  0.00  0.00    -0.316 N 
ATOM     25  C19 STU d   1       2.331   7.787   5.398  0.00  0.00     0.077 A 
ATOM     26  C18 STU d   1       3.371   8.391   6.158  0.00  0.00     0.077 A 
ATOM     27  C6  STU d   1       2.553   7.430   4.042  0.00  0.00     0.022 A 
ATOM     28  N2  STU d   1       3.418   8.823   7.480  0.00  0.00    -0.308 N 
ATOM     29  C11 STU d   1       4.623   8.624   5.559  0.00  0.00     0.015 A 
ATOM     30  C17 STU d   1       4.714   9.306   7.742  0.00  0.00     0.049 A 
ATOM     31  C12 STU d   1       5.472   9.211   6.561  0.00  0.00     0.004 A 
ATOM     32  C16 STU d   1       5.300   9.724   8.938  0.00  0.00    -0.056 A 
ATOM     33  C13 STU d   1       6.809   9.595   6.580  0.00  0.00    -0.070 A 
ATOM     34  C14 STU d   1       7.382  10.031   7.758  0.00  0.00    -0.082 A 
ATOM     35  H12 STU d   1       7.399   9.552   5.672  0.00  0.00     0.084 H 
ATOM     36  C15 STU d   1       6.641  10.080   8.927  0.00  0.00    -0.081 A 
ATOM     37  H11 STU d   1       8.422  10.338   7.768  0.00  0.00     0.083 H 
ATOM     38  H10 STU d   1       7.116  10.401   9.847  0.00  0.00     0.083 H 
ATOM     39  H9  STU d   1       4.721   9.769   9.853  0.00  0.00     0.087 H 
ATOM     40  C10 STU d   1       4.828   8.256   4.235  0.00  0.00    -0.010 A 
ATOM     41  C7  STU d   1       3.821   7.666   3.486  0.00  0.00     0.054 A 
ATOM     42  C9  STU d   1       6.064   8.382   3.404  0.00  0.00     0.021 A 
ATOM     43  C8  STU d   1       4.344   7.374   2.157  0.00  0.00     0.253 A 
ATOM     44  N1  STU d   1       5.633   7.771   2.157  0.00  0.00    -0.353 N 
ATOM     45  O5  STU d   1       3.750   6.899   1.198  0.00  0.00    -0.268 OA
ATOM     46  H15 STU d   1       6.238   7.655   1.369  0.00  0.00     0.163 HD
ATOM     47  H13 STU d   1       6.907   7.834   3.850  0.00  0.00     0.071 H 
ATOM     48  H14 STU d   1       6.346   9.435   3.260  0.00  0.00     0.071 H 
ATOM     49  C5  STU d   1       1.318   6.834   3.573  0.00  0.00     0.004 A 
ATOM     50  C20 STU d   1       0.419   6.840   4.665  0.00  0.00     0.048 A 
ATOM     51  C4  STU d   1       0.878   6.341   2.336  0.00  0.00    -0.070 A 
ATOM     52  C1  STU d   1      -0.869   6.341   4.536  0.00  0.00    -0.056 A 
ATOM     53  C2  STU d   1      -1.261   5.835   3.298  0.00  0.00    -0.081 A 
ATOM     54  H16 STU d   1      -1.553   6.345   5.377  0.00  0.00     0.087 H 
ATOM     55  C3  STU d   1      -0.402   5.855   2.208  0.00  0.00    -0.082 A 
ATOM     56  H17 STU d   1      -2.255   5.418   3.184  0.00  0.00     0.083 H 
ATOM     57  H18 STU d   1      -0.743   5.484   1.248  0.00  0.00     0.083 H 
ATOM     58  H19 STU d   1       1.546   6.343   1.482  0.00  0.00     0.084 H 
ENDBRANCH   2  24
BRANCH   6  59
ATOM     59  C26 STU d   1       2.104   9.895   9.334  0.00  0.00    -0.028 C 
ATOM     60  H6  STU d   1       2.960   9.934  10.024  0.00  0.00     0.034 H 
ATOM     61  H7  STU d   1       1.174   9.781   9.910  0.00  0.00     0.034 H 
ATOM     62  H8  STU d   1       2.062  10.826   8.749  0.00  0.00     0.034 H 
ENDBRANCH   6  59
TORSDOF 7
