REMARK  7 active torsions:
REMARK  status: ('A' for Active; 'I' for Inactive)
REMARK    1  A    between atoms: N10_23  and  C18_2 
REMARK    2  A    between atoms: C17_3  and  C24_10 
REMARK    3  A    between atoms: C14_24  and  C17_3 
REMARK    4  A    between atoms: C23_9  and  N26_27 
REMARK    5  A    between atoms: C24_10  and  O25_26 
REMARK    6  A    between atoms: C2_15  and  C11_11 
REMARK    7  A    between atoms: C8_21  and  C4_17 
REMARK       I    between atoms: C8_21  and  N10_23 
ROOT
ATOM      1  C1  5L4 d   1       1.836   6.617   1.704  0.00  0.00     0.033 A 
ATOM      2  C2  5L4 d   1       1.257   6.803   2.974  0.00  0.00     0.085 A 
ATOM      3  N3  5L4 d   1       2.018   7.211   4.004  0.00  0.00    -0.237 NA
ATOM      4  C4  5L4 d   1       3.327   7.462   3.794  0.00  0.00     0.170 A 
ATOM      5  C5  5L4 d   1       3.905   7.276   2.498  0.00  0.00     0.155 A 
ATOM      6  N6  5L4 d   1       3.137   6.835   1.471  0.00  0.00    -0.239 NA
ATOM      7  N7  5L4 d   1       5.192   7.512   2.244  0.00  0.00    -0.382 N 
ATOM      8  H14 5L4 d   1       1.207   6.286   0.886  0.00  0.00     0.118 H 
ATOM      9  H15 5L4 d   1       5.565   7.364   1.295  0.00  0.00     0.157 HD
ATOM     10  H16 5L4 d   1       5.813   7.842   2.996  0.00  0.00     0.157 HD
ENDROOT
BRANCH   4  11
ATOM     11  C8  5L4 d   1       4.093   7.967   4.990  0.00  0.00     0.278 C 
ATOM     12  O9  5L4 d   1       5.272   8.271   4.901  0.00  0.00    -0.265 OA
ATOM     13  N10 5L4 d   1       3.383   8.029   6.129  0.00  0.00    -0.318 N 
ATOM     14  H17 5L4 d   1       2.413   7.807   6.035  0.00  0.00     0.169 HD
BRANCH  13  15
ATOM     15  C18 5L4 d   1       3.795   8.359   7.439  0.00  0.00     0.079 A 
ATOM     16  C19 5L4 d   1       5.076   8.795   7.787  0.00  0.00     0.030 A 
ATOM     17  N20 5L4 d   1       5.415   9.233   9.004  0.00  0.00    -0.271 NA
ATOM     18  H6  5L4 d   1       5.844   8.777   7.022  0.00  0.00     0.118 H 
ATOM     19  C21 5L4 d   1       4.464   9.246   9.938  0.00  0.00     0.004 A 
ATOM     20  C22 5L4 d   1       3.178   8.792   9.733  0.00  0.00    -0.038 A 
ATOM     21  H7  5L4 d   1       4.716   9.637  10.917  0.00  0.00     0.114 H 
ATOM     22  C23 5L4 d   1       2.837   8.315   8.468  0.00  0.00     0.060 A 
ATOM     23  H8  5L4 d   1       2.450   8.806  10.536  0.00  0.00     0.089 H 
BRANCH  22  24
ATOM     24  N26 5L4 d   1       1.607   7.664   8.246  0.00  0.00    -0.375 N 
ATOM     25  C27 5L4 d   1       1.674   6.202   8.188  0.00  0.00     0.015 C 
ATOM     26  C28 5L4 d   1       0.384   5.661   7.633  0.00  0.00     0.034 C 
ATOM     27  H12 5L4 d   1       1.834   5.802   9.200  0.00  0.00     0.067 H 
ATOM     28  H13 5L4 d   1       2.508   5.899   7.538  0.00  0.00     0.067 H 
ATOM     29  O29 5L4 d   1      -0.740   6.117   8.381  0.00  0.00    -0.388 OA
ATOM     30  H19 5L4 d   1       0.414   4.562   7.667  0.00  0.00     0.076 H 
ATOM     31  H20 5L4 d   1       0.277   5.993   6.590  0.00  0.00     0.076 H 
ATOM     32  C30 5L4 d   1      -0.804   7.525   8.370  0.00  0.00     0.034 C 
ATOM     33  C31 5L4 d   1       0.428   8.128   8.981  0.00  0.00     0.015 C 
ATOM     34  H21 5L4 d   1      -1.685   7.849   8.944  0.00  0.00     0.076 H 
ATOM     35  H22 5L4 d   1      -0.896   7.872   7.330  0.00  0.00     0.076 H 
ATOM     36  H23 5L4 d   1       0.367   9.225   8.925  0.00  0.00     0.067 H 
ATOM     37  H24 5L4 d   1       0.505   7.819  10.034  0.00  0.00     0.067 H 
ENDBRANCH  22  24
ENDBRANCH  13  15
ENDBRANCH   4  11
BRANCH   2  38
ATOM     38  C11 5L4 d   1      -0.177   6.532   3.265  0.00  0.00    -0.006 A 
ATOM     39  C16 5L4 d   1      -0.986   5.820   2.378  0.00  0.00    -0.070 A 
ATOM     40  C15 5L4 d   1      -2.292   5.492   2.701  0.00  0.00    -0.076 A 
ATOM     41  H4  5L4 d   1      -0.584   5.518   1.418  0.00  0.00     0.084 H 
ATOM     42  C14 5L4 d   1      -2.838   5.847   3.919  0.00  0.00    -0.056 A 
ATOM     43  H5  5L4 d   1      -2.897   4.947   1.985  0.00  0.00     0.084 H 
ATOM     44  C13 5L4 d   1      -2.062   6.597   4.788  0.00  0.00    -0.076 A 
ATOM     45  C12 5L4 d   1      -0.762   6.947   4.463  0.00  0.00    -0.070 A 
ATOM     46  H1  5L4 d   1      -2.479   6.915   5.737  0.00  0.00     0.084 H 
ATOM     47  H11 5L4 d   1      -0.187   7.555   5.152  0.00  0.00     0.084 H 
BRANCH  42  48
ATOM     48  C17 5L4 d   1      -4.190   5.312   4.348  0.00  0.00    -0.021 C 
ATOM     49  H2  5L4 d   1      -4.412   4.404   3.768  0.00  0.00     0.043 H 
ATOM     50  H3  5L4 d   1      -4.149   5.062   5.418  0.00  0.00     0.043 H 
BRANCH  48  51
ATOM     51  C24 5L4 d   1      -5.303   6.318   4.124  0.00  0.00     0.020 C 
ATOM     52  H9  5L4 d   1      -5.336   6.592   3.059  0.00  0.00     0.074 H 
ATOM     53  H10 5L4 d   1      -5.107   7.216   4.728  0.00  0.00     0.074 H 
BRANCH  51  54
ATOM     54  O25 5L4 d   1      -6.563   5.757   4.507  0.00  0.00    -0.401 OA
ATOM     55  H18 5L4 d   1      -7.250   6.396   4.362  0.00  0.00     0.209 HD
ENDBRANCH  51  54
ENDBRANCH  48  51
ENDBRANCH  42  48
ENDBRANCH   2  38
TORSDOF 7
