REMARK  7 active torsions:
REMARK  status: ('A' for Active; 'I' for Inactive)
REMARK    1  A    between atoms: N10_23  and  C18_2 
REMARK    2  A    between atoms: C17_3  and  C24_10 
REMARK    3  A    between atoms: C14_24  and  C17_3 
REMARK    4  A    between atoms: C23_9  and  N26_27 
REMARK    5  A    between atoms: C24_10  and  O25_26 
REMARK    6  A    between atoms: C2_15  and  C11_11 
REMARK    7  A    between atoms: C8_21  and  C4_17 
REMARK       I    between atoms: C8_21  and  N10_23 
ROOT
ATOM      1  C1  5L4 d   1       1.897   6.637   1.684  0.00  0.00     0.033 A 
ATOM      2  C2  5L4 d   1       1.304   6.887   2.937  0.00  0.00     0.085 A 
ATOM      3  N3  5L4 d   1       2.062   7.320   3.967  0.00  0.00    -0.237 NA
ATOM      4  C4  5L4 d   1       3.386   7.510   3.777  0.00  0.00     0.170 A 
ATOM      5  C5  5L4 d   1       3.976   7.254   2.490  0.00  0.00     0.155 A 
ATOM      6  N6  5L4 d   1       3.204   6.810   1.470  0.00  0.00    -0.239 NA
ATOM      7  N7  5L4 d   1       5.264   7.473   2.231  0.00  0.00    -0.382 N 
ATOM      8  H14 5L4 d   1       1.273   6.293   0.867  0.00  0.00     0.118 H 
ATOM      9  H15 5L4 d   1       5.642   7.274   1.294  0.00  0.00     0.157 HD
ATOM     10  H16 5L4 d   1       5.882   7.841   2.968  0.00  0.00     0.157 HD
ENDROOT
BRANCH   4  11
ATOM     11  C8  5L4 d   1       4.148   7.963   4.996  0.00  0.00     0.278 C 
ATOM     12  O9  5L4 d   1       5.356   8.140   4.947  0.00  0.00    -0.265 OA
ATOM     13  N10 5L4 d   1       3.412   8.101   6.126  0.00  0.00    -0.318 N 
ATOM     14  H17 5L4 d   1       2.443   7.876   6.020  0.00  0.00     0.169 HD
BRANCH  13  15
ATOM     15  C18 5L4 d   1       3.783   8.513   7.441  0.00  0.00     0.079 A 
ATOM     16  C19 5L4 d   1       5.036   9.081   7.735  0.00  0.00     0.030 A 
ATOM     17  N20 5L4 d   1       5.399   9.462   8.965  0.00  0.00    -0.271 NA
ATOM     18  H6  5L4 d   1       5.743   9.217   6.924  0.00  0.00     0.118 H 
ATOM     19  C21 5L4 d   1       4.522   9.282   9.964  0.00  0.00     0.004 A 
ATOM     20  C22 5L4 d   1       3.275   8.701   9.804  0.00  0.00    -0.038 A 
ATOM     21  H7  5L4 d   1       4.807   9.611  10.957  0.00  0.00     0.114 H 
ATOM     22  C23 5L4 d   1       2.898   8.297   8.516  0.00  0.00     0.060 A 
ATOM     23  H8  5L4 d   1       2.611   8.563  10.649  0.00  0.00     0.089 H 
BRANCH  22  24
ATOM     24  N26 5L4 d   1       1.688   7.585   8.292  0.00  0.00    -0.375 N 
ATOM     25  C27 5L4 d   1       0.536   7.883   9.147  0.00  0.00     0.015 C 
ATOM     26  C28 5L4 d   1      -0.719   7.398   8.468  0.00  0.00     0.034 C 
ATOM     27  H12 5L4 d   1       0.470   8.969   9.311  0.00  0.00     0.067 H 
ATOM     28  H13 5L4 d   1       0.653   7.372  10.114  0.00  0.00     0.067 H 
ATOM     29  O29 5L4 d   1      -0.648   5.989   8.193  0.00  0.00    -0.388 OA
ATOM     30  H19 5L4 d   1      -0.848   7.943   7.521  0.00  0.00     0.076 H 
ATOM     31  H20 5L4 d   1      -1.580   7.593   9.124  0.00  0.00     0.076 H 
ATOM     32  C30 5L4 d   1       0.525   5.641   7.402  0.00  0.00     0.034 C 
ATOM     33  C31 5L4 d   1       1.802   6.145   8.032  0.00  0.00     0.015 C 
ATOM     34  H21 5L4 d   1       0.423   6.086   6.401  0.00  0.00     0.076 H 
ATOM     35  H22 5L4 d   1       0.581   4.546   7.313  0.00  0.00     0.076 H 
ATOM     36  H23 5L4 d   1       1.977   5.615   8.980  0.00  0.00     0.067 H 
ATOM     37  H24 5L4 d   1       2.644   5.962   7.349  0.00  0.00     0.067 H 
ENDBRANCH  22  24
ENDBRANCH  13  15
ENDBRANCH   4  11
BRANCH   2  38
ATOM     38  C11 5L4 d   1      -0.143   6.683   3.221  0.00  0.00    -0.006 A 
ATOM     39  C16 5L4 d   1      -0.975   5.964   2.354  0.00  0.00    -0.070 A 
ATOM     40  C15 5L4 d   1      -2.285   5.645   2.709  0.00  0.00    -0.076 A 
ATOM     41  H4  5L4 d   1      -0.594   5.650   1.389  0.00  0.00     0.084 H 
ATOM     42  C14 5L4 d   1      -2.793   5.996   3.946  0.00  0.00    -0.056 A 
ATOM     43  H5  5L4 d   1      -2.915   5.114   2.005  0.00  0.00     0.084 H 
ATOM     44  C13 5L4 d   1      -1.991   6.758   4.790  0.00  0.00    -0.076 A 
ATOM     45  C12 5L4 d   1      -0.702   7.116   4.425  0.00  0.00    -0.070 A 
ATOM     46  H1  5L4 d   1      -2.381   7.077   5.750  0.00  0.00     0.084 H 
ATOM     47  H11 5L4 d   1      -0.117   7.744   5.087  0.00  0.00     0.084 H 
BRANCH  42  48
ATOM     48  C17 5L4 d   1      -4.123   5.461   4.421  0.00  0.00    -0.021 C 
ATOM     49  H2  5L4 d   1      -4.302   4.492   3.932  0.00  0.00     0.043 H 
ATOM     50  H3  5L4 d   1      -4.071   5.318   5.510  0.00  0.00     0.043 H 
BRANCH  48  51
ATOM     51  C24 5L4 d   1      -5.290   6.374   4.114  0.00  0.00     0.020 C 
ATOM     52  H9  5L4 d   1      -5.381   6.492   3.024  0.00  0.00     0.074 H 
ATOM     53  H10 5L4 d   1      -5.112   7.356   4.576  0.00  0.00     0.074 H 
BRANCH  51  54
ATOM     54  O25 5L4 d   1      -6.492   5.830   4.625  0.00  0.00    -0.401 OA
ATOM     55  H18 5L4 d   1      -7.213   6.415   4.424  0.00  0.00     0.209 HD
ENDBRANCH  51  54
ENDBRANCH  48  51
ENDBRANCH  42  48
ENDBRANCH   2  38
TORSDOF 7
