REMARK  7 active torsions:
REMARK  status: ('A' for Active; 'I' for Inactive)
REMARK    1  A    between atoms: N10_23  and  C18_2 
REMARK    2  A    between atoms: C17_3  and  C24_10 
REMARK    3  A    between atoms: C14_24  and  C17_3 
REMARK    4  A    between atoms: C23_9  and  N26_27 
REMARK    5  A    between atoms: C24_10  and  O25_26 
REMARK    6  A    between atoms: C2_15  and  C11_11 
REMARK    7  A    between atoms: C8_21  and  C4_17 
REMARK       I    between atoms: C8_21  and  N10_23 
ROOT
ATOM      1  C1  5L4 d   1      11.121  -2.248   6.348  0.00  0.00     0.033 A 
ATOM      2  C2  5L4 d   1      12.399  -1.920   5.863  0.00  0.00     0.085 A 
ATOM      3  N3  5L4 d   1      13.462  -1.940   6.697  0.00  0.00    -0.237 NA
ATOM      4  C4  5L4 d   1      13.261  -2.259   7.999  0.00  0.00     0.170 A 
ATOM      5  C5  5L4 d   1      11.950  -2.593   8.475  0.00  0.00     0.155 A 
ATOM      6  N6  5L4 d   1      10.910  -2.598   7.614  0.00  0.00    -0.239 NA
ATOM      7  N7  5L4 d   1      11.680  -2.809   9.768  0.00  0.00    -0.382 N 
ATOM      8  H14 5L4 d   1      10.278  -2.215   5.667  0.00  0.00     0.118 H 
ATOM      9  H15 5L4 d   1      10.722  -3.046  10.061  0.00  0.00     0.157 HD
ATOM     10  H16 5L4 d   1      12.431  -2.738  10.470  0.00  0.00     0.157 HD
ENDROOT
BRANCH   4  11
ATOM     11  C8  5L4 d   1      14.472  -2.222   8.893  0.00  0.00     0.278 C 
ATOM     12  O9  5L4 d   1      14.390  -2.516  10.087  0.00  0.00    -0.265 OA
ATOM     13  N10 5L4 d   1      15.606  -1.845   8.272  0.00  0.00    -0.318 N 
ATOM     14  H17 5L4 d   1      15.505  -1.666   7.293  0.00  0.00     0.169 HD
BRANCH  13  15
ATOM     15  C18 5L4 d   1      16.916  -1.660   8.774  0.00  0.00     0.079 A 
ATOM     16  C19 5L4 d   1      17.342  -2.096  10.041  0.00  0.00     0.030 A 
ATOM     17  N20 5L4 d   1      18.592  -1.900  10.496  0.00  0.00    -0.271 NA
ATOM     18  H6  5L4 d   1      16.633  -2.612  10.678  0.00  0.00     0.118 H 
ATOM     19  C21 5L4 d   1      19.460  -1.264   9.693  0.00  0.00     0.004 A 
ATOM     20  C22 5L4 d   1      19.126  -0.744   8.453  0.00  0.00    -0.038 A 
ATOM     21  H7  5L4 d   1      20.482  -1.151  10.035  0.00  0.00     0.114 H 
ATOM     22  C23 5L4 d   1      17.826  -0.941   7.986  0.00  0.00     0.060 A 
ATOM     23  H8  5L4 d   1      19.854  -0.200   7.862  0.00  0.00     0.089 H 
BRANCH  22  24
ATOM     24  N26 5L4 d   1      17.355  -0.348   6.793  0.00  0.00    -0.375 N 
ATOM     25  C27 5L4 d   1      16.526   0.851   6.949  0.00  0.00     0.015 C 
ATOM     26  C28 5L4 d   1      15.677   1.006   5.742  0.00  0.00     0.034 C 
ATOM     27  H12 5L4 d   1      17.171   1.734   7.063  0.00  0.00     0.067 H 
ATOM     28  H13 5L4 d   1      15.888   0.746   7.839  0.00  0.00     0.067 H 
ATOM     29  O29 5L4 d   1      16.486   1.121   4.519  0.00  0.00    -0.388 OA
ATOM     30  H19 5L4 d   1      15.065   1.913   5.851  0.00  0.00     0.076 H 
ATOM     31  H20 5L4 d   1      15.020   0.129   5.653  0.00  0.00     0.076 H 
ATOM     32  C30 5L4 d   1      17.461   0.050   4.362  0.00  0.00     0.034 C 
ATOM     33  C31 5L4 d   1      18.251  -0.273   5.633  0.00  0.00     0.015 C 
ATOM     34  H21 5L4 d   1      18.174   0.345   3.579  0.00  0.00     0.076 H 
ATOM     35  H22 5L4 d   1      16.927  -0.859   4.048  0.00  0.00     0.076 H 
ATOM     36  H23 5L4 d   1      18.760  -1.240   5.506  0.00  0.00     0.067 H 
ATOM     37  H24 5L4 d   1      18.999   0.515   5.804  0.00  0.00     0.067 H 
ENDBRANCH  22  24
ENDBRANCH  13  15
ENDBRANCH   4  11
BRANCH   2  38
ATOM     38  C11 5L4 d   1      12.652  -1.557   4.441  0.00  0.00    -0.006 A 
ATOM     39  C16 5L4 d   1      11.602  -1.280   3.554  0.00  0.00    -0.070 A 
ATOM     40  C15 5L4 d   1      11.849  -0.887   2.249  0.00  0.00    -0.076 A 
ATOM     41  H4  5L4 d   1      10.578  -1.375   3.896  0.00  0.00     0.084 H 
ATOM     42  C14 5L4 d   1      13.146  -0.763   1.769  0.00  0.00    -0.056 A 
ATOM     43  H5  5L4 d   1      11.015  -0.672   1.591  0.00  0.00     0.084 H 
ATOM     44  C13 5L4 d   1      14.193  -1.053   2.629  0.00  0.00    -0.076 A 
ATOM     45  C12 5L4 d   1      13.954  -1.464   3.935  0.00  0.00    -0.070 A 
ATOM     46  H1  5L4 d   1      15.214  -0.958   2.278  0.00  0.00     0.084 H 
ATOM     47  H11 5L4 d   1      14.792  -1.718   4.574  0.00  0.00     0.084 H 
BRANCH  42  48
ATOM     48  C17 5L4 d   1      13.408  -0.377   0.337  0.00  0.00    -0.021 C 
ATOM     49  H2  5L4 d   1      12.551   0.203  -0.036  0.00  0.00     0.043 H 
ATOM     50  H3  5L4 d   1      14.316   0.243   0.297  0.00  0.00     0.043 H 
BRANCH  48  51
ATOM     51  C24 5L4 d   1      13.603  -1.586  -0.552  0.00  0.00     0.020 C 
ATOM     52  H9  5L4 d   1      12.778  -2.293  -0.381  0.00  0.00     0.074 H 
ATOM     53  H10 5L4 d   1      14.558  -2.068  -0.296  0.00  0.00     0.074 H 
BRANCH  51  54
ATOM     54  O25 5L4 d   1      13.622  -1.230  -1.891  0.00  0.00    -0.401 OA
ATOM     55  H18 5L4 d   1      13.745  -2.008  -2.423  0.00  0.00     0.209 HD
ENDBRANCH  51  54
ENDBRANCH  48  51
ENDBRANCH  42  48
ENDBRANCH   2  38
TORSDOF 7
