REMARK  10 active torsions:
REMARK  status: ('A' for Active; 'I' for Inactive)
REMARK    1  A    between atoms: C01_9  and  C10_1 
REMARK    2  A    between atoms: C17_3  and  O29_29 
REMARK    3  A    between atoms: C25_27  and  C26_7 
REMARK    4  A    between atoms: C26_7  and  N27_28 
REMARK    5  A    between atoms: C14_21  and  C28_8 
REMARK    6  A    between atoms: N07_15  and  C11_18 
REMARK    7  A    between atoms: N18_23  and  C08_16 
REMARK    8  A    between atoms: C11_18  and  C12_19 
REMARK    9  A    between atoms: C19_24  and  N18_23 
REMARK   10  A    between atoms: N22_25  and  C25_27 
ROOT
ATOM      1  C01 5NK d   1      22.743  17.239  22.721  0.00  0.00     0.003 A 
ATOM      2  C02 5NK d   1      22.190  16.133  21.845  0.00  0.00    -0.097 A 
ATOM      3  C03 5NK d   1      21.237  16.461  20.748  0.00  0.00    -0.100 A 
ATOM      4  C04 5NK d   1      20.837  17.894  20.520  0.00  0.00    -0.010 A 
ATOM      5  C05 5NK d   1      22.319  18.723  22.471  0.00  0.00     0.068 A 
ATOM      6  C06 5NK d   1      21.426  19.031  21.439  0.00  0.00     0.044 A 
ATOM      7  N07 5NK d   1      21.224  20.396  21.451  0.00  0.00    -0.313 N 
ATOM      8  C08 5NK d   1      21.998  20.947  22.486  0.00  0.00     0.205 A 
ATOM      9  N09 5NK d   1      22.670  19.902  23.111  0.00  0.00    -0.217 NA
ATOM     10  H16 5NK d   1      21.899  17.110  23.414  0.00  0.00     0.055 H 
ATOM     11  H17 5NK d   1      22.489  15.100  22.017  0.00  0.00     0.077 H 
ATOM     12  H18 5NK d   1      20.833  15.671  20.117  0.00  0.00     0.076 H 
ATOM     13  H19 5NK d   1      19.743  17.939  20.621  0.00  0.00     0.048 H 
ATOM     14  H20 5NK d   1      21.120  18.142  19.486  0.00  0.00     0.048 H 
ENDROOT
BRANCH   8  15
ATOM     15  N18 5NK d   1      22.088  22.367  22.847  0.00  0.00    -0.356 N 
ATOM     16  H24 5NK d   1      21.373  22.802  23.448  0.00  0.00     0.163 HD
BRANCH  15  17
ATOM     17  C19 5NK d   1      23.243  23.176  22.324  0.00  0.00     0.015 C 
ATOM     18  C20 5NK d   1      24.482  22.656  22.928  0.00  0.00    -0.023 C 
ATOM     19  C21 5NK d   1      24.406  22.795  24.437  0.00  0.00     0.085 C 
ATOM     20  H5  5NK d   1      24.602  21.595  22.663  0.00  0.00     0.038 H 
ATOM     21  H6  5NK d   1      25.342  23.228  22.550  0.00  0.00     0.038 H 
ATOM     22  N22 5NK d   1      24.265  24.183  24.864  0.00  0.00    -0.069 N 
ATOM     23  H7  5NK d   1      25.326  22.383  24.876  0.00  0.00     0.076 H 
ATOM     24  H8  5NK d   1      23.539  22.224  24.801  0.00  0.00     0.076 H 
ATOM     25  C23 5NK d   1      23.182  24.897  24.137  0.00  0.00     0.085 C 
ATOM     26  H26 5NK d   1      24.035  24.184  25.845  0.00  0.00     0.279 HD
ATOM     27  C24 5NK d   1      23.065  24.596  22.656  0.00  0.00    -0.023 C 
ATOM     28  H27 5NK d   1      22.226  24.630  24.611  0.00  0.00     0.076 H 
ATOM     29  H28 5NK d   1      23.358  25.977  24.248  0.00  0.00     0.076 H 
ATOM     30  H9  5NK d   1      22.067  24.909  22.316  0.00  0.00     0.038 H 
ATOM     31  H10 5NK d   1      23.833  25.176  22.122  0.00  0.00     0.038 H 
ATOM     32  H25 5NK d   1      23.298  23.069  21.231  0.00  0.00     0.072 H 
BRANCH  22  33
ATOM     33  C25 5NK d   1      25.467  24.855  24.692  0.00  0.00     0.105 C 
ATOM     34  H29 5NK d   1      26.271  24.127  24.506  0.00  0.00     0.078 H 
ATOM     35  H30 5NK d   1      25.386  25.539  23.834  0.00  0.00     0.078 H 
BRANCH  33  36
ATOM     36  C26 5NK d   1      25.790  25.665  25.968  0.00  0.00     0.102 C 
ATOM     37  H11 5NK d   1      25.065  26.486  26.069  0.00  0.00     0.077 H 
ATOM     38  H12 5NK d   1      26.806  26.080  25.887  0.00  0.00     0.077 H 
BRANCH  36  39
ATOM     39  N27 5NK d   1      25.714  24.817  27.134  0.00  0.00    -0.078 N 
ATOM     40  H31 5NK d   1      25.927  25.358  27.957  0.00  0.00     0.274 HD
ATOM     41  H32 5NK d   1      26.378  24.064  27.046  0.00  0.00     0.274 HD
ATOM     42  H33 5NK d   1      24.784  24.437  27.213  0.00  0.00     0.274 HD
ENDBRANCH  36  39
ENDBRANCH  33  36
ENDBRANCH  22  33
ENDBRANCH  15  17
ENDBRANCH   8  15
BRANCH   7  43
ATOM     43  C11 5NK d   1      20.367  21.120  20.530  0.00  0.00     0.045 C 
ATOM     44  H21 5NK d   1      20.384  20.613  19.554  0.00  0.00     0.074 H 
ATOM     45  H22 5NK d   1      20.750  22.145  20.417  0.00  0.00     0.074 H 
BRANCH  43  46
ATOM     46  C12 5NK d   1      18.893  21.184  21.042  0.00  0.00     0.086 A 
ATOM     47  C17 5NK d   1      18.462  22.280  22.034  0.00  0.00     0.092 A 
ATOM     48  C16 5NK d   1      17.070  22.347  22.498  0.00  0.00    -0.047 A 
ATOM     49  C15 5NK d   1      16.094  21.366  22.018  0.00  0.00    -0.057 A 
ATOM     50  H23 5NK d   1      16.766  23.120  23.194  0.00  0.00     0.087 H 
ATOM     51  C14 5NK d   1      16.526  20.274  21.031  0.00  0.00     0.031 A 
ATOM     52  H4  5NK d   1      15.066  21.412  22.360  0.00  0.00     0.086 H 
ATOM     53  N13 5NK d   1      17.921  20.217  20.565  0.00  0.00    -0.254 NA
BRANCH  47  54
ATOM     54  O29 5NK d   1      19.391  23.216  22.484  0.00  0.00    -0.359 OA
ATOM     55  H34 5NK d   1      20.237  23.034  22.093  0.00  0.00     0.217 HD
ENDBRANCH  47  54
BRANCH  51  56
ATOM     56  C28 5NK d   1      15.506  19.244  20.527  0.00  0.00    -0.035 C 
ATOM     57  H13 5NK d   1      16.000  18.548  19.833  0.00  0.00     0.035 H 
ATOM     58  H14 5NK d   1      14.688  19.763  20.006  0.00  0.00     0.035 H 
ATOM     59  H15 5NK d   1      15.099  18.683  21.381  0.00  0.00     0.035 H 
ENDBRANCH  51  56
ENDBRANCH  43  46
ENDBRANCH   7  43
BRANCH   1  60
ATOM     60  C10 5NK d   1      23.738  16.920  23.869  0.00  0.00    -0.064 C 
ATOM     61  H1  5NK d   1      23.924  15.836  23.902  0.00  0.00     0.028 H 
ATOM     62  H2  5NK d   1      23.309  17.248  24.828  0.00  0.00     0.028 H 
ATOM     63  H3  5NK d   1      24.686  17.450  23.691  0.00  0.00     0.028 H 
ENDBRANCH   1  60
TORSDOF 10
