REMARK  8 active torsions:
REMARK  status: ('A' for Active; 'I' for Inactive)
REMARK    1  A    between atoms: C10_1  and  N02_9 
REMARK    2  A    between atoms: C04_11  and  C10_1 
REMARK    3  A    between atoms: N03_10  and  C13_2 
REMARK    4  A    between atoms: C26_6  and  C25_27 
REMARK    5  A    between atoms: C27_28  and  C26_6 
REMARK    6  A    between atoms: C25_27  and  N08_15 
REMARK    7  A    between atoms: S12_18  and  C27_28 
REMARK    8  A    between atoms: S12_18  and  C29_29 
ROOT
ATOM      1  C28 5NM d   1      15.527  22.110  22.284  0.00  0.00    -0.084 A 
ATOM      2  C04 5NM d   1      19.001  20.427  19.421  0.00  0.00     0.125 A 
ATOM      3  N05 5NM d   1      19.396  21.227  20.461  0.00  0.00    -0.236 NA
ATOM      4  N08 5NM d   1      17.626  20.292  19.463  0.00  0.00    -0.335 N 
ATOM      5  C09 5NM d   1      18.281  21.599  21.150  0.00  0.00     0.064 A 
ATOM      6  C11 5NM d   1      17.177  21.013  20.529  0.00  0.00     0.041 A 
ATOM      7  C16 5NM d   1      18.086  22.501  22.411  0.00  0.00     0.007 A 
ATOM      8  C18 5NM d   1      15.725  21.250  21.069  0.00  0.00    -0.009 A 
ATOM      9  C23 5NM d   1      16.704  22.728  22.944  0.00  0.00    -0.009 A 
ATOM     10 BR3  5NM d   1      16.471  23.824  24.490  0.00  0.00    -0.056 Br
ATOM     11  H12 5NM d   1      14.526  22.279  22.678  0.00  0.00     0.079 H 
ATOM     12  H15 5NM d   1      18.502  23.489  22.166  0.00  0.00     0.050 H 
ATOM     13  H16 5NM d   1      18.673  22.048  23.224  0.00  0.00     0.050 H 
ATOM     14  H17 5NM d   1      15.149  21.710  20.252  0.00  0.00     0.048 H 
ATOM     15  H18 5NM d   1      15.304  20.261  21.303  0.00  0.00     0.048 H 
ENDROOT
BRANCH   2  16
ATOM     16  C10 5NM d   1      19.905  19.767  18.379  0.00  0.00     0.059 C 
ATOM     17  H1  5NM d   1      19.500  19.923  17.368  0.00  0.00     0.077 H 
ATOM     18  H2  5NM d   1      20.921  20.184  18.436  0.00  0.00     0.077 H 
BRANCH  16  19
ATOM     19  N02 5NM d   1      19.921  18.367  18.700  0.00  0.00    -0.292 N 
ATOM     20  C01 5NM d   1      19.405  17.302  17.873  0.00  0.00     0.330 A 
ATOM     21  N03 5NM d   1      19.623  16.055  18.576  0.00  0.00    -0.296 N 
ATOM     22  O17 5NM d   1      18.884  17.458  16.779  0.00  0.00    -0.246 OA
ATOM     23  C07 5NM d   1      20.266  16.364  19.840  0.00  0.00     0.043 A 
ATOM     24  C22 5NM d   1      20.735  15.486  20.964  0.00  0.00    -0.002 A 
ATOM     25  C06 5NM d   1      20.449  17.790  19.917  0.00  0.00     0.065 A 
ATOM     26  C31 5NM d   1      21.395  16.107  22.190  0.00  0.00     0.087 A 
ATOM     27  H6  5NM d   1      21.462  14.781  20.535  0.00  0.00     0.044 H 
ATOM     28  H7  5NM d   1      19.855  14.932  21.323  0.00  0.00     0.044 H 
ATOM     29  N21 5NM d   1      21.578  17.574  22.264  0.00  0.00    -0.070 N 
ATOM     30  H28 5NM d   1      22.395  15.657  22.276  0.00  0.00     0.076 H 
ATOM     31  H29 5NM d   1      20.787  15.818  23.060  0.00  0.00     0.076 H 
ATOM     32  C24 5NM d   1      21.115  18.429  21.153  0.00  0.00     0.121 A 
ATOM     33  H19 5NM d   1      21.097  17.887  23.093  0.00  0.00     0.277 HD
ATOM     34  H20 5NM d   1      22.567  17.740  22.367  0.00  0.00     0.277 HD
ATOM     35  H8  5NM d   1      20.386  19.135  21.578  0.00  0.00     0.085 H 
ATOM     36  H9  5NM d   1      21.994  18.983  20.790  0.00  0.00     0.085 H 
BRANCH  21  37
ATOM     37  C13 5NM d   1      19.282  14.720  18.151  0.00  0.00     0.021 A 
ATOM     38  C15 5NM d   1      17.955  14.542  17.427  0.00  0.00    -0.044 A 
ATOM     39  C14 5NM d   1      19.267  14.421  16.659  0.00  0.00    -0.044 A 
ATOM     40  H4  5NM d   1      17.298  15.409  17.261  0.00  0.00     0.036 H 
ATOM     41  H5  5NM d   1      17.342  13.648  17.613  0.00  0.00     0.036 H 
ATOM     42  H13 5NM d   1      19.601  13.440  16.291  0.00  0.00     0.036 H 
ATOM     43  H14 5NM d   1      19.557  15.200  15.939  0.00  0.00     0.036 H 
ATOM     44  H3  5NM d   1      19.644  13.974  18.874  0.00  0.00     0.073 H 
ENDBRANCH  21  37
ENDBRANCH  16  19
ENDBRANCH   2  16
BRANCH   4  45
ATOM     45  C25 5NM d   1      16.830  19.534  18.519  0.00  0.00     0.002 C 
ATOM     46  H21 5NM d   1      16.022  20.178  18.142  0.00  0.00     0.065 H 
ATOM     47  H22 5NM d   1      17.474  19.226  17.682  0.00  0.00     0.065 H 
BRANCH  45  48
ATOM     48  C26 5NM d   1      16.207  18.280  19.148  0.00  0.00    -0.038 C 
ATOM     49  H10 5NM d   1      15.795  18.522  20.139  0.00  0.00     0.036 H 
ATOM     50  H11 5NM d   1      16.969  17.493  19.250  0.00  0.00     0.036 H 
BRANCH  48  51
ATOM     51  C27 5NM d   1      15.077  17.801  18.211  0.00  0.00     0.030 C 
ATOM     52  H23 5NM d   1      15.502  17.529  17.233  0.00  0.00     0.056 H 
ATOM     53  H24 5NM d   1      14.342  18.609  18.079  0.00  0.00     0.056 H 
BRANCH  51  54
ATOM     54  S12 5NM d   1      14.272  16.375  18.929  0.00  0.00     0.140 S 
ATOM     55  O19 5NM d   1      13.713  16.698  20.220  0.00  0.00    -0.228 OA
ATOM     56  O20 5NM d   1      15.230  15.349  19.260  0.00  0.00    -0.228 OA
BRANCH  54  57
ATOM     57  C29 5NM d   1      13.018  15.788  17.796  0.00  0.00     0.015 C 
ATOM     58  H25 5NM d   1      12.313  16.603  17.575  0.00  0.00     0.048 H 
ATOM     59  H26 5NM d   1      12.475  14.948  18.253  0.00  0.00     0.048 H 
ATOM     60  H27 5NM d   1      13.495  15.452  16.863  0.00  0.00     0.048 H 
ENDBRANCH  54  57
ENDBRANCH  51  54
ENDBRANCH  48  51
ENDBRANCH  45  48
ENDBRANCH   4  45
TORSDOF 8
