REMARK  17 active torsions:
REMARK  status: ('A' for Active; 'I' for Inactive)
REMARK    1  A    between atoms: N3_3  and  C13_7 
REMARK    2  A    between atoms: C13_7  and  C14_8 
REMARK    3  A    between atoms: C14_8  and  C15_9 
REMARK    4  A    between atoms: C15_9  and  N16_10 
REMARK    5  A    between atoms: N16_10  and  C17_11 
REMARK    6  A    between atoms: N26_15  and  C41_20 
REMARK    7  A    between atoms: C33_17  and  C60_29 
REMARK    8  A    between atoms: C41_20  and  C42_21 
REMARK    9  A    between atoms: C45_22  and  O56_27 
REMARK   10  A    between atoms: C48_25  and  C58_28 
REMARK   11  A    between atoms: C60_29  and  N61_30 
REMARK   12  A    between atoms: N61_30  and  C62_31 
REMARK   13  A    between atoms: C67_33  and  C77_37 
REMARK   14  A    between atoms: C70_36  and  C79_38 
REMARK   15  A    between atoms: C79_38  and  C80_39 
REMARK   16  A    between atoms: C80_39  and  C81_40 
REMARK   17  A    between atoms: C81_40  and  O82_41 
ROOT
ATOM      1  C17 TM3 d   1      23.208  23.700  20.920  0.00  0.00     0.205 A 
ATOM      2  N23 TM3 d   1      23.664  23.771  19.603  0.00  0.00    -0.217 NA
ATOM      3  C24 TM3 d   1      22.999  22.804  18.868  0.00  0.00     0.065 A 
ATOM      4  C25 TM3 d   1      22.148  22.157  19.752  0.00  0.00     0.062 A 
ATOM      5  N26 TM3 d   1      22.251  22.690  21.009  0.00  0.00    -0.313 N 
ATOM      6  C32 TM3 d   1      21.241  21.013  19.211  0.00  0.00    -0.051 A 
ATOM      7  C33 TM3 d   1      21.231  20.521  17.818  0.00  0.00    -0.052 A 
ATOM      8  C34 TM3 d   1      22.140  21.203  16.844  0.00  0.00    -0.038 A 
ATOM      9  C35 TM3 d   1      23.027  22.338  17.348  0.00  0.00    -0.019 A 
ATOM     10  H17 TM3 d   1      20.560  20.538  19.915  0.00  0.00     0.087 H 
ATOM     11  H18 TM3 d   1      21.508  21.616  16.044  0.00  0.00     0.040 H 
ATOM     12  H19 TM3 d   1      22.805  20.433  16.426  0.00  0.00     0.040 H 
ATOM     13  H20 TM3 d   1      24.064  22.039  17.134  0.00  0.00     0.043 H 
ATOM     14  H21 TM3 d   1      22.769  23.223  16.748  0.00  0.00     0.043 H 
ENDROOT
BRANCH   7  15
ATOM     15  C60 TM3 d   1      20.268  19.364  17.517  0.00  0.00     0.102 C 
ATOM     16  H35 TM3 d   1      20.834  18.497  17.145  0.00  0.00     0.082 H 
ATOM     17  H36 TM3 d   1      19.537  19.678  16.758  0.00  0.00     0.082 H 
BRANCH  15  18
ATOM     18  N61 TM3 d   1      19.574  19.006  18.751  0.00  0.00    -0.067 N 
ATOM     19  H37 TM3 d   1      18.716  18.562  18.465  0.00  0.00     0.277 HD
ATOM     20  H38 TM3 d   1      19.364  19.878  19.211  0.00  0.00     0.277 HD
BRANCH  18  21
ATOM     21  C62 TM3 d   1      20.143  18.145  19.775  0.00  0.00     0.106 A 
ATOM     22  C66 TM3 d   1      20.872  18.716  20.993  0.00  0.00    -0.035 A 
ATOM     23  C67 TM3 d   1      21.500  17.839  22.095  0.00  0.00    -0.056 A 
ATOM     24  H40 TM3 d   1      20.144  19.364  21.503  0.00  0.00     0.036 H 
ATOM     25  H41 TM3 d   1      21.692  19.329  20.593  0.00  0.00     0.036 H 
ATOM     26  C68 TM3 d   1      21.355  16.314  21.953  0.00  0.00    -0.062 A 
ATOM     27  H42 TM3 d   1      22.448  17.806  21.538  0.00  0.00     0.039 H 
ATOM     28  C69 TM3 d   1      20.615  15.718  20.747  0.00  0.00    -0.059 A 
ATOM     29  H43 TM3 d   1      20.830  15.961  22.853  0.00  0.00     0.033 H 
ATOM     30  H44 TM3 d   1      22.374  15.899  21.936  0.00  0.00     0.033 H 
ATOM     31  C70 TM3 d   1      20.006  16.600  19.658  0.00  0.00    -0.026 A 
ATOM     32  H45 TM3 d   1      19.788  15.119  21.157  0.00  0.00     0.033 H 
ATOM     33  H46 TM3 d   1      21.332  15.055  20.242  0.00  0.00     0.033 H 
ATOM     34  H47 TM3 d   1      19.059  16.640  20.216  0.00  0.00     0.043 H 
ATOM     35  H39 TM3 d   1      21.091  18.114  19.218  0.00  0.00     0.084 H 
BRANCH  23  36
ATOM     36  C77 TM3 d   1      22.251  18.479  23.309  0.00  0.00    -0.073 C 
ATOM     37  H48 TM3 d   1      22.237  19.575  23.213  0.00  0.00     0.028 H 
ATOM     38  H49 TM3 d   1      23.293  18.126  23.323  0.00  0.00     0.028 H 
ATOM     39  H50 TM3 d   1      21.752  18.187  24.244  0.00  0.00     0.028 H 
ENDBRANCH  23  36
BRANCH  31  40
ATOM     40  C79 TM3 d   1      19.280  15.978  18.481  0.00  0.00    -0.058 C 
ATOM     41  H51 TM3 d   1      19.008  16.764  17.762  0.00  0.00     0.033 H 
ATOM     42  H52 TM3 d   1      18.369  15.475  18.837  0.00  0.00     0.033 H 
BRANCH  40  43
ATOM     43  C80 TM3 d   1      20.190  14.959  17.800  0.00  0.00    -0.045 C 
ATOM     44  H53 TM3 d   1      19.977  13.954  18.193  0.00  0.00     0.036 H 
ATOM     45  H54 TM3 d   1      21.242  15.214  17.997  0.00  0.00     0.036 H 
BRANCH  43  46
ATOM     46  C81 TM3 d   1      19.931  14.986  16.295  0.00  0.00     0.017 C 
ATOM     47  H55 TM3 d   1      20.888  15.061  15.758  0.00  0.00     0.073 H 
ATOM     48  H56 TM3 d   1      19.302  15.853  16.045  0.00  0.00     0.073 H 
BRANCH  46  49
ATOM     49  O82 TM3 d   1      19.279  13.815  15.924  0.00  0.00    -0.401 OA
ATOM     50  H57 TM3 d   1      19.116  13.828  14.988  0.00  0.00     0.209 HD
ENDBRANCH  46  49
ENDBRANCH  43  46
ENDBRANCH  40  43
ENDBRANCH  31  40
ENDBRANCH  18  21
ENDBRANCH  15  18
ENDBRANCH   7  15
BRANCH   5  51
ATOM     51  C41 TM3 d   1      21.529  22.268  22.194  0.00  0.00     0.035 C 
ATOM     52  H22 TM3 d   1      21.894  22.859  23.047  0.00  0.00     0.068 H 
ATOM     53  H23 TM3 d   1      21.744  21.203  22.367  0.00  0.00     0.068 H 
BRANCH  51  54
ATOM     54  C42 TM3 d   1      19.987  22.443  22.106  0.00  0.00     0.163 A 
ATOM     55  C45 TM3 d   1      19.288  23.434  23.007  0.00  0.00     0.071 A 
ATOM     56  C46 TM3 d   1      17.813  23.605  22.935  0.00  0.00    -0.071 A 
ATOM     57  C47 TM3 d   1      17.006  22.795  21.975  0.00  0.00    -0.021 A 
ATOM     58  H25 TM3 d   1      17.319  24.325  23.586  0.00  0.00     0.080 H 
ATOM     59  C48 TM3 d   1      17.708  21.790  21.071  0.00  0.00     0.102 A 
ATOM     60  H26 TM3 d   1      16.481  23.505  21.319  0.00  0.00     0.042 H 
ATOM     61  H27 TM3 d   1      16.271  22.233  22.569  0.00  0.00     0.042 H 
ATOM     62  N49 TM3 d   1      19.179  21.637  21.165  0.00  0.00    -0.059 N 
ATOM     63  H28 TM3 d   1      17.836  22.567  20.302  0.00  0.00     0.084 H 
ATOM     64  H29 TM3 d   1      19.349  20.672  21.401  0.00  0.00     0.278 HD
ATOM     65  H30 TM3 d   1      19.543  21.827  20.244  0.00  0.00     0.278 HD
ATOM     66  H24 TM3 d   1      20.117  23.219  21.337  0.00  0.00     0.097 H 
BRANCH  55  67
ATOM     67  O56 TM3 d   1      20.042  24.212  23.922  0.00  0.00    -0.363 OA
ATOM     68  H31 TM3 d   1      19.924  25.134  23.725  0.00  0.00     0.217 HD
ENDBRANCH  55  67
BRANCH  59  69
ATOM     69  C58 TM3 d   1      16.884  20.929  20.059  0.00  0.00    -0.049 C 
ATOM     70  H32 TM3 d   1      15.818  21.188  20.141  0.00  0.00     0.030 H 
ATOM     71  H33 TM3 d   1      17.021  19.862  20.289  0.00  0.00     0.030 H 
ATOM     72  H34 TM3 d   1      17.233  21.132  19.036  0.00  0.00     0.030 H 
ENDBRANCH  59  69
ENDBRANCH  51  54
ENDBRANCH   5  51
BRANCH   1  73
ATOM     73  N16 TM3 d   1      23.637  24.526  22.033  0.00  0.00    -0.360 N 
ATOM     74  H16 TM3 d   1      23.344  25.511  22.101  0.00  0.00     0.162 HD
BRANCH  73  75
ATOM     75  C15 TM3 d   1      24.499  23.925  23.062  0.00  0.00    -0.003 C 
ATOM     76  H14 TM3 d   1      24.601  22.846  22.875  0.00  0.00     0.064 H 
ATOM     77  H15 TM3 d   1      25.492  24.397  23.035  0.00  0.00     0.064 H 
BRANCH  75  78
ATOM     78  C14 TM3 d   1      23.840  24.158  24.476  0.00  0.00    -0.028 C 
ATOM     79  H12 TM3 d   1      23.073  24.942  24.398  0.00  0.00     0.037 H 
ATOM     80  H13 TM3 d   1      23.375  23.223  24.823  0.00  0.00     0.037 H 
BRANCH  78  81
ATOM     81  C13 TM3 d   1      24.928  24.599  25.486  0.00  0.00     0.085 C 
ATOM     82  H10 TM3 d   1      24.716  24.153  26.469  0.00  0.00     0.076 H 
ATOM     83  H11 TM3 d   1      25.913  24.259  25.134  0.00  0.00     0.076 H 
BRANCH  81  84
ATOM     84  N3  TM3 d   1      24.931  25.853  25.588  0.00  0.00    -0.067 N 
ATOM     85  C2  TM3 d   1      25.006  26.212  26.922  0.00  0.00     0.103 C 
ATOM     86  C1  TM3 d   1      26.357  25.886  27.526  0.00  0.00     0.042 C 
ATOM     87  H3  TM3 d   1      24.831  27.295  27.008  0.00  0.00     0.079 H 
ATOM     88  H4  TM3 d   1      24.228  25.669  27.479  0.00  0.00     0.079 H 
ATOM     89  O6  TM3 d   1      27.404  26.430  26.794  0.00  0.00    -0.388 OA
ATOM     90  H1  TM3 d   1      26.477  24.793  27.557  0.00  0.00     0.076 H 
ATOM     91  H2  TM3 d   1      26.394  26.288  28.549  0.00  0.00     0.076 H 
ATOM     92  C5  TM3 d   1      27.336  26.081  25.456  0.00  0.00     0.042 C 
ATOM     93  C4  TM3 d   1      25.977  26.388  24.853  0.00  0.00     0.103 C 
ATOM     94  H8  TM3 d   1      28.104  26.642  24.904  0.00  0.00     0.076 H 
ATOM     95  H9  TM3 d   1      27.531  25.003  25.361  0.00  0.00     0.076 H 
ATOM     96  H6  TM3 d   1      25.852  27.480  24.806  0.00  0.00     0.079 H 
ATOM     97  H7  TM3 d   1      25.941  25.971  23.836  0.00  0.00     0.079 H 
ATOM     98  H5  TM3 d   1      24.066  26.209  25.212  0.00  0.00     0.280 HD
ENDBRANCH  81  84
ENDBRANCH  78  81
ENDBRANCH  75  78
ENDBRANCH  73  75
ENDBRANCH   1  73
TORSDOF 17
