REMARK  2 active torsions:
REMARK  status: ('A' for Active; 'I' for Inactive)
REMARK    1  A    between atoms: C15_3  and  C20_5 
REMARK       I    between atoms: N05_15  and  C15_3 
REMARK    2  A    between atoms: C08_18  and  C12_21 
ROOT
ATOM      1  C10 5NP d   1      19.262  21.094  21.591  0.00  0.00     0.016 C 
ATOM      2  C13 5NP d   1      21.612  18.550  21.615  0.00  0.00     0.252 A 
ATOM      3  C15 5NP d   1      17.483  19.195  20.489  0.00  0.00     0.257 C 
ATOM      4  C21 5NP d   1      21.314  15.250  19.202  0.00  0.00     0.086 A 
ATOM      5  O02 5NP d   1      22.393  18.414  22.542  0.00  0.00    -0.268 OA
ATOM      6  O03 5NP d   1      17.397  18.230  19.755  0.00  0.00    -0.267 OA
ATOM      7  N04 5NP d   1      20.836  19.756  21.311  0.00  0.00    -0.311 N 
ATOM      8  N05 5NP d   1      18.761  19.831  20.687  0.00  0.00    -0.311 N 
ATOM      9  N06 5NP d   1      20.326  15.808  18.265  0.00  0.00    -0.071 N 
ATOM     10  C08 5NP d   1      19.970  19.485  20.117  0.00  0.00     0.169 A 
ATOM     11  C09 5NP d   1      20.720  20.773  21.848  0.00  0.00     0.016 C 
ATOM     12  C11 5NP d   1      20.333  18.068  19.616  0.00  0.00     0.011 A 
ATOM     13  C14 5NP d   1      21.283  17.499  20.547  0.00  0.00     0.020 A 
ATOM     14  C16 5NP d   1      19.821  17.180  18.460  0.00  0.00     0.107 A 
ATOM     15  C19 5NP d   1      21.801  16.108  20.363  0.00  0.00    -0.013 A 
ATOM     16  H1  5NP d   1      18.698  21.154  22.534  0.00  0.00     0.067 H 
ATOM     17  H2  5NP d   1      19.157  22.041  21.041  0.00  0.00     0.067 H 
ATOM     18  H4  5NP d   1      22.200  14.976  18.610  0.00  0.00     0.076 H 
ATOM     19  H5  5NP d   1      20.869  14.343  19.637  0.00  0.00     0.076 H 
ATOM     20  H9  5NP d   1      19.525  15.197  18.288  0.00  0.00     0.277 HD
ATOM     21  H10 5NP d   1      20.745  15.779  17.349  0.00  0.00     0.277 HD
ATOM     22  H11 5NP d   1      20.927  20.683  22.925  0.00  0.00     0.067 H 
ATOM     23  H12 5NP d   1      21.381  21.535  21.410  0.00  0.00     0.067 H 
ATOM     24  H13 5NP d   1      18.732  17.095  18.592  0.00  0.00     0.082 H 
ATOM     25  H14 5NP d   1      20.036  17.726  17.530  0.00  0.00     0.082 H 
ATOM     26  H16 5NP d   1      22.893  16.189  20.259  0.00  0.00     0.042 H 
ATOM     27  H17 5NP d   1      21.561  15.557  21.285  0.00  0.00     0.042 H 
ENDROOT
BRANCH   3  28
ATOM     28  C20 5NP d   1      16.223  19.611  21.236  0.00  0.00     0.049 A 
ATOM     29  C26 5NP d   1      15.047  18.656  21.156  0.00  0.00     0.017 A 
ATOM     30  N07 5NP d   1      13.826  18.982  21.888  0.00  0.00    -0.272 NA
ATOM     31  H7  5NP d   1      15.112  17.749  20.567  0.00  0.00     0.116 H 
ATOM     32  C28 5NP d   1      13.757  20.198  22.714  0.00  0.00     0.002 A 
ATOM     33  C27 5NP d   1      14.932  21.151  22.809  0.00  0.00    -0.065 A 
ATOM     34  H8  5NP d   1      12.849  20.416  23.265  0.00  0.00     0.114 H 
ATOM     35  C25 5NP d   1      16.155  20.829  22.069  0.00  0.00    -0.065 A 
ATOM     36  H20 5NP d   1      14.869  22.050  23.411  0.00  0.00     0.085 H 
ATOM     37  H19 5NP d   1      17.014  21.488  22.133  0.00  0.00     0.085 H 
ENDBRANCH   3  28
BRANCH  10  38
ATOM     38  C12 5NP d   1      20.413  20.279  18.855  0.00  0.00    -0.004 A 
ATOM     39  C17 5NP d   1      19.596  20.178  17.570  0.00  0.00    -0.071 A 
ATOM     40  C22 5NP d   1      19.991  20.979  16.340  0.00  0.00    -0.061 A 
ATOM     41  H3  5NP d   1      18.728  19.530  17.534  0.00  0.00     0.084 H 
ATOM     42  C24 5NP d   1      21.185  21.919  16.408  0.00  0.00     0.034 A 
ATOM     43  H6  5NP d   1      19.425  20.881  15.420  0.00  0.00     0.086 H 
ATOM     44 CL1  5NP d   1      21.659  22.858  15.030  0.00  0.00    -0.084 Cl
ATOM     45  C23 5NP d   1      21.992  22.063  17.678  0.00  0.00    -0.061 A 
ATOM     46  C18 5NP d   1      21.585  21.256  18.893  0.00  0.00    -0.071 A 
ATOM     47  H18 5NP d   1      22.845  22.731  17.718  0.00  0.00     0.086 H 
ATOM     48  H15 5NP d   1      22.142  21.375  19.816  0.00  0.00     0.084 H 
ENDBRANCH  10  38
TORSDOF 2
