REMARK  8 active torsions:
REMARK  status: ('A' for Active; 'I' for Inactive)
REMARK    1  A    between atoms: C14_21  and  C15_2 
REMARK    2  A    between atoms: N23_25  and  C24_7 
REMARK    3  A    between atoms: C24_7  and  C25_26 
REMARK    4  A    between atoms: C25_26  and  C26_8 
REMARK    5  A    between atoms: C26_8  and  C27_27 
REMARK    6  A    between atoms: N04_12  and  C03_11 
REMARK    7  A    between atoms: N11_18  and  C14_21 
REMARK    8  A    between atoms: C27_27  and  O28_28 
ROOT
ATOM      1  C15 5NO d   1      21.477  20.618  19.633  0.00  0.00     0.126 A 
ATOM      2  C17 5NO d   1      22.806  22.418  19.584  0.00  0.00     0.085 A 
ATOM      3  C20 5NO d   1      23.707  24.068  17.494  0.00  0.00    -0.081 A 
ATOM      4  C21 5NO d   1      22.861  22.980  17.223  0.00  0.00    -0.055 A 
ATOM      5  C22 5NO d   1      22.405  22.144  18.289  0.00  0.00     0.065 A 
ATOM      6  N16 5NO d   1      22.217  21.452  20.398  0.00  0.00    -0.231 NA
ATOM      7  C18 5NO d   1      23.669  23.527  19.856  0.00  0.00    -0.053 A 
ATOM      8  C19 5NO d   1      24.113  24.347  18.810  0.00  0.00    -0.081 A 
ATOM      9  N23 5NO d   1      21.576  21.026  18.334  0.00  0.00    -0.332 N 
ATOM     10  H2  5NO d   1      24.050  24.698  16.681  0.00  0.00     0.083 H 
ATOM     11  H3  5NO d   1      22.553  22.774  16.204  0.00  0.00     0.087 H 
ATOM     12  H17 5NO d   1      23.980  23.733  20.874  0.00  0.00     0.087 H 
ATOM     13  H18 5NO d   1      24.764  25.189  19.014  0.00  0.00     0.083 H 
ENDROOT
BRANCH   1  14
ATOM     14  C14 5NO d   1      20.686  19.411  20.177  0.00  0.00     0.059 C 
ATOM     15  H15 5NO d   1      21.150  19.086  21.120  0.00  0.00     0.077 H 
ATOM     16  H16 5NO d   1      20.743  18.596  19.441  0.00  0.00     0.077 H 
BRANCH  14  17
ATOM     17  N11 5NO d   1      19.295  19.706  20.428  0.00  0.00    -0.289 N 
ATOM     18  C06 5NO d   1      18.752  20.845  21.132  0.00  0.00     0.084 A 
ATOM     19  C05 5NO d   1      17.349  20.716  21.142  0.00  0.00     0.069 A 
ATOM     20  C07 5NO d   1      19.355  21.971  21.755  0.00  0.00     0.030 A 
ATOM     21  C10 5NO d   1      16.606  21.764  21.801  0.00  0.00    -0.038 A 
ATOM     22  N04 5NO d   1      17.004  19.497  20.449  0.00  0.00    -0.292 N 
ATOM     23  C09 5NO d   1      17.279  22.840  22.389  0.00  0.00     0.004 A 
ATOM     24  H1  5NO d   1      15.524  21.717  21.840  0.00  0.00     0.089 H 
ATOM     25  N08 5NO d   1      18.615  22.908  22.348  0.00  0.00    -0.271 NA
ATOM     26  H14 5NO d   1      16.715  23.624  22.881  0.00  0.00     0.114 H 
ATOM     27  C12 5NO d   1      18.211  18.883  20.018  0.00  0.00     0.330 A 
ATOM     28  O13 5NO d   1      18.304  17.836  19.402  0.00  0.00    -0.246 OA
ATOM     29  H13 5NO d   1      20.434  22.070  21.748  0.00  0.00     0.118 H 
BRANCH  22  30
ATOM     30  C03 5NO d   1      15.671  18.992  20.234  0.00  0.00     0.022 A 
ATOM     31  C01 5NO d   1      15.165  17.588  20.527  0.00  0.00    -0.044 A 
ATOM     32  C02 5NO d   1      15.034  18.162  19.131  0.00  0.00    -0.044 A 
ATOM     33  H8  5NO d   1      15.880  16.776  20.722  0.00  0.00     0.036 H 
ATOM     34  H9  5NO d   1      14.269  17.445  21.149  0.00  0.00     0.036 H 
ATOM     35  H10 5NO d   1      14.043  18.436  18.740  0.00  0.00     0.036 H 
ATOM     36  H11 5NO d   1      15.654  17.766  18.313  0.00  0.00     0.036 H 
ATOM     37  H12 5NO d   1      15.034  19.813  20.596  0.00  0.00     0.073 H 
ENDBRANCH  22  30
ENDBRANCH  14  17
ENDBRANCH   1  14
BRANCH   9  38
ATOM     38  C24 5NO d   1      20.951  20.405  17.178  0.00  0.00     0.002 C 
ATOM     39  H4  5NO d   1      21.196  19.333  17.187  0.00  0.00     0.065 H 
ATOM     40  H5  5NO d   1      21.365  20.868  16.270  0.00  0.00     0.065 H 
BRANCH  38  41
ATOM     41  C25 5NO d   1      19.418  20.552  17.141  0.00  0.00    -0.048 C 
ATOM     42  H19 5NO d   1      19.156  21.590  17.393  0.00  0.00     0.035 H 
ATOM     43  H20 5NO d   1      18.980  19.872  17.887  0.00  0.00     0.035 H 
BRANCH  41  44
ATOM     44  C26 5NO d   1      18.829  20.215  15.757  0.00  0.00    -0.044 C 
ATOM     45  H6  5NO d   1      19.238  19.249  15.427  0.00  0.00     0.036 H 
ATOM     46  H7  5NO d   1      19.126  21.001  15.047  0.00  0.00     0.036 H 
BRANCH  44  47
ATOM     47  C27 5NO d   1      17.297  20.120  15.770  0.00  0.00     0.017 C 
ATOM     48  H21 5NO d   1      16.876  20.997  16.283  0.00  0.00     0.073 H 
ATOM     49  H22 5NO d   1      16.987  19.204  16.295  0.00  0.00     0.073 H 
BRANCH  47  50
ATOM     50  O28 5NO d   1      16.834  20.082  14.431  0.00  0.00    -0.401 OA
ATOM     51  H23 5NO d   1      15.886  20.023  14.427  0.00  0.00     0.209 HD
ENDBRANCH  47  50
ENDBRANCH  44  47
ENDBRANCH  41  44
ENDBRANCH  38  41
ENDBRANCH   9  38
TORSDOF 8
