REMARK  6 active torsions:
REMARK  status: ('A' for Active; 'I' for Inactive)
REMARK    1  A    between atoms: C1_2  and  C14_18 
REMARK    2  A    between atoms: C6_8  and  C8_10 
REMARK    3  A    between atoms: C10_13  and  C12_15 
REMARK       I    between atoms: C12_15  and  N13_16 
REMARK    4  A    between atoms: N13_16  and  C20_24 
REMARK    5  A    between atoms: N16_20  and  C19_23 
REMARK    6  A    between atoms: C21_25  and  N22_26 
ROOT
ATOM      1  C8  24R d   1      41.447  32.176  -1.834  0.00  0.00    -0.013 A 
ATOM      2  C9  24R d   1      41.276  31.271  -2.866  0.00  0.00    -0.033 A 
ATOM      3  S   24R d   1      41.087  29.669  -2.290  0.00  0.00    -0.096 SA
ATOM      4  C10 24R d   1      41.234  30.163  -0.658  0.00  0.00     0.073 A 
ATOM      5  C11 24R d   1      41.416  31.542  -0.577  0.00  0.00    -0.050 A 
ATOM      6  H4  24R d   1      41.263  31.545  -3.920  0.00  0.00     0.096 H 
ATOM      7  H5  24R d   1      41.524  32.077   0.365  0.00  0.00     0.087 H 
ENDROOT
BRANCH   4   8
ATOM      8  C12 24R d   1      41.154  29.138   0.422  0.00  0.00     0.258 C 
ATOM      9  N13 24R d   1      41.540  29.471   1.646  0.00  0.00    -0.350 N 
ATOM     10  H6  24R d   1      41.731  30.431   1.849  0.00  0.00     0.163 HD
ATOM     11  O   24R d   1      40.758  28.013   0.210  0.00  0.00    -0.267 OA
BRANCH   9  12
ATOM     12  C20 24R d   1      41.695  28.479   2.706  0.00  0.00     0.039 C 
ATOM     13  C21 24R d   1      40.773  28.720   3.919  0.00  0.00     0.119 C 
ATOM     14  C26 24R d   1      41.264  29.754   4.927  0.00  0.00    -0.037 C 
ATOM     15  H13 24R d   1      40.668  27.757   4.440  0.00  0.00     0.087 H 
ATOM     16  C25 24R d   1      42.747  29.593   5.254  0.00  0.00    -0.063 C 
ATOM     17  H23 24R d   1      40.684  29.645   5.855  0.00  0.00     0.036 H 
ATOM     18  H24 24R d   1      41.102  30.759   4.509  0.00  0.00     0.036 H 
ATOM     19  C24 24R d   1      43.589  29.607   3.986  0.00  0.00    -0.063 C 
ATOM     20  H21 24R d   1      43.064  30.421   5.905  0.00  0.00     0.033 H 
ATOM     21  H22 24R d   1      42.899  28.637   5.776  0.00  0.00     0.033 H 
ATOM     22  C23 24R d   1      43.175  28.431   3.104  0.00  0.00    -0.044 C 
ATOM     23  H19 24R d   1      43.425  30.550   3.445  0.00  0.00     0.033 H 
ATOM     24  H20 24R d   1      44.653  29.515   4.248  0.00  0.00     0.033 H 
ATOM     25  H17 24R d   1      43.786  28.446   2.189  0.00  0.00     0.036 H 
ATOM     26  H18 24R d   1      43.361  27.497   3.654  0.00  0.00     0.036 H 
ATOM     27  H12 24R d   1      41.424  27.498   2.288  0.00  0.00     0.075 H 
BRANCH  13  28
ATOM     28  N22 24R d   1      39.425  29.190   3.492  0.00  0.00    -0.073 N 
ATOM     29  H14 24R d   1      38.848  29.338   4.305  0.00  0.00     0.274 HD
ATOM     30  H15 24R d   1      38.999  28.495   2.899  0.00  0.00     0.274 HD
ATOM     31  H16 24R d   1      39.517  30.055   2.983  0.00  0.00     0.274 HD
ENDBRANCH  13  28
ENDBRANCH   9  12
ENDBRANCH   4   8
BRANCH   1  32
ATOM     32  C6  24R d   1      41.608  33.651  -2.054  0.00  0.00     0.042 A 
ATOM     33  C3  24R d   1      41.912  34.670  -1.149  0.00  0.00     0.162 A 
ATOM     34  N   24R d   1      42.171  34.652   0.174  0.00  0.00    -0.240 NA
ATOM     35  N4  24R d   1      41.916  35.829  -1.847  0.00  0.00    -0.225 N 
ATOM     36  C2  24R d   1      42.427  35.838   0.743  0.00  0.00     0.017 A 
ATOM     37  C1  24R d   1      42.466  37.075   0.110  0.00  0.00     0.012 A 
ATOM     38  H2  24R d   1      42.625  35.832   1.814  0.00  0.00     0.116 H 
ATOM     39  C   24R d   1      42.178  37.004  -1.243  0.00  0.00     0.018 A 
ATOM     40  H1  24R d   1      42.163  37.920  -1.832  0.00  0.00     0.116 H 
ATOM     41  N5  24R d   1      41.637  35.651  -3.142  0.00  0.00    -0.178 NA
ATOM     42  C7  24R d   1      41.439  34.322  -3.265  0.00  0.00     0.037 A 
ATOM     43  H3  24R d   1      41.178  33.831  -4.201  0.00  0.00     0.118 H 
BRANCH  37  44
ATOM     44  C14 24R d   1      42.745  38.305   0.888  0.00  0.00     0.013 A 
ATOM     45  C15 24R d   1      42.903  39.605   0.436  0.00  0.00     0.010 A 
ATOM     46  N16 24R d   1      43.107  40.336   1.562  0.00  0.00    -0.285 N 
ATOM     47  H7  24R d   1      42.871  39.961  -0.593  0.00  0.00     0.115 H 
ATOM     48  N17 24R d   1      43.086  39.643   2.702  0.00  0.00    -0.185 NA
ATOM     49  C18 24R d   1      42.848  38.389   2.275  0.00  0.00     0.034 A 
ATOM     50  H8  24R d   1      42.747  37.533   2.941  0.00  0.00     0.118 H 
BRANCH  46  51
ATOM     51  C19 24R d   1      43.340  41.775   1.650  0.00  0.00     0.002 C 
ATOM     52  H9  24R d   1      43.468  42.062   2.704  0.00  0.00     0.059 H 
ATOM     53  H10 24R d   1      42.479  42.312   1.226  0.00  0.00     0.059 H 
ATOM     54  H11 24R d   1      44.248  42.035   1.086  0.00  0.00     0.059 H 
ENDBRANCH  46  51
ENDBRANCH  37  44
ENDBRANCH   1  32
TORSDOF 6
