REMARK WARNING: 32 MAX_TORS EXCEEDED!!!
REMARK  62 active torsions:
REMARK  status: ('A' for Active; 'I' for Inactive)
REMARK    1  A    between atoms: N_1  and  CA_2 
REMARK    2  A    between atoms: CA_2  and  C_3 
REMARK    3  A    between atoms: CA_2  and  CB_5 
REMARK       I    between atoms: C_3  and  N_9 
REMARK    4  A    between atoms: CB_5  and  CG_6 
REMARK       I    between atoms: CG_6  and  ND2_8 
REMARK    5  A    between atoms: N_9  and  CA_10 
REMARK    6  A    between atoms: CA_10  and  C_11 
REMARK    7  A    between atoms: CA_10  and  CB_13 
REMARK       I    between atoms: C_11  and  N_18 
REMARK    8  A    between atoms: CB_13  and  CG_14 
REMARK    9  A    between atoms: CG_14  and  CD_15 
REMARK   10  A    between atoms: N_18  and  CA_19 
REMARK   11  A    between atoms: CA_19  and  C_20 
REMARK   12  A    between atoms: CA_19  and  CB_22 
REMARK       I    between atoms: C_20  and  N_26 
REMARK   13  A    between atoms: CB_22  and  CG_23 
REMARK   14  A    between atoms: CG_23  and  CD1_24 
REMARK   15  A    between atoms: CG_23  and  CD2_25 
REMARK   16  A    between atoms: N_26  and  CA_27 
REMARK   17  A    between atoms: CA_27  and  C_28 
REMARK   18  A    between atoms: CA_27  and  CB_30 
REMARK       I    between atoms: C_28  and  N_35 
REMARK   19  A    between atoms: CB_30  and  CG_31 
REMARK   20  A    between atoms: CG_31  and  CD_32 
REMARK   21  A    between atoms: N_35  and  CA_36 
REMARK   22  A    between atoms: CA_36  and  C_37 
REMARK   23  A    between atoms: CA_36  and  CB_39 
REMARK       I    between atoms: C_37  and  N_43 
REMARK   24  A    between atoms: CB_39  and  CG_40 
REMARK   25  A    between atoms: CG_40  and  CD1_41 
REMARK   26  A    between atoms: CG_40  and  CD2_42 
REMARK   27  A    between atoms: N_43  and  CA_44 
REMARK   28  A    between atoms: CA_44  and  C_45 
REMARK   29  A    between atoms: CA_44  and  CB_47 
REMARK       I    between atoms: C_45  and  N_51 
REMARK   30  A    between atoms: CB_47  and  CG_48 
REMARK   31  A    between atoms: CG_48  and  CD1_49 
REMARK   32  A    between atoms: CG_48  and  CD2_50 
REMARK   33  A    between atoms: N_51  and  CA_52 
REMARK   34  A    between atoms: CA_52  and  C_53 
REMARK   35  A    between atoms: CA_52  and  CB_55 
REMARK       I    between atoms: C_53  and  N_59 
REMARK   36  A    between atoms: CB_55  and  CG_56 
REMARK   37  A    between atoms: CG_56  and  SD_57 
REMARK   38  A    between atoms: SD_57  and  CE_58 
REMARK   39  A    between atoms: N_59  and  CA_60 
REMARK   40  A    between atoms: CA_60  and  C_61 
REMARK   41  A    between atoms: CA_60  and  CB_63 
REMARK       I    between atoms: C_61  and  N_68 
REMARK   42  A    between atoms: CB_63  and  CG_64 
REMARK   43  A    between atoms: CG_64  and  CD_65 
REMARK   44  A    between atoms: N_68  and  CA_69 
REMARK   45  A    between atoms: CA_69  and  C_70 
REMARK   46  A    between atoms: CA_69  and  CB_72 
REMARK       I    between atoms: C_70  and  N_77 
REMARK   47  A    between atoms: CB_72  and  CG_73 
REMARK   48  A    between atoms: CG_73  and  CD_74 
REMARK   49  A    between atoms: CD_74  and  CE_75 
REMARK   50  A    between atoms: CE_75  and  NZ_76 
REMARK   51  A    between atoms: N_77  and  CA_78 
REMARK   52  A    between atoms: CA_78  and  C_79 
REMARK   53  A    between atoms: CA_78  and  CB_81 
REMARK       I    between atoms: C_79  and  N_83 
REMARK   54  A    between atoms: CB_81  and  OG_82 
REMARK   55  A    between atoms: N_83  and  CA_84 
REMARK   56  A    between atoms: CA_84  and  C_85 
REMARK   57  A    between atoms: CA_84  and  CB_87 
REMARK       I    between atoms: C_85  and  N_94 
REMARK   58  A    between atoms: CB_87  and  CG_88 
REMARK   59  A    between atoms: N_94  and  CA_95 
REMARK   60  A    between atoms: CA_95  and  C_96 
REMARK   61  A    between atoms: CA_95  and  CB_98 
REMARK   62  A    between atoms: CB_98  and  CG_99 
ROOT
ATOM      1  CA  MET d   1      48.732 -14.342  28.224  0.00  0.00     0.090 C 
ATOM      2  H55 MET d   1      48.373 -14.951  27.381  0.00  0.00     0.087 H 
ENDROOT
BRANCH   1   3
ATOM      3  N   MET d   1      49.085 -13.022  27.703  0.00  0.00    -0.346 N 
ATOM      4  C   LEU d   1      48.753 -12.630  26.471  0.00  0.00     0.241 C 
ATOM      5  O   LEU d   1      48.069 -13.322  25.697  0.00  0.00    -0.271 OA
ATOM      6  H54 MET d   1      49.593 -12.391  28.290  0.00  0.00     0.163 HD
BRANCH   4   7
ATOM      7  CA  LEU d   1      49.236 -11.234  26.057  0.00  0.00     0.089 C 
ATOM      8  H44 LEU d   1      48.469 -10.791  25.405  0.00  0.00     0.087 H 
BRANCH   7   9
ATOM      9  N   LEU d   1      49.406 -10.371  27.207  0.00  0.00    -0.346 N 
ATOM     10  C   LEU d   1      48.376  -9.954  27.933  0.00  0.00     0.241 C 
ATOM     11  O   LEU d   1      47.212 -10.274  27.686  0.00  0.00    -0.271 OA
ATOM     12  H43 LEU d   1      50.328 -10.080  27.462  0.00  0.00     0.163 HD
BRANCH  10  13
ATOM     13  CA  LEU d   1      48.704  -9.043  29.115  0.00  0.00     0.089 C 
ATOM     14  H33 LEU d   1      47.873  -9.117  29.832  0.00  0.00     0.087 H 
BRANCH  13  15
ATOM     15  N   LEU d   1      49.930  -9.442  29.817  0.00  0.00    -0.346 N 
ATOM     16  C   GLU d   1      50.005 -10.555  30.548  0.00  0.00     0.241 C 
ATOM     17  O   GLU d   1      49.058 -11.328  30.692  0.00  0.00    -0.271 OA
ATOM     18  H32 LEU d   1      50.739  -8.858  29.744  0.00  0.00     0.163 HD
BRANCH  16  19
ATOM     19  CA  GLU d   1      51.354 -10.857  31.203  0.00  0.00     0.090 C 
ATOM     20  H27 GLU d   1      51.422 -11.944  31.359  0.00  0.00     0.087 H 
BRANCH  19  21
ATOM     21  N   GLU d   1      52.465 -10.454  30.343  0.00  0.00    -0.346 N 
ATOM     22  C   LEU d   1      52.718 -11.022  29.163  0.00  0.00     0.241 C 
ATOM     23  O   LEU d   1      52.067 -11.978  28.707  0.00  0.00    -0.271 OA
ATOM     24  H26 GLU d   1      53.065  -9.717  30.654  0.00  0.00     0.163 HD
BRANCH  22  25
ATOM     25  CA  LEU d   1      53.886 -10.415  28.375  0.00  0.00     0.089 C 
ATOM     26  H16 LEU d   1      53.622 -10.421  27.307  0.00  0.00     0.087 H 
BRANCH  25  27
ATOM     27  N   LEU d   1      54.147  -9.037  28.780  0.00  0.00    -0.346 N 
ATOM     28  C   GLU d   1      53.499  -7.991  28.274  0.00  0.00     0.241 C 
ATOM     29  O   GLU d   1      52.615  -8.089  27.420  0.00  0.00    -0.271 OA
ATOM     30  H15 LEU d   1      54.849  -8.871  29.473  0.00  0.00     0.163 HD
BRANCH  28  31
ATOM     31  CA  GLU d   1      53.910  -6.622  28.818  0.00  0.00     0.090 C 
ATOM     32  H10 GLU d   1      53.534  -5.874  28.104  0.00  0.00     0.087 H 
BRANCH  31  33
ATOM     33  N   GLU d   1      53.300  -6.299  30.121  0.00  0.00    -0.346 N 
ATOM     34  C   ASN d   1      53.485  -7.011  31.236  0.00  0.00     0.249 C 
ATOM     35  O   ASN d   1      54.251  -7.977  31.308  0.00  0.00    -0.271 OA
ATOM     36  H9  GLU d   1      52.709  -5.494  30.173  0.00  0.00     0.163 HD
BRANCH  34  37
ATOM     37  CA  ASN d   1      52.689  -6.568  32.476  0.00  0.00     0.183 C 
ATOM     38  H4  ASN d   1      52.025  -7.409  32.726  0.00  0.00     0.099 H 
BRANCH  37  39
ATOM     39  N   ASN d   1      53.543  -6.339  33.681  0.00  0.00    -0.066 N 
ATOM     40  H1  ASN d   1      52.963  -6.052  34.454  0.00  0.00     0.275 HD
ATOM     41  H2  ASN d   1      54.218  -5.618  33.482  0.00  0.00     0.275 HD
ATOM     42  H3  ASN d   1      54.023  -7.192  33.919  0.00  0.00     0.275 HD
ENDBRANCH  37  39
BRANCH  37  43
ATOM     43  CB  ASN d   1      51.773  -5.359  32.194  0.00  0.00     0.044 C 
ATOM     44  H5  ASN d   1      50.736  -5.642  32.429  0.00  0.00     0.051 H 
ATOM     45  H6  ASN d   1      51.850  -5.102  31.127  0.00  0.00     0.051 H 
BRANCH  43  46
ATOM     46  CG  ASN d   1      52.138  -4.132  33.016  0.00  0.00     0.217 C 
ATOM     47  OD1 ASN d   1      53.218  -3.561  32.866  0.00  0.00    -0.274 OA
ATOM     48  ND2 ASN d   1      51.227  -3.719  33.890  0.00  0.00    -0.370 N 
ATOM     49  H7  ASN d   1      51.408  -2.918  34.460  0.00  0.00     0.159 HD
ATOM     50  H8  ASN d   1      50.360  -4.210  33.978  0.00  0.00     0.159 HD
ENDBRANCH  43  46
ENDBRANCH  37  43
ENDBRANCH  34  37
ENDBRANCH  31  33
BRANCH  31  51
ATOM     51  CB  GLU d   1      55.443  -6.478  28.852  0.00  0.00    -0.029 C 
ATOM     52  H11 GLU d   1      55.876  -7.269  28.223  0.00  0.00     0.037 H 
ATOM     53  H12 GLU d   1      55.777  -6.612  29.891  0.00  0.00     0.037 H 
BRANCH  51  54
ATOM     54  CG  GLU d   1      55.965  -5.136  28.354  0.00  0.00     0.018 C 
ATOM     55  H13 GLU d   1      57.047  -5.088  28.546  0.00  0.00     0.049 H 
ATOM     56  H14 GLU d   1      55.458  -4.334  28.911  0.00  0.00     0.049 H 
BRANCH  54  57
ATOM     57  CD  GLU d   1      55.727  -4.918  26.867  0.00  0.00     0.172 C 
ATOM     58  OE1 GLU d   1      55.330  -3.797  26.489  0.00  0.00    -0.648 OA
ATOM     59  OE2 GLU d   1      55.928  -5.864  26.074  0.00  0.00    -0.648 OA
ENDBRANCH  54  57
ENDBRANCH  51  54
ENDBRANCH  31  51
ENDBRANCH  28  31
ENDBRANCH  25  27
BRANCH  25  60
ATOM     60  CB  LEU d   1      55.156 -11.247  28.572  0.00  0.00    -0.035 C 
ATOM     61  H17 LEU d   1      55.313 -11.330  29.657  0.00  0.00     0.037 H 
ATOM     62  H18 LEU d   1      55.981 -10.674  28.125  0.00  0.00     0.037 H 
BRANCH  60  63
ATOM     63  CG  LEU d   1      55.249 -12.659  28.008  0.00  0.00    -0.059 C 
ATOM     64  H19 LEU d   1      54.425 -13.258  28.422  0.00  0.00     0.038 H 
BRANCH  63  65
ATOM     65  CD1 LEU d   1      55.125 -12.666  26.488  0.00  0.00    -0.073 C 
ATOM     66  H20 LEU d   1      55.197 -13.700  26.119  0.00  0.00     0.028 H 
ATOM     67  H21 LEU d   1      55.935 -12.064  26.051  0.00  0.00     0.028 H 
ATOM     68  H22 LEU d   1      54.154 -12.239  26.197  0.00  0.00     0.028 H 
ENDBRANCH  63  65
BRANCH  63  69
ATOM     69  CD2 LEU d   1      56.569 -13.272  28.450  0.00  0.00    -0.073 C 
ATOM     70  H23 LEU d   1      56.632 -13.254  29.548  0.00  0.00     0.028 H 
ATOM     71  H24 LEU d   1      57.403 -12.693  28.026  0.00  0.00     0.028 H 
ATOM     72  H25 LEU d   1      56.627 -14.312  28.096  0.00  0.00     0.028 H 
ENDBRANCH  63  69
ENDBRANCH  60  63
ENDBRANCH  25  60
ENDBRANCH  22  25
ENDBRANCH  19  21
BRANCH  19  73
ATOM     73  CB  GLU d   1      51.451 -10.170  32.571  0.00  0.00    -0.029 C 
ATOM     74  H28 GLU d   1      50.533 -10.396  33.133  0.00  0.00     0.037 H 
ATOM     75  H29 GLU d   1      51.522  -9.085  32.405  0.00  0.00     0.037 H 
BRANCH  73  76
ATOM     76  CG  GLU d   1      52.642 -10.598  33.419  0.00  0.00     0.018 C 
ATOM     77  H30 GLU d   1      52.896  -9.774  34.102  0.00  0.00     0.049 H 
ATOM     78  H31 GLU d   1      53.492 -10.795  32.749  0.00  0.00     0.049 H 
BRANCH  76  79
ATOM     79  CD  GLU d   1      52.384 -11.849  34.250  0.00  0.00     0.172 C 
ATOM     80  OE1 GLU d   1      53.325 -12.305  34.938  0.00  0.00    -0.648 OA
ATOM     81  OE2 GLU d   1      51.246 -12.376  34.233  0.00  0.00    -0.648 OA
ENDBRANCH  76  79
ENDBRANCH  73  76
ENDBRANCH  19  73
ENDBRANCH  16  19
ENDBRANCH  13  15
BRANCH  13  82
ATOM     82  CB  LEU d   1      48.801  -7.586  28.649  0.00  0.00    -0.035 C 
ATOM     83  H34 LEU d   1      48.338  -7.543  27.652  0.00  0.00     0.037 H 
ATOM     84  H35 LEU d   1      49.873  -7.353  28.566  0.00  0.00     0.037 H 
BRANCH  82  85
ATOM     85  CG  LEU d   1      48.169  -6.457  29.476  0.00  0.00    -0.059 C 
ATOM     86  H36 LEU d   1      47.078  -6.519  29.348  0.00  0.00     0.038 H 
BRANCH  85  87
ATOM     87  CD1 LEU d   1      48.459  -6.559  30.968  0.00  0.00    -0.073 C 
ATOM     88  H37 LEU d   1      47.977  -5.721  31.493  0.00  0.00     0.028 H 
ATOM     89  H38 LEU d   1      49.546  -6.519  31.134  0.00  0.00     0.028 H 
ATOM     90  H39 LEU d   1      48.064  -7.510  31.354  0.00  0.00     0.028 H 
ENDBRANCH  85  87
BRANCH  85  91
ATOM     91  CD2 LEU d   1      48.638  -5.115  28.931  0.00  0.00    -0.073 C 
ATOM     92  H40 LEU d   1      48.420  -5.060  27.854  0.00  0.00     0.028 H 
ATOM     93  H41 LEU d   1      49.721  -5.012  29.092  0.00  0.00     0.028 H 
ATOM     94  H42 LEU d   1      48.111  -4.303  29.453  0.00  0.00     0.028 H 
ENDBRANCH  85  91
ENDBRANCH  82  85
ENDBRANCH  13  82
ENDBRANCH  10  13
ENDBRANCH   7   9
BRANCH   7  95
ATOM     95  CB  LEU d   1      50.547 -11.310  25.272  0.00  0.00    -0.035 C 
ATOM     96  H45 LEU d   1      50.315 -11.685  24.264  0.00  0.00     0.037 H 
ATOM     97  H46 LEU d   1      51.207 -12.024  25.786  0.00  0.00     0.037 H 
BRANCH  95  98
ATOM     98  CG  LEU d   1      51.315  -9.984  25.118  0.00  0.00    -0.059 C 
ATOM     99  H47 LEU d   1      51.310  -9.492  26.102  0.00  0.00     0.038 H 
BRANCH  98 100
ATOM    100  CD1 LEU d   1      52.771 -10.224  24.735  0.00  0.00    -0.073 C 
ATOM    101  H48 LEU d   1      53.288  -9.258  24.634  0.00  0.00     0.028 H 
ATOM    102  H49 LEU d   1      52.814 -10.765  23.778  0.00  0.00     0.028 H 
ATOM    103  H50 LEU d   1      53.262 -10.822  25.517  0.00  0.00     0.028 H 
ENDBRANCH  98 100
BRANCH  98 104
ATOM    104  CD2 LEU d   1      50.647  -9.030  24.134  0.00  0.00    -0.073 C 
ATOM    105  H51 LEU d   1      49.599  -8.872  24.430  0.00  0.00     0.028 H 
ATOM    106  H52 LEU d   1      50.681  -9.463  23.123  0.00  0.00     0.028 H 
ATOM    107  H53 LEU d   1      51.178  -8.067  24.139  0.00  0.00     0.028 H 
ENDBRANCH  98 104
ENDBRANCH  95  98
ENDBRANCH   7  95
ENDBRANCH   4   7
ENDBRANCH   1   3
BRANCH   1 108
ATOM    108  C   MET d   1      47.613 -14.280  29.263  0.00  0.00     0.241 C 
ATOM    109  O   MET d   1      47.222 -15.306  29.828  0.00  0.00    -0.271 OA
ATOM    110  N   GLU d   1      47.088 -13.077  29.494  0.00  0.00    -0.346 N 
ATOM    111  H63 GLU d   1      47.404 -12.303  28.945  0.00  0.00     0.163 HD
BRANCH 110 112
ATOM    112  CA  GLU d   1      46.065 -12.841  30.521  0.00  0.00     0.090 C 
ATOM    113  H64 GLU d   1      46.475 -13.181  31.483  0.00  0.00     0.087 H 
BRANCH 112 114
ATOM    114  C   GLU d   1      44.769 -13.624  30.265  0.00  0.00     0.241 C 
ATOM    115  O   GLU d   1      44.168 -14.172  31.198  0.00  0.00    -0.271 OA
ATOM    116  N   LYS d   1      44.338 -13.651  29.011  0.00  0.00    -0.346 N 
ATOM    117  H69 LYS d   1      44.861 -13.169  28.308  0.00  0.00     0.163 HD
BRANCH 116 118
ATOM    118  CA  LYS d   1      43.127 -14.361  28.626  0.00  0.00     0.089 C 
ATOM    119  H70 LYS d   1      42.543 -14.572  29.534  0.00  0.00     0.087 H 
BRANCH 118 120
ATOM    120  C   LYS d   1      43.474 -15.678  27.951  0.00  0.00     0.241 C 
ATOM    121  O   LYS d   1      44.635 -15.920  27.580  0.00  0.00    -0.271 OA
ATOM    122  N   SER d   1      42.458 -16.517  27.782  0.00  0.00    -0.344 N 
ATOM    123  H82 SER d   1      41.573 -16.292  28.189  0.00  0.00     0.163 HD
BRANCH 122 124
ATOM    124  CA  SER d   1      42.589 -17.746  27.028  0.00  0.00     0.109 C 
ATOM    125  H83 SER d   1      43.414 -18.341  27.447  0.00  0.00     0.090 H 
BRANCH 124 126
ATOM    126  C   SER d   1      42.894 -17.423  25.566  0.00  0.00     0.243 C 
ATOM    127  O   SER d   1      42.648 -16.310  25.094  0.00  0.00    -0.271 OA
ATOM    128  N   PHE d   1      43.430 -18.411  24.856  0.00  0.00    -0.346 N 
ATOM    129  H87 PHE d   1      43.579 -19.299  25.292  0.00  0.00     0.163 HD
BRANCH 128 130
ATOM    130  CA  PHE d   1      43.803 -18.236  23.472  0.00  0.00     0.093 C 
ATOM    131  H88 PHE d   1      44.568 -17.447  23.425  0.00  0.00     0.088 H 
BRANCH 130 132
ATOM    132  C   PHE d   1      42.622 -17.790  22.608  0.00  0.00     0.241 C 
ATOM    133  O   PHE d   1      42.771 -16.883  21.780  0.00  0.00    -0.271 OA
ATOM    134  N   TRP d   1      41.473 -18.443  22.787  0.00  0.00    -0.344 N 
ATOM    135  H96 TRP d   1      41.429 -19.159  23.484  0.00  0.00     0.163 HD
BRANCH 134 136
ATOM    136  CA  TRP d   1      40.273 -18.150  21.999  0.00  0.00     0.100 C 
ATOM    137  H97 TRP d   1      40.588 -17.552  21.131  0.00  0.00     0.090 H 
BRANCH 136 138
ATOM    138  C   TRP d   1      39.264 -17.327  22.786  0.00  0.00     0.197 C 
ATOM    139  O   TRP d   1      39.647 -16.509  23.609  0.00  0.00    -0.646 OA
ATOM    140  OXT TRP d   1      38.066 -17.481  22.598  0.00  0.00    -0.646 OA
ENDBRANCH 136 138
BRANCH 136 141
ATOM    141  CB  TRP d   1      39.614 -19.428  21.469  0.00  0.00    -0.011 C 
ATOM    142  H98 TRP d   1      38.548 -19.223  21.293  0.00  0.00     0.044 H 
ATOM    143  H99 TRP d   1      39.715 -20.214  22.232  0.00  0.00     0.044 H 
BRANCH 141 144
ATOM    144  CG  TRP d   1      40.223 -19.928  20.184  0.00  0.00    -0.028 A 
ATOM    145  CD1 TRP d   1      40.977 -21.054  20.023  0.00  0.00    -0.015 A 
ATOM    146  NE1 TRP d   1      41.370 -21.184  18.709  0.00  0.00    -0.365 N 
ATOM    147 0H10 TRP d   1      41.232 -21.751  20.820  0.00  0.00     0.112 H 
ATOM    148  CE2 TRP d   1      40.872 -20.132  17.987  0.00  0.00     0.042 A 
ATOM    149 1H10 TRP d   1      41.946 -21.949  18.330  0.00  0.00     0.165 HD
ATOM    150  CD2 TRP d   1      40.138 -19.315  18.884  0.00  0.00    -0.002 A 
ATOM    151  CZ2 TRP d   1      41.000 -19.832  16.623  0.00  0.00    -0.056 A 
ATOM    152  CE3 TRP d   1      39.510 -18.161  18.391  0.00  0.00    -0.070 A 
ATOM    153  CZ3 TRP d   1      39.634 -17.863  17.026  0.00  0.00    -0.082 A 
ATOM    154 2H10 TRP d   1      38.942 -17.515  19.050  0.00  0.00     0.084 H 
ATOM    155  CH2 TRP d   1      40.379 -18.697  16.162  0.00  0.00    -0.081 A 
ATOM    156 4H10 TRP d   1      39.151 -16.979  16.627  0.00  0.00     0.083 H 
ATOM    157 5H10 TRP d   1      40.462 -18.435  15.113  0.00  0.00     0.083 H 
ATOM    158 3H10 TRP d   1      41.568 -20.472  15.957  0.00  0.00     0.086 H 
ENDBRANCH 141 144
ENDBRANCH 136 141
ENDBRANCH 134 136
ENDBRANCH 130 132
BRANCH 130 159
ATOM    159  CB  PHE d   1      44.418 -19.528  22.933  0.00  0.00    -0.014 C 
ATOM    160  H89 PHE d   1      43.664 -20.326  23.001  0.00  0.00     0.043 H 
ATOM    161  H90 PHE d   1      45.285 -19.788  23.558  0.00  0.00     0.043 H 
BRANCH 159 162
ATOM    162  CG  PHE d   1      44.874 -19.427  21.511  0.00  0.00    -0.056 A 
ATOM    163  CD1 PHE d   1      45.955 -18.621  21.184  0.00  0.00    -0.077 A 
ATOM    164  CE1 PHE d   1      46.385 -18.512  19.869  0.00  0.00    -0.082 A 
ATOM    165  H91 PHE d   1      46.469 -18.071  21.964  0.00  0.00     0.084 H 
ATOM    166  CZ  PHE d   1      45.730 -19.206  18.864  0.00  0.00    -0.083 A 
ATOM    167  H93 PHE d   1      47.234 -17.883  19.628  0.00  0.00     0.083 H 
ATOM    168  CE2 PHE d   1      44.649 -20.015  19.170  0.00  0.00    -0.082 A 
ATOM    169  H95 PHE d   1      46.065 -19.115  17.837  0.00  0.00     0.083 H 
ATOM    170  CD2 PHE d   1      44.214 -20.121  20.489  0.00  0.00    -0.077 A 
ATOM    171  H94 PHE d   1      44.142 -20.565  18.385  0.00  0.00     0.083 H 
ATOM    172  H92 PHE d   1      43.359 -20.744  20.726  0.00  0.00     0.084 H 
ENDBRANCH 159 162
ENDBRANCH 130 159
ENDBRANCH 128 130
ENDBRANCH 124 126
BRANCH 124 173
ATOM    173  CB  SER d   1      41.292 -18.553  27.118  0.00  0.00     0.044 C 
ATOM    174  H84 SER d   1      40.928 -18.537  28.156  0.00  0.00     0.077 H 
ATOM    175  H85 SER d   1      41.491 -19.591  26.815  0.00  0.00     0.077 H 
BRANCH 173 176
ATOM    176  OG  SER d   1      40.298 -18.003  26.268  0.00  0.00    -0.398 OA
ATOM    177  H86 SER d   1      40.607 -18.018  25.370  0.00  0.00     0.209 HD
ENDBRANCH 173 176
ENDBRANCH 124 173
ENDBRANCH 122 124
ENDBRANCH 118 120
BRANCH 118 178
ATOM    178  CB  LYS d   1      42.271 -13.512  27.679  0.00  0.00    -0.038 C 
ATOM    179  H71 LYS d   1      41.372 -14.091  27.420  0.00  0.00     0.036 H 
ATOM    180  H72 LYS d   1      42.858 -13.320  26.769  0.00  0.00     0.036 H 
BRANCH 178 181
ATOM    181  CG  LYS d   1      41.822 -12.171  28.243  0.00  0.00    -0.061 C 
ATOM    182  H73 LYS d   1      42.701 -11.523  28.376  0.00  0.00     0.033 H 
ATOM    183  H74 LYS d   1      41.336 -12.333  29.216  0.00  0.00     0.033 H 
BRANCH 181 184
ATOM    184  CD  LYS d   1      40.837 -11.491  27.299  0.00  0.00    -0.043 C 
ATOM    185  H75 LYS d   1      39.814 -11.681  27.657  0.00  0.00     0.035 H 
ATOM    186  H76 LYS d   1      40.959 -11.918  26.292  0.00  0.00     0.035 H 
BRANCH 184 187
ATOM    187  CE  LYS d   1      41.058  -9.986  27.224  0.00  0.00     0.080 C 
ATOM    188  H77 LYS d   1      40.258  -9.541  26.614  0.00  0.00     0.075 H 
ATOM    189  H78 LYS d   1      42.031  -9.795  26.748  0.00  0.00     0.075 H 
BRANCH 187 190
ATOM    190  NZ  LYS d   1      41.048  -9.343  28.567  0.00  0.00    -0.079 N 
ATOM    191  H79 LYS d   1      41.198  -8.351  28.466  0.00  0.00     0.274 HD
ATOM    192  H80 LYS d   1      41.782  -9.737  29.134  0.00  0.00     0.274 HD
ATOM    193  H81 LYS d   1      40.157  -9.505  29.011  0.00  0.00     0.274 HD
ENDBRANCH 187 190
ENDBRANCH 184 187
ENDBRANCH 181 184
ENDBRANCH 178 181
ENDBRANCH 118 178
ENDBRANCH 116 118
ENDBRANCH 112 114
BRANCH 112 194
ATOM    194  CB  GLU d   1      45.762 -11.340  30.633  0.00  0.00    -0.029 C 
ATOM    195  H65 GLU d   1      45.347 -11.000  29.673  0.00  0.00     0.037 H 
ATOM    196  H66 GLU d   1      46.706 -10.812  30.832  0.00  0.00     0.037 H 
BRANCH 194 197
ATOM    197  CG  GLU d   1      44.773 -10.982  31.735  0.00  0.00     0.018 C 
ATOM    198  H67 GLU d   1      45.212 -11.263  32.704  0.00  0.00     0.049 H 
ATOM    199  H68 GLU d   1      43.846 -11.552  31.573  0.00  0.00     0.049 H 
BRANCH 197 200
ATOM    200  CD  GLU d   1      44.430  -9.504  31.771  0.00  0.00     0.172 C 
ATOM    201  OE1 GLU d   1      44.436  -8.851  30.703  0.00  0.00    -0.648 OA
ATOM    202  OE2 GLU d   1      44.143  -8.996  32.875  0.00  0.00    -0.648 OA
ENDBRANCH 197 200
ENDBRANCH 194 197
ENDBRANCH 112 194
ENDBRANCH 110 112
ENDBRANCH   1 108
BRANCH   1 203
ATOM    203  CB  MET d   1      49.976 -15.026  28.814  0.00  0.00    -0.030 C 
ATOM    204  H56 MET d   1      49.668 -15.981  29.264  0.00  0.00     0.037 H 
ATOM    205  H57 MET d   1      50.396 -14.373  29.593  0.00  0.00     0.037 H 
BRANCH 203 206
ATOM    206  CG  MET d   1      51.060 -15.306  27.785  0.00  0.00    -0.021 C 
ATOM    207  H58 MET d   1      51.951 -15.683  28.308  0.00  0.00     0.049 H 
ATOM    208  H59 MET d   1      51.307 -14.365  27.272  0.00  0.00     0.049 H 
BRANCH 206 209
ATOM    209  SD  MET d   1      50.561 -16.525  26.545  0.00  0.00    -0.173 SA
BRANCH 209 210
ATOM    210  CE  MET d   1      50.306 -17.963  27.575  0.00  0.00    -0.035 C 
ATOM    211  H60 MET d   1      49.991 -18.811  26.949  0.00  0.00     0.041 H 
ATOM    212  H61 MET d   1      49.526 -17.747  28.320  0.00  0.00     0.041 H 
ATOM    213  H62 MET d   1      51.245 -18.216  28.090  0.00  0.00     0.041 H 
ENDBRANCH 209 210
ENDBRANCH 206 209
ENDBRANCH 203 206
ENDBRANCH   1 203
TORSDOF 62
