REMARK  4 active torsions:
REMARK  status: ('A' for Active; 'I' for Inactive)
REMARK    1  A    between atoms: N_1  and  CA_2 
REMARK    2  A    between atoms: CA_2  and  C_3 
REMARK    3  A    between atoms: CA_2  and  CB_5 
REMARK    4  A    between atoms: CB_5  and  CG_6 
ROOT
ATOM      1  CG  TRP d   1     -36.093 -56.437 -10.158  0.00  0.00    -0.028 A 
ATOM      2  CD1 TRP d   1     -36.919 -56.861 -11.171  0.00  0.00    -0.015 A 
ATOM      3  CD2 TRP d   1     -35.696 -55.097 -10.498  0.00  0.00    -0.002 A 
ATOM      4  NE1 TRP d   1     -37.051 -55.867 -12.117  0.00  0.00    -0.365 N 
ATOM      5  CE2 TRP d   1     -36.313 -54.776 -11.727  0.00  0.00     0.042 A 
ATOM      6  CE3 TRP d   1     -34.878 -54.140  -9.881  0.00  0.00    -0.070 A 
ATOM      7  CZ2 TRP d   1     -36.134 -53.536 -12.354  0.00  0.00    -0.056 A 
ATOM      8  CZ3 TRP d   1     -34.702 -52.900 -10.505  0.00  0.00    -0.082 A 
ATOM      9  CH2 TRP d   1     -35.327 -52.613 -11.729  0.00  0.00    -0.081 A 
ATOM     10  H7  TRP d   1     -37.398 -57.838 -11.219  0.00  0.00     0.112 H 
ATOM     11  H8  TRP d   1     -37.613 -55.932 -12.978  0.00  0.00     0.165 HD
ATOM     12  H9  TRP d   1     -34.391 -54.357  -8.937  0.00  0.00     0.084 H 
ATOM     13  H10 TRP d   1     -36.615 -53.311 -13.299  0.00  0.00     0.086 H 
ATOM     14  H11 TRP d   1     -34.074 -52.150 -10.037  0.00  0.00     0.083 H 
ATOM     15  H12 TRP d   1     -35.171 -51.645 -12.191  0.00  0.00     0.083 H 
ENDROOT
BRANCH   1  16
ATOM     16  CB  TRP d   1     -35.690 -57.212  -8.927  0.00  0.00    -0.003 C 
ATOM     17  H5  TRP d   1     -35.904 -58.277  -9.102  0.00  0.00     0.044 H 
ATOM     18  H6  TRP d   1     -34.610 -57.076  -8.769  0.00  0.00     0.044 H 
BRANCH  16  19
ATOM     19  CA  TRP d   1     -36.426 -56.772  -7.652  0.00  0.00     0.186 C 
ATOM     20  H4  TRP d   1     -36.419 -55.673  -7.611  0.00  0.00     0.101 H 
BRANCH  19  21
ATOM     21  N   TRP d   1     -35.733 -57.274  -6.468  0.00  0.00    -0.065 N 
ATOM     22  H1  TRP d   1     -34.778 -56.950  -6.475  0.00  0.00     0.275 HD
ATOM     23  H2  TRP d   1     -35.746 -58.282  -6.473  0.00  0.00     0.275 HD
ATOM     24  H3  TRP d   1     -36.196 -56.936  -5.639  0.00  0.00     0.275 HD
ENDBRANCH  19  21
BRANCH  19  25
ATOM     25  C   TRP d   1     -37.889 -57.238  -7.690  0.00  0.00     0.204 C 
ATOM     26  O   TRP d   1     -38.253 -58.143  -8.452  0.00  0.00    -0.646 OA
ATOM     27  OXT TRP d   1     -38.742 -56.717  -6.960  0.00  0.00    -0.646 OA
ENDBRANCH  19  25
ENDBRANCH  16  19
ENDBRANCH   1  16
TORSDOF 4
