REMARK  6 active torsions:
REMARK  status: ('A' for Active; 'I' for Inactive)
REMARK    1  A    between atoms: OP4_1  and  C5A_2 
REMARK    2  A    between atoms: C5A_2  and  C5_3 
REMARK    3  A    between atoms: C2_6  and  C2A_12 
REMARK    4  A    between atoms: C3_7  and  O3_11 
REMARK    5  A    between atoms: C4_8  and  C4A_9 
REMARK    6  A    between atoms: C4A_9  and  O4A_10 
ROOT
ATOM      1  C5  UEG d   1      24.843   5.223  32.422  0.00  0.00    -0.006 A 
ATOM      2  C6  UEG d   1      25.740   6.180  32.869  0.00  0.00     0.011 A 
ATOM      3  N1  UEG d   1      25.964   7.295  32.136  0.00  0.00    -0.262 NA
ATOM      4  C2  UEG d   1      25.299   7.463  30.962  0.00  0.00     0.064 A 
ATOM      5  C3  UEG d   1      24.402   6.510  30.507  0.00  0.00     0.099 A 
ATOM      6  C4  UEG d   1      24.173   5.377  31.239  0.00  0.00     0.010 A 
ATOM      7  H4  UEG d   1      26.263   6.035  33.807  0.00  0.00     0.115 H 
ENDROOT
BRANCH   1   8
ATOM      8  C5A UEG d   1      24.657   4.019  33.299  0.00  0.00     0.042 C 
ATOM      9  H2  UEG d   1      23.609   3.936  33.623  0.00  0.00     0.081 H 
ATOM     10  H3  UEG d   1      24.949   3.103  32.764  0.00  0.00     0.081 H 
BRANCH   8  11
ATOM     11  OP4 UEG d   1      25.501   4.235  34.405  0.00  0.00    -0.396 OA
ATOM     12  H1  UEG d   1      25.430   3.502  35.005  0.00  0.00     0.209 HD
ENDBRANCH   8  11
ENDBRANCH   1   8
BRANCH   6  13
ATOM     13  C4A UEG d   1      23.176   4.346  30.732  0.00  0.00     0.044 C 
ATOM     14  H5  UEG d   1      22.771   4.689  29.768  0.00  0.00     0.081 H 
ATOM     15  H6  UEG d   1      22.358   4.255  31.462  0.00  0.00     0.081 H 
BRANCH  13  16
ATOM     16  O4A UEG d   1      23.767   3.078  30.551  0.00  0.00    -0.396 OA
ATOM     17  H7  UEG d   1      23.112   2.467  30.235  0.00  0.00     0.209 HD
ENDBRANCH  13  16
ENDBRANCH   6  13
BRANCH   5  18
ATOM     18  O3  UEG d   1      23.731   6.710  29.288  0.00  0.00    -0.358 OA
ATOM     19  H8  UEG d   1      24.002   7.539  28.911  0.00  0.00     0.217 HD
ENDBRANCH   5  18
BRANCH   4  20
ATOM     20  C2A UEG d   1      25.558   8.712  30.156  0.00  0.00    -0.033 C 
ATOM     21  H9  UEG d   1      24.946   8.692  29.242  0.00  0.00     0.035 H 
ATOM     22  H10 UEG d   1      26.622   8.758  29.883  0.00  0.00     0.035 H 
ATOM     23  H11 UEG d   1      25.295   9.596  30.755  0.00  0.00     0.035 H 
ENDBRANCH   4  20
TORSDOF 6
