REMARK  4 active torsions:
REMARK  status: ('A' for Active; 'I' for Inactive)
REMARK    1  A    between atoms: C12_6  and  C7_4 
REMARK    2  A    between atoms: C13_7  and  C12_6 
REMARK    3  A    between atoms: C19_11  and  C17_23 
REMARK       I    between atoms: N21_26  and  C19_11 
REMARK    4  A    between atoms: N24_28  and  C27_13 
ROOT
ATOM      1  C27 5N2 d   1       6.571   6.100  42.320  0.00  0.00     0.146 A 
ATOM      2  C30 5N2 d   1       4.195   7.486  41.988  0.00  0.00    -0.064 A 
ATOM      3  C31 5N2 d   1       4.582   6.913  43.187  0.00  0.00     0.004 A 
ATOM      4  C33 5N2 d   1       7.133   6.680  39.847  0.00  0.00     0.103 C 
ATOM      5  C28 5N2 d   1       6.269   6.735  40.998  0.00  0.00     0.090 A 
ATOM      6  C29 5N2 d   1       5.043   7.399  40.895  0.00  0.00    -0.058 A 
ATOM      7  N32 5N2 d   1       5.716   6.208  43.354  0.00  0.00    -0.242 NA
ATOM      8  N34 5N2 d   1       7.841   6.603  38.956  0.00  0.00    -0.191 NA
ATOM      9  H11 5N2 d   1       3.242   7.996  41.905  0.00  0.00     0.085 H 
ATOM     10  H12 5N2 d   1       3.931   7.040  44.045  0.00  0.00     0.114 H 
ATOM     11  H22 5N2 d   1       4.753   7.849  39.953  0.00  0.00     0.086 H 
ENDROOT
BRANCH   1  12
ATOM     12  N24 5N2 d   1       7.792   5.397  42.493  0.00  0.00    -0.361 N 
ATOM     13  C23 5N2 d   1       8.336   5.093  43.827  0.00  0.00     0.011 C 
ATOM     14  C22 5N2 d   1       9.874   5.164  43.836  0.00  0.00     0.013 C 
ATOM     15  H16 5N2 d   1       7.940   5.822  44.550  0.00  0.00     0.066 H 
ATOM     16  H17 5N2 d   1       8.023   4.080  44.119  0.00  0.00     0.066 H 
ATOM     17  N21 5N2 d   1      10.422   4.310  42.769  0.00  0.00    -0.345 N 
ATOM     18  H9  5N2 d   1      10.192   6.204  43.670  0.00  0.00     0.066 H 
ATOM     19  H10 5N2 d   1      10.249   4.817  44.810  0.00  0.00     0.066 H 
ATOM     20  C19 5N2 d   1      11.112   3.147  42.879  0.00  0.00     0.253 C 
ATOM     21  C26 5N2 d   1       9.926   4.769  41.466  0.00  0.00     0.013 C 
ATOM     22  O20 5N2 d   1      11.402   2.479  41.903  0.00  0.00    -0.267 OA
ATOM     23  C25 5N2 d   1       8.419   4.600  41.428  0.00  0.00     0.011 C 
ATOM     24  H20 5N2 d   1      10.385   4.172  40.665  0.00  0.00     0.066 H 
ATOM     25  H21 5N2 d   1      10.182   5.829  41.326  0.00  0.00     0.066 H 
ATOM     26  H18 5N2 d   1       8.040   4.936  40.452  0.00  0.00     0.066 H 
ATOM     27  H19 5N2 d   1       8.169   3.539  41.573  0.00  0.00     0.066 H 
BRANCH  20  28
ATOM     28  C17 5N2 d   1      11.516   2.634  44.232  0.00  0.00     0.032 A 
ATOM     29  C16 5N2 d   1      12.212   3.376  45.192  0.00  0.00    -0.068 A 
ATOM     30  C15 5N2 d   1      12.593   2.785  46.389  0.00  0.00    -0.082 A 
ATOM     31  H8  5N2 d   1      12.454   4.415  45.001  0.00  0.00     0.085 H 
ATOM     32  C14 5N2 d   1      12.331   1.440  46.616  0.00  0.00    -0.076 A 
ATOM     33  H7  5N2 d   1      13.096   3.374  47.148  0.00  0.00     0.083 H 
ATOM     34  C13 5N2 d   1      11.683   0.668  45.652  0.00  0.00    -0.051 A 
ATOM     35  H6  5N2 d   1      12.633   0.985  47.553  0.00  0.00     0.084 H 
ATOM     36  C18 5N2 d   1      11.295   1.274  44.454  0.00  0.00    -0.061 A 
ATOM     37  H15 5N2 d   1      10.815   0.679  43.686  0.00  0.00     0.085 H 
BRANCH  34  38
ATOM     38  C12 5N2 d   1      11.397  -0.798  45.894  0.00  0.00     0.002 C 
ATOM     39  H4  5N2 d   1      12.159  -1.182  46.589  0.00  0.00     0.049 H 
ATOM     40  H5  5N2 d   1      10.403  -0.878  46.359  0.00  0.00     0.049 H 
BRANCH  38  41
ATOM     41  C7  5N2 d   1      11.407  -1.672  44.660  0.00  0.00     0.070 A 
ATOM     42  C5  5N2 d   1      12.523  -2.584  44.315  0.00  0.00     0.006 A 
ATOM     43  C4  5N2 d   1      12.386  -3.416  43.185  0.00  0.00     0.046 A 
ATOM     44  C6  5N2 d   1      13.704  -2.621  45.062  0.00  0.00    -0.070 A 
ATOM     45  C3  5N2 d   1      13.459  -4.213  42.777  0.00  0.00    -0.067 A 
ATOM     46  C10 5N2 d   1      11.138  -3.375  42.411  0.00  0.00     0.272 A 
ATOM     47  C2  5N2 d   1      14.640  -4.200  43.503  0.00  0.00    -0.082 A 
ATOM     48  H3  5N2 d   1      13.368  -4.839  41.897  0.00  0.00     0.085 H 
ATOM     49  C1  5N2 d   1      14.751  -3.434  44.654  0.00  0.00    -0.082 A 
ATOM     50  H2  5N2 d   1      15.483  -4.793  43.169  0.00  0.00     0.083 H 
ATOM     51  H1  5N2 d   1      15.663  -3.471  45.239  0.00  0.00     0.083 H 
ATOM     52  N9  5N2 d   1      10.208  -2.513  42.863  0.00  0.00    -0.243 N 
ATOM     53  O11 5N2 d   1      10.918  -4.070  41.424  0.00  0.00    -0.266 OA
ATOM     54  N8  5N2 d   1      10.297  -1.677  43.999  0.00  0.00    -0.175 NA
ATOM     55  H14 5N2 d   1       9.360  -2.458  42.336  0.00  0.00     0.192 HD
ATOM     56  H13 5N2 d   1      13.801  -2.017  45.957  0.00  0.00     0.084 H 
ENDBRANCH  38  41
ENDBRANCH  34  38
ENDBRANCH  20  28
ENDBRANCH   1  12
TORSDOF 4
