REMARK  7 active torsions:
REMARK  status: ('A' for Active; 'I' for Inactive)
REMARK    1  A    between atoms: C10_10  and  C04_4 
REMARK    2  A    between atoms: C05_5  and  C09_9 
REMARK    3  A    between atoms: C09_9  and  C11_11 
REMARK    4  A    between atoms: C10_10  and  C12_12 
REMARK    5  A    between atoms: C11_11  and  C13_13 
REMARK    6  A    between atoms: C13_13  and  C14_14 
REMARK    7  A    between atoms: C14_14  and  C15_15 
ROOT
ATOM      1  O01 JAA d   1       3.828  22.450 -51.104  0.00  0.00    -0.298 OA
ATOM      2  C04 JAA d   1       5.941  25.252 -50.565  0.00  0.00    -0.035 C 
ATOM      3  C05 JAA d   1       5.692  23.610 -50.511  0.00  0.00     0.008 C 
ATOM      4  C06 JAA d   1       5.456  25.574 -51.658  0.00  0.00    -0.054 C 
ATOM      5  C07 JAA d   1       4.057  24.902 -51.514  0.00  0.00    -0.009 C 
ATOM      6  C08 JAA d   1       4.490  23.439 -51.009  0.00  0.00     0.131 C 
ATOM      7  H1  JAA d   1       5.413  25.730 -49.727  0.00  0.00     0.042 H 
ATOM      8  H2  JAA d   1       6.412  22.987 -51.062  0.00  0.00     0.052 H 
ATOM      9  H3  JAA d   1       6.028  25.159 -52.501  0.00  0.00     0.034 H 
ATOM     10  H4  JAA d   1       5.379  26.666 -51.769  0.00  0.00     0.034 H 
ATOM     11  H5  JAA d   1       3.525  24.859 -52.476  0.00  0.00     0.044 H 
ATOM     12  H6  JAA d   1       3.432  25.420 -50.772  0.00  0.00     0.044 H 
ENDROOT
BRANCH   3  13
ATOM     13  C09 JAA d   1       5.963  23.623 -49.052  0.00  0.00    -0.052 C 
ATOM     14  H7  JAA d   1       5.541  24.543 -48.622  0.00  0.00     0.034 H 
ATOM     15  H8  JAA d   1       7.051  23.610 -48.894  0.00  0.00     0.034 H 
BRANCH  13  16
ATOM     16  C11 JAA d   1       5.365  22.451 -48.356  0.00  0.00    -0.049 C 
ATOM     17  H11 JAA d   1       6.119  21.652 -48.300  0.00  0.00     0.038 H 
ATOM     18  H12 JAA d   1       4.501  22.099 -48.938  0.00  0.00     0.038 H 
BRANCH  16  19
ATOM     19  C13 JAA d   1       4.965  22.736 -47.142  0.00  0.00    -0.107 C 
ATOM     20  H13 JAA d   1       4.615  21.997 -46.423  0.00  0.00     0.076 H 
BRANCH  19  21
ATOM     21  C14 JAA d   1       5.049  24.191 -46.869  0.00  0.00    -0.110 C 
ATOM     22  H14 JAA d   1       5.441  24.885 -47.611  0.00  0.00     0.075 H 
BRANCH  21  23
ATOM     23  C15 JAA d   1       4.601  24.639 -45.610  0.00  0.00    -0.060 C 
ATOM     24  H15 JAA d   1       4.721  25.731 -45.545  0.00  0.00     0.032 H 
ATOM     25  H16 JAA d   1       5.193  24.158 -44.818  0.00  0.00     0.032 H 
ATOM     26  H17 JAA d   1       3.540  24.378 -45.484  0.00  0.00     0.032 H 
ENDBRANCH  21  23
ENDBRANCH  19  21
ENDBRANCH  16  19
ENDBRANCH  13  16
ENDBRANCH   3  13
BRANCH   2  27
ATOM     27  C10 JAA d   1       7.320  25.719 -50.582  0.00  0.00     0.020 C 
ATOM     28  H9  JAA d   1       7.754  25.503 -51.569  0.00  0.00     0.049 H 
ATOM     29  H10 JAA d   1       7.885  25.180 -49.807  0.00  0.00     0.049 H 
BRANCH  27  30
ATOM     30  C12 JAA d   1       7.426  27.171 -50.324  0.00  0.00     0.172 C 
ATOM     31  O02 JAA d   1       8.567  27.584 -50.389  0.00  0.00    -0.648 OA
ATOM     32  O03 JAA d   1       6.494  27.938 -50.070  0.00  0.00    -0.648 OA
ENDBRANCH  27  30
ENDBRANCH   2  27
TORSDOF 7
