REMARK  7 active torsions:
REMARK  status: ('A' for Active; 'I' for Inactive)
REMARK    1  A    between atoms: C10_10  and  C04_4 
REMARK    2  A    between atoms: C05_5  and  C09_9 
REMARK    3  A    between atoms: C09_9  and  C11_11 
REMARK    4  A    between atoms: C10_10  and  C12_12 
REMARK    5  A    between atoms: C11_11  and  C13_13 
REMARK    6  A    between atoms: C13_13  and  C14_14 
REMARK    7  A    between atoms: C14_14  and  C15_15 
ROOT
ATOM      1  O01 JAA d   1     -40.454  36.491  50.708  0.00  0.00    -0.298 OA
ATOM      2  C04 JAA d   1     -41.704  33.240  50.569  0.00  0.00    -0.035 C 
ATOM      3  C05 JAA d   1     -40.469  34.271  50.194  0.00  0.00     0.008 C 
ATOM      4  C06 JAA d   1     -41.708  33.255  51.801  0.00  0.00    -0.054 C 
ATOM      5  C07 JAA d   1     -41.888  34.799  51.938  0.00  0.00    -0.009 C 
ATOM      6  C08 JAA d   1     -40.818  35.352  50.853  0.00  0.00     0.131 C 
ATOM      7  H1  JAA d   1     -42.627  33.691  50.176  0.00  0.00     0.042 H 
ATOM      8  H2  JAA d   1     -39.434  33.975  50.422  0.00  0.00     0.052 H 
ATOM      9  H3  JAA d   1     -40.763  32.896  52.234  0.00  0.00     0.034 H 
ATOM     10  H4  JAA d   1     -42.547  32.688  52.231  0.00  0.00     0.034 H 
ATOM     11  H5  JAA d   1     -41.643  35.143  52.954  0.00  0.00     0.044 H 
ATOM     12  H6  JAA d   1     -42.913  35.107  51.684  0.00  0.00     0.044 H 
ENDROOT
BRANCH   3  13
ATOM     13  C09 JAA d   1     -40.868  34.061  48.778  0.00  0.00    -0.055 C 
ATOM     14  H7  JAA d   1     -41.688  34.758  48.549  0.00  0.00     0.034 H 
ATOM     15  H8  JAA d   1     -41.227  33.026  48.676  0.00  0.00     0.034 H 
BRANCH  13  16
ATOM     16  C11 JAA d   1     -39.809  34.270  47.790  0.00  0.00    -0.064 C 
ATOM     17  H11 JAA d   1     -38.840  33.948  48.199  0.00  0.00     0.033 H 
ATOM     18  H12 JAA d   1     -39.754  35.333  47.512  0.00  0.00     0.033 H 
BRANCH  16  19
ATOM     19  C13 JAA d   1     -40.116  33.558  46.763  0.00  0.00    -0.065 C 
ATOM     20  H13 JAA d   1     -40.347  32.537  47.101  0.00  0.00     0.033 H 
ATOM     21  H14 JAA d   1     -39.252  33.533  46.083  0.00  0.00     0.033 H 
BRANCH  19  22
ATOM     22  C14 JAA d   1     -41.283  34.085  46.023  0.00  0.00    -0.069 C 
ATOM     23  H15 JAA d   1     -40.954  34.914  45.379  0.00  0.00     0.032 H 
ATOM     24  H16 JAA d   1     -42.028  34.453  46.744  0.00  0.00     0.032 H 
BRANCH  22  25
ATOM     25  C15 JAA d   1     -41.880  33.078  45.213  0.00  0.00    -0.077 C 
ATOM     26  H17 JAA d   1     -42.742  33.502  44.678  0.00  0.00     0.027 H 
ATOM     27  H18 JAA d   1     -42.216  32.247  45.850  0.00  0.00     0.027 H 
ATOM     28  H19 JAA d   1     -41.143  32.708  44.486  0.00  0.00     0.027 H 
ENDBRANCH  22  25
ENDBRANCH  19  22
ENDBRANCH  16  19
ENDBRANCH  13  16
ENDBRANCH   3  13
BRANCH   2  29
ATOM     29  C10 JAA d   1     -41.736  31.843  50.173  0.00  0.00     0.020 C 
ATOM     30  H9  JAA d   1     -41.546  31.217  51.058  0.00  0.00     0.049 H 
ATOM     31  H10 JAA d   1     -40.950  31.667  49.424  0.00  0.00     0.049 H 
BRANCH  29  32
ATOM     32  C12 JAA d   1     -43.050  31.467  49.590  0.00  0.00     0.172 C 
ATOM     33  O02 JAA d   1     -43.943  32.246  49.221  0.00  0.00    -0.648 OA
ATOM     34  O03 JAA d   1     -43.203  30.266  49.508  0.00  0.00    -0.648 OA
ENDBRANCH  29  32
ENDBRANCH   2  29
TORSDOF 7
