REMARK  6 active torsions:
REMARK  status: ('A' for Active; 'I' for Inactive)
REMARK    1  A    between atoms: C13_2  and  C14_14 
REMARK    2  A    between atoms: C02_4  and  C01_3 
REMARK    3  A    between atoms: C03_5  and  C11_12 
REMARK    4  A    between atoms: C11_12  and  O12_13 
REMARK    5  A    between atoms: C14_14  and  O15_15 
REMARK    6  A    between atoms: C14_14  and  C16_16 
ROOT
ATOM      1  C10 5M2 d   1      31.898  74.970  61.556  0.00  0.00    -0.001 A 
ATOM      2  C02 5M2 d   1      32.583  76.014  61.309  0.00  0.00    -0.036 A 
ATOM      3  C03 5M2 d   1      33.824  76.235  62.071  0.00  0.00     0.004 A 
ATOM      4  C04 5M2 d   1      34.224  75.329  63.014  0.00  0.00    -0.068 A 
ATOM      5  C05 5M2 d   1      33.530  74.245  63.301  0.00  0.00    -0.056 A 
ATOM      6  C06 5M2 d   1      32.357  74.034  62.590  0.00  0.00     0.042 A 
ATOM      7  N07 5M2 d   1      31.504  73.059  62.662  0.00  0.00    -0.365 N 
ATOM      8  C08 5M2 d   1      30.412  73.315  61.682  0.00  0.00    -0.022 A 
ATOM      9  C09 5M2 d   1      30.639  74.426  61.037  0.00  0.00    -0.056 A 
ATOM     10  H5  5M2 d   1      35.150  75.509  63.548  0.00  0.00     0.085 H 
ATOM     11  H6  5M2 d   1      33.862  73.547  64.061  0.00  0.00     0.087 H 
ATOM     12  H7  5M2 d   1      31.571  72.246  63.291  0.00  0.00     0.165 HD
ATOM     13  H8  5M2 d   1      29.549  72.669  61.526  0.00  0.00     0.111 H 
ATOM     14  H9  5M2 d   1      30.013  74.865  60.261  0.00  0.00     0.087 H 
ENDROOT
BRANCH   3  15
ATOM     15  C11 5M2 d   1      34.706  77.405  61.844  0.00  0.00     0.075 C 
ATOM     16  C13 5M2 d   1      35.124  78.148  62.842  0.00  0.00    -0.033 C 
ATOM     17  H1  5M2 d   1      34.613  78.066  63.800  0.00  0.00     0.086 H 
BRANCH  16  18
ATOM     18  C14 5M2 d   1      36.345  79.166  62.716  0.00  0.00     0.138 C 
ATOM     19  H11 5M2 d   1      35.855  80.040  63.171  0.00  0.00     0.106 H 
BRANCH  18  20
ATOM     20  O15 5M2 d   1      36.601  79.697  61.456  0.00  0.00    -0.381 OA
ATOM     21  H12 5M2 d   1      36.794  78.992  60.849  0.00  0.00     0.211 HD
ENDBRANCH  18  20
BRANCH  18  22
ATOM     22  C16 5M2 d   1      37.588  79.085  63.682  0.00  0.00     0.206 C 
ATOM     23  O17 5M2 d   1      38.718  79.290  63.137  0.00  0.00    -0.646 OA
ATOM     24  O18 5M2 d   1      37.343  78.774  64.893  0.00  0.00    -0.646 OA
ENDBRANCH  18  22
ENDBRANCH  16  18
BRANCH  15  25
ATOM     25  O12 5M2 d   1      35.108  77.635  60.577  0.00  0.00    -0.360 OA
ATOM     26  H10 5M2 d   1      35.664  78.405  60.557  0.00  0.00     0.217 HD
ENDBRANCH  15  25
ENDBRANCH   3  15
BRANCH   2  27
ATOM     27  C01 5M2 d   1      32.109  76.924  60.303  0.00  0.00    -0.049 C 
ATOM     28  H2  5M2 d   1      31.168  76.544  59.878  0.00  0.00     0.033 H 
ATOM     29  H3  5M2 d   1      32.861  77.013  59.506  0.00  0.00     0.033 H 
ATOM     30  H4  5M2 d   1      31.934  77.912  60.755  0.00  0.00     0.033 H 
ENDBRANCH   2  27
TORSDOF 6
