REMARK  7 active torsions:
REMARK  status: ('A' for Active; 'I' for Inactive)
REMARK    1  A    between atoms: C04_3  and  C23_13 
REMARK    2  A    between atoms: C11_7  and  C10_6 
REMARK    3  A    between atoms: C10_6  and  C08_18 
REMARK    4  A    between atoms: C12_19  and  C11_7 
REMARK    5  A    between atoms: N16_23  and  C22_12 
REMARK    6  A    between atoms: C03_15  and  C24_14 
REMARK    7  A    between atoms: C14_21  and  N17_24 
ROOT
ATOM      1  C11 5M9 d   1      93.544 -11.502  11.751  0.00  0.00    -0.001 C 
ATOM      2  H4  5M9 d   1      92.969 -12.221  12.354  0.00  0.00     0.045 H 
ATOM      3  H5  5M9 d   1      94.423 -11.166  12.320  0.00  0.00     0.045 H 
ENDROOT
BRANCH   1   4
ATOM      4  C10 5M9 d   1      92.654 -10.288  11.365  0.00  0.00    -0.000 C 
ATOM      5  H2  5M9 d   1      91.730 -10.630  10.875  0.00  0.00     0.045 H 
ATOM      6  H3  5M9 d   1      93.199  -9.612  10.690  0.00  0.00     0.045 H 
BRANCH   4   7
ATOM      7  C08 5M9 d   1      92.329  -9.580  12.682  0.00  0.00     0.149 A 
ATOM      8  N09 5M9 d   1      91.539 -10.056  13.675  0.00  0.00    -0.150 NA
ATOM      9  N05 5M9 d   1      91.541  -9.108  14.652  0.00  0.00    -0.216 N 
ATOM     10  C04 5M9 d   1      90.871  -9.104  15.958  0.00  0.00     0.056 A 
ATOM     11  C06 5M9 d   1      92.327  -8.075  14.291  0.00  0.00     0.159 A 
ATOM     12  C01 5M9 d   1      91.032  -7.931  16.821  0.00  0.00     0.059 A 
ATOM     13  C02 5M9 d   1      91.821  -6.851  16.427  0.00  0.00    -0.051 A 
ATOM     14 CL1  5M9 d   1      90.269  -7.844  18.379  0.00  0.00    -0.082 Cl
ATOM     15  C03 5M9 d   1      92.494  -6.864  15.152  0.00  0.00    -0.012 A 
ATOM     16  H1  5M9 d   1      91.930  -5.992  17.087  0.00  0.00     0.087 H 
ATOM     17  N07 5M9 d   1      92.804  -8.392  13.063  0.00  0.00    -0.212 NA
BRANCH  10  18
ATOM     18  C23 5M9 d   1      90.002 -10.339  16.320  0.00  0.00    -0.034 C 
ATOM     19  H17 5M9 d   1      89.565 -10.199  17.320  0.00  0.00     0.035 H 
ATOM     20  H18 5M9 d   1      90.629 -11.242  16.317  0.00  0.00     0.035 H 
ATOM     21  H19 5M9 d   1      89.196 -10.450  15.580  0.00  0.00     0.035 H 
ENDBRANCH  10  18
BRANCH  15  22
ATOM     22  C24 5M9 d   1      93.369  -5.663  14.758  0.00  0.00    -0.048 C 
ATOM     23  H20 5M9 d   1      93.329  -4.904  15.553  0.00  0.00     0.033 H 
ATOM     24  H21 5M9 d   1      92.996  -5.230  13.818  0.00  0.00     0.033 H 
ATOM     25  H22 5M9 d   1      94.409  -5.996  14.621  0.00  0.00     0.033 H 
ENDBRANCH  15  22
ENDBRANCH   4   7
ENDBRANCH   1   4
BRANCH   1  26
ATOM     26  C12 5M9 d   1      93.972 -12.133  10.453  0.00  0.00     0.142 A 
ATOM     27  N13 5M9 d   1      93.156 -12.633   9.545  0.00  0.00    -0.046 NA
ATOM     28  C14 5M9 d   1      93.923 -13.066   8.526  0.00  0.00     0.743 A 
ATOM     29  N15 5M9 d   1      95.164 -12.844   8.810  0.00  0.00     0.022 NA
ATOM     30  N16 5M9 d   1      95.216 -12.263  10.029  0.00  0.00    -0.244 N 
BRANCH  28  31
ATOM     31  N17 5M9 d   1      93.460 -13.704   7.280  0.00  0.00    -0.213 N 
ATOM     32  C18 5M9 d   1      94.181 -14.250   6.179  0.00  0.00     0.012 C 
ATOM     33  C19 5M9 d   1      93.132 -14.719   5.225  0.00  0.00    -0.048 C 
ATOM     34  H6  5M9 d   1      94.813 -13.481   5.711  0.00  0.00     0.065 H 
ATOM     35  H7  5M9 d   1      94.809 -15.091   6.507  0.00  0.00     0.065 H 
ATOM     36  C20 5M9 d   1      91.915 -14.911   6.020  0.00  0.00    -0.048 C 
ATOM     37  H8  5M9 d   1      93.437 -15.668   4.759  0.00  0.00     0.035 H 
ATOM     38  H9  5M9 d   1      92.962 -13.964   4.443  0.00  0.00     0.035 H 
ATOM     39  C21 5M9 d   1      92.121 -14.115   7.275  0.00  0.00     0.012 C 
ATOM     40  H10 5M9 d   1      91.777 -15.976   6.259  0.00  0.00     0.035 H 
ATOM     41  H11 5M9 d   1      91.036 -14.542   5.471  0.00  0.00     0.035 H 
ATOM     42  H12 5M9 d   1      91.913 -14.739   8.157  0.00  0.00     0.065 H 
ATOM     43  H13 5M9 d   1      91.456 -13.239   7.281  0.00  0.00     0.065 H 
ENDBRANCH  28  31
BRANCH  30  44
ATOM     44  C22 5M9 d   1      96.428 -11.840  10.729  0.00  0.00     0.005 C 
ATOM     45  H14 5M9 d   1      97.309 -12.086  10.118  0.00  0.00     0.059 H 
ATOM     46  H15 5M9 d   1      96.495 -12.362  11.695  0.00  0.00     0.059 H 
ATOM     47  H16 5M9 d   1      96.392 -10.754  10.901  0.00  0.00     0.059 H 
ENDBRANCH  30  44
ENDBRANCH   1  26
TORSDOF 7
