REMARK  5 active torsions:
REMARK  status: ('A' for Active; 'I' for Inactive)
REMARK    1  A    between atoms: C5_3  and  N15_14 
REMARK    2  A    between atoms: C7_4  and  C9_5 
REMARK    3  A    between atoms: C2_9  and  C1_8 
REMARK    4  A    between atoms: C2_9  and  C29_27 
REMARK    5  A    between atoms: N15_14  and  C16_15 
ROOT
ATOM      1  C4  5N3 d   1     -51.393  -1.117 -24.824  0.00  0.00     0.039 A 
ATOM      2  C5  5N3 d   1     -52.107  -0.588 -25.902  0.00  0.00     0.142 A 
ATOM      3  C7  5N3 d   1     -53.525   0.488 -24.413  0.00  0.00     0.165 A 
ATOM      4  C3  5N3 d   1     -51.809  -0.795 -23.534  0.00  0.00     0.083 A 
ATOM      5  C2  5N3 d   1     -50.886  -1.493 -22.563  0.00  0.00     0.099 C 
ATOM      6  N6  5N3 d   1     -53.155   0.198 -25.651  0.00  0.00    -0.210 NA
ATOM      7  N8  5N3 d   1     -52.864  -0.002 -23.366  0.00  0.00    -0.229 NA
ATOM      8  C27 5N3 d   1     -50.194  -2.025 -24.729  0.00  0.00     0.050 C 
ATOM      9  O28 5N3 d   1     -50.065  -2.391 -23.340  0.00  0.00    -0.370 OA
ATOM     10  H12 5N3 d   1     -49.290  -1.498 -25.068  0.00  0.00     0.082 H 
ATOM     11  H13 5N3 d   1     -50.348  -2.923 -25.346  0.00  0.00     0.082 H 
ENDROOT
BRANCH   2  12
ATOM     12  N15 5N3 d   1     -51.704  -0.879 -27.196  0.00  0.00    -0.323 N 
ATOM     13  H7  5N3 d   1     -50.899  -1.510 -27.319  0.00  0.00     0.169 HD
BRANCH  12  14
ATOM     14  C16 5N3 d   1     -52.317  -0.373 -28.342  0.00  0.00     0.162 A 
ATOM     15  C17 5N3 d   1     -52.625   1.025 -28.666  0.00  0.00     0.041 A 
ATOM     16  C18 5N3 d   1     -52.499   2.263 -28.005  0.00  0.00    -0.067 A 
ATOM     17  C22 5N3 d   1     -53.174   0.994 -29.964  0.00  0.00     0.086 A 
ATOM     18  C19 5N3 d   1     -52.910   3.419 -28.629  0.00  0.00    -0.080 A 
ATOM     19  H8  5N3 d   1     -52.079   2.305 -27.006  0.00  0.00     0.085 H 
ATOM     20  C20 5N3 d   1     -53.412   3.392 -29.935  0.00  0.00    -0.060 A 
ATOM     21  H9  5N3 d   1     -52.844   4.364 -28.101  0.00  0.00     0.083 H 
ATOM     22  C21 5N3 d   1     -53.581   2.176 -30.575  0.00  0.00     0.063 A 
ATOM     23  H10 5N3 d   1     -53.666   4.316 -30.442  0.00  0.00     0.086 H 
ATOM     24 CL   5N3 d   1     -54.218   2.057 -32.177  0.00  0.00    -0.082 Cl
ATOM     25  N23 5N3 d   1     -53.186  -0.305 -30.376  0.00  0.00    -0.274 N 
ATOM     26  N25 5N3 d   1     -52.648  -1.101 -29.370  0.00  0.00    -0.155 NA
ATOM     27  H11 5N3 d   1     -53.536  -0.642 -31.284  0.00  0.00     0.189 HD
ENDBRANCH  12  14
ENDBRANCH   2  12
BRANCH   3  28
ATOM     28  C9  5N3 d   1     -54.663   1.415 -24.210  0.00  0.00     0.048 A 
ATOM     29  C14 5N3 d   1     -55.581   1.831 -25.195  0.00  0.00     0.036 A 
ATOM     30  N13 5N3 d   1     -56.408   2.665 -24.633  0.00  0.00    -0.187 NA
ATOM     31  H1  5N3 d   1     -55.596   1.513 -26.236  0.00  0.00     0.118 H 
ATOM     32  N11 5N3 d   1     -56.048   2.835 -23.292  0.00  0.00    -0.289 N 
ATOM     33  C10 5N3 d   1     -54.971   2.074 -23.053  0.00  0.00     0.011 A 
ATOM     34  H6  5N3 d   1     -56.526   3.439 -22.608  0.00  0.00     0.188 HD
ATOM     35  H2  5N3 d   1     -54.437   1.995 -22.107  0.00  0.00     0.115 H 
ENDBRANCH   3  28
BRANCH   5  36
ATOM     36  C1  5N3 d   1     -50.031  -0.451 -21.825  0.00  0.00    -0.043 C 
ATOM     37  H3  5N3 d   1     -49.360  -0.961 -21.119  0.00  0.00     0.032 H 
ATOM     38  H4  5N3 d   1     -50.688   0.238 -21.274  0.00  0.00     0.032 H 
ATOM     39  H5  5N3 d   1     -49.434   0.116 -22.554  0.00  0.00     0.032 H 
ENDBRANCH   5  36
BRANCH   5  40
ATOM     40  C29 5N3 d   1     -51.703  -2.308 -21.556  0.00  0.00    -0.043 C 
ATOM     41  H14 5N3 d   1     -52.311  -3.051 -22.093  0.00  0.00     0.032 H 
ATOM     42  H15 5N3 d   1     -52.363  -1.635 -20.989  0.00  0.00     0.032 H 
ATOM     43  H16 5N3 d   1     -51.022  -2.824 -20.863  0.00  0.00     0.032 H 
ENDBRANCH   5  40
TORSDOF 5
