REMARK  6 active torsions:
REMARK  status: ('A' for Active; 'I' for Inactive)
REMARK    1  A    between atoms: N13_14  and  C14_2 
REMARK    2  A    between atoms: C5_3  and  N15_15 
REMARK    3  A    between atoms: C9_6  and  C7_5 
REMARK    4  A    between atoms: C2_10  and  C1_9 
REMARK    5  A    between atoms: C2_10  and  C28_27 
REMARK    6  A    between atoms: N15_15  and  C16_16 
ROOT
ATOM      1  C4  5N4 d   1     -51.119  -0.952 -24.621  0.00  0.00     0.039 A 
ATOM      2  C5  5N4 d   1     -51.744  -0.447 -25.770  0.00  0.00     0.142 A 
ATOM      3  C7  5N4 d   1     -53.354   0.551 -24.407  0.00  0.00     0.180 A 
ATOM      4  C3  5N4 d   1     -51.685  -0.670 -23.375  0.00  0.00     0.083 A 
ATOM      5  C2  5N4 d   1     -50.825  -1.303 -22.302  0.00  0.00     0.099 C 
ATOM      6  N6  5N4 d   1     -52.860   0.268 -25.605  0.00  0.00    -0.209 NA
ATOM      7  N8  5N4 d   1     -52.786   0.064 -23.314  0.00  0.00    -0.228 NA
ATOM      8  C26 5N4 d   1     -49.880  -1.779 -24.390  0.00  0.00     0.050 C 
ATOM      9  O27 5N4 d   1     -49.878  -2.147 -22.993  0.00  0.00    -0.370 OA
ATOM     10  H15 5N4 d   1     -48.982  -1.190 -24.628  0.00  0.00     0.082 H 
ATOM     11  H16 5N4 d   1     -49.904  -2.681 -25.019  0.00  0.00     0.082 H 
ENDROOT
BRANCH   2  12
ATOM     12  N15 5N4 d   1     -51.213  -0.685 -27.036  0.00  0.00    -0.323 N 
ATOM     13  H9  5N4 d   1     -50.405  -1.320 -27.105  0.00  0.00     0.169 HD
BRANCH  12  14
ATOM     14  C16 5N4 d   1     -51.704  -0.117 -28.229  0.00  0.00     0.161 A 
ATOM     15  C17 5N4 d   1     -52.074   1.286 -28.508  0.00  0.00     0.040 A 
ATOM     16  C18 5N4 d   1     -52.101   2.478 -27.758  0.00  0.00    -0.067 A 
ATOM     17  C22 5N4 d   1     -52.477   1.323 -29.870  0.00  0.00     0.064 A 
ATOM     18  C19 5N4 d   1     -52.544   3.637 -28.349  0.00  0.00    -0.082 A 
ATOM     19  H10 5N4 d   1     -51.775   2.481 -26.724  0.00  0.00     0.085 H 
ATOM     20  C20 5N4 d   1     -52.926   3.668 -29.702  0.00  0.00    -0.081 A 
ATOM     21  H11 5N4 d   1     -52.600   4.545 -27.760  0.00  0.00     0.083 H 
ATOM     22  C21 5N4 d   1     -52.891   2.531 -30.462  0.00  0.00    -0.055 A 
ATOM     23  H12 5N4 d   1     -53.251   4.601 -30.147  0.00  0.00     0.083 H 
ATOM     24  H13 5N4 d   1     -53.178   2.560 -31.507  0.00  0.00     0.087 H 
ATOM     25  N23 5N4 d   1     -52.351   0.044 -30.344  0.00  0.00    -0.275 N 
ATOM     26  N25 5N4 d   1     -51.887  -0.792 -29.333  0.00  0.00    -0.155 NA
ATOM     27  H14 5N4 d   1     -52.568  -0.255 -31.306  0.00  0.00     0.189 HD
ENDBRANCH  12  14
ENDBRANCH   2  12
BRANCH   3  28
ATOM     28  C9  5N4 d   1     -54.589   1.363 -24.316  0.00  0.00     0.101 A 
ATOM     29  C10 5N4 d   1     -55.359   1.724 -25.386  0.00  0.00    -0.033 A 
ATOM     30  C11 5N4 d   1     -56.427   2.467 -24.910  0.00  0.00     0.024 A 
ATOM     31  H5  5N4 d   1     -55.167   1.472 -26.428  0.00  0.00     0.089 H 
ATOM     32  N12 5N4 d   1     -56.317   2.586 -23.612  0.00  0.00    -0.185 NA
ATOM     33  H4  5N4 d   1     -57.228   2.884 -25.518  0.00  0.00     0.117 H 
ATOM     34  N13 5N4 d   1     -55.179   1.889 -23.192  0.00  0.00    -0.271 N 
BRANCH  34  35
ATOM     35  C14 5N4 d   1     -54.724   1.788 -21.801  0.00  0.00     0.003 C 
ATOM     36  H1  5N4 d   1     -55.427   2.323 -21.145  0.00  0.00     0.059 H 
ATOM     37  H2  5N4 d   1     -53.724   2.236 -21.709  0.00  0.00     0.059 H 
ATOM     38  H3  5N4 d   1     -54.680   0.729 -21.506  0.00  0.00     0.059 H 
ENDBRANCH  34  35
ENDBRANCH   3  28
BRANCH   5  39
ATOM     39  C1  5N4 d   1     -50.122  -0.190 -21.506  0.00  0.00    -0.043 C 
ATOM     40  H6  5N4 d   1     -49.494  -0.640 -20.723  0.00  0.00     0.032 H 
ATOM     41  H7  5N4 d   1     -50.877   0.461 -21.041  0.00  0.00     0.032 H 
ATOM     42  H8  5N4 d   1     -49.492   0.404 -22.184  0.00  0.00     0.032 H 
ENDBRANCH   5  39
BRANCH   5  43
ATOM     43  C28 5N4 d   1     -51.677  -2.174 -21.364  0.00  0.00    -0.043 C 
ATOM     44  H17 5N4 d   1     -52.173  -2.964 -21.947  0.00  0.00     0.032 H 
ATOM     45  H18 5N4 d   1     -52.437  -1.549 -20.873  0.00  0.00     0.032 H 
ATOM     46  H19 5N4 d   1     -51.031  -2.632 -20.601  0.00  0.00     0.032 H 
ENDBRANCH   5  43
TORSDOF 6
