REMARK  8 active torsions:
REMARK  status: ('A' for Active; 'I' for Inactive)
REMARK    1  A    between atoms: C20_1  and  S1_2 
REMARK    2  A    between atoms: S1_2  and  C18_5 
REMARK    3  A    between atoms: C14_10  and  N5_11 
REMARK    4  A    between atoms: C7_20  and  C6_21 
REMARK    5  A    between atoms: C6_21  and  C21_22 
REMARK    6  A    between atoms: C6_21  and  N4_23 
REMARK    7  A    between atoms: N4_23  and  C2_24 
REMARK    8  A    between atoms: C4_28  and  N3_29 
ROOT
ATOM      1  C2  5MT d   1      21.348  14.147  22.528  0.00  0.00     0.150 A 
ATOM      2  N2  5MT d   1      20.016  14.256  22.514  0.00  0.00    -0.223 NA
ATOM      3  C1  5MT d   1      19.232  13.296  23.002  0.00  0.00     0.091 A 
ATOM      4  N1  5MT d   1      19.710  12.180  23.527  0.00  0.00    -0.223 NA
ATOM      5  C4  5MT d   1      21.037  11.996  23.572  0.00  0.00     0.147 A 
ATOM      6  C3  5MT d   1      21.894  12.976  23.074  0.00  0.00     0.135 A 
ATOM      7  C5  5MT d   1      23.297  12.738  23.137  0.00  0.00     0.107 C 
ATOM      8  N7  5MT d   1      24.422  12.558  23.184  0.00  0.00    -0.191 NA
ATOM      9  H16 5MT d   1      18.157  13.435  22.967  0.00  0.00     0.146 H 
ENDROOT
BRANCH   1  10
ATOM     10  N4  5MT d   1      22.095  15.140  22.015  0.00  0.00    -0.362 N 
ATOM     11  H15 5MT d   1      23.119  15.034  22.031  0.00  0.00     0.162 HD
BRANCH  10  12
ATOM     12  C6  5MT d   1      21.527  16.385  21.424  0.00  0.00     0.065 C 
ATOM     13  H11 5MT d   1      20.746  16.770  22.096  0.00  0.00     0.084 H 
BRANCH  12  14
ATOM     14  C7  5MT d   1      20.936  16.183  20.017  0.00  0.00     0.134 A 
ATOM     15  N5  5MT d   1      19.840  16.767  19.525  0.00  0.00    -0.296 N 
ATOM     16  C9  5MT d   1      19.656  16.362  18.283  0.00  0.00     0.073 A 
ATOM     17  C10 5MT d   1      18.692  16.643  17.319  0.00  0.00    -0.017 A 
ATOM     18  C8  5MT d   1      20.699  15.486  18.003  0.00  0.00     0.086 A 
ATOM     19  C11 5MT d   1      18.767  16.036  16.066  0.00  0.00     0.118 A 
ATOM     20  H8  5MT d   1      17.885  17.332  17.542  0.00  0.00     0.091 H 
ATOM     21  F1  5MT d   1      17.837  16.297  15.125  0.00  0.00    -0.206 F 
ATOM     22  C12 5MT d   1      19.805  15.151  15.784  0.00  0.00    -0.043 A 
ATOM     23  C13 5MT d   1      20.770  14.882  16.750  0.00  0.00    -0.050 A 
ATOM     24  H9  5MT d   1      19.861  14.672  14.813  0.00  0.00     0.088 H 
ATOM     25  H10 5MT d   1      21.581  14.199  16.526  0.00  0.00     0.087 H 
ATOM     26  N6  5MT d   1      21.473  15.402  19.086  0.00  0.00    -0.231 NA
BRANCH  15  27
ATOM     27  C14 5MT d   1      19.041  17.627  20.145  0.00  0.00     0.042 A 
ATOM     28  C19 5MT d   1      19.125  18.976  19.818  0.00  0.00    -0.036 A 
ATOM     29  C18 5MT d   1      18.293  19.895  20.456  0.00  0.00     0.061 A 
ATOM     30  H4  5MT d   1      19.834  19.312  19.070  0.00  0.00     0.089 H 
ATOM     31  C17 5MT d   1      17.379  19.464  21.420  0.00  0.00    -0.062 A 
ATOM     32  C16 5MT d   1      17.291  18.112  21.744  0.00  0.00    -0.079 A 
ATOM     33  H5  5MT d   1      16.737  20.183  21.917  0.00  0.00     0.085 H 
ATOM     34  C15 5MT d   1      18.120  17.195  21.101  0.00  0.00    -0.057 A 
ATOM     35  H6  5MT d   1      16.582  17.775  22.492  0.00  0.00     0.083 H 
ATOM     36  H7  5MT d   1      18.049  16.141  21.344  0.00  0.00     0.086 H 
BRANCH  29  37
ATOM     37  S1  5MT d   1      18.380  21.597  20.045  0.00  0.00     0.172 S 
ATOM     38  O1  5MT d   1      19.287  21.802  18.861  0.00  0.00    -0.223 OA
ATOM     39  O2  5MT d   1      18.903  22.370  21.223  0.00  0.00    -0.223 OA
BRANCH  37  40
ATOM     40  C20 5MT d   1      16.729  22.129  19.629  0.00  0.00     0.020 C 
ATOM     41  H1  5MT d   1      16.364  21.552  18.766  0.00  0.00     0.049 H 
ATOM     42  H2  5MT d   1      16.741  23.199  19.376  0.00  0.00     0.049 H 
ATOM     43  H3  5MT d   1      16.063  21.963  20.488  0.00  0.00     0.049 H 
ENDBRANCH  37  40
ENDBRANCH  29  37
ENDBRANCH  15  27
ENDBRANCH  12  14
BRANCH  12  44
ATOM     44  C21 5MT d   1      22.642  17.416  21.264  0.00  0.00    -0.051 C 
ATOM     45  H12 5MT d   1      23.109  17.606  22.242  0.00  0.00     0.030 H 
ATOM     46  H13 5MT d   1      22.221  18.353  20.870  0.00  0.00     0.030 H 
ATOM     47  H14 5MT d   1      23.399  17.032  20.565  0.00  0.00     0.030 H 
ENDBRANCH  12  44
ENDBRANCH  10  12
ENDBRANCH   1  10
BRANCH   5  48
ATOM     48  N3  5MT d   1      21.522  10.874  24.088  0.00  0.00    -0.383 N 
ATOM     49  H17 5MT d   1      22.540  10.723  24.127  0.00  0.00     0.157 HD
ATOM     50  H18 5MT d   1      20.880  10.154  24.449  0.00  0.00     0.157 HD
ENDBRANCH   5  48
TORSDOF 8
