REMARK  11 active torsions:
REMARK  status: ('A' for Active; 'I' for Inactive)
REMARK       I    between atoms: C28_17  and  N3_2 
REMARK    1  A    between atoms: N3_2  and  C29_35 
REMARK    2  A    between atoms: C7_6  and  C1_18 
REMARK    3  A    between atoms: C17_11  and  O1_32 
REMARK    4  A    between atoms: C20_12  and  C24_15 
REMARK    5  A    between atoms: N2_31  and  C20_12 
REMARK    6  A    between atoms: C20_12  and  C32_40 
REMARK    7  A    between atoms: C21_13  and  C28_17 
REMARK    8  A    between atoms: C9_23  and  C12_25 
REMARK    9  A    between atoms: O1_32  and  C27_33 
REMARK   10  A    between atoms: C29_35  and  C30_36 
REMARK   11  A    between atoms: C30_36  and  C31_37 
ROOT
ATOM      1  N1  5MV d   1     -32.082   1.694 -39.704  0.00  0.00    -0.171 NA
ATOM      2  C7  5MV d   1     -33.172   1.056 -39.321  0.00  0.00     0.089 A 
ATOM      3  C8  5MV d   1     -32.892   0.139 -38.272  0.00  0.00    -0.024 A 
ATOM      4  C9  5MV d   1     -31.554   0.251 -38.039  0.00  0.00     0.066 A 
ATOM      5  N2  5MV d   1     -31.079   1.209 -38.933  0.00  0.00    -0.260 N 
ATOM      6  H4  5MV d   1     -33.598  -0.515 -37.762  0.00  0.00     0.090 H 
ENDROOT
BRANCH   5   7
ATOM      7  C20 5MV d   1     -29.732   1.748 -39.114  0.00  0.00     0.057 C 
ATOM      8  H7  5MV d   1     -29.000   0.934 -39.007  0.00  0.00     0.083 H 
BRANCH   7   9
ATOM      9  C24 5MV d   1     -29.469   2.800 -38.022  0.00  0.00    -0.034 A 
ATOM     10  C25 5MV d   1     -30.515   3.541 -37.412  0.00  0.00    -0.074 A 
ATOM     11  C26 5MV d   1     -30.237   4.487 -36.406  0.00  0.00    -0.067 A 
ATOM     12  H15 5MV d   1     -31.540   3.377 -37.724  0.00  0.00     0.084 H 
ATOM     13  C21 5MV d   1     -28.907   4.700 -35.990  0.00  0.00     0.032 A 
ATOM     14  H9  5MV d   1     -31.044   5.050 -35.952  0.00  0.00     0.085 H 
ATOM     15  C22 5MV d   1     -27.866   3.962 -36.582  0.00  0.00    -0.067 A 
ATOM     16  C23 5MV d   1     -28.145   3.021 -37.585  0.00  0.00    -0.074 A 
ATOM     17  H8  5MV d   1     -26.843   4.121 -36.262  0.00  0.00     0.085 H 
ATOM     18  H26 5MV d   1     -27.334   2.457 -38.030  0.00  0.00     0.084 H 
BRANCH  13  19
ATOM     19  C28 5MV d   1     -28.587   5.690 -34.922  0.00  0.00     0.251 C 
ATOM     20  N3  5MV d   1     -27.299   5.977 -34.706  0.00  0.00    -0.356 N 
ATOM     21  H1  5MV d   1     -26.608   5.525 -35.270  0.00  0.00     0.162 HD
ATOM     22  O2  5MV d   1     -29.506   6.193 -34.285  0.00  0.00    -0.268 OA
BRANCH  20  23
ATOM     23  C29 5MV d   1     -26.857   6.918 -33.687  0.00  0.00     0.004 C 
ATOM     24  H19 5MV d   1     -27.424   7.854 -33.801  0.00  0.00     0.064 H 
ATOM     25  H20 5MV d   1     -25.785   7.118 -33.832  0.00  0.00     0.064 H 
BRANCH  23  26
ATOM     26  C30 5MV d   1     -27.071   6.381 -32.263  0.00  0.00     0.030 C 
ATOM     27  H21 5MV d   1     -26.535   5.426 -32.155  0.00  0.00     0.051 H 
ATOM     28  H22 5MV d   1     -28.146   6.219 -32.099  0.00  0.00     0.051 H 
BRANCH  26  29
ATOM     29  C31 5MV d   1     -26.552   7.362 -31.221  0.00  0.00     0.174 C 
ATOM     30  O3  5MV d   1     -27.349   7.765 -30.348  0.00  0.00    -0.648 OA
ATOM     31  O4  5MV d   1     -25.348   7.705 -31.301  0.00  0.00    -0.648 OA
ENDBRANCH  26  29
ENDBRANCH  23  26
ENDBRANCH  20  23
ENDBRANCH  13  19
ENDBRANCH   7   9
BRANCH   7  32
ATOM     32  C32 5MV d   1     -29.592   2.354 -40.524  0.00  0.00    -0.051 C 
ATOM     33  H23 5MV d   1     -28.576   2.757 -40.651  0.00  0.00     0.030 H 
ATOM     34  H24 5MV d   1     -30.326   3.164 -40.650  0.00  0.00     0.030 H 
ATOM     35  H25 5MV d   1     -29.774   1.574 -41.278  0.00  0.00     0.030 H 
ENDBRANCH   7  32
ENDBRANCH   5   7
BRANCH   4  36
ATOM     36  C12 5MV d   1     -30.747  -0.471 -37.040  0.00  0.00    -0.007 A 
ATOM     37  C13 5MV d   1     -29.554  -1.157 -37.361  0.00  0.00    -0.060 A 
ATOM     38  C14 5MV d   1     -28.822  -1.829 -36.351  0.00  0.00    -0.025 A 
ATOM     39  H6  5MV d   1     -29.197  -1.169 -38.385  0.00  0.00     0.086 H 
ATOM     40  C15 5MV d   1     -29.275  -1.818 -35.010  0.00  0.00    -0.023 A 
ATOM     41  C19 5MV d   1     -27.634  -2.519 -36.655  0.00  0.00    -0.070 A 
ATOM     42  C10 5MV d   1     -30.455  -1.139 -34.686  0.00  0.00    -0.071 A 
ATOM     43  C16 5MV d   1     -28.551  -2.483 -33.999  0.00  0.00    -0.040 A 
ATOM     44  C11 5MV d   1     -31.168  -0.481 -35.693  0.00  0.00    -0.070 A 
ATOM     45  H5  5MV d   1     -30.813  -1.123 -33.663  0.00  0.00     0.084 H 
ATOM     46  H11 5MV d   1     -32.080   0.042 -35.429  0.00  0.00     0.084 H 
ATOM     47  C17 5MV d   1     -27.355  -3.176 -34.307  0.00  0.00     0.069 A 
ATOM     48  H12 5MV d   1     -28.913  -2.464 -32.977  0.00  0.00     0.089 H 
ATOM     49  C18 5MV d   1     -26.911  -3.182 -35.644  0.00  0.00    -0.050 A 
ATOM     50  H13 5MV d   1     -25.997  -3.706 -35.899  0.00  0.00     0.087 H 
ATOM     51  H14 5MV d   1     -27.272  -2.541 -37.676  0.00  0.00     0.085 H 
BRANCH  47  52
ATOM     52  O1  5MV d   1     -26.595  -3.849 -33.375  0.00  0.00    -0.356 OA
BRANCH  52  53
ATOM     53  C27 5MV d   1     -26.664  -3.397 -32.029  0.00  0.00     0.010 C 
ATOM     54  H16 5MV d   1     -26.012  -4.020 -31.399  0.00  0.00     0.066 H 
ATOM     55  H17 5MV d   1     -27.701  -3.471 -31.670  0.00  0.00     0.066 H 
ATOM     56  H18 5MV d   1     -26.332  -2.350 -31.976  0.00  0.00     0.066 H 
ENDBRANCH  52  53
ENDBRANCH  47  52
ENDBRANCH   4  36
BRANCH   2  57
ATOM     57  C1  5MV d   1     -34.477   1.325 -39.941  0.00  0.00    -0.002 A 
ATOM     58  C6  5MV d   1     -35.645   1.017 -39.211  0.00  0.00    -0.050 A 
ATOM     59  C5  5MV d   1     -36.922   1.255 -39.750  0.00  0.00     0.036 A 
ATOM     60  H3  5MV d   1     -35.556   0.590 -38.219  0.00  0.00     0.087 H 
ATOM     61  C4  5MV d   1     -37.051   1.811 -41.030  0.00  0.00    -0.041 A 
ATOM     62 CL2  5MV d   1     -38.327   0.863 -38.834  0.00  0.00    -0.084 Cl
ATOM     63  C3  5MV d   1     -35.896   2.128 -41.765  0.00  0.00     0.036 A 
ATOM     64  H2  5MV d   1     -38.033   1.995 -41.450  0.00  0.00     0.088 H 
ATOM     65  C2  5MV d   1     -34.615   1.892 -41.230  0.00  0.00    -0.050 A 
ATOM     66 CL1  5MV d   1     -36.069   2.808 -43.336  0.00  0.00    -0.084 Cl
ATOM     67  H10 5MV d   1     -33.733   2.145 -41.807  0.00  0.00     0.087 H 
ENDBRANCH   2  57
TORSDOF 11
