REMARK  9 active torsions:
REMARK  status: ('A' for Active; 'I' for Inactive)
REMARK    1  A    between atoms: B1_1  and  O1_2 
REMARK    2  A    between atoms: B1_1  and  O2_3 
REMARK    3  A    between atoms: C7_7  and  B1_1 
REMARK    4  A    between atoms: C8_8  and  N4_4 
REMARK    5  A    between atoms: C7_7  and  C8_8 
REMARK    6  A    between atoms: C7_7  and  N10_9 
REMARK       I    between atoms: N10_9  and  C11_10 
REMARK    7  A    between atoms: C11_10  and  C12_11 
REMARK    8  A    between atoms: C12_11  and  C13_12 
REMARK    9  A    between atoms: C19_17  and  C21_19 
ROOT
ATOM      1  C7  ZXM d   1       7.066   7.384   4.659  0.00  0.00     0.063 C 
ATOM      2  H6  ZXM d   1       5.966   7.376   4.663  0.00  0.00     0.067 H 
ENDROOT
BRANCH   1   3
ATOM      3  B1  ZXM d   1       7.514   6.618   5.992  0.00  0.00     0.516 B 
BRANCH   3   4
ATOM      4  O1  ZXM d   1       8.921   6.871   6.498  0.00  0.00    -0.436 OA
ATOM      5  H1  ZXM d   1       8.989   7.767   6.807  0.00  0.00     0.184 HD
ENDBRANCH   3   4
BRANCH   3   6
ATOM      6  O2  ZXM d   1       6.556   6.841   7.107  0.00  0.00    -0.436 OA
ATOM      7  H4  ZXM d   1       5.671   6.685   6.799  0.00  0.00     0.184 HD
ENDBRANCH   3   6
ENDBRANCH   1   3
BRANCH   1   8
ATOM      8  C8  ZXM d   1       7.604   6.829   3.318  0.00  0.00     0.034 C 
ATOM      9  H7  ZXM d   1       7.086   5.879   3.119  0.00  0.00     0.069 H 
ATOM     10  H8  ZXM d   1       7.352   7.556   2.532  0.00  0.00     0.069 H 
BRANCH   8  11
ATOM     11  N4  ZXM d   1       9.049   6.572   3.239  0.00  0.00    -0.259 N 
ATOM     12  N5  ZXM d   1       9.481   5.297   3.459  0.00  0.00    -0.066 NA
ATOM     13  N6  ZXM d   1      10.770   5.224   3.407  0.00  0.00    -0.124 NA
ATOM     14  C19 ZXM d   1      11.214   6.395   3.021  0.00  0.00     0.174 A 
ATOM     15  C20 ZXM d   1      10.149   7.281   2.901  0.00  0.00     0.036 A 
ATOM     16  H15 ZXM d   1      10.192   8.326   2.598  0.00  0.00     0.118 H 
BRANCH  14  17
ATOM     17  C21 ZXM d   1      12.645   6.675   2.744  0.00  0.00     0.232 C 
ATOM     18  O22 ZXM d   1      12.915   7.785   2.207  0.00  0.00    -0.643 OA
ATOM     19  O23 ZXM d   1      13.495   5.808   3.023  0.00  0.00    -0.643 OA
ENDBRANCH  14  17
ENDBRANCH   8  11
ENDBRANCH   1   8
BRANCH   1  20
ATOM     20  N10 ZXM d   1       7.569   8.766   4.752  0.00  0.00    -0.358 N 
ATOM     21  C11 ZXM d   1       6.967   9.776   4.141  0.00  0.00     0.222 C 
ATOM     22  O18 ZXM d   1       5.932   9.630   3.485  0.00  0.00    -0.273 OA
ATOM     23  H9  ZXM d   1       8.390   8.947   5.293  0.00  0.00     0.162 HD
BRANCH  21  24
ATOM     24  C12 ZXM d   1       7.656  11.117   4.313  0.00  0.00     0.039 C 
ATOM     25  H10 ZXM d   1       8.064  11.419   3.337  0.00  0.00     0.055 H 
ATOM     26  H11 ZXM d   1       8.480  10.988   5.031  0.00  0.00     0.055 H 
BRANCH  24  27
ATOM     27  C13 ZXM d   1       6.767  12.232   4.815  0.00  0.00    -0.009 A 
ATOM     28  C14 ZXM d   1       6.859  13.138   5.881  0.00  0.00    -0.069 A 
ATOM     29  C15 ZXM d   1       5.789  14.038   5.952  0.00  0.00    -0.076 A 
ATOM     30  H12 ZXM d   1       7.687  13.141   6.589  0.00  0.00     0.085 H 
ATOM     31  C16 ZXM d   1       4.860  13.861   4.937  0.00  0.00    -0.045 A 
ATOM     32  H13 ZXM d   1       5.696  14.799   6.725  0.00  0.00     0.084 H 
ATOM     33  S24 ZXM d   1       5.339  12.555   3.913  0.00  0.00    -0.106 SA
ATOM     34  H14 ZXM d   1       3.959  14.459   4.805  0.00  0.00     0.095 H 
ENDBRANCH  24  27
ENDBRANCH  21  24
ENDBRANCH   1  20
TORSDOF 9
