REMARK  9 active torsions:
REMARK  status: ('A' for Active; 'I' for Inactive)
REMARK    1  A    between atoms: B1_1  and  O1_2 
REMARK    2  A    between atoms: B1_1  and  O2_3 
REMARK    3  A    between atoms: C7_7  and  B1_1 
REMARK    4  A    between atoms: C8_8  and  N4_4 
REMARK    5  A    between atoms: C7_7  and  C8_8 
REMARK    6  A    between atoms: C7_7  and  N10_9 
REMARK       I    between atoms: N10_9  and  C11_10 
REMARK    7  A    between atoms: C11_10  and  C12_11 
REMARK    8  A    between atoms: C12_11  and  C13_12 
REMARK    9  A    between atoms: C19_17  and  C21_19 
ROOT
ATOM      1  C7  ZXM d   1      -1.585  -1.125  23.327  0.00  0.00     0.063 C 
ATOM      2  H4  ZXM d   1      -1.187  -2.072  23.720  0.00  0.00     0.067 H 
ENDROOT
BRANCH   1   3
ATOM      3  B1  ZXM d   1      -0.631  -0.803  22.063  0.00  0.00     0.516 B 
BRANCH   3   4
ATOM      4  O1  ZXM d   1       0.828  -1.218  22.291  0.00  0.00    -0.436 OA
ATOM      5  H1  ZXM d   1       0.855  -2.111  22.615  0.00  0.00     0.184 HD
ENDBRANCH   3   4
BRANCH   3   6
ATOM      6  O2  ZXM d   1      -0.677   0.631  21.543  0.00  0.00    -0.436 OA
ATOM      7  H3  ZXM d   1      -0.278   1.211  22.181  0.00  0.00     0.184 HD
ENDBRANCH   3   6
ENDBRANCH   1   3
BRANCH   1   8
ATOM      8  C8  ZXM d   1      -3.096  -1.257  23.082  0.00  0.00     0.034 C 
ATOM      9  H7  ZXM d   1      -3.289  -2.221  22.589  0.00  0.00     0.069 H 
ATOM     10  H8  ZXM d   1      -3.613  -1.231  24.053  0.00  0.00     0.069 H 
BRANCH   8  11
ATOM     11  N4  ZXM d   1      -3.627  -0.190  22.243  0.00  0.00    -0.259 N 
ATOM     12  N5  ZXM d   1      -4.236   0.930  22.803  0.00  0.00    -0.066 NA
ATOM     13  N6  ZXM d   1      -4.624   1.736  21.853  0.00  0.00    -0.124 NA
ATOM     14  C19 ZXM d   1      -4.268   1.200  20.673  0.00  0.00     0.174 A 
ATOM     15  C20 ZXM d   1      -3.641  -0.010  20.929  0.00  0.00     0.036 A 
ATOM     16  H15 ZXM d   1      -3.233  -0.691  20.184  0.00  0.00     0.118 H 
BRANCH  14  17
ATOM     17  C21 ZXM d   1      -4.467   1.718  19.309  0.00  0.00     0.232 C 
ATOM     18  O22 ZXM d   1      -4.089   0.974  18.374  0.00  0.00    -0.643 OA
ATOM     19  O23 ZXM d   1      -4.998   2.845  19.154  0.00  0.00    -0.643 OA
ENDBRANCH  14  17
ENDBRANCH   8  11
ENDBRANCH   1   8
BRANCH   1  20
ATOM     20  N10 ZXM d   1      -1.375  -0.056  24.302  0.00  0.00    -0.358 N 
ATOM     21  C11 ZXM d   1      -1.560  -0.342  25.611  0.00  0.00     0.222 C 
ATOM     22  O18 ZXM d   1      -1.968  -1.437  26.045  0.00  0.00    -0.273 OA
ATOM     23  H9  ZXM d   1      -1.102   0.861  24.009  0.00  0.00     0.162 HD
BRANCH  21  24
ATOM     24  C12 ZXM d   1      -1.236   0.794  26.543  0.00  0.00     0.039 C 
ATOM     25  H10 ZXM d   1      -0.375   1.354  26.148  0.00  0.00     0.055 H 
ATOM     26  H11 ZXM d   1      -0.987   0.390  27.535  0.00  0.00     0.055 H 
BRANCH  24  27
ATOM     27  C13 ZXM d   1      -2.414   1.717  26.665  0.00  0.00    -0.009 A 
ATOM     28  C14 ZXM d   1      -2.912   2.776  25.907  0.00  0.00    -0.069 A 
ATOM     29  C15 ZXM d   1      -4.087   3.318  26.464  0.00  0.00    -0.076 A 
ATOM     30  H12 ZXM d   1      -2.447   3.141  24.992  0.00  0.00     0.085 H 
ATOM     31  C16 ZXM d   1      -4.483   2.690  27.638  0.00  0.00    -0.045 A 
ATOM     32  H13 ZXM d   1      -4.632   4.149  26.018  0.00  0.00     0.084 H 
ATOM     33  S24 ZXM d   1      -3.409   1.392  28.050  0.00  0.00    -0.106 SA
ATOM     34  H14 ZXM d   1      -5.355   2.976  28.224  0.00  0.00     0.095 H 
ENDBRANCH  24  27
ENDBRANCH  21  24
ENDBRANCH   1  20
TORSDOF 9
