REMARK  11 active torsions:
REMARK  status: ('A' for Active; 'I' for Inactive)
REMARK    1  A    between atoms: N1_4  and  O1_1 
REMARK       I    between atoms: C13_18  and  N1_4 
REMARK    2  A    between atoms: C4_9  and  N2_5 
REMARK    3  A    between atoms: N2_5  and  C17_21 
REMARK    4  A    between atoms: N2_5  and  C16_22 
REMARK    5  A    between atoms: C7_12  and  C1_6 
REMARK    6  A    between atoms: C8_13  and  C7_12 
REMARK    7  A    between atoms: C9_14  and  C8_13 
REMARK    8  A    between atoms: C8_13  and  C14_19 
REMARK    9  A    between atoms: C11_16  and  C10_15 
REMARK   10  A    between atoms: C10_15  and  C15_20 
REMARK   11  A    between atoms: C12_17  and  C13_18 
ROOT
ATOM      1  C8  TSN d   1     -19.063 -43.001 -13.867  0.00  0.00     0.022 C 
ATOM      2  H7  TSN d   1     -19.855 -43.215 -13.134  0.00  0.00     0.058 H 
ENDROOT
BRANCH   1   3
ATOM      3  C7  TSN d   1     -18.163 -44.183 -13.971  0.00  0.00     0.166 C 
ATOM      4  O3  TSN d   1     -17.166 -44.155 -14.632  0.00  0.00    -0.292 OA
BRANCH   3   5
ATOM      5  C1  TSN d   1     -18.546 -45.390 -13.214  0.00  0.00     0.011 A 
ATOM      6  C2  TSN d   1     -17.617 -46.361 -12.948  0.00  0.00    -0.067 A 
ATOM      7  C3  TSN d   1     -17.966 -47.479 -12.229  0.00  0.00    -0.057 A 
ATOM      8  H3  TSN d   1     -16.601 -46.247 -13.307  0.00  0.00     0.085 H 
ATOM      9  C4  TSN d   1     -19.255 -47.612 -11.766  0.00  0.00     0.029 A 
ATOM     10  H4  TSN d   1     -17.231 -48.250 -12.028  0.00  0.00     0.086 H 
ATOM     11  C5  TSN d   1     -20.161 -46.626 -12.039  0.00  0.00    -0.057 A 
ATOM     12  C6  TSN d   1     -19.821 -45.515 -12.750  0.00  0.00    -0.067 A 
ATOM     13  H5  TSN d   1     -21.178 -46.731 -11.680  0.00  0.00     0.086 H 
ATOM     14  H6  TSN d   1     -20.555 -44.741 -12.944  0.00  0.00     0.085 H 
BRANCH   9  15
ATOM     15  N2  TSN d   1     -19.651 -48.742 -11.032  0.00  0.00    -0.390 N 
BRANCH  15  16
ATOM     16  C17 TSN d   1     -18.773 -49.874 -10.906  0.00  0.00    -0.019 C 
ATOM     17  H17 TSN d   1     -19.261 -50.651 -10.299  0.00  0.00     0.056 H 
ATOM     18  H18 TSN d   1     -17.838 -49.560 -10.418  0.00  0.00     0.056 H 
ATOM     19  H19 TSN d   1     -18.549 -50.277 -11.905  0.00  0.00     0.056 H 
ENDBRANCH  15  16
BRANCH  15  20
ATOM     20  C16 TSN d   1     -20.940 -48.813 -10.382  0.00  0.00    -0.019 C 
ATOM     21  H20 TSN d   1     -21.495 -47.881 -10.566  0.00  0.00     0.056 H 
ATOM     22  H21 TSN d   1     -20.798 -48.948  -9.300  0.00  0.00     0.056 H 
ATOM     23  H22 TSN d   1     -21.508 -49.664 -10.786  0.00  0.00     0.056 H 
ENDBRANCH  15  20
ENDBRANCH   9  15
ENDBRANCH   3   5
ENDBRANCH   1   3
BRANCH   1  24
ATOM     24  C9  TSN d   1     -18.297 -41.796 -13.397  0.00  0.00    -0.086 C 
ATOM     25  C10 TSN d   1     -18.747 -40.883 -12.547  0.00  0.00    -0.065 C 
ATOM     26  H8  TSN d   1     -17.289 -41.662 -13.787  0.00  0.00     0.078 H 
BRANCH  25  27
ATOM     27  C11 TSN d   1     -17.834 -39.766 -12.260  0.00  0.00    -0.072 C 
ATOM     28  C12 TSN d   1     -18.275 -38.552 -12.007  0.00  0.00    -0.015 C 
ATOM     29  H10 TSN d   1     -19.349 -38.376 -11.980  0.00  0.00     0.092 H 
ATOM     30  H9  TSN d   1     -16.761 -39.949 -12.257  0.00  0.00     0.084 H 
BRANCH  28  31
ATOM     31  C13 TSN d   1     -17.368 -37.435 -11.762  0.00  0.00     0.264 C 
ATOM     32  O2  TSN d   1     -16.185 -37.600 -11.788  0.00  0.00    -0.266 OA
ATOM     33  N1  TSN d   1     -17.885 -36.244 -11.574  0.00  0.00    -0.234 N 
ATOM     34  H2  TSN d   1     -18.876 -36.119 -11.533  0.00  0.00     0.197 HD
BRANCH  33  35
ATOM     35  O1  TSN d   1     -17.042 -35.179 -11.435  0.00  0.00    -0.287 OA
ATOM     36  H1  TSN d   1     -16.512 -35.092 -12.219  0.00  0.00     0.244 HD
ENDBRANCH  33  35
ENDBRANCH  28  31
ENDBRANCH  25  27
BRANCH  25  37
ATOM     37  C15 TSN d   1     -20.100 -40.983 -11.944  0.00  0.00    -0.051 C 
ATOM     38  H14 TSN d   1     -20.595 -41.897 -12.304  0.00  0.00     0.033 H 
ATOM     39  H15 TSN d   1     -20.696 -40.105 -12.233  0.00  0.00     0.033 H 
ATOM     40  H16 TSN d   1     -20.011 -41.021 -10.848  0.00  0.00     0.033 H 
ENDBRANCH  25  37
ENDBRANCH   1  24
BRANCH   1  41
ATOM     41  C14 TSN d   1     -19.703 -42.771 -15.226  0.00  0.00    -0.063 C 
ATOM     42  H11 TSN d   1     -20.251 -43.675 -15.531  0.00  0.00     0.028 H 
ATOM     43  H12 TSN d   1     -18.921 -42.550 -15.967  0.00  0.00     0.028 H 
ATOM     44  H13 TSN d   1     -20.400 -41.922 -15.164  0.00  0.00     0.028 H 
ENDBRANCH   1  41
TORSDOF 11
