REMARK  13 active torsions:
REMARK  status: ('A' for Active; 'I' for Inactive)
REMARK    1  A    between atoms: CA_8  and  CB_11 
REMARK    2  A    between atoms: CB_11  and  CG_12 
REMARK    3  A    between atoms: CA_19  and  CB_22 
REMARK    4  A    between atoms: CB_22  and  CG_23 
REMARK    5  A    between atoms: CG_23  and  CD_24 
REMARK    6  A    between atoms: CA_32  and  CB_35 
REMARK    7  A    between atoms: CB_35  and  CG_36 
REMARK    8  A    between atoms: CZ_41  and  OH_42 
REMARK    9  A    between atoms: CA_44  and  CB_47 
REMARK   10  A    between atoms: CB_47  and  CG_48 
REMARK   11  A    between atoms: CA_52  and  CB_55 
REMARK   12  A    between atoms: CB_55  and  CG_56 
REMARK       I    between atoms: CG_56  and  ND2_58 
REMARK   13  A    between atoms: C1_70  and  C2_72 
REMARK       I    between atoms: C2_72  and  N2_73 
ROOT
ATOM      1  N   SER d   1     -12.955  44.933 100.695  0.00  0.00    -0.345 N 
ATOM      2  CA  SER d   1     -12.677  43.551 101.055  0.00  0.00     0.109 C 
ATOM      3  C   SER d   1     -11.944  43.463 102.397  0.00  0.00     0.243 C 
ATOM      4  O   SER d   1     -12.237  42.594 103.220  0.00  0.00    -0.271 OA
ATOM      5  CB  SER d   1     -11.868  42.888  99.948  0.00  0.00     0.047 C 
ATOM      6  OG  SER d   1     -11.651  41.524 100.203  0.00  0.00    -0.385 OA
ATOM      7  H1  SER d   1     -12.661  45.245  99.792  0.00  0.00     0.163 HD
ATOM      8  H2  SER d   1     -13.635  43.019 101.153  0.00  0.00     0.090 H 
ATOM      9  H3  SER d   1     -10.895  43.394  99.867  0.00  0.00     0.078 H 
ATOM     10  H4  SER d   1     -12.414  42.990  98.999  0.00  0.00     0.078 H 
ATOM     11  N   PHE d   1     -10.993  44.370 102.607  0.00  0.00    -0.346 N 
ATOM     12  CA  PHE d   1     -10.288  44.498 103.876  0.00  0.00     0.093 C 
ATOM     13  C   PHE d   1     -10.624  45.851 104.502  0.00  0.00     0.241 C 
ATOM     14  O   PHE d   1     -10.572  46.873 103.817  0.00  0.00    -0.271 OA
ATOM     15  H5  PHE d   1     -10.752  44.991 101.861  0.00  0.00     0.163 HD
ATOM     16  H6  PHE d   1     -10.621  43.696 104.552  0.00  0.00     0.088 H 
ATOM     17  N   GLU d   1     -10.959  45.878 105.795  0.00  0.00    -0.346 N 
ATOM     18  CA  GLU d   1     -11.392  47.129 106.420  0.00  0.00     0.090 C 
ATOM     19  C   GLU d   1     -10.307  48.195 106.318  0.00  0.00     0.240 C 
ATOM     20  O   GLU d   1      -9.155  47.954 106.681  0.00  0.00    -0.271 OA
ATOM     21  H14 GLU d   1     -10.914  45.040 106.338  0.00  0.00     0.163 HD
ATOM     22  H15 GLU d   1     -12.277  47.489 105.874  0.00  0.00     0.087 H 
ATOM     23  N   GLY d   1     -10.679  49.369 105.809  0.00  0.00    -0.351 N 
ATOM     24  CA  GLY d   1      -9.742  50.476 105.667  0.00  0.00     0.069 C 
ATOM     25  C   GLY d   1      -8.798  50.403 104.462  0.00  0.00     0.236 C 
ATOM     26  O   GLY d   1      -7.786  51.099 104.407  0.00  0.00    -0.272 OA
ATOM     27  H20 GLY d   1     -11.627  49.494 105.516  0.00  0.00     0.163 HD
ATOM     28  H21 GLY d   1      -9.125  50.514 106.577  0.00  0.00     0.078 H 
ATOM     29  H22 GLY d   1     -10.327  51.404 105.581  0.00  0.00     0.078 H 
ATOM     30  N   TYR d   1      -9.109  49.551 103.496  0.00  0.00    -0.346 N 
ATOM     31  CA  TYR d   1      -8.322  49.515 102.274  0.00  0.00     0.093 C 
ATOM     32  C   TYR d   1      -9.275  49.506 101.084  0.00  0.00     0.241 C 
ATOM     33  O   TYR d   1     -10.490  49.357 101.252  0.00  0.00    -0.271 OA
ATOM     34  H23 TYR d   1      -9.886  48.932 103.608  0.00  0.00     0.163 HD
ATOM     35  H24 TYR d   1      -7.707  50.426 102.225  0.00  0.00     0.088 H 
ATOM     36  N   ASP d   1      -8.730  49.669  99.885  0.00  0.00    -0.345 N 
ATOM     37  CA  ASP d   1      -9.568  49.762  98.701  0.00  0.00     0.098 C 
ATOM     38  C   ASP d   1      -9.638  48.488  97.855  0.00  0.00     0.241 C 
ATOM     39  O   ASP d   1     -10.310  48.495  96.827  0.00  0.00    -0.271 OA
ATOM     40  H32 ASP d   1      -7.736  49.728  99.796  0.00  0.00     0.163 HD
ATOM     41  H33 ASP d   1     -10.590  49.982  99.042  0.00  0.00     0.088 H 
ATOM     42  N   ASN d   1      -8.972  47.410  98.280  0.00  0.00    -0.346 N 
ATOM     43  CA  ASN d   1      -9.041  46.127  97.553  0.00  0.00     0.097 C 
ATOM     44  C   ASN d   1     -10.484  45.694  97.257  0.00  0.00     0.241 C 
ATOM     45  O   ASN d   1     -11.253  45.445  98.184  0.00  0.00    -0.271 OA
ATOM     46  H36 ASN d   1      -8.415  47.474  99.108  0.00  0.00     0.163 HD
ATOM     47  H37 ASN d   1      -8.518  46.260  96.595  0.00  0.00     0.088 H 
ATOM     48  N   73C d   1     -10.840  45.617  95.973  0.00  0.00    -0.344 N 
ATOM     49  CA  73C d   1     -12.151  45.125  95.540  0.00  0.00     0.110 C 
ATOM     50  C   73C d   1     -13.332  45.718  96.302  0.00  0.00     0.243 C 
ATOM     51  O   73C d   1     -14.278  44.994  96.676  0.00  0.00    -0.271 OA
ATOM     52  CB  73C d   1     -12.207  43.607  95.667  0.00  0.00     0.047 C 
ATOM     53  OG  73C d   1     -11.084  43.008  95.063  0.00  0.00    -0.385 OA
ATOM     54  C1  73C d   1     -10.940  41.723  95.587  0.00  0.00     0.035 C 
ATOM     55  C2  73C d   1     -10.564  41.835  97.015  0.00  0.00    -0.082 C 
ATOM     56  C3  73C d   1     -10.966  40.964  97.913  0.00  0.00    -0.082 C 
ATOM     57  C4  73C d   1     -10.635  41.092  99.346  0.00  0.00     0.035 C 
ATOM     58  H42 73C d   1     -10.184  45.907  95.276  0.00  0.00     0.163 HD
ATOM     59  H43 73C d   1     -12.269  45.393  94.480  0.00  0.00     0.090 H 
ATOM     60  H44 73C d   1     -13.119  43.238  95.175  0.00  0.00     0.078 H 
ATOM     61  H45 73C d   1     -12.230  43.336  96.733  0.00  0.00     0.078 H 
ATOM     62  H46 73C d   1     -10.153  41.185  95.038  0.00  0.00     0.080 H 
ATOM     63  H47 73C d   1     -11.890  41.177  95.496  0.00  0.00     0.080 H 
ATOM     64  H48 73C d   1      -9.934  42.666  97.331  0.00  0.00     0.079 H 
ATOM     65  H49 73C d   1     -11.566  40.115  97.588  0.00  0.00     0.079 H 
ATOM     66  H50 73C d   1     -10.304  40.104  99.698  0.00  0.00     0.080 H 
ATOM     67  H51 73C d   1      -9.805  41.809  99.430  0.00  0.00     0.080 H 
ATOM     68  N1  AEA d   1     -13.704  47.037  96.002  0.00  0.00    -0.345 N 
ATOM     69  C1  AEA d   1     -13.436  48.001  96.999  0.00  0.00     0.097 C 
ATOM     70  C3  AEA d   1     -14.168  47.632  98.276  0.00  0.00     0.004 C 
ATOM     71  S1  AEA d   1     -13.108  47.859  99.722  0.00  0.00    -0.157 SA
ATOM     72  C4  AEA d   1     -14.135  47.134 101.037  0.00  0.00     0.051 C 
ATOM     73  O1  AEA d   1     -14.117  45.387 102.542  0.00  0.00    -0.273 OA
ATOM     74  C5  AEA d   1     -13.611  45.867 101.530  0.00  0.00     0.227 C 
ATOM     75  H52 AEA d   1     -14.134  47.281  95.133  0.00  0.00     0.163 HD
ATOM     76  H53 AEA d   1     -12.354  48.032  97.196  0.00  0.00     0.088 H 
ATOM     77  H54 AEA d   1     -14.479  46.578  98.220  0.00  0.00     0.052 H 
ATOM     78  H55 AEA d   1     -15.057  48.272  98.378  0.00  0.00     0.052 H 
ATOM     79  H58 AEA d   1     -15.147  46.965 100.640  0.00  0.00     0.063 H 
ATOM     80  H59 AEA d   1     -14.184  47.844 101.876  0.00  0.00     0.063 H 
ENDROOT
BRANCH  31  81
ATOM     81  CB  TYR d   1      -7.376  48.300 102.251  0.00  0.00    -0.014 C 
ATOM     82  H25 TYR d   1      -6.780  48.340 101.328  0.00  0.00     0.043 H 
ATOM     83  H26 TYR d   1      -7.985  47.384 102.254  0.00  0.00     0.043 H 
BRANCH  81  84
ATOM     84  CG  TYR d   1      -6.427  48.249 103.433  0.00  0.00    -0.056 A 
ATOM     85  CD1 TYR d   1      -5.201  48.900 103.391  0.00  0.00    -0.074 A 
ATOM     86  CE1 TYR d   1      -4.331  48.861 104.466  0.00  0.00    -0.051 A 
ATOM     87  H27 TYR d   1      -4.920  49.449 102.499  0.00  0.00     0.084 H 
ATOM     88  CZ  TYR d   1      -4.686  48.162 105.604  0.00  0.00     0.065 A 
ATOM     89  H29 TYR d   1      -3.378  49.375 104.416  0.00  0.00     0.087 H 
ATOM     90  CE2 TYR d   1      -5.902  47.501 105.669  0.00  0.00    -0.051 A 
ATOM     91  CD2 TYR d   1      -6.764  47.556 104.597  0.00  0.00    -0.074 A 
ATOM     92  H30 TYR d   1      -6.173  46.944 106.559  0.00  0.00     0.087 H 
ATOM     93  H28 TYR d   1      -7.722  47.052 104.658  0.00  0.00     0.084 H 
BRANCH  88  94
ATOM     94  OH  TYR d   1      -3.815  48.125 106.671  0.00  0.00    -0.361 OA
ATOM     95  H31 TYR d   1      -3.036  48.626 106.460  0.00  0.00     0.217 HD
ENDBRANCH  88  94
ENDBRANCH  81  84
ENDBRANCH  31  81
BRANCH  37  96
ATOM     96  CB  ASP d   1      -9.092  50.924  97.835  0.00  0.00     0.043 C 
ATOM     97  H34 ASP d   1      -9.638  50.902  96.880  0.00  0.00     0.052 H 
ATOM     98  H35 ASP d   1      -8.015  50.807  97.645  0.00  0.00     0.052 H 
BRANCH  96  99
ATOM     99  CG  ASP d   1      -9.326  52.253  98.497  0.00  0.00     0.175 C 
ATOM    100  OD1 ASP d   1     -10.482  52.511  98.897  0.00  0.00    -0.648 OA
ATOM    101  OD2 ASP d   1      -8.356  53.019  98.647  0.00  0.00    -0.648 OA
ENDBRANCH  96  99
ENDBRANCH  37  96
BRANCH  18 102
ATOM    102  CB  GLU d   1     -11.793  46.921 107.886  0.00  0.00    -0.029 C 
ATOM    103  H16 GLU d   1     -10.894  46.661 108.465  0.00  0.00     0.037 H 
ATOM    104  H17 GLU d   1     -12.516  46.094 107.941  0.00  0.00     0.037 H 
BRANCH 102 105
ATOM    105  CG  GLU d   1     -12.430  48.174 108.501  0.00  0.00     0.018 C 
ATOM    106  H18 GLU d   1     -13.272  48.482 107.864  0.00  0.00     0.049 H 
ATOM    107  H19 GLU d   1     -11.674  48.973 108.520  0.00  0.00     0.049 H 
BRANCH 105 108
ATOM    108  CD  GLU d   1     -12.950  47.973 109.919  0.00  0.00     0.172 C 
ATOM    109  OE1 GLU d   1     -13.492  46.896 110.230  0.00  0.00    -0.648 OA
ATOM    110  OE2 GLU d   1     -12.830  48.912 110.733  0.00  0.00    -0.648 OA
ENDBRANCH 105 108
ENDBRANCH 102 105
ENDBRANCH  18 102
BRANCH  43 111
ATOM    111  CB  ASN d   1      -8.350  44.996  98.332  0.00  0.00     0.036 C 
ATOM    112  H38 ASN d   1      -8.260  44.121  97.671  0.00  0.00     0.051 H 
ATOM    113  H39 ASN d   1      -8.975  44.738  99.200  0.00  0.00     0.051 H 
BRANCH 111 114
ATOM    114  CG  ASN d   1      -6.965  45.368  98.829  0.00  0.00     0.217 C 
ATOM    115  OD1 ASN d   1      -6.768  46.431  99.415  0.00  0.00    -0.274 OA
ATOM    116  ND2 ASN d   1      -5.993  44.488  98.592  0.00  0.00    -0.370 N 
ATOM    117  H40 ASN d   1      -5.060  44.679  98.897  0.00  0.00     0.159 HD
ATOM    118  H41 ASN d   1      -6.197  43.636  98.110  0.00  0.00     0.159 HD
ENDBRANCH 111 114
ENDBRANCH  43 111
BRANCH  12 119
ATOM    119  CB  PHE d   1      -8.777  44.375 103.673  0.00  0.00    -0.014 C 
ATOM    120  H7  PHE d   1      -8.293  44.394 104.661  0.00  0.00     0.043 H 
ATOM    121  H8  PHE d   1      -8.437  45.238 103.081  0.00  0.00     0.043 H 
BRANCH 119 122
ATOM    122  CG  PHE d   1      -8.348  43.111 102.959  0.00  0.00    -0.056 A 
ATOM    123  CD1 PHE d   1      -8.412  41.879 103.596  0.00  0.00    -0.077 A 
ATOM    124  CE1 PHE d   1      -8.005  40.721 102.959  0.00  0.00    -0.082 A 
ATOM    125  H9  PHE d   1      -8.788  41.824 104.611  0.00  0.00     0.084 H 
ATOM    126  CZ  PHE d   1      -7.515  40.777 101.663  0.00  0.00    -0.083 A 
ATOM    127  H11 PHE d   1      -8.069  39.769 103.473  0.00  0.00     0.083 H 
ATOM    128  CE2 PHE d   1      -7.435  41.997 101.017  0.00  0.00    -0.082 A 
ATOM    129  H13 PHE d   1      -7.197  39.871 101.160  0.00  0.00     0.083 H 
ATOM    130  CD2 PHE d   1      -7.853  43.163 101.668  0.00  0.00    -0.077 A 
ATOM    131  H12 PHE d   1      -7.048  42.050 100.006  0.00  0.00     0.083 H 
ATOM    132  H10 PHE d   1      -7.788  44.116 101.156  0.00  0.00     0.084 H 
ENDBRANCH 119 122
ENDBRANCH  12 119
BRANCH  69 133
ATOM    133  C2  AEA d   1     -13.898  49.356  96.521  0.00  0.00     0.239 C 
ATOM    134  N2  AEA d   1     -13.032  50.062  95.796  0.00  0.00    -0.368 N 
ATOM    135  H56 AEA d   1     -13.287  50.967  95.454  0.00  0.00     0.159 HD
ATOM    136  H57 AEA d   1     -12.127  49.688  95.594  0.00  0.00     0.159 HD
ATOM    137  O3  AEA d   1     -15.014  49.735  96.799  0.00  0.00    -0.271 OA
ENDBRANCH  69 133
TORSDOF 13
