REMARK  15 active torsions:
REMARK  status: ('A' for Active; 'I' for Inactive)
REMARK    1  A    between atoms: CA_8  and  CB_11 
REMARK    2  A    between atoms: CB_11  and  CG_12 
REMARK    3  A    between atoms: CA_19  and  CB_22 
REMARK    4  A    between atoms: CB_22  and  CG_23 
REMARK    5  A    between atoms: CG_23  and  CD_24 
REMARK    6  A    between atoms: CA_32  and  CB_35 
REMARK    7  A    between atoms: CB_35  and  CG_36 
REMARK    8  A    between atoms: CZ_41  and  OH_42 
REMARK    9  A    between atoms: CA_44  and  CB_47 
REMARK   10  A    between atoms: CB_47  and  CG_48 
REMARK   11  A    between atoms: CA_52  and  CB_55 
REMARK   12  A    between atoms: CB_55  and  CG_56 
REMARK       I    between atoms: CG_56  and  ND2_58 
REMARK   13  A    between atoms: CA_66  and  CB_69 
REMARK   14  A    between atoms: CB_69  and  CG_70 
REMARK   15  A    between atoms: C02_89  and  C03_90 
REMARK       I    between atoms: C03_90  and  N05_92 
ROOT
ATOM      1  N   SER d   1      -4.696   1.603   1.397  0.00  0.00    -0.345 N 
ATOM      2  CA  SER d   1      -4.400   2.449   0.245  0.00  0.00     0.109 C 
ATOM      3  C   SER d   1      -3.493   1.748  -0.769  0.00  0.00     0.243 C 
ATOM      4  O   SER d   1      -3.419   2.157  -1.931  0.00  0.00    -0.271 OA
ATOM      5  CB  SER d   1      -3.755   3.751   0.707  0.00  0.00     0.046 C 
ATOM      6  OG  SER d   1      -2.598   3.474   1.467  0.00  0.00    -0.389 OA
ATOM      7  N   SER d   1      -3.327   1.765   6.470  0.00  0.00    -0.344 N 
ATOM      8  CA  SER d   1      -4.710   2.226   6.583  0.00  0.00     0.110 C 
ATOM      9  C   SER d   1      -5.729   1.147   6.200  0.00  0.00     0.243 C 
ATOM     10  O   SER d   1      -6.759   1.428   5.586  0.00  0.00    -0.271 OA
ATOM     11  CB  SER d   1      -4.914   3.485   5.727  0.00  0.00     0.046 C 
ATOM     12  OG  SER d   1      -4.174   4.569   6.273  0.00  0.00    -0.389 OA
ATOM     13  H1  SER d   1      -4.219   1.727   2.267  0.00  0.00     0.163 HD
ATOM     14  H2  SER d   1      -5.350   2.688  -0.255  0.00  0.00     0.090 H 
ATOM     15  H3  SER d   1      -4.471   4.313   1.325  0.00  0.00     0.078 H 
ATOM     16  H4  SER d   1      -3.478   4.352  -0.172  0.00  0.00     0.078 H 
ATOM     17  H42 SER d   1      -2.718   1.862   7.257  0.00  0.00     0.163 HD
ATOM     18  H43 SER d   1      -4.888   2.494   7.635  0.00  0.00     0.090 H 
ATOM     19  H44 SER d   1      -5.983   3.745   5.710  0.00  0.00     0.078 H 
ATOM     20  H45 SER d   1      -4.569   3.288   4.701  0.00  0.00     0.078 H 
ATOM     21  N   PHE d   1      -2.811   0.696  -0.329  0.00  0.00    -0.346 N 
ATOM     22  CA  PHE d   1      -1.952  -0.092  -1.212  0.00  0.00     0.093 C 
ATOM     23  C   PHE d   1      -2.318  -1.567  -1.145  0.00  0.00     0.241 C 
ATOM     24  O   PHE d   1      -2.230  -2.185  -0.084  0.00  0.00    -0.271 OA
ATOM     25  N   PHE d   1      -5.420  -0.092   6.562  0.00  0.00    -0.346 N 
ATOM     26  CA  PHE d   1      -6.345  -1.206   6.419  0.00  0.00     0.093 C 
ATOM     27  C   PHE d   1      -7.315  -1.177   7.603  0.00  0.00     0.243 C 
ATOM     28  O   PHE d   1      -6.912  -0.841   8.715  0.00  0.00    -0.271 OA
ATOM     29  H5  PHE d   1      -2.887   0.436   0.633  0.00  0.00     0.163 HD
ATOM     30  H6  PHE d   1      -2.100   0.260  -2.244  0.00  0.00     0.088 H 
ATOM     31  H46 PHE d   1      -4.515  -0.267   6.949  0.00  0.00     0.163 HD
ATOM     32  H47 PHE d   1      -6.915  -1.092   5.486  0.00  0.00     0.088 H 
ATOM     33  N   GLU d   1      -2.728  -2.134  -2.279  0.00  0.00    -0.346 N 
ATOM     34  CA  GLU d   1      -3.043  -3.556  -2.341  0.00  0.00     0.090 C 
ATOM     35  C   GLU d   1      -1.848  -4.382  -1.903  0.00  0.00     0.240 C 
ATOM     36  O   GLU d   1      -0.754  -4.216  -2.431  0.00  0.00    -0.271 OA
ATOM     37  H14 GLU d   1      -2.821  -1.574  -3.102  0.00  0.00     0.163 HD
ATOM     38  H15 GLU d   1      -3.881  -3.759  -1.657  0.00  0.00     0.087 H 
ATOM     39  N   GLY d   1      -2.049  -5.260  -0.923  0.00  0.00    -0.351 N 
ATOM     40  CA  GLY d   1      -0.983  -6.145  -0.486  0.00  0.00     0.069 C 
ATOM     41  C   GLY d   1      -0.159  -5.604   0.671  0.00  0.00     0.236 C 
ATOM     42  O   GLY d   1       0.868  -6.190   1.039  0.00  0.00    -0.272 OA
ATOM     43  H20 GLY d   1      -2.945  -5.311  -0.482  0.00  0.00     0.163 HD
ATOM     44  H21 GLY d   1      -0.309  -6.320  -1.337  0.00  0.00     0.078 H 
ATOM     45  H22 GLY d   1      -1.433  -7.099  -0.173  0.00  0.00     0.078 H 
ATOM     46  N   TYR d   1      -0.598  -4.481   1.237  0.00  0.00    -0.346 N 
ATOM     47  CA  TYR d   1       0.051  -3.884   2.407  0.00  0.00     0.093 C 
ATOM     48  C   TYR d   1      -1.002  -3.480   3.418  0.00  0.00     0.241 C 
ATOM     49  O   TYR d   1      -2.187  -3.415   3.086  0.00  0.00    -0.271 OA
ATOM     50  H23 TYR d   1      -1.401  -4.028   0.849  0.00  0.00     0.163 HD
ATOM     51  H24 TYR d   1       0.710  -4.636   2.866  0.00  0.00     0.088 H 
ATOM     52  N   ASP d   1      -0.572  -3.210   4.650  0.00  0.00    -0.345 N 
ATOM     53  CA  ASP d   1      -1.503  -2.960   5.733  0.00  0.00     0.098 C 
ATOM     54  C   ASP d   1      -1.773  -1.483   5.988  0.00  0.00     0.241 C 
ATOM     55  O   ASP d   1      -2.526  -1.151   6.917  0.00  0.00    -0.271 OA
ATOM     56  H32 ASP d   1       0.411  -3.179   4.831  0.00  0.00     0.163 HD
ATOM     57  H33 ASP d   1      -2.461  -3.426   5.459  0.00  0.00     0.088 H 
ATOM     58  N   ASN d   1      -1.189  -0.605   5.168  0.00  0.00    -0.346 N 
ATOM     59  CA  ASN d   1      -1.379   0.841   5.341  0.00  0.00     0.097 C 
ATOM     60  C   ASN d   1      -2.853   1.219   5.350  0.00  0.00     0.241 C 
ATOM     61  O   ASN d   1      -3.547   1.009   4.355  0.00  0.00    -0.271 OA
ATOM     62  H36 ASN d   1      -0.612  -0.938   4.423  0.00  0.00     0.163 HD
ATOM     63  H37 ASN d   1      -0.935   1.130   6.305  0.00  0.00     0.088 H 
ATOM     64  N   PRO d   1      -8.602  -1.501   7.376  0.00  0.00    -0.337 N 
ATOM     65  CA  PRO d   1      -9.237  -1.925   6.126  0.00  0.00     0.091 C 
ATOM     66  C   PRO d   1      -9.677  -0.761   5.244  0.00  0.00     0.241 C 
ATOM     67  O   PRO d   1      -9.478   0.392   5.618  0.00  0.00    -0.271 OA
ATOM     68  CB  PRO d   1     -10.450  -2.712   6.617  0.00  0.00    -0.036 C 
ATOM     69  CG  PRO d   1     -10.852  -1.981   7.849  0.00  0.00    -0.048 C 
ATOM     70  CD  PRO d   1      -9.568  -1.495   8.490  0.00  0.00    -0.001 C 
ATOM     71  H55 PRO d   1      -8.556  -2.569   5.550  0.00  0.00     0.087 H 
ATOM     72  H56 PRO d   1     -10.178  -3.753   6.847  0.00  0.00     0.036 H 
ATOM     73  H57 PRO d   1     -11.257  -2.700   5.870  0.00  0.00     0.036 H 
ATOM     74  H58 PRO d   1     -11.389  -2.654   8.534  0.00  0.00     0.035 H 
ATOM     75  H59 PRO d   1     -11.497  -1.128   7.593  0.00  0.00     0.035 H 
ATOM     76  H60 PRO d   1      -9.692  -0.481   8.898  0.00  0.00     0.064 H 
ATOM     77  H61 PRO d   1      -9.247  -2.176   9.292  0.00  0.00     0.064 H 
ATOM     78  C1  73C d   1      -3.920   5.502   5.361  0.00  0.00     0.020 C 
ATOM     79  C2  73C d   1      -3.943   5.339   3.896  0.00  0.00    -0.043 C 
ATOM     80  C3  73C d   1      -2.890   5.547   3.139  0.00  0.00    -0.043 C 
ATOM     81  C4  73C d   1      -2.331   4.502   2.257  0.00  0.00     0.020 C 
ATOM     82  H62 73C d   1      -2.904   5.854   5.591  0.00  0.00     0.074 H 
ATOM     83  H63 73C d   1      -4.642   6.305   5.568  0.00  0.00     0.074 H 
ATOM     84  H64 73C d   1      -4.722   6.022   3.527  0.00  0.00     0.036 H 
ATOM     85  H65 73C d   1      -4.249   4.299   3.711  0.00  0.00     0.036 H 
ATOM     86  H66 73C d   1      -2.077   5.840   3.819  0.00  0.00     0.036 H 
ATOM     87  H67 73C d   1      -3.145   6.394   2.486  0.00  0.00     0.036 H 
ATOM     88  H68 73C d   1      -1.767   5.134   1.555  0.00  0.00     0.074 H 
ATOM     89  H69 73C d   1      -1.634   4.021   2.958  0.00  0.00     0.074 H 
ATOM     90  O10 48V d   1      -6.134   0.422   0.167  0.00  0.00    -0.273 OA
ATOM     91  N01 48V d   1      -9.349  -1.205   4.045  0.00  0.00    -0.345 N 
ATOM     92  C02 48V d   1      -9.199  -0.267   2.984  0.00  0.00     0.097 C 
ATOM     93  C06 48V d   1      -8.604  -0.969   1.784  0.00  0.00     0.004 C 
ATOM     94  S07 48V d   1      -6.918  -1.538   2.118  0.00  0.00    -0.157 SA
ATOM     95  C08 48V d   1      -6.133   0.064   2.472  0.00  0.00     0.051 C 
ATOM     96  C09 48V d   1      -5.616   0.668   1.249  0.00  0.00     0.227 C 
ATOM     97  H70 48V d   1      -9.208  -2.182   3.885  0.00  0.00     0.163 HD
ATOM     98  H71 48V d   1      -8.519   0.536   3.304  0.00  0.00     0.088 H 
ATOM     99  H74 48V d   1      -8.584  -0.270   0.935  0.00  0.00     0.052 H 
ATOM    100  H75 48V d   1      -9.231  -1.837   1.530  0.00  0.00     0.052 H 
ATOM    101  H76 48V d   1      -5.303  -0.089   3.178  0.00  0.00     0.063 H 
ATOM    102  H77 48V d   1      -6.877   0.739   2.921  0.00  0.00     0.063 H 
ENDROOT
BRANCH  47 103
ATOM    103  CB  TYR d   1       0.903  -2.678   2.001  0.00  0.00    -0.014 C 
ATOM    104  H25 TYR d   1       1.377  -2.260   2.901  0.00  0.00     0.043 H 
ATOM    105  H26 TYR d   1       0.249  -1.920   1.545  0.00  0.00     0.043 H 
BRANCH 103 106
ATOM    106  CG  TYR d   1       1.979  -3.047   1.014  0.00  0.00    -0.056 A 
ATOM    107  CD1 TYR d   1       3.233  -3.469   1.447  0.00  0.00    -0.074 A 
ATOM    108  CE1 TYR d   1       4.219  -3.834   0.537  0.00  0.00    -0.051 A 
ATOM    109  H27 TYR d   1       3.444  -3.514   2.509  0.00  0.00     0.084 H 
ATOM    110  CZ  TYR d   1       3.953  -3.772  -0.821  0.00  0.00     0.065 A 
ATOM    111  H29 TYR d   1       5.190  -4.165   0.888  0.00  0.00     0.087 H 
ATOM    112  CE2 TYR d   1       2.715  -3.365  -1.270  0.00  0.00    -0.051 A 
ATOM    113  CD2 TYR d   1       1.736  -3.005  -0.361  0.00  0.00    -0.074 A 
ATOM    114  H30 TYR d   1       2.509  -3.327  -2.333  0.00  0.00     0.087 H 
ATOM    115  H28 TYR d   1       0.765  -2.685  -0.722  0.00  0.00     0.084 H 
BRANCH 110 116
ATOM    116  OH  TYR d   1       4.922  -4.134  -1.734  0.00  0.00    -0.361 OA
ATOM    117  H31 TYR d   1       5.712  -4.388  -1.272  0.00  0.00     0.217 HD
ENDBRANCH 110 116
ENDBRANCH 103 106
ENDBRANCH  47 103
BRANCH  53 118
ATOM    118  CB  ASP d   1      -0.989  -3.635   7.012  0.00  0.00     0.043 C 
ATOM    119  H34 ASP d   1      -1.608  -3.307   7.860  0.00  0.00     0.052 H 
ATOM    120  H35 ASP d   1       0.054  -3.329   7.180  0.00  0.00     0.052 H 
BRANCH 118 121
ATOM    121  CG  ASP d   1      -1.046  -5.152   6.922  0.00  0.00     0.175 C 
ATOM    122  OD1 ASP d   1      -2.155  -5.707   7.063  0.00  0.00    -0.648 OA
ATOM    123  OD2 ASP d   1       0.005  -5.791   6.699  0.00  0.00    -0.648 OA
ENDBRANCH 118 121
ENDBRANCH  53 118
BRANCH  34 124
ATOM    124  CB  GLU d   1      -3.464  -3.952  -3.763  0.00  0.00    -0.029 C 
ATOM    125  H16 GLU d   1      -2.635  -3.712  -4.445  0.00  0.00     0.037 H 
ATOM    126  H17 GLU d   1      -4.348  -3.357  -4.037  0.00  0.00     0.037 H 
BRANCH 124 127
ATOM    127  CG  GLU d   1      -3.814  -5.439  -3.939  0.00  0.00     0.018 C 
ATOM    128  H18 GLU d   1      -4.483  -5.539  -4.806  0.00  0.00     0.049 H 
ATOM    129  H19 GLU d   1      -4.334  -5.784  -3.033  0.00  0.00     0.049 H 
BRANCH 127 130
ATOM    130  CD  GLU d   1      -2.600  -6.323  -4.163  0.00  0.00     0.172 C 
ATOM    131  OE1 GLU d   1      -1.910  -6.148  -5.190  0.00  0.00    -0.648 OA
ATOM    132  OE2 GLU d   1      -2.336  -7.203  -3.318  0.00  0.00    -0.648 OA
ENDBRANCH 127 130
ENDBRANCH 124 127
ENDBRANCH  34 124
BRANCH  59 133
ATOM    133  CB  ASN d   1      -0.691   1.631   4.225  0.00  0.00     0.036 C 
ATOM    134  H38 ASN d   1      -0.755   2.702   4.466  0.00  0.00     0.051 H 
ATOM    135  H39 ASN d   1      -1.221   1.435   3.281  0.00  0.00     0.051 H 
BRANCH 133 136
ATOM    136  CG  ASN d   1       0.765   1.267   4.041  0.00  0.00     0.217 C 
ATOM    137  OD1 ASN d   1       1.118   0.095   3.866  0.00  0.00    -0.274 OA
ATOM    138  ND2 ASN d   1       1.621   2.283   4.038  0.00  0.00    -0.370 N 
ATOM    139  H40 ASN d   1       2.599   2.112   3.921  0.00  0.00     0.159 HD
ATOM    140  H41 ASN d   1       1.287   3.219   4.153  0.00  0.00     0.159 HD
ENDBRANCH 133 136
ENDBRANCH  59 133
BRANCH  22 141
ATOM    141  CB  PHE d   1      -0.475   0.090  -0.841  0.00  0.00    -0.014 C 
ATOM    142  H7  PHE d   1       0.139  -0.398  -1.612  0.00  0.00     0.043 H 
ATOM    143  H8  PHE d   1      -0.299  -0.397   0.130  0.00  0.00     0.043 H 
BRANCH 141 144
ATOM    144  CG  PHE d   1      -0.047   1.524  -0.735  0.00  0.00    -0.056 A 
ATOM    145  CD1 PHE d   1       0.035   2.323  -1.862  0.00  0.00    -0.077 A 
ATOM    146  CE1 PHE d   1       0.432   3.646  -1.772  0.00  0.00    -0.082 A 
ATOM    147  H9  PHE d   1      -0.216   1.906  -2.831  0.00  0.00     0.084 H 
ATOM    148  CZ  PHE d   1       0.761   4.185  -0.538  0.00  0.00    -0.083 A 
ATOM    149  H11 PHE d   1       0.485   4.259  -2.664  0.00  0.00     0.083 H 
ATOM    150  CE2 PHE d   1       0.692   3.392   0.598  0.00  0.00    -0.082 A 
ATOM    151  H13 PHE d   1       1.071   5.221  -0.461  0.00  0.00     0.083 H 
ATOM    152  CD2 PHE d   1       0.291   2.069   0.496  0.00  0.00    -0.077 A 
ATOM    153  H12 PHE d   1       0.952   3.807   1.565  0.00  0.00     0.083 H 
ATOM    154  H10 PHE d   1       0.241   1.454   1.387  0.00  0.00     0.084 H 
ENDBRANCH 141 144
ENDBRANCH  22 141
BRANCH  26 155
ATOM    155  CB  PHE d   1      -5.556  -2.521   6.358  0.00  0.00    -0.014 C 
ATOM    156  H48 PHE d   1      -4.933  -2.591   7.262  0.00  0.00     0.043 H 
ATOM    157  H49 PHE d   1      -4.910  -2.494   5.468  0.00  0.00     0.043 H 
BRANCH 155 158
ATOM    158  CG  PHE d   1      -6.409  -3.751   6.280  0.00  0.00    -0.056 A 
ATOM    159  CD1 PHE d   1      -6.917  -4.182   5.067  0.00  0.00    -0.077 A 
ATOM    160  CE1 PHE d   1      -7.700  -5.316   4.992  0.00  0.00    -0.082 A 
ATOM    161  H50 PHE d   1      -6.697  -3.622   4.165  0.00  0.00     0.084 H 
ATOM    162  CZ  PHE d   1      -7.980  -6.036   6.137  0.00  0.00    -0.083 A 
ATOM    163  H52 PHE d   1      -8.095  -5.641   4.036  0.00  0.00     0.083 H 
ATOM    164  CE2 PHE d   1      -7.476  -5.620   7.353  0.00  0.00    -0.082 A 
ATOM    165  H54 PHE d   1      -8.595  -6.927   6.081  0.00  0.00     0.083 H 
ATOM    166  CD2 PHE d   1      -6.692  -4.485   7.420  0.00  0.00    -0.077 A 
ATOM    167  H53 PHE d   1      -7.695  -6.183   8.253  0.00  0.00     0.083 H 
ATOM    168  H51 PHE d   1      -6.293  -4.165   8.376  0.00  0.00     0.084 H 
ENDBRANCH 155 158
ENDBRANCH  26 155
BRANCH  92 169
ATOM    169  C03 48V d   1     -10.542   0.338   2.635  0.00  0.00     0.239 C 
ATOM    170  O04 48V d   1     -11.353  -0.307   2.002  0.00  0.00    -0.271 OA
ATOM    171  N05 48V d   1     -10.770   1.582   3.049  0.00  0.00    -0.368 N 
ATOM    172  H72 48V d   1     -11.642   2.026   2.843  0.00  0.00     0.159 HD
ATOM    173  H73 48V d   1     -10.069   2.073   3.566  0.00  0.00     0.159 HD
ENDBRANCH  92 169
TORSDOF 15
