REMARK  9 active torsions:
REMARK  status: ('A' for Active; 'I' for Inactive)
REMARK       I    between atoms: C21_2  and  N3_3 
REMARK    1  A    between atoms: C21_2  and  C20_5 
REMARK    2  A    between atoms: N3_3  and  O2_4 
REMARK    3  A    between atoms: C19_6  and  C16_7 
REMARK    4  A    between atoms: C13_12  and  C12_13 
REMARK    5  A    between atoms: C12_13  and  N2_14 
REMARK    6  A    between atoms: N2_14  and  C11_15 
REMARK    7  A    between atoms: C11_15  and  C10_16 
REMARK    8  A    between atoms: C10_16  and  C3_17 
REMARK    9  A    between atoms: C2_21  and  C1_22 
ROOT
ATOM      1  N2  LBH d   1      -7.887  25.470 -43.498  0.00  0.00    -0.071 N 
ATOM      2  H11 LBH d   1      -6.986  25.920 -43.458  0.00  0.00     0.277 HD
ATOM      3  H12 LBH d   1      -7.990  25.002 -44.385  0.00  0.00     0.277 HD
ENDROOT
BRANCH   1   4
ATOM      4  C12 LBH d   1      -8.958  26.485 -43.343  0.00  0.00     0.105 C 
ATOM      5  H9  LBH d   1      -8.967  26.849 -42.305  0.00  0.00     0.083 H 
ATOM      6  H10 LBH d   1      -8.764  27.326 -44.025  0.00  0.00     0.083 H 
BRANCH   4   7
ATOM      7  C13 LBH d   1     -10.308  25.873 -43.672  0.00  0.00    -0.033 A 
ATOM      8  C14 LBH d   1     -10.533  25.318 -44.957  0.00  0.00    -0.074 A 
ATOM      9  C15 LBH d   1     -11.749  24.760 -45.259  0.00  0.00    -0.072 A 
ATOM     10  H6  LBH d   1      -9.744  25.335 -45.700  0.00  0.00     0.084 H 
ATOM     11  C16 LBH d   1     -12.768  24.734 -44.293  0.00  0.00    -0.036 A 
ATOM     12  H5  LBH d   1     -11.923  24.339 -46.243  0.00  0.00     0.084 H 
ATOM     13  C17 LBH d   1     -12.550  25.279 -43.016  0.00  0.00    -0.072 A 
ATOM     14  C18 LBH d   1     -11.324  25.843 -42.709  0.00  0.00    -0.074 A 
ATOM     15  H7  LBH d   1     -13.340  25.258 -42.274  0.00  0.00     0.084 H 
ATOM     16  H8  LBH d   1     -11.150  26.261 -41.724  0.00  0.00     0.084 H 
BRANCH  11  17
ATOM     17  C19 LBH d   1     -14.114  24.108 -44.654  0.00  0.00    -0.068 C 
ATOM     18  C20 LBH d   1     -14.722  24.472 -45.845  0.00  0.00    -0.015 C 
ATOM     19  H3  LBH d   1     -14.410  25.381 -46.356  0.00  0.00     0.092 H 
ATOM     20  H4  LBH d   1     -14.587  23.389 -43.987  0.00  0.00     0.085 H 
BRANCH  18  21
ATOM     21  C21 LBH d   1     -15.838  23.597 -46.451  0.00  0.00     0.264 C 
ATOM     22  O1  LBH d   1     -15.739  22.353 -46.422  0.00  0.00    -0.266 OA
ATOM     23  N3  LBH d   1     -16.989  24.211 -47.054  0.00  0.00    -0.234 N 
ATOM     24  H1  LBH d   1     -17.068  25.207 -47.079  0.00  0.00     0.197 HD
BRANCH  23  25
ATOM     25  O2  LBH d   1     -17.951  23.453 -47.580  0.00  0.00    -0.287 OA
ATOM     26  H2  LBH d   1     -18.634  24.011 -47.934  0.00  0.00     0.244 HD
ENDBRANCH  23  25
ENDBRANCH  18  21
ENDBRANCH  11  17
ENDBRANCH   4   7
ENDBRANCH   1   4
BRANCH   1  27
ATOM     27  C11 LBH d   1      -7.997  24.489 -42.407  0.00  0.00     0.086 C 
ATOM     28  H13 LBH d   1      -8.658  24.894 -41.627  0.00  0.00     0.076 H 
ATOM     29  H14 LBH d   1      -6.997  24.311 -41.984  0.00  0.00     0.076 H 
BRANCH  27  30
ATOM     30  C10 LBH d   1      -8.571  23.160 -42.906  0.00  0.00    -0.016 C 
ATOM     31  H15 LBH d   1      -7.957  22.797 -43.743  0.00  0.00     0.042 H 
ATOM     32  H16 LBH d   1      -9.603  23.323 -43.251  0.00  0.00     0.042 H 
BRANCH  30  33
ATOM     33  C3  LBH d   1      -8.578  22.075 -41.770  0.00  0.00    -0.022 A 
ATOM     34  C4  LBH d   1      -7.552  21.040 -41.551  0.00  0.00    -0.001 A 
ATOM     35  C9  LBH d   1      -7.969  20.323 -40.444  0.00  0.00     0.043 A 
ATOM     36  C5  LBH d   1      -6.341  20.702 -42.218  0.00  0.00    -0.070 A 
ATOM     37  N1  LBH d   1      -9.181  20.854 -39.977  0.00  0.00    -0.359 N 
ATOM     38  C8  LBH d   1      -7.163  19.216 -39.965  0.00  0.00    -0.056 A 
ATOM     39  C2  LBH d   1      -9.550  21.880 -40.740  0.00  0.00     0.013 A 
ATOM     40  H17 LBH d   1      -9.707  20.502 -39.164  0.00  0.00     0.166 HD
ATOM     41  C7  LBH d   1      -5.963  18.883 -40.629  0.00  0.00    -0.081 A 
ATOM     42  H21 LBH d   1      -7.481  18.646 -39.100  0.00  0.00     0.086 H 
ATOM     43  C6  LBH d   1      -5.548  19.615 -41.749  0.00  0.00    -0.082 A 
ATOM     44  H22 LBH d   1      -5.360  18.057 -40.271  0.00  0.00     0.083 H 
ATOM     45  H23 LBH d   1      -4.627  19.355 -42.257  0.00  0.00     0.083 H 
ATOM     46  H24 LBH d   1      -6.022  21.272 -43.083  0.00  0.00     0.084 H 
BRANCH  39  47
ATOM     47  C1  LBH d   1     -10.801  22.704 -40.549  0.00  0.00    -0.037 C 
ATOM     48  H18 LBH d   1     -10.849  23.483 -41.324  0.00  0.00     0.035 H 
ATOM     49  H19 LBH d   1     -10.781  23.176 -39.556  0.00  0.00     0.035 H 
ATOM     50  H20 LBH d   1     -11.684  22.053 -40.628  0.00  0.00     0.035 H 
ENDBRANCH  39  47
ENDBRANCH  30  33
ENDBRANCH  27  30
ENDBRANCH   1  27
TORSDOF 9
