REMARK  7 active torsions:
REMARK  status: ('A' for Active; 'I' for Inactive)
REMARK    1  A    between atoms: S02_2  and  N03_3 
REMARK    2  A    between atoms: S02_2  and  C18_18 
REMARK    3  A    between atoms: N03_3  and  C04_4 
REMARK    4  A    between atoms: C06_6  and  C07_7 
REMARK    5  A    between atoms: C08_8  and  C09_9 
REMARK    6  A    between atoms: C10_10  and  C11_11 
REMARK       I    between atoms: C11_11  and  N12_12 
REMARK    7  A    between atoms: N12_12  and  O13_13 
ROOT
ATOM      1  C04 5OK d   1      82.371  17.665  21.198  0.00  0.00     0.044 A 
ATOM      2  C05 5OK d   1      83.534  18.388  20.997  0.00  0.00    -0.038 A 
ATOM      3  C06 5OK d   1      84.691  18.175  21.730  0.00  0.00     0.020 A 
ATOM      4  C15 5OK d   1      84.720  17.197  22.700  0.00  0.00    -0.065 A 
ATOM      5  C16 5OK d   1      83.569  16.454  22.923  0.00  0.00    -0.079 A 
ATOM      6  C17 5OK d   1      82.405  16.681  22.181  0.00  0.00    -0.057 A 
ATOM      7  H2  5OK d   1      83.540  19.156  20.232  0.00  0.00     0.089 H 
ATOM      8  H7  5OK d   1      85.620  17.012  23.275  0.00  0.00     0.085 H 
ATOM      9  H8  5OK d   1      83.572  15.684  23.686  0.00  0.00     0.083 H 
ATOM     10  H9  5OK d   1      81.521  16.084  22.374  0.00  0.00     0.086 H 
ENDROOT
BRANCH   1  11
ATOM     11  N03 5OK d   1      81.204  17.962  20.364  0.00  0.00    -0.281 N 
ATOM     12  H1  5OK d   1      80.287  17.831  20.740  0.00  0.00     0.179 HD
BRANCH  11  13
ATOM     13  S02 5OK d   1      81.375  18.516  18.793  0.00  0.00     0.263 S 
ATOM     14  O01 5OK d   1      82.443  19.479  18.685  0.00  0.00    -0.200 OA
ATOM     15  O24 5OK d   1      80.243  19.220  18.297  0.00  0.00    -0.200 OA
BRANCH  13  16
ATOM     16  C18 5OK d   1      81.853  17.211  17.670  0.00  0.00     0.079 A 
ATOM     17  C19 5OK d   1      81.029  16.519  16.764  0.00  0.00    -0.060 A 
ATOM     18  C20 5OK d   1      81.620  15.520  15.965  0.00  0.00    -0.082 A 
ATOM     19  H10 5OK d   1      79.972  16.747  16.683  0.00  0.00     0.085 H 
ATOM     20  C21 5OK d   1      82.990  15.266  16.099  0.00  0.00    -0.083 A 
ATOM     21  H11 5OK d   1      81.023  14.957  15.257  0.00  0.00     0.083 H 
ATOM     22  C22 5OK d   1      83.785  15.977  16.997  0.00  0.00    -0.082 A 
ATOM     23  H12 5OK d   1      83.445  14.495  15.488  0.00  0.00     0.083 H 
ATOM     24  C23 5OK d   1      83.204  16.958  17.780  0.00  0.00    -0.060 A 
ATOM     25  H13 5OK d   1      84.844  15.764  17.080  0.00  0.00     0.083 H 
ATOM     26  H14 5OK d   1      83.809  17.526  18.478  0.00  0.00     0.085 H 
ENDBRANCH  13  16
ENDBRANCH  11  13
ENDBRANCH   1  11
BRANCH   3  27
ATOM     27  C07 5OK d   1      85.913  19.000  21.414  0.00  0.00    -0.062 C 
ATOM     28  C08 5OK d   1      86.874  19.666  21.191  0.00  0.00    -0.073 C 
BRANCH  28  29
ATOM     29  C09 5OK d   1      88.072  20.524  20.834  0.00  0.00    -0.027 C 
ATOM     30  C10 5OK d   1      89.318  20.061  21.065  0.00  0.00    -0.008 C 
ATOM     31  H4  5OK d   1      89.516  19.023  21.327  0.00  0.00     0.093 H 
ATOM     32  H3  5OK d   1      87.927  21.509  20.393  0.00  0.00     0.097 H 
BRANCH  30  33
ATOM     33  C11 5OK d   1      90.428  21.098  20.932  0.00  0.00     0.265 C 
ATOM     34  N12 5OK d   1      91.474  21.085  21.919  0.00  0.00    -0.234 N 
ATOM     35  H5  5OK d   1      91.445  20.397  22.644  0.00  0.00     0.197 HD
ATOM     36  O14 5OK d   1      90.381  21.914  20.017  0.00  0.00    -0.266 OA
BRANCH  34  37
ATOM     37  O13 5OK d   1      92.512  21.986  21.899  0.00  0.00    -0.287 OA
ATOM     38  H6  5OK d   1      93.094  21.813  22.630  0.00  0.00     0.244 HD
ENDBRANCH  34  37
ENDBRANCH  30  33
ENDBRANCH  28  29
ENDBRANCH   3  27
TORSDOF 7
