REMARK  10 active torsions:
REMARK  status: ('A' for Active; 'I' for Inactive)
REMARK    1  A    between atoms: C_56  and  C1_7 
REMARK       I    between atoms: C1_7  and  N_57 
REMARK    2  A    between atoms: C7_24  and  N1_8 
REMARK    3  A    between atoms: C2_10  and  C3_13 
REMARK    4  A    between atoms: N_57  and  C2_10 
REMARK    5  A    between atoms: C7_24  and  N2_11 
REMARK    6  A    between atoms: C6_22  and  C7_24 
REMARK    7  A    between atoms: C32_46  and  N7_25 
REMARK    8  A    between atoms: N7_25  and  S_59 
REMARK    9  A    between atoms: N8_27  and  C33_47 
REMARK   10  A    between atoms: S_59  and  N8_27 
ROOT
ATOM      1  C10 5N7 d   1     -23.728 -13.847 -27.256  0.00  0.00    -0.014 C 
ATOM      2  C11 5N7 d   1     -24.043 -15.318 -27.266  0.00  0.00    -0.056 A 
ATOM      3  C12 5N7 d   1     -23.028 -16.269 -27.253  0.00  0.00    -0.075 A 
ATOM      4  C13 5N7 d   1     -23.318 -17.619 -27.205  0.00  0.00    -0.057 A 
ATOM      5  C14 5N7 d   1     -24.638 -18.047 -27.166  0.00  0.00     0.034 A 
ATOM      6  C15 5N7 d   1     -25.658 -17.107 -27.208  0.00  0.00    -0.057 A 
ATOM      7  O1  5N7 d   1     -23.727 -19.851 -25.124  0.00  0.00    -0.273 OA
ATOM      8  O2  5N7 d   1     -30.479 -17.425 -27.935  0.00  0.00    -0.273 OA
ATOM      9  N3  5N7 d   1     -24.966 -19.413 -26.981  0.00  0.00    -0.327 N 
ATOM     10  N4  5N7 d   1     -27.359 -20.851 -24.498  0.00  0.00    -0.067 N 
ATOM     11  N5  5N7 d   1     -29.726 -19.447 -24.861  0.00  0.00    -0.067 N 
ATOM     12  O5  5N7 d   1     -23.845 -11.973 -31.024  0.00  0.00    -0.271 OA
ATOM     13  N6  5N7 d   1     -29.627 -15.587 -26.905  0.00  0.00    -0.327 N 
ATOM     14  N9  5N7 d   1     -24.599 -13.494 -29.550  0.00  0.00    -0.346 N 
ATOM     15  C16 5N7 d   1     -25.358 -15.759 -27.253  0.00  0.00    -0.075 A 
ATOM     16  C17 5N7 d   1     -24.580 -20.186 -25.943  0.00  0.00     0.223 C 
ATOM     17  C18 5N7 d   1     -25.313 -21.498 -25.830  0.00  0.00     0.032 C 
ATOM     18  C19 5N7 d   1     -26.033 -21.565 -24.501  0.00  0.00     0.091 C 
ATOM     19  C20 5N7 d   1     -27.302 -19.382 -24.219  0.00  0.00     0.106 C 
ATOM     20  C21 5N7 d   1     -28.466 -18.691 -24.970  0.00  0.00     0.106 C 
ATOM     21  C22 5N7 d   1     -30.876 -18.740 -25.461  0.00  0.00     0.091 C 
ATOM     22  C23 5N7 d   1     -30.757 -17.226 -25.568  0.00  0.00     0.032 C 
ATOM     23  C24 5N7 d   1     -30.259 -16.776 -26.915  0.00  0.00     0.223 C 
ATOM     24  C25 5N7 d   1     -28.900 -14.976 -27.951  0.00  0.00     0.034 A 
ATOM     25  C26 5N7 d   1     -28.520 -15.638 -29.111  0.00  0.00    -0.057 A 
ATOM     26  C27 5N7 d   1     -27.924 -14.940 -30.145  0.00  0.00    -0.075 A 
ATOM     27  C28 5N7 d   1     -27.713 -13.570 -30.061  0.00  0.00    -0.056 A 
ATOM     28  C29 5N7 d   1     -28.096 -12.921 -28.897  0.00  0.00    -0.075 A 
ATOM     29  C30 5N7 d   1     -28.678 -13.611 -27.851  0.00  0.00    -0.057 A 
ATOM     30  C31 5N7 d   1     -27.115 -12.804 -31.216  0.00  0.00    -0.013 C 
ATOM     31  C32 5N7 d   1     -25.737 -13.304 -31.678  0.00  0.00     0.102 C 
ATOM     32  C39 5N7 d   1     -24.638 -12.861 -30.721  0.00  0.00     0.242 C 
ATOM     33  C40 5N7 d   1     -29.571 -20.762 -25.490  0.00  0.00     0.106 C 
ATOM     34  C41 5N7 d   1     -28.117 -21.079 -25.758  0.00  0.00     0.106 C 
ATOM     35  C   5N7 d   1     -23.475 -13.259 -28.654  0.00  0.00     0.093 C 
ATOM     36  H1  5N7 d   1     -22.827 -13.689 -26.645  0.00  0.00     0.043 H 
ATOM     37  H2  5N7 d   1     -24.577 -13.313 -26.803  0.00  0.00     0.043 H 
ATOM     38  H3  5N7 d   1     -21.994 -15.946 -27.281  0.00  0.00     0.084 H 
ATOM     39  H4  5N7 d   1     -22.513 -18.345 -27.198  0.00  0.00     0.086 H 
ATOM     40  H5  5N7 d   1     -26.692 -17.431 -27.206  0.00  0.00     0.086 H 
ATOM     41  H12 5N7 d   1     -25.535 -19.843 -27.682  0.00  0.00     0.169 HD
ATOM     42  H14 5N7 d   1     -27.894 -21.264 -23.750  0.00  0.00     0.280 HD
ATOM     43  H16 5N7 d   1     -29.922 -19.582 -23.881  0.00  0.00     0.280 HD
ATOM     44  H17 5N7 d   1     -29.679 -15.072 -26.050  0.00  0.00     0.169 HD
ATOM     45  H22 5N7 d   1     -25.332 -14.123 -29.289  0.00  0.00     0.163 HD
ATOM     46  H23 5N7 d   1     -26.164 -15.034 -27.279  0.00  0.00     0.084 H 
ATOM     47  H24 5N7 d   1     -24.593 -22.327 -25.898  0.00  0.00     0.049 H 
ATOM     48  H25 5N7 d   1     -26.045 -21.580 -26.647  0.00  0.00     0.049 H 
ATOM     49  H26 5N7 d   1     -26.207 -22.622 -24.252  0.00  0.00     0.076 H 
ATOM     50  H27 5N7 d   1     -25.390 -21.109 -23.734  0.00  0.00     0.076 H 
ATOM     51  H28 5N7 d   1     -26.342 -18.975 -24.569  0.00  0.00     0.078 H 
ATOM     52  H29 5N7 d   1     -27.402 -19.206 -23.138  0.00  0.00     0.078 H 
ATOM     53  H30 5N7 d   1     -28.617 -17.688 -24.544  0.00  0.00     0.078 H 
ATOM     54  H31 5N7 d   1     -28.198 -18.601 -26.033  0.00  0.00     0.078 H 
ATOM     55  H32 5N7 d   1     -31.763 -18.964 -24.850  0.00  0.00     0.076 H 
ATOM     56  H33 5N7 d   1     -31.021 -19.137 -26.477  0.00  0.00     0.076 H 
ATOM     57  H34 5N7 d   1     -30.056 -16.873 -24.798  0.00  0.00     0.049 H 
ATOM     58  H35 5N7 d   1     -31.748 -16.782 -25.393  0.00  0.00     0.049 H 
ATOM     59  H36 5N7 d   1     -28.691 -16.704 -29.206  0.00  0.00     0.086 H 
ATOM     60  H37 5N7 d   1     -27.616 -15.472 -31.038  0.00  0.00     0.084 H 
ATOM     61  H38 5N7 d   1     -27.936 -11.853 -28.806  0.00  0.00     0.084 H 
ATOM     62  H39 5N7 d   1     -28.962 -13.083 -26.948  0.00  0.00     0.086 H 
ATOM     63  H40 5N7 d   1     -27.013 -11.752 -30.912  0.00  0.00     0.043 H 
ATOM     64  H41 5N7 d   1     -27.807 -12.874 -32.068  0.00  0.00     0.043 H 
ATOM     65  H42 5N7 d   1     -25.759 -14.403 -31.724  0.00  0.00     0.089 H 
ATOM     66  H54 5N7 d   1     -30.120 -20.770 -26.443  0.00  0.00     0.078 H 
ATOM     67  H55 5N7 d   1     -29.987 -21.530 -24.821  0.00  0.00     0.078 H 
ATOM     68  H56 5N7 d   1     -28.015 -22.129 -26.071  0.00  0.00     0.078 H 
ATOM     69  H57 5N7 d   1     -27.731 -20.421 -26.550  0.00  0.00     0.078 H 
ATOM     70  H58 5N7 d   1     -23.363 -12.171 -28.535  0.00  0.00     0.088 H 
ENDROOT
BRANCH  31  71
ATOM     71  N7  5N7 d   1     -25.406 -12.768 -32.997  0.00  0.00    -0.289 N 
ATOM     72  H18 5N7 d   1     -25.080 -11.826 -33.075  0.00  0.00     0.174 HD
BRANCH  71  73
ATOM     73  S   5N7 d   1     -25.555 -13.660 -34.322  0.00  0.00     0.316 S 
ATOM     74  O3  5N7 d   1     -25.350 -12.790 -35.436  0.00  0.00    -0.183 OA
ATOM     75  O4  5N7 d   1     -26.771 -14.399 -34.214  0.00  0.00    -0.183 OA
BRANCH  73  76
ATOM     76  N8  5N7 d   1     -24.357 -14.731 -34.302  0.00  0.00    -0.298 N 
ATOM     77  H20 5N7 d   1     -24.617 -15.687 -34.166  0.00  0.00     0.174 HD
BRANCH  76  78
ATOM     78  C33 5N7 d   1     -22.918 -14.461 -34.462  0.00  0.00     0.021 C 
ATOM     79  C34 5N7 d   1     -22.134 -15.163 -33.360  0.00  0.00    -0.045 C 
ATOM     80  C35 5N7 d   1     -20.628 -14.981 -33.541  0.00  0.00    -0.063 C 
ATOM     81  H44 5N7 d   1     -22.369 -16.237 -33.383  0.00  0.00     0.036 H 
ATOM     82  H45 5N7 d   1     -22.430 -14.743 -32.388  0.00  0.00     0.036 H 
ATOM     83  C36 5N7 d   1     -20.179 -15.451 -34.913  0.00  0.00    -0.065 C 
ATOM     84  H46 5N7 d   1     -20.101 -15.565 -32.772  0.00  0.00     0.033 H 
ATOM     85  H47 5N7 d   1     -20.379 -13.915 -33.428  0.00  0.00     0.033 H 
ATOM     86  C37 5N7 d   1     -20.952 -14.736 -36.003  0.00  0.00    -0.063 C 
ATOM     87  H48 5N7 d   1     -20.352 -16.534 -34.998  0.00  0.00     0.033 H 
ATOM     88  H49 5N7 d   1     -19.106 -15.241 -35.034  0.00  0.00     0.033 H 
ATOM     89  C38 5N7 d   1     -22.456 -14.932 -35.831  0.00  0.00    -0.045 C 
ATOM     90  H50 5N7 d   1     -20.647 -15.137 -36.981  0.00  0.00     0.033 H 
ATOM     91  H51 5N7 d   1     -20.723 -13.661 -35.960  0.00  0.00     0.033 H 
ATOM     92  H52 5N7 d   1     -22.984 -14.356 -36.606  0.00  0.00     0.036 H 
ATOM     93  H53 5N7 d   1     -22.694 -16.000 -35.942  0.00  0.00     0.036 H 
ATOM     94  H43 5N7 d   1     -22.747 -13.377 -34.383  0.00  0.00     0.073 H 
ENDBRANCH  76  78
ENDBRANCH  73  76
ENDBRANCH  71  73
ENDBRANCH  31  71
BRANCH  35  95
ATOM     95  C1  5N7 d   1     -22.190 -13.789 -29.286  0.00  0.00     0.241 C 
ATOM     96  N   5N7 d   1     -21.096 -13.077 -29.027  0.00  0.00    -0.355 N 
ATOM     97  H59 5N7 d   1     -21.136 -12.384 -28.307  0.00  0.00     0.162 HD
ATOM     98  O   5N7 d   1     -22.211 -14.773 -30.034  0.00  0.00    -0.271 OA
BRANCH  96  99
ATOM     99  C2  5N7 d   1     -19.843 -13.262 -29.745  0.00  0.00     0.019 C 
ATOM    100  H8  5N7 d   1     -19.020 -13.340 -29.019  0.00  0.00     0.071 H 
ATOM    101  H9  5N7 d   1     -19.900 -14.188 -30.336  0.00  0.00     0.071 H 
BRANCH  99 102
ATOM    102  C3  5N7 d   1     -19.577 -12.099 -30.671  0.00  0.00    -0.040 A 
ATOM    103  C4  5N7 d   1     -18.492 -11.254 -30.479  0.00  0.00    -0.074 A 
ATOM    104  C5  5N7 d   1     -18.284 -10.165 -31.304  0.00  0.00    -0.069 A 
ATOM    105  H13 5N7 d   1     -17.798 -11.451 -29.670  0.00  0.00     0.084 H 
ATOM    106  C6  5N7 d   1     -19.159  -9.894 -32.359  0.00  0.00     0.007 A 
ATOM    107  H15 5N7 d   1     -17.434  -9.515 -31.131  0.00  0.00     0.085 H 
ATOM    108  C8  5N7 d   1     -20.242 -10.746 -32.555  0.00  0.00    -0.069 A 
ATOM    109  C9  5N7 d   1     -20.444 -11.831 -31.724  0.00  0.00    -0.074 A 
ATOM    110  H19 5N7 d   1     -20.934 -10.556 -33.368  0.00  0.00     0.085 H 
ATOM    111  H21 5N7 d   1     -21.292 -12.484 -31.896  0.00  0.00     0.084 H 
BRANCH 106 112
ATOM    112  C7  5N7 d   1     -18.944  -8.727 -33.231  0.00  0.00     0.102 C 
BRANCH 112 113
ATOM    113  N1  5N7 d   1     -18.238  -7.707 -32.802  0.00  0.00    -0.385 N 
ATOM    114  H6  5N7 d   1     -17.835  -7.722 -31.854  0.00  0.00     0.157 HD
ATOM    115  H7  5N7 d   1     -18.087  -6.892 -33.413  0.00  0.00     0.157 HD
ENDBRANCH 112 113
BRANCH 112 116
ATOM    116  N2  5N7 d   1     -19.456  -8.705 -34.441  0.00  0.00    -0.385 N 
ATOM    117  H10 5N7 d   1     -20.010  -9.504 -34.780  0.00  0.00     0.157 HD
ATOM    118  H11 5N7 d   1     -19.303  -7.889 -35.050  0.00  0.00     0.157 HD
ENDBRANCH 112 116
ENDBRANCH 106 112
ENDBRANCH  99 102
ENDBRANCH  96  99
ENDBRANCH  35  95
TORSDOF 10
