REMARK  9 active torsions:
REMARK  status: ('A' for Active; 'I' for Inactive)
REMARK    1  A    between atoms: C15_10  and  C03_2 
REMARK    2  A    between atoms: C06_4  and  O07_5 
REMARK    3  A    between atoms: C09_6  and  O10_7 
REMARK    4  A    between atoms: C12_8  and  O13_9 
REMARK       I    between atoms: N17_12  and  C15_10 
REMARK    5  A    between atoms: N18_13  and  N17_12 
REMARK    6  A    between atoms: C30_20  and  C19_14 
REMARK    7  A    between atoms: C22_15  and  O23_16 
REMARK    8  A    between atoms: C25_17  and  O26_18 
REMARK    9  A    between atoms: C33_22  and  O34_23 
ROOT
ATOM      1  C15 GK0 d   1     -29.491  17.391  -6.107  0.00  0.00     0.271 C 
ATOM      2  O16 GK0 d   1     -29.789  18.566  -5.957  0.00  0.00    -0.266 OA
ATOM      3  N17 GK0 d   1     -30.366  16.425  -6.686  0.00  0.00    -0.243 N 
ATOM      4  H6  GK0 d   1     -30.044  15.479  -6.719  0.00  0.00     0.192 HD
ENDROOT
BRANCH   3   5
ATOM      5  N18 GK0 d   1     -31.635  16.687  -7.212  0.00  0.00    -0.183 NA
ATOM      6  C19 GK0 d   1     -32.604  17.347  -6.602  0.00  0.00     0.032 C 
ATOM      7  H7  GK0 d   1     -32.459  17.791  -5.619  0.00  0.00     0.118 H 
BRANCH   6   8
ATOM      8  C30 GK0 d   1     -33.942  17.458  -7.343  0.00  0.00    -0.012 A 
ATOM      9  C28 GK0 d   1     -35.051  18.072  -6.744  0.00  0.00    -0.037 A 
ATOM     10  C25 GK0 d   1     -36.279  18.135  -7.434  0.00  0.00     0.102 A 
ATOM     11  H10 GK0 d   1     -34.964  18.498  -5.751  0.00  0.00     0.089 H 
ATOM     12  C22 GK0 d   1     -36.407  17.576  -8.713  0.00  0.00     0.132 A 
ATOM     13  C33 GK0 d   1     -35.301  16.957  -9.291  0.00  0.00     0.102 A 
ATOM     14  C31 GK0 d   1     -34.078  16.887  -8.619  0.00  0.00    -0.037 A 
ATOM     15  H11 GK0 d   1     -33.233  16.391  -9.083  0.00  0.00     0.089 H 
BRANCH  10  16
ATOM     16  O26 GK0 d   1     -37.397  18.767  -6.847  0.00  0.00    -0.358 OA
ATOM     17  H9  GK0 d   1     -37.159  19.094  -5.987  0.00  0.00     0.217 HD
ENDBRANCH  10  16
BRANCH  12  18
ATOM     18  O23 GK0 d   1     -37.640  17.643  -9.406  0.00  0.00    -0.356 OA
ATOM     19  H8  GK0 d   1     -37.550  17.218 -10.251  0.00  0.00     0.218 HD
ENDBRANCH  12  18
BRANCH  13  20
ATOM     20  O34 GK0 d   1     -35.398  16.395 -10.567  0.00  0.00    -0.358 OA
ATOM     21  H12 GK0 d   1     -36.280  16.516 -10.899  0.00  0.00     0.217 HD
ENDBRANCH  13  20
ENDBRANCH   6   8
ENDBRANCH   3   5
BRANCH   1  22
ATOM     22  C03 GK0 d   1     -28.166  16.871  -5.554  0.00  0.00     0.039 A 
ATOM     23  C01 GK0 d   1     -26.903  17.297  -5.988  0.00  0.00    -0.033 A 
ATOM     24  C12 GK0 d   1     -25.786  16.744  -5.370  0.00  0.00     0.102 A 
ATOM     25  H1  GK0 d   1     -26.800  18.032  -6.778  0.00  0.00     0.089 H 
ATOM     26  C09 GK0 d   1     -25.965  15.824  -4.370  0.00  0.00     0.132 A 
ATOM     27  C06 GK0 d   1     -27.199  15.395  -3.914  0.00  0.00     0.102 A 
ATOM     28  C04 GK0 d   1     -28.311  15.933  -4.519  0.00  0.00    -0.033 A 
ATOM     29  H2  GK0 d   1     -29.301  15.632  -4.196  0.00  0.00     0.089 H 
BRANCH  24  30
ATOM     30  O13 GK0 d   1     -24.438  17.053  -5.655  0.00  0.00    -0.358 OA
ATOM     31  H5  GK0 d   1     -24.025  17.409  -4.877  0.00  0.00     0.217 HD
ENDBRANCH  24  30
BRANCH  26  32
ATOM     32  O10 GK0 d   1     -24.821  15.377  -3.812  0.00  0.00    -0.356 OA
ATOM     33  H4  GK0 d   1     -24.079  15.777  -4.250  0.00  0.00     0.218 HD
ENDBRANCH  26  32
BRANCH  27  34
ATOM     34  O07 GK0 d   1     -27.308  14.454  -2.856  0.00  0.00    -0.358 OA
ATOM     35  H3  GK0 d   1     -26.439  14.199  -2.570  0.00  0.00     0.217 HD
ENDBRANCH  27  34
ENDBRANCH   1  22
TORSDOF 9
