REMARK  5 active torsions:
REMARK  status: ('A' for Active; 'I' for Inactive)
REMARK    1  A    between atoms: N11_14  and  C14_2 
REMARK    2  A    between atoms: C14_2  and  C15_15 
REMARK    3  A    between atoms: C7_5  and  C8_6 
REMARK    4  A    between atoms: C2_13  and  C7_5 
REMARK    5  A    between atoms: C15_15  and  N16_16 
ROOT
ATOM      1  C8  5NR d   1       7.277 -16.464   7.371  0.00  0.00    -0.047 C 
ATOM      2  C9  5NR d   1       8.523 -15.574   7.528  0.00  0.00    -0.039 C 
ATOM      3  C10 5NR d   1       9.806 -16.212   8.007  0.00  0.00     0.084 C 
ATOM      4  C12 5NR d   1       8.578 -18.301   8.468  0.00  0.00     0.084 C 
ATOM      5  C13 5NR d   1       7.243 -17.621   8.408  0.00  0.00    -0.039 C 
ATOM      6  N11 5NR d   1       9.591 -17.331   8.942  0.00  0.00    -0.070 N 
ATOM      7  H8  5NR d   1       6.375 -15.851   7.514  0.00  0.00     0.040 H 
ATOM      8  H9  5NR d   1       8.267 -14.780   8.245  0.00  0.00     0.035 H 
ATOM      9  H10 5NR d   1       8.730 -15.127   6.544  0.00  0.00     0.035 H 
ATOM     10  H11 5NR d   1      10.409 -15.444   8.515  0.00  0.00     0.076 H 
ATOM     11  H12 5NR d   1      10.355 -16.590   7.132  0.00  0.00     0.076 H 
ATOM     12  H13 5NR d   1       8.854 -18.662   7.466  0.00  0.00     0.076 H 
ATOM     13  H14 5NR d   1       8.528 -19.152   9.164  0.00  0.00     0.076 H 
ATOM     14  H15 5NR d   1       6.476 -18.352   8.112  0.00  0.00     0.035 H 
ATOM     15  H16 5NR d   1       6.998 -17.213   9.400  0.00  0.00     0.035 H 
ATOM     16  H19 5NR d   1       9.238 -16.937   9.800  0.00  0.00     0.279 HD
ENDROOT
BRANCH   1  17
ATOM     17  C7  5NR d   1       7.306 -16.991   5.945  0.00  0.00    -0.038 C 
ATOM     18  H6  5NR d   1       6.367 -17.521   5.730  0.00  0.00     0.040 H 
ATOM     19  H7  5NR d   1       8.153 -17.682   5.825  0.00  0.00     0.040 H 
BRANCH  17  20
ATOM     20  C2  5NR d   1       7.464 -15.812   4.974  0.00  0.00    -0.058 A 
ATOM     21  C3  5NR d   1       8.631 -15.655   4.238  0.00  0.00    -0.077 A 
ATOM     22  C4  5NR d   1       8.741 -14.566   3.400  0.00  0.00    -0.082 A 
ATOM     23  H17 5NR d   1       9.438 -16.374   4.321  0.00  0.00     0.084 H 
ATOM     24  C5  5NR d   1       7.716 -13.623   3.282  0.00  0.00    -0.083 A 
ATOM     25  H1  5NR d   1       9.646 -14.438   2.817  0.00  0.00     0.083 H 
ATOM     26  C6  5NR d   1       6.565 -13.768   4.022  0.00  0.00    -0.082 A 
ATOM     27  H4  5NR d   1       7.827 -12.780   2.610  0.00  0.00     0.083 H 
ATOM     28  C1  5NR d   1       6.461 -14.863   4.883  0.00  0.00    -0.077 A 
ATOM     29  H5  5NR d   1       5.758 -13.049   3.939  0.00  0.00     0.083 H 
ATOM     30  H18 5NR d   1       5.573 -14.972   5.495  0.00  0.00     0.084 H 
ENDBRANCH  17  20
ENDBRANCH   1  17
BRANCH   6  31
ATOM     31  C14 5NR d   1      10.891 -17.996   9.258  0.00  0.00     0.105 C 
ATOM     32  H2  5NR d   1      10.721 -18.738  10.052  0.00  0.00     0.078 H 
ATOM     33  H3  5NR d   1      11.598 -17.232   9.615  0.00  0.00     0.078 H 
BRANCH  31  34
ATOM     34  C15 5NR d   1      11.501 -18.697   8.067  0.00  0.00     0.102 C 
ATOM     35  H20 5NR d   1      11.733 -17.959   7.285  0.00  0.00     0.077 H 
ATOM     36  H21 5NR d   1      10.789 -19.437   7.673  0.00  0.00     0.077 H 
BRANCH  34  37
ATOM     37  N16 5NR d   1      12.737 -19.377   8.481  0.00  0.00    -0.078 N 
ATOM     38  H22 5NR d   1      13.145 -19.845   7.687  0.00  0.00     0.274 HD
ATOM     39  H23 5NR d   1      12.524 -20.054   9.197  0.00  0.00     0.274 HD
ATOM     40  H24 5NR d   1      13.389 -18.698   8.842  0.00  0.00     0.274 HD
ENDBRANCH  34  37
ENDBRANCH  31  34
ENDBRANCH   6  31
TORSDOF 5
