REMARK  11 active torsions:
REMARK  status: ('A' for Active; 'I' for Inactive)
REMARK    1  A    between atoms: C7_4  and  C11_8 
REMARK    2  A    between atoms: C9_6  and  O_27 
REMARK    3  A    between atoms: O_27  and  C10_7 
REMARK    4  A    between atoms: C18_12  and  C19_13 
REMARK    5  A    between atoms: N6_17  and  C18_12 
REMARK    6  A    between atoms: C19_13  and  C20_14 
REMARK    7  A    between atoms: C19_13  and  C21_15 
REMARK    8  A    between atoms: C19_13  and  C22_16 
REMARK    9  A    between atoms: C17_18  and  N6_17 
REMARK   10  A    between atoms: N2_25  and  C4_26 
REMARK   11  A    between atoms: N4_29  and  C14_30 
ROOT
ATOM      1  C1  5NW d   1       1.095 -33.566 -11.999  0.00  0.00     0.017 A 
ATOM      2  N5  5NW d   1       2.212 -35.406 -13.796  0.00  0.00    -0.241 NA
ATOM      3  C15 5NW d   1       1.855 -33.151 -13.117  0.00  0.00    -0.052 A 
ATOM      4  C17 5NW d   1       1.503 -35.842 -12.752  0.00  0.00     0.153 A 
ATOM      5  C16 5NW d   1       2.372 -34.085 -13.957  0.00  0.00     0.005 A 
ATOM      6  C   5NW d   1       0.891 -34.949 -11.779  0.00  0.00     0.133 A 
ATOM      7  N1  5NW d   1       0.167 -35.419 -10.727  0.00  0.00    -0.058 NA
ATOM      8  C3  5NW d   1      -0.344 -34.381  -9.897  0.00  0.00     0.727 A 
ATOM      9  N   5NW d   1      -0.200 -33.054 -10.026  0.00  0.00    -0.074 NA
ATOM     10  C2  5NW d   1       0.511 -32.681 -11.066  0.00  0.00     0.033 A 
ATOM     11  N2  5NW d   1      -1.070 -34.810  -8.837  0.00  0.00    -0.185 N 
ATOM     12  H8  5NW d   1       2.024 -32.096 -13.302  0.00  0.00     0.087 H 
ATOM     13  H21 5NW d   1       2.948 -33.742 -14.808  0.00  0.00     0.114 H 
ATOM     14  H22 5NW d   1       0.660 -31.618 -11.219  0.00  0.00     0.117 H 
ATOM     15  H23 5NW d   1      -1.448 -34.081  -8.215  0.00  0.00     0.184 HD
ENDROOT
BRANCH  11  16
ATOM     16  C4  5NW d   1      -1.362 -36.125  -8.495  0.00  0.00     0.082 A 
ATOM     17  C9  5NW d   1      -1.541 -36.442  -7.148  0.00  0.00     0.096 A 
ATOM     18  C8  5NW d   1      -1.868 -37.732  -6.767  0.00  0.00    -0.038 A 
ATOM     19  C7  5NW d   1      -2.021 -38.724  -7.729  0.00  0.00    -0.020 A 
ATOM     20  H2  5NW d   1      -2.005 -37.969  -5.718  0.00  0.00     0.089 H 
ATOM     21  C6  5NW d   1      -1.827 -38.410  -9.069  0.00  0.00    -0.070 A 
ATOM     22  C5  5NW d   1      -1.501 -37.125  -9.453  0.00  0.00    -0.053 A 
ATOM     23  H1  5NW d   1      -1.933 -39.183  -9.821  0.00  0.00     0.084 H 
ATOM     24  H24 5NW d   1      -1.353 -36.894 -10.502  0.00  0.00     0.087 H 
BRANCH  17  25
ATOM     25  O   5NW d   1      -1.369 -35.390  -6.290  0.00  0.00    -0.354 OA
BRANCH  25  26
ATOM     26  C10 5NW d   1      -1.537 -35.623  -4.892  0.00  0.00     0.010 C 
ATOM     27  H3  5NW d   1      -1.366 -34.686  -4.341  0.00  0.00     0.066 H 
ATOM     28  H4  5NW d   1      -0.815 -36.382  -4.557  0.00  0.00     0.066 H 
ATOM     29  H5  5NW d   1      -2.559 -35.980  -4.700  0.00  0.00     0.066 H 
ENDBRANCH  25  26
ENDBRANCH  17  25
BRANCH  19  30
ATOM     30  C11 5NW d   1      -2.427 -40.092  -7.313  0.00  0.00     0.011 A 
ATOM     31  C12 5NW d   1      -3.264 -40.433  -6.197  0.00  0.00     0.034 A 
ATOM     32  N3  5NW d   1      -3.434 -41.742  -6.135  0.00  0.00    -0.185 NA
ATOM     33  H6  5NW d   1      -3.697 -39.715  -5.501  0.00  0.00     0.118 H 
ATOM     34  N4  5NW d   1      -2.716 -42.251  -7.197  0.00  0.00    -0.285 N 
ATOM     35  C13 5NW d   1      -2.112 -41.289  -7.904  0.00  0.00     0.010 A 
ATOM     36  H7  5NW d   1      -1.487 -41.430  -8.784  0.00  0.00     0.115 H 
BRANCH  34  37
ATOM     37  C14 5NW d   1      -2.679 -43.688  -7.437  0.00  0.00     0.002 C 
ATOM     38  H25 5NW d   1      -3.281 -44.203  -6.674  0.00  0.00     0.059 H 
ATOM     39  H26 5NW d   1      -1.639 -44.042  -7.384  0.00  0.00     0.059 H 
ATOM     40  H27 5NW d   1      -3.089 -43.904  -8.435  0.00  0.00     0.059 H 
ENDBRANCH  34  37
ENDBRANCH  19  30
ENDBRANCH  11  16
BRANCH   4  41
ATOM     41  N6  5NW d   1       1.332 -37.187 -12.559  0.00  0.00    -0.372 N 
ATOM     42  H20 5NW d   1       0.787 -37.513 -11.748  0.00  0.00     0.161 HD
BRANCH  41  43
ATOM     43  C18 5NW d   1       1.903 -38.168 -13.473  0.00  0.00     0.000 C 
ATOM     44  H9  5NW d   1       1.960 -37.730 -14.480  0.00  0.00     0.065 H 
ATOM     45  H10 5NW d   1       2.914 -38.432 -13.130  0.00  0.00     0.065 H 
BRANCH  43  46
ATOM     46  C19 5NW d   1       1.040 -39.446 -13.527  0.00  0.00    -0.035 C 
BRANCH  46  47
ATOM     47  C20 5NW d   1      -0.276 -39.147 -14.235  0.00  0.00    -0.068 C 
ATOM     48  H11 5NW d   1      -0.888 -40.060 -14.272  0.00  0.00     0.028 H 
ATOM     49  H12 5NW d   1      -0.071 -38.802 -15.259  0.00  0.00     0.028 H 
ATOM     50  H13 5NW d   1      -0.818 -38.364 -13.685  0.00  0.00     0.028 H 
ENDBRANCH  46  47
BRANCH  46  51
ATOM     51  C21 5NW d   1       0.750 -39.923 -12.109  0.00  0.00    -0.068 C 
ATOM     52  H14 5NW d   1       1.698 -40.140 -11.594  0.00  0.00     0.028 H 
ATOM     53  H15 5NW d   1       0.136 -40.835 -12.147  0.00  0.00     0.028 H 
ATOM     54  H16 5NW d   1       0.207 -39.138 -11.562  0.00  0.00     0.028 H 
ENDBRANCH  46  51
BRANCH  46  55
ATOM     55  C22 5NW d   1       1.782 -40.541 -14.285  0.00  0.00    -0.068 C 
ATOM     56  H17 5NW d   1       1.993 -40.200 -15.309  0.00  0.00     0.028 H 
ATOM     57  H18 5NW d   1       1.160 -41.448 -14.322  0.00  0.00     0.028 H 
ATOM     58  H19 5NW d   1       2.728 -40.766 -13.771  0.00  0.00     0.028 H 
ENDBRANCH  46  55
ENDBRANCH  43  46
ENDBRANCH  41  43
ENDBRANCH   4  41
TORSDOF 11
