REMARK  9 active torsions:
REMARK  status: ('A' for Active; 'I' for Inactive)
REMARK    1  A    between atoms: C4_3  and  S7_4 
REMARK    2  A    between atoms: S7_4  and  N10_6 
REMARK    3  A    between atoms: C6_12  and  N26_20 
REMARK    4  A    between atoms: C1_13  and  S11_14 
REMARK    5  A    between atoms: S11_14  and  C21_17 
REMARK    6  A    between atoms: C21_17  and  C24_18 
REMARK    7  A    between atoms: C24_18  and  O25_19 
REMARK    8  A    between atoms: N26_20  and  C14_21 
REMARK    9  A    between atoms: C14_21  and  C15_22 
ROOT
ATOM      1  F27 WWO d   1      14.313   5.138  15.060  0.00  0.00    -0.202 F 
ATOM      2  C5  WWO d   1      15.628   5.330  15.094  0.00  0.00     0.170 A 
ATOM      3  C4  WWO d   1      16.349   4.349  15.839  0.00  0.00     0.161 A 
ATOM      4  C3  WWO d   1      17.756   4.458  15.879  0.00  0.00     0.182 A 
ATOM      5  F12 WWO d   1      18.485   3.514  16.548  0.00  0.00    -0.201 F 
ATOM      6  C2  WWO d   1      18.407   5.530  15.234  0.00  0.00     0.180 A 
ATOM      7  F13 WWO d   1      19.791   5.653  15.281  0.00  0.00    -0.201 F 
ATOM      8  C6  WWO d   1      16.257   6.436  14.439  0.00  0.00     0.094 A 
ATOM      9  C1  WWO d   1      17.687   6.501  14.509  0.00  0.00     0.130 A 
ENDROOT
BRANCH   8  10
ATOM     10  N26 WWO d   1      15.555   7.423  13.692  0.00  0.00    -0.382 N 
ATOM     11  H8  WWO d   1      15.511   8.365  14.107  0.00  0.00     0.160 HD
BRANCH  10  12
ATOM     12  C14 WWO d   1      14.890   7.251  12.404  0.00  0.00     0.017 C 
ATOM     13  H9  WWO d   1      13.810   7.209  12.607  0.00  0.00     0.071 H 
ATOM     14  H10 WWO d   1      15.225   6.284  12.000  0.00  0.00     0.071 H 
BRANCH  12  15
ATOM     15  C15 WWO d   1      15.089   8.272  11.312  0.00  0.00    -0.041 A 
ATOM     16  C20 WWO d   1      16.183   8.158  10.408  0.00  0.00    -0.075 A 
ATOM     17  C19 WWO d   1      16.396   9.090   9.368  0.00  0.00    -0.082 A 
ATOM     18  H11 WWO d   1      16.874   7.330  10.521  0.00  0.00     0.084 H 
ATOM     19  C18 WWO d   1      15.487  10.155   9.211  0.00  0.00    -0.083 A 
ATOM     20  H12 WWO d   1      17.245   8.988   8.702  0.00  0.00     0.083 H 
ATOM     21  C17 WWO d   1      14.388  10.262  10.088  0.00  0.00    -0.082 A 
ATOM     22  H13 WWO d   1      15.631  10.886   8.423  0.00  0.00     0.083 H 
ATOM     23  C16 WWO d   1      14.184   9.337  11.141  0.00  0.00    -0.075 A 
ATOM     24  H14 WWO d   1      13.681  11.073   9.953  0.00  0.00     0.083 H 
ATOM     25  H15 WWO d   1      13.338   9.448  11.810  0.00  0.00     0.084 H 
ENDBRANCH  12  15
ENDBRANCH  10  12
ENDBRANCH   8  10
BRANCH   9  26
ATOM     26  S11 WWO d   1      18.694   7.839  13.806  0.00  0.00     0.182 S 
ATOM     27  O22 WWO d   1      17.749   8.711  12.939  0.00  0.00    -0.222 OA
ATOM     28  O23 WWO d   1      19.531   7.198  12.648  0.00  0.00    -0.222 OA
BRANCH  26  29
ATOM     29  C21 WWO d   1      19.646   9.069  14.756  0.00  0.00     0.053 C 
ATOM     30  H3  WWO d   1      20.372   8.528  15.381  0.00  0.00     0.059 H 
ATOM     31  H4  WWO d   1      18.944   9.618  15.401  0.00  0.00     0.059 H 
BRANCH  29  32
ATOM     32  C24 WWO d   1      20.413  10.089  13.918  0.00  0.00     0.029 C 
ATOM     33  H5  WWO d   1      20.025  10.077  12.889  0.00  0.00     0.075 H 
ATOM     34  H6  WWO d   1      21.480   9.822  13.911  0.00  0.00     0.075 H 
BRANCH  32  35
ATOM     35  O25 WWO d   1      20.263  11.371  14.451  0.00  0.00    -0.400 OA
ATOM     36  H7  WWO d   1      20.746  11.992  13.919  0.00  0.00     0.209 HD
ENDBRANCH  32  35
ENDBRANCH  29  32
ENDBRANCH  26  29
ENDBRANCH   9  26
BRANCH   3  37
ATOM     37  S7  WWO d   1      15.474   2.991  16.699  0.00  0.00     0.263 S 
ATOM     38  O9  WWO d   1      13.906   2.974  16.609  0.00  0.00    -0.201 OA
ATOM     39  O8  WWO d   1      15.760   2.713  18.156  0.00  0.00    -0.201 OA
BRANCH  37  40
ATOM     40  N10 WWO d   1      15.701   1.508  15.943  0.00  0.00    -0.324 N 
ATOM     41  H1  WWO d   1      15.273   0.685  16.317  0.00  0.00     0.169 HD
ATOM     42  H2  WWO d   1      16.264   1.448  15.119  0.00  0.00     0.169 HD
ENDBRANCH  37  40
ENDBRANCH   3  37
TORSDOF 9
