REMARK  7 active torsions:
REMARK  status: ('A' for Active; 'I' for Inactive)
REMARK    1  A    between atoms: N1_26  and  C5_3 
REMARK       I    between atoms: C6_4  and  N1_26 
REMARK       I    between atoms: N2_31  and  C6_4 
REMARK    2  A    between atoms: S_9  and  O3_18 
REMARK    3  A    between atoms: C11_23  and  S_9 
REMARK    4  A    between atoms: C15_19  and  C16_15 
REMARK    5  A    between atoms: O3_18  and  C12_24 
REMARK    6  A    between atoms: C7_25  and  N2_31 
REMARK    7  A    between atoms: C_30  and  N_28 
ROOT
ATOM      1  C9  5O0 d   1      28.148  50.459  -5.068  0.00  0.00    -0.079 A 
ATOM      2  C19 5O0 d   1      25.432  51.155  -5.217  0.00  0.00    -0.034 A 
ATOM      3  C8  5O0 d   1      27.541  50.594  -6.328  0.00  0.00    -0.057 A 
ATOM      4  C10 5O0 d   1      27.396  50.667  -3.897  0.00  0.00    -0.060 A 
ATOM      5  C11 5O0 d   1      26.012  51.016  -3.950  0.00  0.00     0.089 A 
ATOM      6  C7  5O0 d   1      26.172  50.950  -6.403  0.00  0.00     0.037 A 
ATOM      7  H4  5O0 d   1      29.197  50.194  -4.998  0.00  0.00     0.083 H 
ATOM      8  H8  5O0 d   1      24.385  51.428  -5.290  0.00  0.00     0.089 H 
ATOM      9  H10 5O0 d   1      28.114  50.428  -7.233  0.00  0.00     0.086 H 
ATOM     10  H11 5O0 d   1      27.878  50.560  -2.932  0.00  0.00     0.085 H 
ENDROOT
BRANCH   6  11
ATOM     11  N2  5O0 d   1      25.527  51.140  -7.662  0.00  0.00    -0.309 N 
ATOM     12  C6  5O0 d   1      24.173  50.822  -7.929  0.00  0.00     0.325 C 
ATOM     13  N1  5O0 d   1      23.900  50.883  -9.273  0.00  0.00    -0.307 N 
ATOM     14  O   5O0 d   1      23.316  50.546  -7.061  0.00  0.00    -0.247 OA
ATOM     15  H12 5O0 d   1      24.637  51.143  -9.897  0.00  0.00     0.170 HD
ATOM     16  H15 5O0 d   1      26.070  51.525  -8.409  0.00  0.00     0.170 HD
BRANCH  13  17
ATOM     17  C5  5O0 d   1      22.619  50.594  -9.821  0.00  0.00     0.062 A 
ATOM     18  C4  5O0 d   1      21.467  51.316  -9.443  0.00  0.00    -0.053 A 
ATOM     19  C3  5O0 d   1      20.253  51.048 -10.057  0.00  0.00    -0.060 A 
ATOM     20  H2  5O0 d   1      21.531  52.078  -8.675  0.00  0.00     0.087 H 
ATOM     21  C2  5O0 d   1      20.227  50.070 -11.043  0.00  0.00     0.036 A 
ATOM     22  H1  5O0 d   1      19.354  51.584  -9.777  0.00  0.00     0.086 H 
ATOM     23  C1  5O0 d   1      21.313  49.298 -11.444  0.00  0.00    -0.035 A 
ATOM     24 CL   5O0 d   1      18.778  49.884 -11.906  0.00  0.00    -0.084 Cl
ATOM     25  C   5O0 d   1      22.556  49.560 -10.821  0.00  0.00     0.054 A 
ATOM     26  H3  5O0 d   1      21.211  48.529 -12.201  0.00  0.00     0.089 H 
BRANCH  25  27
ATOM     27  N   5O0 d   1      23.685  48.828 -11.173  0.00  0.00    -0.397 N 
ATOM     28  H13 5O0 d   1      24.588  49.022 -10.717  0.00  0.00     0.156 HD
ATOM     29  H14 5O0 d   1      23.618  48.092 -11.890  0.00  0.00     0.156 HD
ENDBRANCH  25  27
ENDBRANCH  13  17
ENDBRANCH   6  11
BRANCH   5  30
ATOM     30  S   5O0 d   1      25.083  51.206  -2.582  0.00  0.00     0.303 S 
ATOM     31  O1  5O0 d   1      23.711  51.075  -2.880  0.00  0.00    -0.193 OA
ATOM     32  O2  5O0 d   1      25.691  50.512  -1.511  0.00  0.00    -0.193 OA
BRANCH  30  33
ATOM     33  O3  5O0 d   1      25.123  52.802  -2.251  0.00  0.00    -0.229 OA
BRANCH  33  34
ATOM     34  C12 5O0 d   1      26.135  53.671  -1.997  0.00  0.00     0.089 A 
ATOM     35  C13 5O0 d   1      27.110  53.312  -1.032  0.00  0.00    -0.048 A 
ATOM     36  C14 5O0 d   1      28.116  54.246  -0.724  0.00  0.00    -0.064 A 
ATOM     37  H5  5O0 d   1      27.081  52.344  -0.545  0.00  0.00     0.087 H 
ATOM     38  C15 5O0 d   1      28.141  55.519  -1.370  0.00  0.00     0.041 A 
ATOM     39  H9  5O0 d   1      28.876  53.998   0.008  0.00  0.00     0.085 H 
ATOM     40  C17 5O0 d   1      27.150  55.859  -2.340  0.00  0.00    -0.064 A 
ATOM     41  C18 5O0 d   1      26.138  54.931  -2.665  0.00  0.00    -0.048 A 
ATOM     42  H7  5O0 d   1      27.175  56.828  -2.826  0.00  0.00     0.085 H 
ATOM     43  H6  5O0 d   1      25.382  55.170  -3.404  0.00  0.00     0.087 H 
BRANCH  38  44
ATOM     44  C16 5O0 d   1      29.178  56.528  -1.062  0.00  0.00     0.209 C 
ATOM     45  O5  5O0 d   1      30.098  56.155  -0.126  0.00  0.00    -0.644 OA
ATOM     46  O4  5O0 d   1      29.280  57.648  -1.561  0.00  0.00    -0.644 OA
ENDBRANCH  38  44
ENDBRANCH  33  34
ENDBRANCH  30  33
ENDBRANCH   5  30
TORSDOF 7
