REMARK  7 active torsions:
REMARK  status: ('A' for Active; 'I' for Inactive)
REMARK    1  A    between atoms: N1_25  and  C5_5 
REMARK       I    between atoms: C6_6  and  N1_25 
REMARK       I    between atoms: N2_29  and  C6_6 
REMARK    2  A    between atoms: C7_7  and  N2_29 
REMARK    3  A    between atoms: S_26  and  C11_11 
REMARK    4  A    between atoms: N3_22  and  C12_12 
REMARK    5  A    between atoms: C15_15  and  C16_16 
REMARK    6  A    between atoms: C_21  and  N_23 
REMARK    7  A    between atoms: N3_22  and  S_26 
ROOT
ATOM      1  C7  5O3 d   1      56.957  41.417   5.856  0.00  0.00     0.037 A 
ATOM      2  C8  5O3 d   1      58.337  41.694   5.834  0.00  0.00    -0.057 A 
ATOM      3  C9  5O3 d   1      58.984  41.990   4.629  0.00  0.00    -0.079 A 
ATOM      4  C10 5O3 d   1      58.258  42.038   3.409  0.00  0.00    -0.060 A 
ATOM      5  C11 5O3 d   1      56.858  41.754   3.413  0.00  0.00     0.082 A 
ATOM      6  C19 5O3 d   1      56.230  41.424   4.656  0.00  0.00    -0.035 A 
ATOM      7  H4  5O3 d   1      58.903  41.678   6.758  0.00  0.00     0.086 H 
ATOM      8  H5  5O3 d   1      60.050  42.185   4.627  0.00  0.00     0.083 H 
ATOM      9  H6  5O3 d   1      58.762  42.288   2.483  0.00  0.00     0.085 H 
ATOM     10  H11 5O3 d   1      55.175  41.175   4.671  0.00  0.00     0.089 H 
ENDROOT
BRANCH   1  11
ATOM     11  N2  5O3 d   1      56.325  41.334   7.090  0.00  0.00    -0.309 N 
ATOM     12  C6  5O3 d   1      54.964  41.472   7.399  0.00  0.00     0.325 C 
ATOM     13  O   5O3 d   1      54.057  41.516   6.552  0.00  0.00    -0.247 OA
ATOM     14  N1  5O3 d   1      54.749  41.469   8.754  0.00  0.00    -0.307 N 
ATOM     15  H15 5O3 d   1      55.539  41.335   9.353  0.00  0.00     0.170 HD
ATOM     16  H16 5O3 d   1      56.925  41.150   7.868  0.00  0.00     0.170 HD
BRANCH  14  17
ATOM     17  C5  5O3 d   1      53.478  41.644   9.361  0.00  0.00     0.062 A 
ATOM     18  C4  5O3 d   1      52.346  40.976   8.910  0.00  0.00    -0.053 A 
ATOM     19  C3  5O3 d   1      51.120  41.223   9.545  0.00  0.00    -0.060 A 
ATOM     20  H3  5O3 d   1      52.409  40.278   8.083  0.00  0.00     0.087 H 
ATOM     21  C2  5O3 d   1      51.067  42.103  10.595  0.00  0.00     0.036 A 
ATOM     22  H2  5O3 d   1      50.220  40.721   9.208  0.00  0.00     0.086 H 
ATOM     23  C1  5O3 d   1      52.174  42.800  11.056  0.00  0.00    -0.035 A 
ATOM     24 CL   5O3 d   1      49.518  42.284  11.397  0.00  0.00    -0.084 Cl
ATOM     25  C   5O3 d   1      53.403  42.564  10.439  0.00  0.00     0.054 A 
ATOM     26  H1  5O3 d   1      52.087  43.508  11.872  0.00  0.00     0.089 H 
BRANCH  25  27
ATOM     27  N   5O3 d   1      54.566  43.282  10.860  0.00  0.00    -0.397 N 
ATOM     28  H13 5O3 d   1      54.505  43.948  11.643  0.00  0.00     0.156 HD
ATOM     29  H14 5O3 d   1      55.465  43.133  10.380  0.00  0.00     0.156 HD
ENDBRANCH  25  27
ENDBRANCH  14  17
ENDBRANCH   1  11
BRANCH   5  30
ATOM     30  S   5O3 d   1      55.951  41.787   1.980  0.00  0.00     0.263 S 
ATOM     31  O1  5O3 d   1      54.569  41.488   2.292  0.00  0.00    -0.200 OA
ATOM     32  O2  5O3 d   1      56.223  43.069   1.403  0.00  0.00    -0.200 OA
BRANCH  30  33
ATOM     33  N3  5O3 d   1      56.534  40.637   0.924  0.00  0.00    -0.281 N 
ATOM     34  H12 5O3 d   1      56.953  40.959   0.075  0.00  0.00     0.179 HD
BRANCH  33  35
ATOM     35  C12 5O3 d   1      56.480  39.231   1.141  0.00  0.00     0.042 A 
ATOM     36  C13 5O3 d   1      56.943  38.278   0.198  0.00  0.00    -0.056 A 
ATOM     37  C14 5O3 d   1      56.878  36.903   0.523  0.00  0.00    -0.064 A 
ATOM     38  H7  5O3 d   1      57.341  38.599  -0.758  0.00  0.00     0.087 H 
ATOM     39  C15 5O3 d   1      56.397  36.454   1.781  0.00  0.00     0.041 A 
ATOM     40  H8  5O3 d   1      57.204  36.172  -0.208  0.00  0.00     0.085 H 
ATOM     41  C17 5O3 d   1      55.934  37.402   2.708  0.00  0.00    -0.064 A 
ATOM     42  C18 5O3 d   1      55.968  38.750   2.381  0.00  0.00    -0.056 A 
ATOM     43  H9  5O3 d   1      55.553  37.083   3.671  0.00  0.00     0.085 H 
ATOM     44  H10 5O3 d   1      55.589  39.468   3.099  0.00  0.00     0.087 H 
BRANCH  39  45
ATOM     45  C16 5O3 d   1      56.328  35.029   2.186  0.00  0.00     0.209 C 
ATOM     46  O4  5O3 d   1      56.630  34.123   1.226  0.00  0.00    -0.644 OA
ATOM     47  O3  5O3 d   1      56.098  34.591   3.313  0.00  0.00    -0.644 OA
ENDBRANCH  39  45
ENDBRANCH  33  35
ENDBRANCH  30  33
ENDBRANCH   5  30
TORSDOF 7
