REMARK  12 active torsions:
REMARK  status: ('A' for Active; 'I' for Inactive)
REMARK    1  A    between atoms: N2_1  and  C8_2 
REMARK    2  A    between atoms: N3_8  and  C20_23 
REMARK    3  A    between atoms: C11_9  and  C12_10 
REMARK    4  A    between atoms: C1_21  and  N1_22 
REMARK    5  A    between atoms: C20_23  and  C21_24 
REMARK    6  A    between atoms: C21_24  and  C22_25 
REMARK    7  A    between atoms: C22_25  and  C24_26 
REMARK    8  A    between atoms: C24_26  and  C25_27 
REMARK    9  A    between atoms: C25_27  and  C26_28 
REMARK   10  A    between atoms: N4_29  and  C28_33 
REMARK   11  A    between atoms: C28_33  and  C29_34 
REMARK   12  A    between atoms: C29_34  and  N7_35 
ROOT
ATOM      1  C22 5NZ d   1      33.259  23.017   8.663  0.00  0.00    -0.063 C 
ATOM      2  H21 5NZ d   1      33.023  22.334   7.833  0.00  0.00     0.033 H 
ATOM      3  H22 5NZ d   1      32.658  23.933   8.566  0.00  0.00     0.033 H 
ENDROOT
BRANCH   1   4
ATOM      4  C21 5NZ d   1      34.740  23.354   8.665  0.00  0.00    -0.050 C 
ATOM      5  H19 5NZ d   1      35.069  23.503   9.704  0.00  0.00     0.035 H 
ATOM      6  H20 5NZ d   1      35.296  22.515   8.221  0.00  0.00     0.035 H 
BRANCH   4   7
ATOM      7  C20 5NZ d   1      35.037  24.620   7.867  0.00  0.00    -0.004 C 
ATOM      8  H17 5NZ d   1      34.647  24.489   6.847  0.00  0.00     0.064 H 
ATOM      9  H18 5NZ d   1      34.524  25.465   8.350  0.00  0.00     0.064 H 
BRANCH   7  10
ATOM     10  N3  5NZ d   1      36.487  24.935   7.781  0.00  0.00    -0.367 N 
ATOM     11  C18 5NZ d   1      37.257  24.368   6.798  0.00  0.00     0.044 A 
ATOM     12  C5  5NZ d   1      38.714  24.706   6.614  0.00  0.00     0.001 A 
ATOM     13  C19 5NZ d   1      36.722  23.424   5.905  0.00  0.00    -0.031 A 
ATOM     14  C6  5NZ d   1      39.463  24.058   5.622  0.00  0.00    -0.068 A 
ATOM     15  C4  5NZ d   1      39.327  25.740   7.491  0.00  0.00    -0.015 A 
ATOM     16  C7  5NZ d   1      38.860  23.098   4.797  0.00  0.00    -0.057 A 
ATOM     17  H4  5NZ d   1      40.512  24.300   5.492  0.00  0.00     0.085 H 
ATOM     18  C8  5NZ d   1      37.508  22.773   4.957  0.00  0.00     0.027 A 
ATOM     19  H3  5NZ d   1      39.445  22.604   4.030  0.00  0.00     0.086 H 
ATOM     20  C10 5NZ d   1      38.461  26.342   8.548  0.00  0.00    -0.018 A 
ATOM     21  C3  5NZ d   1      40.659  26.157   7.359  0.00  0.00    -0.069 A 
ATOM     22  C11 5NZ d   1      37.024  25.929   8.651  0.00  0.00     0.064 A 
ATOM     23  C9  5NZ d   1      39.032  27.275   9.416  0.00  0.00    -0.049 A 
ATOM     24  H6  5NZ d   1      36.723  26.728   7.957  0.00  0.00     0.088 H 
ATOM     25  C1  5NZ d   1      40.383  27.617   9.289  0.00  0.00     0.026 A 
ATOM     26  H12 5NZ d   1      38.428  27.735  10.190  0.00  0.00     0.087 H 
ATOM     27  C2  5NZ d   1      41.195  27.044   8.295  0.00  0.00    -0.057 A 
ATOM     28  H14 5NZ d   1      42.249  27.293   8.255  0.00  0.00     0.086 H 
ATOM     29  H13 5NZ d   1      41.267  25.794   6.538  0.00  0.00     0.085 H 
ATOM     30  H5  5NZ d   1      35.664  23.195   5.955  0.00  0.00     0.090 H 
BRANCH  18  31
ATOM     31  N2  5NZ d   1      36.963  21.744   4.271  0.00  0.00    -0.399 N 
ATOM     32  H1  5NZ d   1      37.520  21.244   3.564  0.00  0.00     0.156 HD
ATOM     33  H2  5NZ d   1      35.990  21.460   4.455  0.00  0.00     0.156 HD
ENDBRANCH  18  31
BRANCH  22  34
ATOM     34  C12 5NZ d   1      36.173  26.498   9.730  0.00  0.00    -0.031 A 
ATOM     35  C13 5NZ d   1      36.121  25.830  10.963  0.00  0.00    -0.074 A 
ATOM     36  C14 5NZ d   1      35.299  26.323  11.980  0.00  0.00    -0.082 A 
ATOM     37  H7  5NZ d   1      36.715  24.938  11.126  0.00  0.00     0.084 H 
ATOM     38  C15 5NZ d   1      34.558  27.496  11.764  0.00  0.00    -0.083 A 
ATOM     39  H8  5NZ d   1      35.234  25.803  12.929  0.00  0.00     0.083 H 
ATOM     40  C16 5NZ d   1      34.606  28.164  10.535  0.00  0.00    -0.082 A 
ATOM     41  H9  5NZ d   1      33.939  27.890  12.562  0.00  0.00     0.083 H 
ATOM     42  C17 5NZ d   1      35.427  27.666   9.514  0.00  0.00    -0.074 A 
ATOM     43  H10 5NZ d   1      34.014  29.058  10.374  0.00  0.00     0.083 H 
ATOM     44  H11 5NZ d   1      35.485  28.181   8.562  0.00  0.00     0.084 H 
ENDBRANCH  22  34
BRANCH  25  45
ATOM     45  N1  5NZ d   1      40.899  28.560  10.118  0.00  0.00    -0.399 N 
ATOM     46  H15 5NZ d   1      40.308  28.983  10.848  0.00  0.00     0.156 HD
ATOM     47  H16 5NZ d   1      41.881  28.853  10.017  0.00  0.00     0.156 HD
ENDBRANCH  25  45
ENDBRANCH   7  10
ENDBRANCH   4   7
ENDBRANCH   1   4
BRANCH   1  48
ATOM     48  C24 5NZ d   1      32.983  22.345   9.993  0.00  0.00    -0.060 C 
ATOM     49  H23 5NZ d   1      33.298  23.018  10.804  0.00  0.00     0.033 H 
ATOM     50  H24 5NZ d   1      33.560  21.410  10.047  0.00  0.00     0.033 H 
BRANCH  48  51
ATOM     51  C25 5NZ d   1      31.514  22.024  10.165  0.00  0.00    -0.024 C 
ATOM     52  H25 5NZ d   1      31.129  21.569   9.240  0.00  0.00     0.042 H 
ATOM     53  H26 5NZ d   1      30.960  22.951  10.376  0.00  0.00     0.042 H 
BRANCH  51  54
ATOM     54  C26 5NZ d   1      31.330  21.056  11.315  0.00  0.00     0.045 A 
ATOM     55  N4  5NZ d   1      31.363  21.353  12.618  0.00  0.00    -0.275 N 
ATOM     56  N5  5NZ d   1      31.087  20.227  13.378  0.00  0.00     0.004 NA
ATOM     57  N6  5NZ d   1      30.918  19.181  12.464  0.00  0.00    -0.170 NA
ATOM     58  C27 5NZ d   1      31.044  19.695  11.216  0.00  0.00     0.042 A 
ATOM     59  H27 5NZ d   1      30.939  19.136  10.287  0.00  0.00     0.119 H 
BRANCH  55  60
ATOM     60  C28 5NZ d   1      31.489  22.621  13.326  0.00  0.00     0.028 C 
ATOM     61  H28 5NZ d   1      30.984  23.411  12.751  0.00  0.00     0.069 H 
ATOM     62  H29 5NZ d   1      32.554  22.872  13.437  0.00  0.00     0.069 H 
BRANCH  60  63
ATOM     63  C29 5NZ d   1      30.863  22.515  14.677  0.00  0.00     0.009 C 
ATOM     64  H30 5NZ d   1      31.497  23.070  15.384  0.00  0.00     0.066 H 
ATOM     65  H31 5NZ d   1      30.846  21.451  14.956  0.00  0.00     0.066 H 
BRANCH  63  66
ATOM     66  N7  5NZ d   1      29.522  23.021  14.802  0.00  0.00    -0.387 N 
ATOM     67  C30 5NZ d   1      28.407  22.300  14.552  0.00  0.00     0.049 A 
ATOM     68  C31 5NZ d   1      27.368  23.021  13.772  0.00  0.00     0.020 A 
ATOM     69  C39 5NZ d   1      28.051  20.940  15.075  0.00  0.00    -0.006 A 
ATOM     70  C32 5NZ d   1      27.569  24.349  13.363  0.00  0.00    -0.069 C 
ATOM     71  C33 5NZ d   1      26.087  22.331  13.478  0.00  0.00     0.069 A 
ATOM     72  C36 5NZ d   1      26.538  25.000  12.720  0.00  0.00    -0.082 C 
ATOM     73  H33 5NZ d   1      28.512  24.850  13.548  0.00  0.00     0.085 H 
ATOM     74  C35 5NZ d   1      25.397  24.310  12.308  0.00  0.00    -0.081 C 
ATOM     75  H36 5NZ d   1      26.615  26.065  12.531  0.00  0.00     0.083 H 
ATOM     76  C34 5NZ d   1      25.139  23.004  12.712  0.00  0.00    -0.054 C 
ATOM     77  H35 5NZ d   1      24.690  24.807  11.653  0.00  0.00     0.083 H 
ATOM     78  H34 5NZ d   1      24.212  22.517  12.434  0.00  0.00     0.087 H 
ATOM     79  N8  5NZ d   1      25.873  21.057  13.877  0.00  0.00    -0.252 NA
ATOM     80  C37 5NZ d   1      26.743  20.333  14.625  0.00  0.00     0.043 A 
ATOM     81  C38 5NZ d   1      26.322  18.906  14.974  0.00  0.00    -0.024 C 
ATOM     82  C42 5NZ d   1      27.411  18.141  15.707  0.00  0.00    -0.060 C 
ATOM     83  H37 5NZ d   1      26.081  18.372  14.043  0.00  0.00     0.042 H 
ATOM     84  H38 5NZ d   1      25.429  18.948  15.614  0.00  0.00     0.042 H 
ATOM     85  C41 5NZ d   1      28.166  19.038  16.689  0.00  0.00    -0.061 C 
ATOM     86  H43 5NZ d   1      28.123  17.740  14.971  0.00  0.00     0.033 H 
ATOM     87  H44 5NZ d   1      26.951  17.311  16.263  0.00  0.00     0.033 H 
ATOM     88  C40 5NZ d   1      28.972  20.125  15.963  0.00  0.00    -0.037 C 
ATOM     89  H41 5NZ d   1      27.441  19.521  17.360  0.00  0.00     0.033 H 
ATOM     90  H42 5NZ d   1      28.856  18.418  17.280  0.00  0.00     0.033 H 
ATOM     91  H39 5NZ d   1      29.444  20.786  16.705  0.00  0.00     0.040 H 
ATOM     92  H40 5NZ d   1      29.750  19.652  15.346  0.00  0.00     0.040 H 
ATOM     93  H32 5NZ d   1      29.404  23.999  15.102  0.00  0.00     0.159 HD
ENDBRANCH  63  66
ENDBRANCH  60  63
ENDBRANCH  55  60
ENDBRANCH  51  54
ENDBRANCH  48  51
ENDBRANCH   1  48
TORSDOF 12
