REMARK  5 active torsions:
REMARK  status: ('A' for Active; 'I' for Inactive)
REMARK    1  A    between atoms: C3_2  and  C22_9 
REMARK    2  A    between atoms: C13_5  and  C12_4 
REMARK    3  A    between atoms: N1_11  and  C16_7 
REMARK    4  A    between atoms: C18_8  and  N19_21 
REMARK    5  A    between atoms: C5_13  and  C23_10 
ROOT
ATOM      1  C2  5OA d   1      24.779  42.329   1.897  0.00  0.00     0.038 C 
ATOM      2  C3  5OA d   1      26.104  43.152   1.885  0.00  0.00     0.115 C 
ATOM      3  N1  5OA d   1      24.731  41.253   2.925  0.00  0.00    -0.210 N 
ATOM      4  N4  5OA d   1      27.280  42.304   2.217  0.00  0.00    -0.064 N 
ATOM      5  C5  5OA d   1      27.155  41.468   3.442  0.00  0.00     0.115 C 
ATOM      6  C6  5OA d   1      25.962  40.495   3.257  0.00  0.00     0.038 C 
ATOM      7  H1  5OA d   1      24.654  41.865   0.908  0.00  0.00     0.068 H 
ATOM      8  H2  5OA d   1      23.946  43.022   2.085  0.00  0.00     0.068 H 
ATOM      9  H3  5OA d   1      26.022  43.932   2.656  0.00  0.00     0.086 H 
ATOM     10  H12 5OA d   1      28.075  42.912   2.338  0.00  0.00     0.278 HD
ATOM     11  H13 5OA d   1      27.445  41.687   1.438  0.00  0.00     0.278 HD
ATOM     12  H14 5OA d   1      26.972  42.119   4.310  0.00  0.00     0.086 H 
ATOM     13  H15 5OA d   1      26.188  39.794   2.441  0.00  0.00     0.068 H 
ATOM     14  H16 5OA d   1      25.803  39.934   4.189  0.00  0.00     0.068 H 
ENDROOT
BRANCH   3  15
ATOM     15  C16 5OA d   1      23.536  40.941   3.523  0.00  0.00     0.726 A 
ATOM     16  N15 5OA d   1      22.403  41.620   3.200  0.00  0.00    -0.074 NA
ATOM     17  C14 5OA d   1      21.218  41.394   3.786  0.00  0.00     0.035 A 
ATOM     18  C13 5OA d   1      21.106  40.395   4.758  0.00  0.00     0.040 A 
ATOM     19  H5  5OA d   1      20.352  41.983   3.508  0.00  0.00     0.117 H 
ATOM     20  C18 5OA d   1      22.276  39.659   5.077  0.00  0.00     0.153 A 
ATOM     21  N17 5OA d   1      23.441  39.965   4.462  0.00  0.00    -0.045 NA
BRANCH  18  22
ATOM     22  C12 5OA d   1      19.751  40.162   5.331  0.00  0.00     0.003 A 
ATOM     23  C11 5OA d   1      18.664  39.788   4.516  0.00  0.00    -0.070 A 
ATOM     24  C10 5OA d   1      17.381  39.641   5.070  0.00  0.00    -0.080 A 
ATOM     25  H4  5OA d   1      18.818  39.613   3.457  0.00  0.00     0.084 H 
ATOM     26  C9  5OA d   1      17.166  39.936   6.431  0.00  0.00    -0.060 A 
ATOM     27  H18 5OA d   1      16.558  39.301   4.452  0.00  0.00     0.083 H 
ATOM     28  C8  5OA d   1      18.249  40.334   7.224  0.00  0.00     0.056 A 
ATOM     29  H17 5OA d   1      16.173  39.856   6.859  0.00  0.00     0.086 H 
ATOM     30  C7  5OA d   1      19.525  40.479   6.668  0.00  0.00     0.067 A 
ATOM     31 CL1  5OA d   1      18.024  40.733   8.899  0.00  0.00    -0.083 Cl
ATOM     32 CL2  5OA d   1      20.833  41.096   7.645  0.00  0.00    -0.082 Cl
ENDBRANCH  18  22
BRANCH  20  33
ATOM     33  N19 5OA d   1      22.315  38.656   5.979  0.00  0.00    -0.383 N 
ATOM     34  H19 5OA d   1      23.200  38.163   6.162  0.00  0.00     0.157 HD
ATOM     35  H20 5OA d   1      21.459  38.384   6.484  0.00  0.00     0.157 HD
ENDBRANCH  20  33
ENDBRANCH   3  15
BRANCH   2  36
ATOM     36  C22 5OA d   1      26.308  43.852   0.510  0.00  0.00    -0.048 C 
ATOM     37  H6  5OA d   1      27.247  44.425   0.526  0.00  0.00     0.030 H 
ATOM     38  H7  5OA d   1      25.466  44.533   0.317  0.00  0.00     0.030 H 
ATOM     39  H8  5OA d   1      26.355  43.093  -0.285  0.00  0.00     0.030 H 
ENDBRANCH   2  36
BRANCH   5  40
ATOM     40  C23 5OA d   1      28.442  40.645   3.683  0.00  0.00    -0.048 C 
ATOM     41  H9  5OA d   1      28.324  40.037   4.592  0.00  0.00     0.030 H 
ATOM     42  H10 5OA d   1      29.296  41.327   3.807  0.00  0.00     0.030 H 
ATOM     43  H11 5OA d   1      28.622  39.985   2.822  0.00  0.00     0.030 H 
ENDBRANCH   5  40
TORSDOF 5
