REMARK  2 active torsions:
REMARK  status: ('A' for Active; 'I' for Inactive)
REMARK    1  A    between atoms: C4_4  and  C5_5 
REMARK    2  A    between atoms: C10_19  and  C9_20 
ROOT
ATOM      1  C1  5O4 d   1      37.908 125.771 133.800  0.00  0.00    -0.036 A 
ATOM      2  C2  5O4 d   1      36.967 124.927 133.229  0.00  0.00     0.093 A 
ATOM      3  C3  5O4 d   1      36.805 124.864 131.832  0.00  0.00     0.053 A 
ATOM      4  C4  5O4 d   1      37.659 125.681 131.062  0.00  0.00     0.083 A 
ATOM      5  N1  5O4 d   1      35.328 123.447 132.810  0.00  0.00    -0.276 N 
ATOM      6  N2  5O4 d   1      36.072 124.063 133.767  0.00  0.00    -0.174 NA
ATOM      7  N   5O4 d   1      38.561 126.510 131.612  0.00  0.00    -0.259 NA
ATOM      8  C   5O4 d   1      38.669 126.541 132.947  0.00  0.00     0.005 A 
ATOM      9  C9  5O4 d   1      35.747 123.922 131.640  0.00  0.00     0.075 A 
ATOM     10  H1  5O4 d   1      38.040 125.823 134.875  0.00  0.00     0.089 H 
ATOM     11  H5  5O4 d   1      34.586 122.749 132.961  0.00  0.00     0.189 HD
ATOM     12  H6  5O4 d   1      39.400 127.213 133.383  0.00  0.00     0.114 H 
ENDROOT
BRANCH   9  13
ATOM     13  C10 5O4 d   1      35.064 123.487 130.390  0.00  0.00    -0.007 A 
ATOM     14  C15 5O4 d   1      34.859 124.383 129.347  0.00  0.00    -0.071 A 
ATOM     15  C14 5O4 d   1      34.172 123.992 128.212  0.00  0.00    -0.082 A 
ATOM     16  H7  5O4 d   1      35.240 125.395 129.424  0.00  0.00     0.084 H 
ATOM     17  C13 5O4 d   1      33.685 122.709 128.102  0.00  0.00    -0.083 A 
ATOM     18  H8  5O4 d   1      34.016 124.699 127.405  0.00  0.00     0.083 H 
ATOM     19  C12 5O4 d   1      33.888 121.810 129.126  0.00  0.00    -0.082 A 
ATOM     20  H9  5O4 d   1      33.144 122.407 127.213  0.00  0.00     0.083 H 
ATOM     21  C11 5O4 d   1      34.574 122.192 130.264  0.00  0.00    -0.071 A 
ATOM     22  H10 5O4 d   1      33.508 120.799 129.039  0.00  0.00     0.083 H 
ATOM     23  H11 5O4 d   1      34.731 121.477 131.064  0.00  0.00     0.084 H 
ENDBRANCH   9  13
BRANCH   4  24
ATOM     24  C5  5O4 d   1      37.697 125.643 129.614  0.00  0.00     0.018 A 
ATOM     25  C6  5O4 d   1      37.703 126.753 128.729  0.00  0.00    -0.047 A 
ATOM     26  C7  5O4 d   1      37.798 126.270 127.489  0.00  0.00     0.019 A 
ATOM     27  H2  5O4 d   1      37.642 127.803 129.010  0.00  0.00     0.087 H 
ATOM     28  O   5O4 d   1      37.849 124.910 127.511  0.00  0.00    -0.334 OA
ATOM     29  H3  5O4 d   1      37.830 126.878 126.586  0.00  0.00     0.123 H 
ATOM     30  C8  5O4 d   1      37.783 124.553 128.825  0.00  0.00     0.030 A 
ATOM     31  H4  5O4 d   1      37.798 123.526 129.188  0.00  0.00     0.124 H 
ENDBRANCH   4  24
TORSDOF 2
