REMARK  8 active torsions:
REMARK  status: ('A' for Active; 'I' for Inactive)
REMARK    1  A    between atoms: N3_26  and  C10_1 
REMARK    2  A    between atoms: C14_3  and  O1_6 
REMARK    3  A    between atoms: O_10  and  C17_4 
REMARK    4  A    between atoms: O1_6  and  C18_5 
REMARK    5  A    between atoms: C16_9  and  O_10 
REMARK    6  A    between atoms: N5_12  and  C11_11 
REMARK    7  A    between atoms: C_13  and  N5_12 
REMARK    8  A    between atoms: C7_23  and  C6_20 
ROOT
ATOM      1  C   5O7 d   1      -0.224 -33.338  -9.724  0.00  0.00     0.727 A 
ATOM      2  N1  5O7 d   1      -0.122 -32.000  -9.786  0.00  0.00    -0.074 NA
ATOM      3  C3  5O7 d   1       0.634 -31.529 -10.753  0.00  0.00     0.033 A 
ATOM      4  C2  5O7 d   1       1.314 -32.327 -11.698  0.00  0.00     0.015 A 
ATOM      5  C4  5O7 d   1       2.110 -31.840 -12.759  0.00  0.00    -0.052 A 
ATOM      6  C5  5O7 d   1       2.683 -32.725 -13.615  0.00  0.00     0.004 A 
ATOM      7  N2  5O7 d   1       2.542 -34.054 -13.518  0.00  0.00    -0.258 NA
ATOM      8  C6  5O7 d   1       1.801 -34.551 -12.536  0.00  0.00     0.100 A 
ATOM      9  C1  5O7 d   1       1.124 -33.720 -11.543  0.00  0.00     0.117 A 
ATOM     10  N   5O7 d   1       0.351 -34.233 -10.546  0.00  0.00    -0.060 NA
ATOM     11  H14 5O7 d   1       0.743 -30.453 -10.830  0.00  0.00     0.117 H 
ATOM     12  H15 5O7 d   1       2.261 -30.774 -12.888  0.00  0.00     0.087 H 
ATOM     13  H16 5O7 d   1       3.290 -32.334 -14.424  0.00  0.00     0.114 H 
ENDROOT
BRANCH   1  14
ATOM     14  N5  5O7 d   1      -0.956 -33.851  -8.703  0.00  0.00    -0.185 N 
ATOM     15  H13 5O7 d   1      -1.417 -33.179  -8.072  0.00  0.00     0.184 HD
BRANCH  14  16
ATOM     16  C11 5O7 d   1      -1.139 -35.199  -8.433  0.00  0.00     0.082 A 
ATOM     17  C12 5O7 d   1      -1.220 -36.154  -9.440  0.00  0.00    -0.051 A 
ATOM     18  C13 5O7 d   1      -1.365 -37.490  -9.122  0.00  0.00    -0.049 A 
ATOM     19  H11 5O7 d   1      -1.169 -35.849 -10.479  0.00  0.00     0.087 H 
ATOM     20  C14 5O7 d   1      -1.429 -37.880  -7.795  0.00  0.00     0.070 A 
ATOM     21  H4  5O7 d   1      -1.429 -38.232  -9.910  0.00  0.00     0.087 H 
ATOM     22  C15 5O7 d   1      -1.355 -36.940  -6.779  0.00  0.00    -0.016 A 
ATOM     23  C16 5O7 d   1      -1.214 -35.601  -7.100  0.00  0.00     0.098 A 
ATOM     24  H12 5O7 d   1      -1.407 -37.251  -5.742  0.00  0.00     0.092 H 
BRANCH  20  25
ATOM     25  O1  5O7 d   1      -1.562 -39.176  -7.368  0.00  0.00    -0.356 OA
BRANCH  25  26
ATOM     26  C18 5O7 d   1      -1.641 -40.212  -8.345  0.00  0.00     0.010 C 
ATOM     27  H8  5O7 d   1      -1.745 -41.184  -7.841  0.00  0.00     0.066 H 
ATOM     28  H9  5O7 d   1      -0.726 -40.211  -8.955  0.00  0.00     0.066 H 
ATOM     29  H10 5O7 d   1      -2.514 -40.040  -8.992  0.00  0.00     0.066 H 
ENDBRANCH  25  26
ENDBRANCH  20  25
BRANCH  23  30
ATOM     30  O   5O7 d   1      -1.144 -34.579  -6.194  0.00  0.00    -0.354 OA
BRANCH  30  31
ATOM     31  C17 5O7 d   1      -1.254 -34.898  -4.807  0.00  0.00     0.010 C 
ATOM     32  H5  5O7 d   1      -1.179 -33.976  -4.212  0.00  0.00     0.066 H 
ATOM     33  H6  5O7 d   1      -0.443 -35.585  -4.523  0.00  0.00     0.066 H 
ATOM     34  H7  5O7 d   1      -2.225 -35.379  -4.617  0.00  0.00     0.066 H 
ENDBRANCH  30  31
ENDBRANCH  23  30
ENDBRANCH  14  16
ENDBRANCH   1  14
BRANCH   8  35
ATOM     35  C7  5O7 d   1       1.701 -35.995 -12.532  0.00  0.00     0.031 A 
ATOM     36  C9  5O7 d   1       1.923 -36.883 -13.599  0.00  0.00     0.035 A 
ATOM     37  N4  5O7 d   1       1.729 -38.143 -13.250  0.00  0.00    -0.185 NA
ATOM     38  H17 5O7 d   1       2.221 -36.569 -14.598  0.00  0.00     0.118 H 
ATOM     39  N3  5O7 d   1       1.373 -38.074 -11.919  0.00  0.00    -0.285 N 
ATOM     40  C8  5O7 d   1       1.353 -36.809 -11.482  0.00  0.00     0.012 A 
ATOM     41  H18 5O7 d   1       1.105 -36.483 -10.473  0.00  0.00     0.115 H 
BRANCH  39  42
ATOM     42  C10 5O7 d   1       1.072 -39.280 -11.160  0.00  0.00     0.002 C 
ATOM     43  H1  5O7 d   1       0.813 -39.008 -10.126  0.00  0.00     0.059 H 
ATOM     44  H2  5O7 d   1       1.952 -39.940 -11.155  0.00  0.00     0.059 H 
ATOM     45  H3  5O7 d   1       0.224 -39.804 -11.625  0.00  0.00     0.059 H 
ENDBRANCH  39  42
ENDBRANCH   8  35
TORSDOF 8
