REMARK  8 active torsions:
REMARK  status: ('A' for Active; 'I' for Inactive)
REMARK    1  A    between atoms: C8_4  and  CAV_22 
REMARK    2  A    between atoms: CAH_14  and  N3_6 
REMARK    3  A    between atoms: CAI_13  and  CAH_14 
REMARK    4  A    between atoms: N7_18  and  CAT_19 
REMARK    5  A    between atoms: CAT_19  and  CAU_20 
REMARK    6  A    between atoms: CAV_22  and  SAW_23 
REMARK    7  A    between atoms: SAW_23  and  CAX_24 
REMARK    8  A    between atoms: CBA_26  and  NBC_27 
ROOT
ATOM      1  C4  5NV d   1      25.290  50.797  -1.116  0.00  0.00     0.169 A 
ATOM      2  C5  5NV d   1      24.479  49.984  -0.335  0.00  0.00     0.151 A 
ATOM      3  C6  5NV d   1      23.233  49.606  -0.782  0.00  0.00     0.280 A 
ATOM      4  C8  5NV d   1      26.409  50.335   0.673  0.00  0.00     0.119 A 
ATOM      5  N1  5NV d   1      22.859  50.181  -2.034  0.00  0.00    -0.273 N 
ATOM      6  N3  5NV d   1      24.861  51.316  -2.289  0.00  0.00    -0.277 N 
ATOM      7  C2  5NV d   1      23.612  50.998  -2.783  0.00  0.00     0.331 A 
ATOM      8  O2  5NV d   1      23.234  51.403  -3.883  0.00  0.00    -0.246 OA
ATOM      9  O6  5NV d   1      22.384  48.811  -0.282  0.00  0.00    -0.265 OA
ATOM     10  N7  5NV d   1      25.227  49.647   0.749  0.00  0.00    -0.327 N 
ATOM     11  N9  5NV d   1      26.447  51.044  -0.478  0.00  0.00    -0.214 NA
ATOM     12  H1  5NV d   1      21.951  49.953  -2.385  0.00  0.00     0.173 HD
ENDROOT
BRANCH   4  13
ATOM     13  CAV 5NV d   1      27.465  50.268   1.890  0.00  0.00     0.039 C 
ATOM     14  H13 5NV d   1      28.491  50.419   1.524  0.00  0.00     0.061 H 
ATOM     15  H14 5NV d   1      27.399  49.301   2.410  0.00  0.00     0.061 H 
BRANCH  13  16
ATOM     16  SAW 5NV d   1      26.987  51.578   2.954  0.00  0.00    -0.083 SA
BRANCH  16  17
ATOM     17  CAX 5NV d   1      28.530  51.961   3.526  0.00  0.00     0.200 C 
ATOM     18  NBB 5NV d   1      28.620  52.460   4.684  0.00  0.00    -0.038 NA
ATOM     19  CBA 5NV d   1      29.951  52.847   4.790  0.00  0.00     0.715 C 
ATOM     20  NAZ 5NV d   1      30.652  52.329   3.800  0.00  0.00    -0.129 N 
ATOM     21  NAY 5NV d   1      29.744  51.761   2.977  0.00  0.00    -0.263 N 
ATOM     22  H17 5NV d   1      31.675  52.353   3.680  0.00  0.00     0.205 HD
ATOM     23  H18 5NV d   1      29.942  51.267   2.095  0.00  0.00     0.189 HD
BRANCH  19  24
ATOM     24  NBC 5NV d   1      30.595  53.485   5.831  0.00  0.00    -0.231 N 
ATOM     25  H15 5NV d   1      30.048  53.890   6.604  0.00  0.00     0.174 HD
ATOM     26  H16 5NV d   1      31.622  53.556   5.835  0.00  0.00     0.174 HD
ENDBRANCH  19  24
ENDBRANCH  16  17
ENDBRANCH  13  16
ENDBRANCH   4  13
BRANCH  10  27
ATOM     27  CAT 5NV d   1      24.887  48.765   1.831  0.00  0.00    -0.002 C 
ATOM     28  H8  5NV d   1      23.850  48.942   2.152  0.00  0.00     0.064 H 
ATOM     29  H9  5NV d   1      25.567  48.928   2.680  0.00  0.00     0.064 H 
BRANCH  27  30
ATOM     30  CAU 5NV d   1      25.031  47.409   1.327  0.00  0.00    -0.061 C 
ATOM     31  H10 5NV d   1      24.780  46.693   2.124  0.00  0.00     0.029 H 
ATOM     32  H11 5NV d   1      26.069  47.247   1.002  0.00  0.00     0.029 H 
ATOM     33  H12 5NV d   1      24.352  47.261   0.474  0.00  0.00     0.029 H 
ENDBRANCH  27  30
ENDBRANCH  10  27
BRANCH   6  34
ATOM     34  CAH 5NV d   1      25.797  52.165  -3.098  0.00  0.00     0.030 C 
ATOM     35  H6  5NV d   1      26.318  52.889  -2.454  0.00  0.00     0.072 H 
ATOM     36  H7  5NV d   1      25.250  52.702  -3.886  0.00  0.00     0.072 H 
BRANCH  34  37
ATOM     37  CAI 5NV d   1      26.781  51.185  -3.704  0.00  0.00    -0.040 A 
ATOM     38  CAJ 5NV d   1      27.954  50.837  -3.044  0.00  0.00    -0.074 A 
ATOM     39  CAK 5NV d   1      28.835  49.931  -3.665  0.00  0.00    -0.061 A 
ATOM     40  H2  5NV d   1      28.186  51.255  -2.071  0.00  0.00     0.084 H 
ATOM     41  CAL 5NV d   1      28.597  49.309  -4.892  0.00  0.00     0.034 A 
ATOM     42  H3  5NV d   1      29.763  49.700  -3.155  0.00  0.00     0.086 H 
ATOM     43 CL1  5NV d   1      29.659  48.298  -5.635  0.00  0.00    -0.084 Cl
ATOM     44  CAM 5NV d   1      27.426  49.609  -5.520  0.00  0.00    -0.061 A 
ATOM     45  CAN 5NV d   1      26.518  50.494  -4.915  0.00  0.00    -0.074 A 
ATOM     46  H4  5NV d   1      27.196  49.167  -6.482  0.00  0.00     0.086 H 
ATOM     47  H5  5NV d   1      25.563  50.658  -5.401  0.00  0.00     0.084 H 
ENDBRANCH  34  37
ENDBRANCH   6  34
TORSDOF 8
