REMARK  8 active torsions:
REMARK  status: ('A' for Active; 'I' for Inactive)
REMARK    1  A    between atoms: C5_5  and  C6_11 
REMARK    2  A    between atoms: N3_20  and  C11_7 
REMARK    3  A    between atoms: C13_9  and  N3_20 
REMARK    4  A    between atoms: C16_12  and  O1_15 
REMARK    5  A    between atoms: O1_15  and  C20_14 
REMARK    6  A    between atoms: C18_17  and  O_18 
REMARK    7  A    between atoms: O_18  and  C19_19 
REMARK    8  A    between atoms: N_25  and  C9_26 
ROOT
ATOM      1  C1  5OQ d   1       2.874  18.535 -14.014  0.00  0.00    -0.081 A 
ATOM      2  C2  5OQ d   1       2.247  19.281 -13.064  0.00  0.00    -0.071 A 
ATOM      3  C3  5OQ d   1       1.441  18.665 -12.081  0.00  0.00    -0.007 A 
ATOM      4  C4  5OQ d   1       1.289  17.255 -12.094  0.00  0.00    -0.010 A 
ATOM      5  C5  5OQ d   1       1.956  16.507 -13.113  0.00  0.00    -0.012 A 
ATOM      6  C10 5OQ d   1       0.473  16.660 -11.107  0.00  0.00    -0.027 A 
ATOM      7  C11 5OQ d   1      -0.150  17.491 -10.169  0.00  0.00     0.128 A 
ATOM      8  C12 5OQ d   1       0.751  19.376 -11.076  0.00  0.00     0.015 A 
ATOM      9  N2  5OQ d   1      -0.012  18.826 -10.159  0.00  0.00    -0.242 NA
ATOM     10  C   5OQ d   1       2.734  17.158 -14.043  0.00  0.00    -0.071 A 
ATOM     11  H1  5OQ d   1       3.491  19.026 -14.758  0.00  0.00     0.083 H 
ATOM     12  H2  5OQ d   1       2.367  20.358 -13.062  0.00  0.00     0.084 H 
ATOM     13  H3  5OQ d   1       0.333  15.586 -11.077  0.00  0.00     0.090 H 
ATOM     14  H4  5OQ d   1       0.859  20.454 -11.060  0.00  0.00     0.116 H 
ATOM     15  H15 5OQ d   1       3.244  16.585 -14.809  0.00  0.00     0.084 H 
ENDROOT
BRANCH   7  16
ATOM     16  N3  5OQ d   1      -0.959  16.969  -9.182  0.00  0.00    -0.339 N 
ATOM     17  H14 5OQ d   1      -1.470  17.654  -8.607  0.00  0.00     0.167 HD
BRANCH  16  18
ATOM     18  C13 5OQ d   1      -1.169  15.632  -8.868  0.00  0.00     0.067 A 
ATOM     19  C14 5OQ d   1      -1.444  14.673  -9.835  0.00  0.00    -0.052 A 
ATOM     20  C15 5OQ d   1      -1.656  13.357  -9.471  0.00  0.00    -0.049 A 
ATOM     21  H5  5OQ d   1      -1.492  14.958 -10.880  0.00  0.00     0.087 H 
ATOM     22  C16 5OQ d   1      -1.597  12.992  -8.136  0.00  0.00     0.070 A 
ATOM     23  H6  5OQ d   1      -1.868  12.611 -10.229  0.00  0.00     0.087 H 
ATOM     24  C17 5OQ d   1      -1.319  13.935  -7.161  0.00  0.00    -0.016 A 
ATOM     25  C18 5OQ d   1      -1.105  15.250  -7.528  0.00  0.00     0.097 A 
ATOM     26  H10 5OQ d   1      -1.270  13.644  -6.118  0.00  0.00     0.092 H 
BRANCH  22  27
ATOM     27  O1  5OQ d   1      -1.814  11.725  -7.663  0.00  0.00    -0.356 OA
BRANCH  27  28
ATOM     28  C20 5OQ d   1      -1.945  10.662  -8.603  0.00  0.00     0.010 C 
ATOM     29  H7  5OQ d   1      -2.114   9.717  -8.066  0.00  0.00     0.066 H 
ATOM     30  H8  5OQ d   1      -1.024  10.585  -9.200  0.00  0.00     0.066 H 
ATOM     31  H9  5OQ d   1      -2.798  10.864  -9.268  0.00  0.00     0.066 H 
ENDBRANCH  27  28
ENDBRANCH  22  27
BRANCH  25  32
ATOM     32  O   5OQ d   1      -0.808  16.262  -6.659  0.00  0.00    -0.354 OA
BRANCH  32  33
ATOM     33  C19 5OQ d   1      -1.104  16.064  -5.280  0.00  0.00     0.010 C 
ATOM     34  H11 5OQ d   1      -0.811  16.958  -4.710  0.00  0.00     0.066 H 
ATOM     35  H12 5OQ d   1      -0.546  15.192  -4.907  0.00  0.00     0.066 H 
ATOM     36  H13 5OQ d   1      -2.183  15.889  -5.158  0.00  0.00     0.066 H 
ENDBRANCH  32  33
ENDBRANCH  25  32
ENDBRANCH  16  18
ENDBRANCH   7  16
BRANCH   5  37
ATOM     37  C6  5OQ d   1       1.777  15.029 -13.201  0.00  0.00     0.011 A 
ATOM     38  C8  5OQ d   1       2.440  13.998 -12.519  0.00  0.00     0.034 A 
ATOM     39  N1  5OQ d   1       1.961  12.810 -12.837  0.00  0.00    -0.185 NA
ATOM     40  H16 5OQ d   1       3.252  14.159 -11.812  0.00  0.00     0.118 H 
ATOM     41  N   5OQ d   1       0.991  13.070 -13.726  0.00  0.00    -0.285 N 
ATOM     42  C7  5OQ d   1       0.851  14.377 -13.973  0.00  0.00     0.010 A 
ATOM     43  H20 5OQ d   1       0.138  14.835 -14.657  0.00  0.00     0.115 H 
BRANCH  41  44
ATOM     44  C9  5OQ d   1       0.224  11.971 -14.297  0.00  0.00     0.002 C 
ATOM     45  H17 5OQ d   1      -0.521  12.371 -15.000  0.00  0.00     0.059 H 
ATOM     46  H18 5OQ d   1      -0.288  11.424 -13.492  0.00  0.00     0.059 H 
ATOM     47  H19 5OQ d   1       0.902  11.289 -14.830  0.00  0.00     0.059 H 
ENDBRANCH  41  44
ENDBRANCH   5  37
TORSDOF 8
