REMARK  8 active torsions:
REMARK  status: ('A' for Active; 'I' for Inactive)
REMARK    1  A    between atoms: C21_1  and  N6_2 
REMARK    2  A    between atoms: C18_6  and  C17_7 
REMARK    3  A    between atoms: C3_14  and  N2_17 
REMARK    4  A    between atoms: N2_17  and  C4_18 
REMARK    5  A    between atoms: C9_19  and  O_20 
REMARK    6  A    between atoms: O_20  and  C10_21 
REMARK    7  A    between atoms: C7_23  and  C11_26 
REMARK    8  A    between atoms: N3_29  and  C14_30 
ROOT
ATOM      1  N2  5OE d   1      -0.843 -33.912  -8.971  0.00  0.00    -0.185 N 
ATOM      2  H9  5OE d   1      -1.349 -33.252  -8.364  0.00  0.00     0.184 HD
ENDROOT
BRANCH   1   3
ATOM      3  C3  5OE d   1      -0.082 -33.308  -9.918  0.00  0.00     0.727 A 
ATOM      4  N1  5OE d   1       0.526 -34.118 -10.804  0.00  0.00    -0.060 NA
ATOM      5  C   5OE d   1       1.305 -33.511 -11.740  0.00  0.00     0.117 A 
ATOM      6  C17 5OE d   1       1.921 -34.299 -12.739  0.00  0.00     0.100 A 
ATOM      7  C1  5OE d   1       1.474 -32.111 -11.765  0.00  0.00     0.015 A 
ATOM      8  N5  5OE d   1       2.659 -33.736 -13.690  0.00  0.00    -0.258 NA
ATOM      9  C16 5OE d   1       2.812 -32.400 -13.708  0.00  0.00     0.004 A 
ATOM     10  C15 5OE d   1       2.256 -31.559 -12.797  0.00  0.00    -0.052 A 
ATOM     11  H6  5OE d   1       3.416 -31.968 -14.498  0.00  0.00     0.114 H 
ATOM     12  H7  5OE d   1       2.411 -30.488 -12.863  0.00  0.00     0.087 H 
ATOM     13  C2  5OE d   1       0.761 -31.404 -10.774  0.00  0.00     0.033 A 
ATOM     14  N   5OE d   1      -0.003 -31.966  -9.866  0.00  0.00    -0.074 NA
ATOM     15  H8  5OE d   1       0.850 -30.324 -10.761  0.00  0.00     0.117 H 
BRANCH   6  16
ATOM     16  C18 5OE d   1       1.760 -35.730 -12.837  0.00  0.00     0.031 A 
ATOM     17  C19 5OE d   1       1.457 -36.603 -11.823  0.00  0.00     0.012 A 
ATOM     18  N6  5OE d   1       1.359 -37.817 -12.374  0.00  0.00    -0.285 N 
ATOM     19  H4  5OE d   1       1.322 -36.355 -10.771  0.00  0.00     0.115 H 
ATOM     20  N7  5OE d   1       1.585 -37.809 -13.697  0.00  0.00    -0.185 NA
ATOM     21  C20 5OE d   1       1.830 -36.543 -13.977  0.00  0.00     0.035 A 
ATOM     22  H5  5OE d   1       2.059 -36.173 -14.975  0.00  0.00     0.118 H 
BRANCH  18  23
ATOM     23  C21 5OE d   1       1.038 -39.072 -11.708  0.00  0.00     0.002 C 
ATOM     24  H1  5OE d   1       0.886 -38.889 -10.634  0.00  0.00     0.059 H 
ATOM     25  H2  5OE d   1       1.867 -39.782 -11.845  0.00  0.00     0.059 H 
ATOM     26  H3  5OE d   1       0.119 -39.493 -12.142  0.00  0.00     0.059 H 
ENDBRANCH  18  23
ENDBRANCH   6  16
ENDBRANCH   1   3
BRANCH   1  27
ATOM     27  C4  5OE d   1      -1.074 -35.249  -8.658  0.00  0.00     0.082 A 
ATOM     28  C9  5OE d   1      -1.168 -35.605  -7.308  0.00  0.00     0.096 A 
ATOM     29  C8  5OE d   1      -1.448 -36.908  -6.943  0.00  0.00    -0.038 A 
ATOM     30  C7  5OE d   1      -1.639 -37.877  -7.921  0.00  0.00    -0.020 A 
ATOM     31  H13 5OE d   1      -1.519 -37.174  -5.895  0.00  0.00     0.089 H 
ATOM     32  C6  5OE d   1      -1.526 -37.529  -9.261  0.00  0.00    -0.070 A 
ATOM     33  C5  5OE d   1      -1.246 -36.227  -9.632  0.00  0.00    -0.053 A 
ATOM     34  H14 5OE d   1      -1.659 -38.287 -10.024  0.00  0.00     0.084 H 
ATOM     35  H15 5OE d   1      -1.161 -35.968 -10.681  0.00  0.00     0.087 H 
BRANCH  28  36
ATOM     36  O   5OE d   1      -0.953 -34.580  -6.430  0.00  0.00    -0.354 OA
BRANCH  36  37
ATOM     37  C10 5OE d   1      -1.428 -34.736  -5.097  0.00  0.00     0.010 C 
ATOM     38  H10 5OE d   1      -1.183 -33.837  -4.513  0.00  0.00     0.066 H 
ATOM     39  H11 5OE d   1      -0.949 -35.613  -4.637  0.00  0.00     0.066 H 
ATOM     40  H12 5OE d   1      -2.519 -34.879  -5.111  0.00  0.00     0.066 H 
ENDBRANCH  36  37
ENDBRANCH  28  36
BRANCH  30  41
ATOM     41  C11 5OE d   1      -2.005 -39.258  -7.514  0.00  0.00     0.011 A 
ATOM     42  C13 5OE d   1      -2.393 -39.670  -6.230  0.00  0.00     0.034 A 
ATOM     43  N4  5OE d   1      -2.672 -40.960  -6.188  0.00  0.00    -0.185 NA
ATOM     44  H16 5OE d   1      -2.457 -39.005  -5.370  0.00  0.00     0.118 H 
ATOM     45  N3  5OE d   1      -2.465 -41.384  -7.444  0.00  0.00    -0.285 N 
ATOM     46  C12 5OE d   1      -2.066 -40.405  -8.265  0.00  0.00     0.010 A 
ATOM     47  H20 5OE d   1      -1.834 -40.500  -9.325  0.00  0.00     0.115 H 
BRANCH  45  48
ATOM     48  C14 5OE d   1      -2.683 -42.786  -7.773  0.00  0.00     0.002 C 
ATOM     49  H17 5OE d   1      -2.466 -42.950  -8.839  0.00  0.00     0.059 H 
ATOM     50  H18 5OE d   1      -3.730 -43.053  -7.566  0.00  0.00     0.059 H 
ATOM     51  H19 5OE d   1      -2.017 -43.414  -7.162  0.00  0.00     0.059 H 
ENDBRANCH  45  48
ENDBRANCH  30  41
ENDBRANCH   1  27
TORSDOF 8
