REMARK  4 active torsions:
REMARK  status: ('A' for Active; 'I' for Inactive)
REMARK    1  A    between atoms: N20_1  and  N19_2 
REMARK    2  A    between atoms: N18_3  and  C28_4 
REMARK    3  A    between atoms: C28_4  and  C29_5 
REMARK    4  A    between atoms: C29_5  and  N7_6 
ROOT
ATOM      1  N7  TZ2 d   1      29.256  22.865  14.803  0.00  0.00    -0.387 N 
ATOM      2  C30 TZ2 d   1      28.047  22.307  14.545  0.00  0.00     0.049 A 
ATOM      3  C39 TZ2 d   1      27.708  20.951  15.059  0.00  0.00    -0.006 A 
ATOM      4  C40 TZ2 d   1      28.685  20.160  15.922  0.00  0.00    -0.037 C 
ATOM      5  C41 TZ2 d   1      27.941  19.078  16.720  0.00  0.00    -0.061 C 
ATOM      6  C42 TZ2 d   1      27.153  18.196  15.747  0.00  0.00    -0.060 C 
ATOM      7  C38 TZ2 d   1      25.964  18.983  15.180  0.00  0.00    -0.024 C 
ATOM      8  C37 TZ2 d   1      26.371  20.382  14.716  0.00  0.00     0.043 A 
ATOM      9  N8  TZ2 d   1      25.480  21.116  13.992  0.00  0.00    -0.252 NA
ATOM     10  C33 TZ2 d   1      25.718  22.347  13.490  0.00  0.00     0.069 A 
ATOM     11  C31 TZ2 d   1      27.003  23.039  13.756  0.00  0.00     0.020 A 
ATOM     12  C34 TZ2 d   1      24.713  23.022  12.792  0.00  0.00    -0.054 A 
ATOM     13  C35 TZ2 d   1      24.911  24.330  12.353  0.00  0.00    -0.081 A 
ATOM     14  C36 TZ2 d   1      26.109  25.000  12.637  0.00  0.00    -0.082 A 
ATOM     15  C32 TZ2 d   1      27.165  24.366  13.301  0.00  0.00    -0.069 A 
ATOM     16  H7  TZ2 d   1      29.495  23.156  15.762  0.00  0.00     0.159 HD
ATOM     17  H8  TZ2 d   1      29.187  20.845  16.621  0.00  0.00     0.040 H 
ATOM     18  H9  TZ2 d   1      29.435  19.682  15.275  0.00  0.00     0.040 H 
ATOM     19  H10 TZ2 d   1      27.249  19.554  17.430  0.00  0.00     0.033 H 
ATOM     20  H11 TZ2 d   1      28.666  18.462  17.272  0.00  0.00     0.033 H 
ATOM     21  H12 TZ2 d   1      26.783  17.307  16.278  0.00  0.00     0.033 H 
ATOM     22  H13 TZ2 d   1      27.811  17.883  14.923  0.00  0.00     0.033 H 
ATOM     23  H14 TZ2 d   1      25.196  19.078  15.962  0.00  0.00     0.042 H 
ATOM     24  H15 TZ2 d   1      25.549  18.431  14.323  0.00  0.00     0.042 H 
ATOM     25  H16 TZ2 d   1      23.771  22.524  12.590  0.00  0.00     0.087 H 
ATOM     26  H17 TZ2 d   1      24.134  24.832  11.789  0.00  0.00     0.083 H 
ATOM     27  H18 TZ2 d   1      26.220  26.035  12.335  0.00  0.00     0.083 H 
ATOM     28  H19 TZ2 d   1      28.100  24.889  13.465  0.00  0.00     0.085 H 
ENDROOT
BRANCH   1  29
ATOM     29  C29 TZ2 d   1      30.214  23.052  13.728  0.00  0.00     0.009 C 
ATOM     30  H5  TZ2 d   1      29.674  23.160  12.775  0.00  0.00     0.066 H 
ATOM     31  H6  TZ2 d   1      30.803  23.961  13.921  0.00  0.00     0.066 H 
BRANCH  29  32
ATOM     32  C28 TZ2 d   1      31.147  21.858  13.643  0.00  0.00     0.025 C 
ATOM     33  H3  TZ2 d   1      32.169  22.193  13.413  0.00  0.00     0.069 H 
ATOM     34  H4  TZ2 d   1      31.147  21.310  14.597  0.00  0.00     0.069 H 
BRANCH  32  35
ATOM     35  N18 TZ2 d   1      30.650  21.002  12.575  0.00  0.00    -0.295 N 
ATOM     36  N19 TZ2 d   1      31.381  20.063  12.210  0.00  0.00    -0.081 NA
ATOM     37  H2  TZ2 d   1      29.731  21.167  12.139  0.00  0.00     0.184 HD
BRANCH  36  38
ATOM     38  N20 TZ2 d   1      31.014  19.257  11.236  0.00  0.00    -0.186 NA
ATOM     39  H1  TZ2 d   1      31.618  18.501  10.953  0.00  0.00     0.214 HD
ENDBRANCH  36  38
ENDBRANCH  32  35
ENDBRANCH  29  32
ENDBRANCH   1  29
TORSDOF 4
