REMARK  3 active torsions:
REMARK  status: ('A' for Active; 'I' for Inactive)
REMARK    1  A    between atoms: C1_1  and  C2_2 
REMARK    2  A    between atoms: C3_3  and  N1_11 
REMARK    3  A    between atoms: C6_5  and  N2_12 
ROOT
ATOM      1  C2  X0V d   1      20.357  49.834 -10.846  0.00  0.00     0.050 A 
ATOM      2  C3  X0V d   1      22.513  49.710  -9.699  0.00  0.00     0.053 A 
ATOM      3  C4  X0V d   1      21.174  50.193  -9.760  0.00  0.00    -0.041 A 
ATOM      4  C6  X0V d   1      23.010  48.882 -10.770  0.00  0.00     0.052 A 
ATOM      5  C7  X0V d   1      20.815  49.034 -11.889  0.00  0.00    -0.066 A 
ATOM      6  C8  X0V d   1      22.157  48.555 -11.859  0.00  0.00    -0.055 A 
ATOM      7  H1  X0V d   1      20.788  50.833  -8.975  0.00  0.00     0.088 H 
ATOM      8  H2  X0V d   1      20.159  48.779 -12.714  0.00  0.00     0.084 H 
ATOM      9  H3  X0V d   1      22.529  47.939 -12.670  0.00  0.00     0.087 H 
ENDROOT
BRANCH   1  10
ATOM     10  C1  X0V d   1      18.930  50.333 -10.796  0.00  0.00     0.417 C 
ATOM     11  F1  X0V d   1      18.359  50.207  -9.587  0.00  0.00    -0.166 F 
ATOM     12  F2  X0V d   1      18.793  51.616 -11.084  0.00  0.00    -0.166 F 
ATOM     13  F3  X0V d   1      18.100  49.730 -11.599  0.00  0.00    -0.166 F 
ENDBRANCH   1  10
BRANCH   2  14
ATOM     14  N1  X0V d   1      23.377  50.016  -8.591  0.00  0.00    -0.397 N 
ATOM     15  H4  X0V d   1      23.035  50.606  -7.819  0.00  0.00     0.156 HD
ATOM     16  H5  X0V d   1      24.338  49.645  -8.569  0.00  0.00     0.156 HD
ENDBRANCH   2  14
BRANCH   4  17
ATOM     17  N2  X0V d   1      24.325  48.433 -10.762  0.00  0.00    -0.397 N 
ATOM     18  H6  X0V d   1      24.945  48.669  -9.974  0.00  0.00     0.156 HD
ATOM     19  H7  X0V d   1      24.680  47.864 -11.544  0.00  0.00     0.156 HD
ENDBRANCH   4  17
TORSDOF 3
