REMARK  20 active torsions:
REMARK  status: ('A' for Active; 'I' for Inactive)
REMARK    1  A    between atoms: PA_1  and  O3A_4 
REMARK    2  A    between atoms: PA_1  and  O5F_20 
REMARK    3  A    between atoms: O3A_4  and  PB_5 
REMARK    4  A    between atoms: PB_5  and  O3B_8 
REMARK    5  A    between atoms: O3B_8  and  PG_9 
REMARK    6  A    between atoms: PG_9  and  O3G_12 
REMARK    7  A    between atoms: O3G_12  and  PD_13 
REMARK    8  A    between atoms: PD_13  and  O3D_16 
REMARK    9  A    between atoms: O3D_16  and  PE_17 
REMARK   10  A    between atoms: PE_17  and  O5J_39 
REMARK   11  A    between atoms: O5F_20  and  C5F_21 
REMARK   12  A    between atoms: C5F_21  and  C4F_22 
REMARK   13  A    between atoms: C3F_24  and  O3F_25 
REMARK   14  A    between atoms: C2F_26  and  O2F_27 
REMARK   15  A    between atoms: C1F_28  and  N9A_29 
REMARK   16  A    between atoms: O5J_39  and  C5J_40 
REMARK   17  A    between atoms: C5J_40  and  C4J_41 
REMARK   18  A    between atoms: C3J_43  and  O3J_44 
REMARK   19  A    between atoms: C2J_45  and  O2J_46 
REMARK   20  A    between atoms: C1J_47  and  N9B_48 
ROOT
ATOM      1  PG  AP5 d   1      17.973 -35.406 -20.717  0.00  0.00     0.427 P 
ATOM      2  O1G AP5 d   1      18.767 -34.257 -20.141  0.00  0.00    -0.624 OA
ATOM      3  O2G AP5 d   1      17.320 -35.255 -22.070  0.00  0.00    -0.624 OA
ENDROOT
BRANCH   1   4
ATOM      4  O3B AP5 d   1      16.855 -35.914 -19.675  0.00  0.00    -0.180 OA
BRANCH   4   5
ATOM      5  PB  AP5 d   1      16.348 -35.160 -18.345  0.00  0.00     0.427 P 
ATOM      6  O1B AP5 d   1      16.028 -36.256 -17.359  0.00  0.00    -0.624 OA
ATOM      7  O2B AP5 d   1      17.259 -34.033 -17.942  0.00  0.00    -0.624 OA
BRANCH   5   8
ATOM      8  O3A AP5 d   1      14.930 -34.583 -18.842  0.00  0.00    -0.180 OA
BRANCH   8   9
ATOM      9  PA  AP5 d   1      14.508 -33.025 -18.804  0.00  0.00     0.417 P 
ATOM     10  O1A AP5 d   1      14.375 -32.580 -17.372  0.00  0.00    -0.624 OA
ATOM     11  O2A AP5 d   1      15.392 -32.257 -19.754  0.00  0.00    -0.624 OA
BRANCH   9  12
ATOM     12  O5F AP5 d   1      13.035 -33.137 -19.443  0.00  0.00    -0.287 OA
BRANCH  12  13
ATOM     13  C5F AP5 d   1      12.870 -33.458 -20.824  0.00  0.00     0.058 C 
ATOM     14  H1  AP5 d   1      12.764 -34.547 -20.937  0.00  0.00     0.079 H 
ATOM     15  H2  AP5 d   1      13.750 -33.115 -21.387  0.00  0.00     0.079 H 
BRANCH  13  16
ATOM     16  C4F AP5 d   1      11.627 -32.771 -21.361  0.00  0.00     0.089 C 
ATOM     17  O4F AP5 d   1      10.474 -33.235 -20.664  0.00  0.00    -0.353 OA
ATOM     18  C1F AP5 d   1       9.799 -32.131 -20.057  0.00  0.00     0.139 C 
ATOM     19  C2F AP5 d   1      10.794 -30.980 -19.993  0.00  0.00     0.105 C 
ATOM     20  H8  AP5 d   1       8.943 -31.829 -20.678  0.00  0.00     0.122 H 
ATOM     21  C3F AP5 d   1      11.719 -31.274 -21.151  0.00  0.00     0.091 C 
ATOM     22  H6  AP5 d   1      11.349 -31.007 -19.044  0.00  0.00     0.093 H 
ATOM     23  H4  AP5 d   1      12.749 -30.971 -20.910  0.00  0.00     0.091 H 
ATOM     24  H3  AP5 d   1      11.527 -32.990 -22.434  0.00  0.00     0.090 H 
BRANCH  18  25
ATOM     25  N9A AP5 d   1       9.295 -32.549 -18.731  0.00  0.00    -0.294 N 
ATOM     26  C8A AP5 d   1       9.994 -32.623 -17.579  0.00  0.00     0.071 A 
ATOM     27  N7A AP5 d   1       9.203 -33.054 -16.567  0.00  0.00    -0.236 NA
ATOM     28  H9  AP5 d   1      11.049 -32.371 -17.477  0.00  0.00     0.144 H 
ATOM     29  C5A AP5 d   1       7.985 -33.263 -17.085  0.00  0.00     0.149 A 
ATOM     30  C6A AP5 d   1       6.696 -33.720 -16.563  0.00  0.00     0.155 A 
ATOM     31  C4A AP5 d   1       8.041 -32.930 -18.506  0.00  0.00     0.167 A 
ATOM     32  N6A AP5 d   1       6.609 -34.028 -15.260  0.00  0.00    -0.382 N 
ATOM     33  N1A AP5 d   1       5.651 -33.809 -17.410  0.00  0.00    -0.222 NA
ATOM     34  H10 AP5 d   1       5.714 -34.352 -14.866  0.00  0.00     0.157 HD
ATOM     35  H11 AP5 d   1       7.437 -33.940 -14.654  0.00  0.00     0.157 HD
ATOM     36  C2A AP5 d   1       5.770 -33.489 -18.714  0.00  0.00     0.091 A 
ATOM     37  N3A AP5 d   1       6.923 -33.061 -19.262  0.00  0.00    -0.222 NA
ATOM     38  H12 AP5 d   1       4.897 -33.580 -19.351  0.00  0.00     0.146 H 
ENDBRANCH  18  25
BRANCH  19  39
ATOM     39  O2F AP5 d   1      10.161 -29.705 -20.109  0.00  0.00    -0.388 OA
ATOM     40  H7  AP5 d   1       9.648 -29.679 -20.908  0.00  0.00     0.210 HD
ENDBRANCH  19  39
BRANCH  21  41
ATOM     41  O3F AP5 d   1      11.284 -30.612 -22.338  0.00  0.00    -0.390 OA
ATOM     42  H5  AP5 d   1      11.339 -29.672 -22.213  0.00  0.00     0.210 HD
ENDBRANCH  21  41
ENDBRANCH  13  16
ENDBRANCH  12  13
ENDBRANCH   9  12
ENDBRANCH   8   9
ENDBRANCH   5   8
ENDBRANCH   4   5
ENDBRANCH   1   4
BRANCH   1  43
ATOM     43  O3G AP5 d   1      18.901 -36.718 -20.759  0.00  0.00    -0.180 OA
BRANCH  43  44
ATOM     44  PD  AP5 d   1      19.998 -36.977 -21.908  0.00  0.00     0.427 P 
ATOM     45  O1D AP5 d   1      19.305 -37.011 -23.247  0.00  0.00    -0.624 OA
ATOM     46  O2D AP5 d   1      20.814 -38.161 -21.456  0.00  0.00    -0.624 OA
BRANCH  44  47
ATOM     47  O3D AP5 d   1      20.846 -35.613 -21.834  0.00  0.00    -0.180 OA
BRANCH  47  48
ATOM     48  PE  AP5 d   1      22.193 -35.348 -20.999  0.00  0.00     0.417 P 
ATOM     49  O1E AP5 d   1      22.105 -35.980 -19.632  0.00  0.00    -0.624 OA
ATOM     50  O2E AP5 d   1      22.422 -33.862 -21.134  0.00  0.00    -0.624 OA
BRANCH  48  51
ATOM     51  O5J AP5 d   1      23.344 -36.086 -21.842  0.00  0.00    -0.287 OA
BRANCH  51  52
ATOM     52  C5J AP5 d   1      23.478 -35.788 -23.227  0.00  0.00     0.058 C 
ATOM     53  H13 AP5 d   1      23.608 -34.704 -23.358  0.00  0.00     0.079 H 
ATOM     54  H14 AP5 d   1      22.575 -36.116 -23.762  0.00  0.00     0.079 H 
BRANCH  52  55
ATOM     55  C4J AP5 d   1      24.688 -36.514 -23.784  0.00  0.00     0.089 C 
ATOM     56  O4J AP5 d   1      25.833 -36.228 -22.980  0.00  0.00    -0.353 OA
ATOM     57  C1J AP5 d   1      26.630 -37.396 -22.798  0.00  0.00     0.139 C 
ATOM     58  C2J AP5 d   1      25.915 -38.519 -23.519  0.00  0.00     0.105 C 
ATOM     59  H20 AP5 d   1      27.636 -37.248 -23.218  0.00  0.00     0.122 H 
ATOM     60  C3J AP5 d   1      24.510 -38.021 -23.757  0.00  0.00     0.091 C 
ATOM     61  H18 AP5 d   1      25.913 -39.443 -22.922  0.00  0.00     0.093 H 
ATOM     62  H16 AP5 d   1      23.855 -38.315 -22.924  0.00  0.00     0.091 H 
ATOM     63  H15 AP5 d   1      24.860 -36.181 -24.818  0.00  0.00     0.090 H 
BRANCH  57  64
ATOM     64  N9B AP5 d   1      26.727 -37.702 -21.357  0.00  0.00    -0.294 N 
ATOM     65  C8B AP5 d   1      26.187 -36.972 -20.364  0.00  0.00     0.071 A 
ATOM     66  N7B AP5 d   1      26.464 -37.530 -19.160  0.00  0.00    -0.236 NA
ATOM     67  H21 AP5 d   1      25.608 -36.061 -20.507  0.00  0.00     0.144 H 
ATOM     68  C5B AP5 d   1      27.196 -38.632 -19.387  0.00  0.00     0.149 A 
ATOM     69  C6B AP5 d   1      27.819 -39.678 -18.560  0.00  0.00     0.155 A 
ATOM     70  C4B AP5 d   1      27.373 -38.741 -20.835  0.00  0.00     0.167 A 
ATOM     71  N6B AP5 d   1      27.700 -39.628 -17.220  0.00  0.00    -0.382 N 
ATOM     72  N1B AP5 d   1      28.502 -40.659 -19.183  0.00  0.00    -0.222 NA
ATOM     73  H22 AP5 d   1      28.134 -40.358 -16.637  0.00  0.00     0.157 HD
ATOM     74  H23 AP5 d   1      27.175 -38.860 -16.778  0.00  0.00     0.157 HD
ATOM     75  C2B AP5 d   1      28.621 -40.702 -20.524  0.00  0.00     0.091 A 
ATOM     76  N3B AP5 d   1      28.078 -39.781 -21.339  0.00  0.00    -0.222 NA
ATOM     77  H24 AP5 d   1      29.181 -41.518 -20.967  0.00  0.00     0.146 H 
ENDBRANCH  57  64
BRANCH  58  78
ATOM     78  O2J AP5 d   1      26.560 -38.731 -24.768  0.00  0.00    -0.388 OA
ATOM     79  H19 AP5 d   1      26.075 -39.377 -25.268  0.00  0.00     0.210 HD
ENDBRANCH  58  78
BRANCH  60  80
ATOM     80  O3J AP5 d   1      23.944 -38.518 -24.976  0.00  0.00    -0.390 OA
ATOM     81  H17 AP5 d   1      24.517 -38.300 -25.702  0.00  0.00     0.210 HD
ENDBRANCH  60  80
ENDBRANCH  52  55
ENDBRANCH  51  52
ENDBRANCH  48  51
ENDBRANCH  47  48
ENDBRANCH  44  47
ENDBRANCH  43  44
ENDBRANCH   1  43
TORSDOF 20
