REMARK  6 active torsions:
REMARK  status: ('A' for Active; 'I' for Inactive)
REMARK    1  A    between atoms: C2'_10  and  O2'_11 
REMARK    2  A    between atoms: C1'_12  and  N9_13 
REMARK    3  A    between atoms: C2_20  and  N2_21 
REMARK    4  A    between atoms: C2A_33  and  O2A_34 
REMARK    5  A    between atoms: C1A_35  and  N91_36 
REMARK    6  A    between atoms: C21_43  and  N21_44 
ROOT
ATOM      1  P1  C2E d   1      -9.455  -9.085  14.769  0.00  0.00     0.408 P 
ATOM      2  O2P C2E d   1     -10.132  -7.682  14.745  0.00  0.00    -0.624 OA
ATOM      3  O1P C2E d   1      -7.978  -8.789  14.830  0.00  0.00    -0.624 OA
ATOM      4  O5' C2E d   1      -9.805  -9.989  16.044  0.00  0.00    -0.287 OA
ATOM      5  C5' C2E d   1      -9.115 -11.184  16.339  0.00  0.00     0.058 C 
ATOM      6  C4' C2E d   1      -9.872 -12.128  17.277  0.00  0.00     0.090 C 
ATOM      7  O4' C2E d   1     -10.160 -11.494  18.509  0.00  0.00    -0.353 OA
ATOM      8  C3' C2E d   1     -11.131 -12.513  16.747  0.00  0.00     0.106 C 
ATOM      9  O3' C2E d   1     -10.967 -13.517  15.707  0.00  0.00    -0.279 OA
ATOM     10  C2' C2E d   1     -11.773 -13.000  17.886  0.00  0.00     0.106 C 
ATOM     11  C1' C2E d   1     -11.375 -12.033  18.944  0.00  0.00     0.140 C 
ATOM     12  P11 C2E d   1     -12.127 -13.856  14.736  0.00  0.00     0.408 P 
ATOM     13  O21 C2E d   1     -13.430 -14.113  15.379  0.00  0.00    -0.624 OA
ATOM     14  O11 C2E d   1     -11.702 -15.186  14.125  0.00  0.00    -0.624 OA
ATOM     15  O5A C2E d   1     -12.230 -12.838  13.539  0.00  0.00    -0.287 OA
ATOM     16  C5A C2E d   1     -11.072 -12.513  12.875  0.00  0.00     0.058 C 
ATOM     17  C4A C2E d   1     -11.011 -11.312  12.143  0.00  0.00     0.090 C 
ATOM     18  O4A C2E d   1     -12.289 -11.138  11.282  0.00  0.00    -0.353 OA
ATOM     19  C3A C2E d   1     -11.036 -10.170  13.054  0.00  0.00     0.106 C 
ATOM     20  O3A C2E d   1      -9.730  -9.845  13.412  0.00  0.00    -0.279 OA
ATOM     21  C2A C2E d   1     -11.665  -9.117  12.252  0.00  0.00     0.106 C 
ATOM     22  C1A C2E d   1     -12.702  -9.789  11.426  0.00  0.00     0.140 C 
ATOM     23  H1  C2E d   1      -8.157 -10.922  16.812  0.00  0.00     0.079 H 
ATOM     24  H2  C2E d   1      -8.925 -11.715  15.395  0.00  0.00     0.079 H 
ATOM     25  H3  C2E d   1      -9.254 -13.021  17.450  0.00  0.00     0.090 H 
ATOM     26  H4  C2E d   1     -11.672 -11.650  16.331  0.00  0.00     0.092 H 
ATOM     27  H5  C2E d   1     -12.863 -13.039  17.742  0.00  0.00     0.093 H 
ATOM     28  H7  C2E d   1     -11.271 -12.532  19.919  0.00  0.00     0.122 H 
ATOM     29  H12 C2E d   1     -10.867 -13.330  12.168  0.00  0.00     0.079 H 
ATOM     30  H13 C2E d   1     -10.271 -12.471  13.628  0.00  0.00     0.079 H 
ATOM     31  H14 C2E d   1     -10.107 -11.300  11.516  0.00  0.00     0.090 H 
ATOM     32  H15 C2E d   1     -11.628 -10.384  13.956  0.00  0.00     0.092 H 
ATOM     33  H16 C2E d   1     -12.110  -8.350  12.903  0.00  0.00     0.093 H 
ATOM     34  H18 C2E d   1     -12.710  -9.320  10.431  0.00  0.00     0.122 H 
ENDROOT
BRANCH  11  35
ATOM     35  N9  C2E d   1     -12.313 -10.981  19.021  0.00  0.00    -0.293 N 
ATOM     36  C8  C2E d   1     -12.169  -9.715  18.538  0.00  0.00     0.071 A 
ATOM     37  N7  C2E d   1     -13.324  -9.047  18.780  0.00  0.00    -0.235 NA
ATOM     38  H8  C2E d   1     -11.285  -9.312  18.046  0.00  0.00     0.144 H 
ATOM     39  C5  C2E d   1     -14.175  -9.896  19.431  0.00  0.00     0.159 A 
ATOM     40  C6  C2E d   1     -15.460  -9.777  19.956  0.00  0.00     0.226 A 
ATOM     41  C4  C2E d   1     -13.536 -11.132  19.561  0.00  0.00     0.185 A 
ATOM     42  O6  C2E d   1     -16.142  -8.603  19.849  0.00  0.00    -0.169 OA
ATOM     43  N1  C2E d   1     -16.047 -10.825  20.538  0.00  0.00    -0.164 N 
ATOM     44  C2  C2E d   1     -15.404 -11.994  20.630  0.00  0.00     0.702 A 
ATOM     45  H9  C2E d   1     -16.972 -10.736  20.907  0.00  0.00     0.186 HD
ATOM     46  N3  C2E d   1     -14.166 -12.163  20.158  0.00  0.00    -0.044 NA
BRANCH  44  47
ATOM     47  N2  C2E d   1     -16.100 -13.108  21.260  0.00  0.00    -0.233 N 
ATOM     48  H10 C2E d   1     -15.635 -14.023  21.348  0.00  0.00     0.174 HD
ATOM     49  H11 C2E d   1     -17.058 -12.981  21.618  0.00  0.00     0.174 HD
ENDBRANCH  44  47
ENDBRANCH  11  35
BRANCH  10  50
ATOM     50  O2' C2E d   1     -11.286 -14.245  18.279  0.00  0.00    -0.388 OA
ATOM     51  H6  C2E d   1     -11.418 -14.871  17.577  0.00  0.00     0.210 HD
ENDBRANCH  10  50
BRANCH  21  52
ATOM     52  O2A C2E d   1     -10.782  -8.557  11.413  0.00  0.00    -0.388 OA
ATOM     53  H17 C2E d   1     -10.070  -8.175  11.913  0.00  0.00     0.210 HD
ENDBRANCH  21  52
BRANCH  22  54
ATOM     54  N91 C2E d   1     -14.063  -9.656  11.978  0.00  0.00    -0.293 N 
ATOM     55  C81 C2E d   1     -14.794 -10.630  12.535  0.00  0.00     0.071 A 
ATOM     56  N71 C2E d   1     -15.999 -10.153  12.883  0.00  0.00    -0.235 NA
ATOM     57  H19 C2E d   1     -14.460 -11.656  12.683  0.00  0.00     0.144 H 
ATOM     58  C51 C2E d   1     -16.039  -8.856  12.542  0.00  0.00     0.159 A 
ATOM     59  C61 C2E d   1     -16.994  -7.839  12.664  0.00  0.00     0.226 A 
ATOM     60  C41 C2E d   1     -14.804  -8.544  11.960  0.00  0.00     0.185 A 
ATOM     61  O61 C2E d   1     -18.238  -8.107  13.248  0.00  0.00    -0.169 OA
ATOM     62  N11 C2E d   1     -16.703  -6.617  12.200  0.00  0.00    -0.164 N 
ATOM     63  C21 C2E d   1     -15.511  -6.354  11.631  0.00  0.00     0.702 A 
ATOM     64  H20 C2E d   1     -17.382  -5.887  12.277  0.00  0.00     0.186 HD
ATOM     65  N31 C2E d   1     -14.562  -7.292  11.510  0.00  0.00    -0.044 NA
BRANCH  63  66
ATOM     66  N21 C2E d   1     -15.234  -4.987  11.144  0.00  0.00    -0.233 N 
ATOM     67  H21 C2E d   1     -14.327  -4.770  10.707  0.00  0.00     0.174 HD
ATOM     68  H22 C2E d   1     -15.948  -4.251  11.242  0.00  0.00     0.174 HD
ENDBRANCH  63  66
ENDBRANCH  22  54
TORSDOF 6
