REMARK  9 active torsions:
REMARK  status: ('A' for Active; 'I' for Inactive)
REMARK    1  A    between atoms: S12_2  and  C01_4 
REMARK    2  A    between atoms: S12_2  and  N15_10 
REMARK    3  A    between atoms: N15_10  and  C16_11 
REMARK    4  A    between atoms: N15_10  and  C23_16 
REMARK    5  A    between atoms: C16_11  and  C19_12 
REMARK    6  A    between atoms: C26_21  and  C33_22 
REMARK    7  A    between atoms: C33_22  and  C34_23 
REMARK    8  A    between atoms: C33_22  and  O42_27 
REMARK    9  A    between atoms: C33_22  and  C38_28 
ROOT
ATOM      1  N15 444 d   1       7.938  72.520 -15.501  0.00  0.00    -0.164 NA
ENDROOT
BRANCH   1   2
ATOM      2  S12 444 d   1       9.467  73.064 -15.849  0.00  0.00     0.248 S 
ATOM      3  O13 444 d   1       9.324  74.524 -16.136  0.00  0.00    -0.205 OA
ATOM      4  O14 444 d   1      10.140  72.390 -17.005  0.00  0.00    -0.205 OA
BRANCH   2   5
ATOM      5  C01 444 d   1      10.293  72.854 -14.659  0.00  0.00     0.075 A 
ATOM      6  C02 444 d   1      10.628  71.562 -14.352  0.00  0.00    -0.061 A 
ATOM      7  C03 444 d   1      11.398  71.357 -13.231  0.00  0.00    -0.082 A 
ATOM      8  H1  444 d   1      10.299  70.733 -14.969  0.00  0.00     0.085 H 
ATOM      9  C04 444 d   1      11.823  72.409 -12.436  0.00  0.00    -0.083 A 
ATOM     10  H2  444 d   1      11.680  70.345 -12.962  0.00  0.00     0.083 H 
ATOM     11  C05 444 d   1      11.456  73.689 -12.758  0.00  0.00    -0.082 A 
ATOM     12  H3  444 d   1      12.441  72.221 -11.566  0.00  0.00     0.083 H 
ATOM     13  C06 444 d   1      10.682  73.919 -13.879  0.00  0.00    -0.061 A 
ATOM     14  H4  444 d   1      11.772  74.518 -12.136  0.00  0.00     0.083 H 
ATOM     15  H5  444 d   1      10.384  74.928 -14.141  0.00  0.00     0.085 H 
ENDBRANCH   2   5
ENDBRANCH   1   2
BRANCH   1  16
ATOM     16  C16 444 d   1       7.074  72.839 -16.659  0.00  0.00     0.089 C 
ATOM     17  H6  444 d   1       7.203  72.060 -17.425  0.00  0.00     0.071 H 
ATOM     18  H7  444 d   1       7.377  73.812 -17.072  0.00  0.00     0.071 H 
BRANCH  16  19
ATOM     19  C19 444 d   1       5.588  72.907 -16.264  0.00  0.00     0.400 C 
ATOM     20  F22 444 d   1       5.530  73.299 -15.201  0.00  0.00    -0.170 F 
ATOM     21  F21 444 d   1       4.975  73.667 -16.999  0.00  0.00    -0.170 F 
ATOM     22  F20 444 d   1       5.046  71.746 -16.346  0.00  0.00    -0.170 F 
ENDBRANCH  16  19
ENDBRANCH   1  16
BRANCH   1  23
ATOM     23  C23 444 d   1       7.641  71.238 -15.204  0.00  0.00     0.025 A 
ATOM     24  C24 444 d   1       6.595  71.043 -14.301  0.00  0.00    -0.061 A 
ATOM     25  C25 444 d   1       6.168  69.781 -13.967  0.00  0.00    -0.072 A 
ATOM     26  H8  444 d   1       6.110  71.904 -13.855  0.00  0.00     0.086 H 
ATOM     27  C26 444 d   1       6.757  68.647 -14.539  0.00  0.00    -0.006 A 
ATOM     28  H9  444 d   1       5.364  69.661 -13.250  0.00  0.00     0.084 H 
ATOM     29  C27 444 d   1       7.786  68.858 -15.461  0.00  0.00    -0.072 A 
ATOM     30  C28 444 d   1       8.233  70.134 -15.807  0.00  0.00    -0.061 A 
ATOM     31  H11 444 d   1       8.255  67.998 -15.925  0.00  0.00     0.084 H 
ATOM     32  H10 444 d   1       9.028  70.262 -16.533  0.00  0.00     0.086 H 
BRANCH  27  33
ATOM     33  C33 444 d   1       6.309  67.317 -14.254  0.00  0.00     0.281 C 
BRANCH  33  34
ATOM     34  C34 444 d   1       4.876  67.259 -13.680  0.00  0.00     0.431 C 
ATOM     35  F36 444 d   1       4.910  67.356 -12.525  0.00  0.00    -0.167 F 
ATOM     36  F37 444 d   1       4.069  68.194 -14.160  0.00  0.00    -0.167 F 
ATOM     37  F35 444 d   1       4.329  66.159 -14.019  0.00  0.00    -0.167 F 
ENDBRANCH  33  34
BRANCH  33  38
ATOM     38  O42 444 d   1       6.103  66.746 -15.469  0.00  0.00    -0.370 OA
ATOM     39  H12 444 d   1       6.924  66.715 -15.946  0.00  0.00     0.211 HD
ENDBRANCH  33  38
BRANCH  33  40
ATOM     40  C38 444 d   1       7.317  66.245 -13.816  0.00  0.00     0.431 C 
ATOM     41  F39 444 d   1       7.950  66.508 -13.526  0.00  0.00    -0.167 F 
ATOM     42  F40 444 d   1       7.537  65.723 -14.613  0.00  0.00    -0.167 F 
ATOM     43  F41 444 d   1       6.931  65.628 -13.225  0.00  0.00    -0.167 F 
ENDBRANCH  33  40
ENDBRANCH  27  33
ENDBRANCH   1  23
TORSDOF 9
