REMARK  10 active torsions:
REMARK  status: ('A' for Active; 'I' for Inactive)
REMARK    1  A    between atoms: C14_2  and  C36_36 
REMARK    2  A    between atoms: N7_13  and  C5_3 
REMARK    3  A    between atoms: C12_8  and  C8_5 
REMARK    4  A    between atoms: N3_10  and  C2_12 
REMARK    5  A    between atoms: C2_12  and  C1_11 
REMARK    6  A    between atoms: C17_17  and  O18_18 
REMARK    7  A    between atoms: O18_18  and  C19_19 
REMARK    8  A    between atoms: C22_22  and  S27_27 
REMARK    9  A    between atoms: S27_27  and  N30_30 
REMARK   10  A    between atoms: N30_30  and  C31_31 
ROOT
ATOM      1  C19 5P2 d   1     -84.645 -13.872 -14.452  0.00  0.00     0.097 A 
ATOM      2  C20 5P2 d   1     -84.314 -15.002 -15.207  0.00  0.00    -0.047 A 
ATOM      3  C21 5P2 d   1     -83.149 -15.701 -14.941  0.00  0.00    -0.058 A 
ATOM      4  C22 5P2 d   1     -82.271 -15.255 -13.958  0.00  0.00     0.081 A 
ATOM      5  C23 5P2 d   1     -82.577 -14.138 -13.192  0.00  0.00    -0.037 A 
ATOM      6  C24 5P2 d   1     -83.764 -13.429 -13.439  0.00  0.00     0.080 A 
ATOM      7  C25 5P2 d   1     -84.064 -12.259 -12.668  0.00  0.00     0.102 C 
ATOM      8  N26 5P2 d   1     -84.301 -11.332 -12.060  0.00  0.00    -0.191 NA
ATOM      9  H17 5P2 d   1     -84.972 -15.332 -16.003  0.00  0.00     0.087 H 
ATOM     10  H18 5P2 d   1     -82.920 -16.600 -15.501  0.00  0.00     0.086 H 
ATOM     11  H19 5P2 d   1     -81.903 -13.815 -12.407  0.00  0.00     0.088 H 
ENDROOT
BRANCH   1  12
ATOM     12  O18 5P2 d   1     -85.793 -13.180 -14.701  0.00  0.00    -0.308 OA
BRANCH  12  13
ATOM     13  C17 5P2 d   1     -86.936 -13.826 -15.063  0.00  0.00     0.088 A 
ATOM     14  C12 5P2 d   1     -87.462 -13.665 -16.363  0.00  0.00     0.027 A 
ATOM     15  C13 5P2 d   1     -88.642 -14.344 -16.708  0.00  0.00    -0.053 A 
ATOM     16  C14 5P2 d   1     -89.298 -15.135 -15.770  0.00  0.00     0.049 A 
ATOM     17  H8  5P2 d   1     -89.044 -14.251 -17.710  0.00  0.00     0.086 H 
ATOM     18  C15 5P2 d   1     -88.792 -15.241 -14.478  0.00  0.00    -0.066 A 
ATOM     19  C16 5P2 d   1     -87.618 -14.600 -14.126  0.00  0.00    -0.049 A 
ATOM     20  H15 5P2 d   1     -89.323 -15.832 -13.740  0.00  0.00     0.084 H 
ATOM     21  H16 5P2 d   1     -87.228 -14.700 -13.120  0.00  0.00     0.087 H 
BRANCH  14  22
ATOM     22  C8  5P2 d   1     -86.746 -12.853 -17.382  0.00  0.00     0.068 A 
ATOM     23  C9  5P2 d   1     -86.080 -13.390 -18.445  0.00  0.00    -0.036 A 
ATOM     24  C10 5P2 d   1     -85.526 -12.346 -19.180  0.00  0.00     0.024 A 
ATOM     25  H6  5P2 d   1     -85.996 -14.451 -18.678  0.00  0.00     0.089 H 
ATOM     26  N11 5P2 d   1     -85.816 -11.215 -18.600  0.00  0.00    -0.184 NA
ATOM     27  H7  5P2 d   1     -84.944 -12.456 -20.093  0.00  0.00     0.117 H 
ATOM     28  N7  5P2 d   1     -86.581 -11.486 -17.455  0.00  0.00    -0.261 N 
BRANCH  28  29
ATOM     29  C5  5P2 d   1     -87.108 -10.471 -16.526  0.00  0.00     0.081 C 
ATOM     30  C4  5P2 d   1     -86.101  -9.791 -15.578  0.00  0.00     0.105 C 
ATOM     31  N3  5P2 d   1     -86.783  -8.493 -15.777  0.00  0.00    -0.067 N 
ATOM     32  H1  5P2 d   1     -85.062  -9.811 -15.938  0.00  0.00     0.079 H 
ATOM     33  H2  5P2 d   1     -86.138 -10.163 -14.543  0.00  0.00     0.079 H 
ATOM     34  C6  5P2 d   1     -87.320  -9.037 -17.047  0.00  0.00     0.105 C 
ATOM     35  H9  5P2 d   1     -86.171  -7.699 -15.880  0.00  0.00     0.280 HD
ATOM     36  H4  5P2 d   1     -88.373  -8.779 -17.236  0.00  0.00     0.079 H 
ATOM     37  H5  5P2 d   1     -86.717  -8.788 -17.932  0.00  0.00     0.079 H 
ATOM     38  H3  5P2 d   1     -87.987 -10.900 -16.023  0.00  0.00     0.081 H 
BRANCH  31  39
ATOM     39  C2  5P2 d   1     -87.813  -8.211 -14.749  0.00  0.00     0.080 C 
ATOM     40  H13 5P2 d   1     -87.433  -8.525 -13.765  0.00  0.00     0.075 H 
ATOM     41  H14 5P2 d   1     -88.724  -8.780 -14.989  0.00  0.00     0.075 H 
BRANCH  39  42
ATOM     42  C1  5P2 d   1     -88.155  -6.719 -14.699  0.00  0.00    -0.053 C 
ATOM     43  H10 5P2 d   1     -88.920  -6.544 -13.928  0.00  0.00     0.029 H 
ATOM     44  H11 5P2 d   1     -88.541  -6.398 -15.678  0.00  0.00     0.029 H 
ATOM     45  H12 5P2 d   1     -87.250  -6.143 -14.455  0.00  0.00     0.029 H 
ENDBRANCH  39  42
ENDBRANCH  31  39
ENDBRANCH  28  29
ENDBRANCH  14  22
BRANCH  16  46
ATOM     46  C36 5P2 d   1     -90.584 -15.848 -16.129  0.00  0.00     0.417 C 
ATOM     47  F37 5P2 d   1     -91.578 -14.893 -16.372  0.00  0.00    -0.166 F 
ATOM     48  F38 5P2 d   1     -90.986 -16.701 -15.092  0.00  0.00    -0.166 F 
ATOM     49  F39 5P2 d   1     -90.406 -16.624 -17.277  0.00  0.00    -0.166 F 
ENDBRANCH  16  46
ENDBRANCH  12  13
ENDBRANCH   1  12
BRANCH   4  50
ATOM     50  S27 5P2 d   1     -80.819 -16.204 -13.653  0.00  0.00     0.264 S 
ATOM     51  O28 5P2 d   1     -80.267 -16.512 -14.923  0.00  0.00    -0.200 OA
ATOM     52  O29 5P2 d   1     -80.052 -15.550 -12.648  0.00  0.00    -0.200 OA
BRANCH  50  53
ATOM     53  N30 5P2 d   1     -81.411 -17.628 -13.032  0.00  0.00    -0.257 N 
ATOM     54  H20 5P2 d   1     -81.498 -18.410 -13.649  0.00  0.00     0.181 HD
BRANCH  53  55
ATOM     55  C31 5P2 d   1     -81.793 -17.796 -11.704  0.00  0.00     0.199 A 
ATOM     56  N32 5P2 d   1     -81.927 -18.942 -11.070  0.00  0.00    -0.215 NA
ATOM     57  C33 5P2 d   1     -82.280 -18.910  -9.809  0.00  0.00     0.097 A 
ATOM     58  N34 5P2 d   1     -82.468 -17.745  -9.275  0.00  0.00    -0.201 NA
ATOM     59  H21 5P2 d   1     -82.410 -19.825  -9.233  0.00  0.00     0.147 H 
ATOM     60  S35 5P2 d   1     -82.193 -16.614 -10.514  0.00  0.00     0.052 SA
ENDBRANCH  53  55
ENDBRANCH  50  53
ENDBRANCH   4  50
TORSDOF 10
