REMARK  8 active torsions:
REMARK  status: ('A' for Active; 'I' for Inactive)
REMARK    1  A    between atoms: N_20  and  C4_2 
REMARK    2  A    between atoms: C6_4  and  C7_6 
REMARK       I    between atoms: N1_5  and  C8_7 
REMARK    3  A    between atoms: C8_7  and  C9_8 
REMARK    4  A    between atoms: C13_12  and  C16_22 
REMARK    5  A    between atoms: C3_15  and  O_16 
REMARK       I    between atoms: C3_15  and  N_20 
REMARK    6  A    between atoms: O_16  and  C1_17 
REMARK    7  A    between atoms: C1_17  and  C2_18 
REMARK    8  A    between atoms: C1_17  and  C_19 
ROOT
ATOM      1  C4  5P4 d   1       2.605  21.118  51.511  0.00  0.00     0.044 C 
ATOM      2  C5  5P4 d   1       1.822  19.989  52.164  0.00  0.00    -0.023 C 
ATOM      3  C6  5P4 d   1       2.674  19.083  53.061  0.00  0.00     0.018 C 
ATOM      4  N1  5P4 d   1       3.929  19.738  53.504  0.00  0.00    -0.313 N 
ATOM      5  C8  5P4 d   1       5.003  18.897  53.727  0.00  0.00     0.220 C 
ATOM      6  C10 5P4 d   1       3.960  21.168  53.610  0.00  0.00     0.046 A 
ATOM      7  C11 5P4 d   1       4.567  21.838  54.674  0.00  0.00    -0.055 A 
ATOM      8  C12 5P4 d   1       4.482  23.221  54.757  0.00  0.00    -0.068 A 
ATOM      9  C13 5P4 d   1       3.789  23.960  53.787  0.00  0.00    -0.002 A 
ATOM     10  C14 5P4 d   1       3.218  23.285  52.713  0.00  0.00    -0.060 A 
ATOM     11  C15 5P4 d   1       3.291  21.895  52.610  0.00  0.00    -0.007 A 
ATOM     12  O1  5P4 d   1       4.878  17.687  53.625  0.00  0.00    -0.273 OA
ATOM     13  H1  5P4 d   1       3.395  20.654  50.902  0.00  0.00     0.080 H 
ATOM     14  H2  5P4 d   1       1.377  19.371  51.370  0.00  0.00     0.039 H 
ATOM     15  H3  5P4 d   1       1.022  20.431  52.777  0.00  0.00     0.039 H 
ATOM     16  H4  5P4 d   1       2.965  18.214  52.453  0.00  0.00     0.073 H 
ATOM     17  H11 5P4 d   1       5.103  21.280  55.433  0.00  0.00     0.087 H 
ATOM     18  H12 5P4 d   1       4.958  23.737  55.583  0.00  0.00     0.085 H 
ATOM     19  H13 5P4 d   1       2.707  23.849  51.941  0.00  0.00     0.086 H 
ENDROOT
BRANCH   1  20
ATOM     20  N   5P4 d   1       1.823  21.939  50.589  0.00  0.00    -0.328 N 
ATOM     21  C3  5P4 d   1       2.257  22.659  49.532  0.00  0.00     0.361 C 
ATOM     22  O3  5P4 d   1       1.534  23.205  48.728  0.00  0.00    -0.238 OA
ATOM     23  H21 5P4 d   1       0.839  21.972  50.763  0.00  0.00     0.165 HD
BRANCH  21  24
ATOM     24  O   5P4 d   1       3.605  22.703  49.489  0.00  0.00    -0.299 OA
BRANCH  24  25
ATOM     25  C1  5P4 d   1       4.206  23.676  48.566  0.00  0.00     0.043 C 
ATOM     26  H14 5P4 d   1       3.638  24.618  48.560  0.00  0.00     0.083 H 
BRANCH  25  27
ATOM     27  C2  5P4 d   1       5.587  23.920  49.057  0.00  0.00    -0.052 C 
ATOM     28  H15 5P4 d   1       6.087  24.646  48.399  0.00  0.00     0.030 H 
ATOM     29  H16 5P4 d   1       6.149  22.975  49.055  0.00  0.00     0.030 H 
ATOM     30  H17 5P4 d   1       5.547  24.320  50.081  0.00  0.00     0.030 H 
ENDBRANCH  25  27
BRANCH  25  31
ATOM     31  C   5P4 d   1       4.181  23.055  47.189  0.00  0.00    -0.052 C 
ATOM     32  H18 5P4 d   1       4.624  23.753  46.464  0.00  0.00     0.030 H 
ATOM     33  H19 5P4 d   1       3.141  22.840  46.903  0.00  0.00     0.030 H 
ATOM     34  H20 5P4 d   1       4.760  22.120  47.198  0.00  0.00     0.030 H 
ENDBRANCH  25  31
ENDBRANCH  24  25
ENDBRANCH  21  24
ENDBRANCH   1  20
BRANCH   3  35
ATOM     35  C7  5P4 d   1       1.879  18.559  54.230  0.00  0.00    -0.057 C 
ATOM     36  H5  5P4 d   1       2.520  17.915  54.850  0.00  0.00     0.030 H 
ATOM     37  H6  5P4 d   1       1.023  17.976  53.859  0.00  0.00     0.030 H 
ATOM     38  H7  5P4 d   1       1.514  19.403  54.834  0.00  0.00     0.030 H 
ENDBRANCH   3  35
BRANCH   9  39
ATOM     39  C16 5P4 d   1       3.637  25.428  53.906  0.00  0.00     0.085 A 
ATOM     40  O2  5P4 d   1       4.311  26.048  54.931  0.00  0.00    -0.322 OA
ATOM     41  C19 5P4 d   1       4.064  27.405  54.791  0.00  0.00     0.019 A 
ATOM     42  C18 5P4 d   1       3.278  27.629  53.745  0.00  0.00    -0.059 A 
ATOM     43  H22 5P4 d   1       4.460  28.179  55.447  0.00  0.00     0.123 H 
ATOM     44  C17 5P4 d   1       2.992  26.351  53.157  0.00  0.00    -0.048 A 
ATOM     45  H23 5P4 d   1       2.919  28.597  53.399  0.00  0.00     0.086 H 
ATOM     46  H24 5P4 d   1       2.376  26.162  52.279  0.00  0.00     0.087 H 
ENDBRANCH   9  39
BRANCH   5  47
ATOM     47  C9  5P4 d   1       6.332  19.481  54.089  0.00  0.00    -0.002 C 
ATOM     48  H8  5P4 d   1       7.063  18.671  54.228  0.00  0.00     0.040 H 
ATOM     49  H9  5P4 d   1       6.238  20.055  55.023  0.00  0.00     0.040 H 
ATOM     50  H10 5P4 d   1       6.672  20.147  53.282  0.00  0.00     0.040 H 
ENDBRANCH   5  47
TORSDOF 8
