REMARK  31 active torsions:
REMARK  status: ('A' for Active; 'I' for Inactive)
REMARK    1  A    between atoms: N_1  and  CA_2 
REMARK    2  A    between atoms: CA_2  and  C_3 
REMARK    3  A    between atoms: CA_2  and  CB_5 
REMARK       I    between atoms: C_3  and  N_12 
REMARK    4  A    between atoms: CB_5  and  CG_6 
REMARK    5  A    between atoms: CG_6  and  CD_7 
REMARK    6  A    between atoms: CD_7  and  NE_8 
REMARK       I    between atoms: NE_8  and  CZ_9 
REMARK       I    between atoms: CZ_9  and  NH1_10 
REMARK       I    between atoms: CZ_9  and  NH2_11 
REMARK    7  A    between atoms: N_12  and  CA_13 
REMARK    8  A    between atoms: CA_13  and  C_14 
REMARK    9  A    between atoms: CA_13  and  CB_16 
REMARK       I    between atoms: C_14  and  N_21 
REMARK   10  A    between atoms: CB_16  and  CG_17 
REMARK   11  A    between atoms: CG_17  and  CD_18 
REMARK   12  A    between atoms: CD_18  and  CE_19 
REMARK   13  A    between atoms: CE_19  and  NZ_20 
REMARK   14  A    between atoms: N_21  and  CA_22 
REMARK   15  A    between atoms: CA_22  and  C_23 
REMARK   16  A    between atoms: CA_22  and  CB_25 
REMARK       I    between atoms: C_23  and  N_32 
REMARK   17  A    between atoms: CB_25  and  CG_26 
REMARK   18  A    between atoms: CG_26  and  CD_27 
REMARK   19  A    between atoms: CD_27  and  NE_28 
REMARK       I    between atoms: NE_28  and  CZ_29 
REMARK       I    between atoms: CZ_29  and  NH1_30 
REMARK   20  A    between atoms: N_32  and  CA_33 
REMARK   21  A    between atoms: CA_33  and  C_34 
REMARK   22  A    between atoms: CA_33  and  CB_36 
REMARK       I    between atoms: C_34  and  N_41 
REMARK   23  A    between atoms: CB_36  and  CG_37 
REMARK   24  A    between atoms: CG_37  and  CD_38 
REMARK   25  A    between atoms: CD_38  and  CE_39 
REMARK   26  A    between atoms: CE_39  and  NZ_40 
REMARK   27  A    between atoms: N_41  and  CA_42 
REMARK   28  A    between atoms: CA_42  and  C_43 
REMARK   29  A    between atoms: CA_42  and  CB_45 
REMARK   30  A    between atoms: CB_45  and  OG1_46 
REMARK   31  A    between atoms: CB_45  and  CG2_47 
ROOT
ATOM      1  CA  ARG d   1      42.066  58.293  41.329  0.00  0.00     0.089 C 
ATOM      2  H30 ARG d   1      43.115  58.290  40.997  0.00  0.00     0.087 H 
ENDROOT
BRANCH   1   3
ATOM      3  N   ARG d   1      41.732  56.931  41.721  0.00  0.00    -0.346 N 
ATOM      4  C   LYS d   1      42.574  55.922  41.511  0.00  0.00     0.241 C 
ATOM      5  O   LYS d   1      43.714  56.080  41.064  0.00  0.00    -0.271 OA
ATOM      6  H29 ARG d   1      40.851  56.750  42.157  0.00  0.00     0.163 HD
BRANCH   4   7
ATOM      7  CA  LYS d   1      42.072  54.529  41.884  0.00  0.00     0.089 C 
ATOM      8  H17 LYS d   1      40.972  54.550  41.893  0.00  0.00     0.087 H 
BRANCH   7   9
ATOM      9  N   LYS d   1      42.490  53.499  40.906  0.00  0.00    -0.346 N 
ATOM     10  C   ARG d   1      41.982  53.416  39.662  0.00  0.00     0.248 C 
ATOM     11  O   ARG d   1      41.164  54.237  39.202  0.00  0.00    -0.271 OA
ATOM     12  H16 LYS d   1      43.183  52.833  41.183  0.00  0.00     0.163 HD
BRANCH  10  13
ATOM     13  CA  ARG d   1      42.460  52.228  38.784  0.00  0.00     0.176 C 
ATOM     14  H4  ARG d   1      42.346  52.516  37.728  0.00  0.00     0.099 H 
BRANCH  13  15
ATOM     15  N   ARG d   1      43.869  51.931  39.025  0.00  0.00    -0.067 N 
ATOM     16  H1  ARG d   1      44.154  51.158  38.444  0.00  0.00     0.275 HD
ATOM     17  H2  ARG d   1      44.000  51.689  39.995  0.00  0.00     0.275 HD
ATOM     18  H3  ARG d   1      44.426  52.741  38.803  0.00  0.00     0.275 HD
ENDBRANCH  13  15
BRANCH  13  19
ATOM     19  CB  ARG d   1      41.592  50.973  39.040  0.00  0.00    -0.029 C 
ATOM     20  H5  ARG d   1      40.574  51.318  39.272  0.00  0.00     0.036 H 
ATOM     21  H6  ARG d   1      42.012  50.455  39.915  0.00  0.00     0.036 H 
BRANCH  19  22
ATOM     22  CG  ARG d   1      41.482  49.947  37.907  0.00  0.00    -0.047 C 
ATOM     23  H7  ARG d   1      42.478  49.764  37.478  0.00  0.00     0.035 H 
ATOM     24  H8  ARG d   1      40.811  50.333  37.125  0.00  0.00     0.035 H 
BRANCH  22  25
ATOM     25  CD  ARG d   1      40.914  48.631  38.470  0.00  0.00     0.009 C 
ATOM     26  H9  ARG d   1      39.833  48.765  38.626  0.00  0.00     0.064 H 
ATOM     27  H10 ARG d   1      41.402  48.434  39.436  0.00  0.00     0.064 H 
BRANCH  25  28
ATOM     28  NE  ARG d   1      41.109  47.447  37.609  0.00  0.00    -0.227 N 
ATOM     29  CZ  ARG d   1      41.462  46.228  38.046  0.00  0.00     0.665 C 
ATOM     30  NH1 ARG d   1      41.686  46.004  39.348  0.00  0.00    -0.235 N 
ATOM     31  NH2 ARG d   1      41.602  45.222  37.181  0.00  0.00    -0.235 N 
ATOM     32  H12 ARG d   1      41.956  45.064  39.670  0.00  0.00     0.174 HD
ATOM     33  H13 ARG d   1      41.588  46.772  40.027  0.00  0.00     0.174 HD
ATOM     34  H14 ARG d   1      41.433  45.379  36.177  0.00  0.00     0.174 HD
ATOM     35  H15 ARG d   1      41.879  44.289  37.517  0.00  0.00     0.174 HD
ATOM     36  H11 ARG d   1      40.963  47.566  36.596  0.00  0.00     0.177 HD
ENDBRANCH  25  28
ENDBRANCH  22  25
ENDBRANCH  19  22
ENDBRANCH  13  19
ENDBRANCH  10  13
ENDBRANCH   7   9
BRANCH   7  37
ATOM     37  CB  LYS d   1      42.563  54.206  43.311  0.00  0.00    -0.038 C 
ATOM     38  H18 LYS d   1      42.161  54.974  43.988  0.00  0.00     0.036 H 
ATOM     39  H19 LYS d   1      43.662  54.257  43.309  0.00  0.00     0.036 H 
BRANCH  37  40
ATOM     40  CG  LYS d   1      42.159  52.839  43.862  0.00  0.00    -0.061 C 
ATOM     41  H20 LYS d   1      43.045  52.375  44.320  0.00  0.00     0.033 H 
ATOM     42  H21 LYS d   1      41.811  52.217  43.024  0.00  0.00     0.033 H 
BRANCH  40  43
ATOM     43  CD  LYS d   1      41.055  52.898  44.906  0.00  0.00    -0.043 C 
ATOM     44  H22 LYS d   1      40.179  53.403  44.474  0.00  0.00     0.035 H 
ATOM     45  H23 LYS d   1      41.414  53.467  45.776  0.00  0.00     0.035 H 
BRANCH  43  46
ATOM     46  CE  LYS d   1      40.649  51.496  45.359  0.00  0.00     0.080 C 
ATOM     47  H24 LYS d   1      41.475  51.079  45.953  0.00  0.00     0.075 H 
ATOM     48  H25 LYS d   1      40.496  50.880  44.460  0.00  0.00     0.075 H 
BRANCH  46  49
ATOM     49  NZ  LYS d   1      39.403  51.422  46.186  0.00  0.00    -0.079 N 
ATOM     50  H26 LYS d   1      39.221  50.462  46.434  0.00  0.00     0.274 HD
ATOM     51  H27 LYS d   1      38.626  51.786  45.657  0.00  0.00     0.274 HD
ATOM     52  H28 LYS d   1      39.523  51.968  47.025  0.00  0.00     0.274 HD
ENDBRANCH  46  49
ENDBRANCH  43  46
ENDBRANCH  40  43
ENDBRANCH  37  40
ENDBRANCH   7  37
ENDBRANCH   4   7
ENDBRANCH   1   3
BRANCH   1  53
ATOM     53  C   ARG d   1      41.939  59.329  42.457  0.00  0.00     0.241 C 
ATOM     54  O   ARG d   1      40.837  59.811  42.772  0.00  0.00    -0.271 OA
ATOM     55  N   LYS d   1      43.079  59.688  43.037  0.00  0.00    -0.346 N 
ATOM     56  H42 LYS d   1      43.907  59.165  42.833  0.00  0.00     0.163 HD
BRANCH  55  57
ATOM     57  CA  LYS d   1      43.172  60.814  43.960  0.00  0.00     0.089 C 
ATOM     58  H43 LYS d   1      42.341  60.760  44.679  0.00  0.00     0.087 H 
BRANCH  57  59
ATOM     59  C   LYS d   1      43.045  62.144  43.165  0.00  0.00     0.241 C 
ATOM     60  O   LYS d   1      43.311  62.151  41.959  0.00  0.00    -0.271 OA
ATOM     61  N   THR d   1      42.612  63.256  43.778  0.00  0.00    -0.343 N 
ATOM     62  H55 THR d   1      42.595  64.098  43.238  0.00  0.00     0.163 HD
BRANCH  61  63
ATOM     63  CA  THR d   1      42.160  63.345  45.174  0.00  0.00     0.120 C 
ATOM     64  H56 THR d   1      41.587  62.434  45.398  0.00  0.00     0.093 H 
BRANCH  63  65
ATOM     65  C   THR d   1      41.232  64.567  45.400  0.00  0.00     0.199 C 
ATOM     66  O   THR d   1      41.495  65.688  44.936  0.00  0.00    -0.646 OA
ATOM     67  OXT THR d   1      40.181  64.483  46.056  0.00  0.00    -0.646 OA
ENDBRANCH  63  65
BRANCH  63  68
ATOM     68  CB  THR d   1      43.370  63.419  46.171  0.00  0.00     0.061 C 
ATOM     69  H57 THR d   1      44.072  62.621  45.887  0.00  0.00     0.086 H 
BRANCH  68  70
ATOM     70  OG1 THR d   1      42.931  63.133  47.511  0.00  0.00    -0.393 OA
ATOM     71  H58 THR d   1      43.672  63.181  48.103  0.00  0.00     0.210 HD
ENDBRANCH  68  70
BRANCH  68  72
ATOM     72  CG2 THR d   1      44.158  64.765  46.056  0.00  0.00    -0.050 C 
ATOM     73  H59 THR d   1      44.992  64.764  46.773  0.00  0.00     0.031 H 
ATOM     74  H60 THR d   1      43.483  65.605  46.279  0.00  0.00     0.031 H 
ATOM     75  H61 THR d   1      44.553  64.873  45.035  0.00  0.00     0.031 H 
ENDBRANCH  68  72
ENDBRANCH  63  68
ENDBRANCH  61  63
ENDBRANCH  57  59
BRANCH  57  76
ATOM     76  CB  LYS d   1      44.496  60.713  44.737  0.00  0.00    -0.038 C 
ATOM     77  H44 LYS d   1      44.684  61.679  45.229  0.00  0.00     0.036 H 
ATOM     78  H45 LYS d   1      45.304  60.503  44.020  0.00  0.00     0.036 H 
BRANCH  76  79
ATOM     79  CG  LYS d   1      44.502  59.616  45.807  0.00  0.00    -0.061 C 
ATOM     80  H46 LYS d   1      44.233  58.658  45.337  0.00  0.00     0.033 H 
ATOM     81  H47 LYS d   1      43.759  59.867  46.578  0.00  0.00     0.033 H 
BRANCH  79  82
ATOM     82  CD  LYS d   1      45.866  59.476  46.464  0.00  0.00    -0.043 C 
ATOM     83  H48 LYS d   1      46.028  60.337  47.129  0.00  0.00     0.035 H 
ATOM     84  H49 LYS d   1      46.637  59.468  45.680  0.00  0.00     0.035 H 
BRANCH  82  85
ATOM     85  CE  LYS d   1      45.986  58.190  47.285  0.00  0.00     0.080 C 
ATOM     86  H50 LYS d   1      47.042  58.046  47.558  0.00  0.00     0.075 H 
ATOM     87  H51 LYS d   1      45.649  57.346  46.665  0.00  0.00     0.075 H 
BRANCH  85  88
ATOM     88  NZ  LYS d   1      45.172  58.217  48.534  0.00  0.00    -0.079 N 
ATOM     89  H52 LYS d   1      45.290  57.348  49.031  0.00  0.00     0.274 HD
ATOM     90  H53 LYS d   1      44.200  58.340  48.299  0.00  0.00     0.274 HD
ATOM     91  H54 LYS d   1      45.476  58.981  49.117  0.00  0.00     0.274 HD
ENDBRANCH  85  88
ENDBRANCH  82  85
ENDBRANCH  79  82
ENDBRANCH  76  79
ENDBRANCH  57  76
ENDBRANCH  55  57
ENDBRANCH   1  53
BRANCH   1  92
ATOM     92  CB  ARG d   1      41.189  58.733  40.159  0.00  0.00    -0.036 C 
ATOM     93  H31 ARG d   1      41.475  59.760  39.888  0.00  0.00     0.036 H 
ATOM     94  H32 ARG d   1      40.142  58.721  40.496  0.00  0.00     0.036 H 
BRANCH  92  95
ATOM     95  CG  ARG d   1      41.287  57.884  38.924  0.00  0.00    -0.048 C 
ATOM     96  H33 ARG d   1      41.407  56.830  39.213  0.00  0.00     0.035 H 
ATOM     97  H34 ARG d   1      42.156  58.202  38.329  0.00  0.00     0.035 H 
BRANCH  95  98
ATOM     98  CD  ARG d   1      40.020  58.040  38.094  0.00  0.00     0.009 C 
ATOM     99  H35 ARG d   1      39.176  57.615  38.657  0.00  0.00     0.064 H 
ATOM    100  H36 ARG d   1      40.147  57.488  37.151  0.00  0.00     0.064 H 
BRANCH  98 101
ATOM    101  NE  ARG d   1      39.719  59.439  37.782  0.00  0.00    -0.227 N 
ATOM    102  CZ  ARG d   1      38.539  60.018  38.008  0.00  0.00     0.665 C 
ATOM    103  NH1 ARG d   1      37.553  59.311  38.562  0.00  0.00    -0.235 N 
ATOM    104  NH2 ARG d   1      38.343  61.298  37.681  0.00  0.00    -0.235 N 
ATOM    105  H38 ARG d   1      36.639  59.752  38.739  0.00  0.00     0.174 HD
ATOM    106  H39 ARG d   1      37.705  58.324  38.813  0.00  0.00     0.174 HD
ATOM    107  H40 ARG d   1      39.105  61.843  37.253  0.00  0.00     0.174 HD
ATOM    108  H41 ARG d   1      37.429  61.740  37.857  0.00  0.00     0.174 HD
ATOM    109  H37 ARG d   1      40.465  60.011  37.362  0.00  0.00     0.177 HD
ENDBRANCH  98 101
ENDBRANCH  95  98
ENDBRANCH  92  95
ENDBRANCH   1  92
TORSDOF 31
