REMARK  8 active torsions:
REMARK  status: ('A' for Active; 'I' for Inactive)
REMARK    1  A    between atoms: C04_9  and  C11_1 
REMARK    2  A    between atoms: C11_1  and  N12_16 
REMARK    3  A    between atoms: C13_2  and  C14_3 
REMARK    4  A    between atoms: N12_16  and  C13_2 
REMARK    5  A    between atoms: C14_3  and  C15_4 
REMARK    6  A    between atoms: C15_4  and  C16_5 
REMARK    7  A    between atoms: C01_6  and  S07_12 
REMARK    8  A    between atoms: S07_12  and  N10_15 
ROOT
ATOM      1  C11 5RD d   1      -0.064   5.456  83.463  0.00  0.00     0.105 C 
ATOM      2  H1  5RD d   1      -0.712   6.325  83.648  0.00  0.00     0.083 H 
ATOM      3  H2  5RD d   1      -0.106   5.187  82.397  0.00  0.00     0.083 H 
ENDROOT
BRANCH   1   4
ATOM      4  C04 5RD d   1      -0.557   4.269  84.305  0.00  0.00    -0.033 A 
ATOM      5  C03 5RD d   1      -1.894   4.235  84.684  0.00  0.00    -0.074 A 
ATOM      6  C02 5RD d   1      -2.395   3.167  85.439  0.00  0.00    -0.060 A 
ATOM      7  H13 5RD d   1      -2.555   5.043  84.392  0.00  0.00     0.084 H 
ATOM      8  C01 5RD d   1      -1.533   2.134  85.831  0.00  0.00     0.079 A 
ATOM      9  H12 5RD d   1      -3.442   3.140  85.718  0.00  0.00     0.085 H 
ATOM     10  C06 5RD d   1      -0.179   2.153  85.452  0.00  0.00    -0.060 A 
ATOM     11  C05 5RD d   1       0.308   3.222  84.693  0.00  0.00    -0.074 A 
ATOM     12  H15 5RD d   1       0.482   1.346  85.746  0.00  0.00     0.085 H 
ATOM     13  H14 5RD d   1       1.352   3.247  84.402  0.00  0.00     0.084 H 
BRANCH   8  14
ATOM     14  S07 5RD d   1      -2.175   0.776  86.804  0.00  0.00     0.256 S 
ATOM     15  O08 5RD d   1      -3.608   0.891  86.753  0.00  0.00    -0.201 OA
ATOM     16  O09 5RD d   1      -1.660   0.913  88.142  0.00  0.00    -0.201 OA
BRANCH  14  17
ATOM     17  N10 5RD d   1      -1.669  -0.607  86.119  0.00  0.00    -0.324 N 
ATOM     18  H16 5RD d   1      -1.926  -1.486  86.519  0.00  0.00     0.169 HD
ATOM     19  H17 5RD d   1      -1.101  -0.579  85.297  0.00  0.00     0.169 HD
ENDBRANCH  14  17
ENDBRANCH   8  14
ENDBRANCH   1   4
BRANCH   1  20
ATOM     20  N12 5RD d   1       1.296   5.793  83.815  0.00  0.00    -0.071 N 
ATOM     21  H18 5RD d   1       1.920   5.104  83.425  0.00  0.00     0.277 HD
ATOM     22  H19 5RD d   1       1.387   5.798  84.819  0.00  0.00     0.277 HD
BRANCH  20  23
ATOM     23  C13 5RD d   1       1.644   7.090  83.302  0.00  0.00     0.082 C 
ATOM     24  H3  5RD d   1       2.341   6.977  82.458  0.00  0.00     0.075 H 
ATOM     25  H4  5RD d   1       0.735   7.607  82.961  0.00  0.00     0.075 H 
BRANCH  23  26
ATOM     26  C14 5RD d   1       2.307   7.901  84.404  0.00  0.00    -0.043 C 
ATOM     27  H5  5RD d   1       3.265   7.434  84.677  0.00  0.00     0.035 H 
ATOM     28  H6  5RD d   1       1.649   7.929  85.285  0.00  0.00     0.035 H 
BRANCH  26  29
ATOM     29  C15 5RD d   1       2.560   9.335  83.908  0.00  0.00    -0.067 C 
ATOM     30  H7  5RD d   1       1.598   9.855  83.789  0.00  0.00     0.032 H 
ATOM     31  H8  5RD d   1       3.080   9.300  82.939  0.00  0.00     0.032 H 
BRANCH  29  32
ATOM     32  C16 5RD d   1       3.417  10.084  84.913  0.00  0.00    -0.076 C 
ATOM     33  H9  5RD d   1       3.594  11.108  84.553  0.00  0.00     0.027 H 
ATOM     34  H10 5RD d   1       4.380   9.566  85.032  0.00  0.00     0.027 H 
ATOM     35  H11 5RD d   1       2.898  10.121  85.882  0.00  0.00     0.027 H 
ENDBRANCH  29  32
ENDBRANCH  26  29
ENDBRANCH  23  26
ENDBRANCH  20  23
ENDBRANCH   1  20
TORSDOF 8
