REMARK  9 active torsions:
REMARK  status: ('A' for Active; 'I' for Inactive)
REMARK       I    between atoms: C9_2  and  N3_3 
REMARK       I    between atoms: C9_2  and  N4_14 
REMARK    1  A    between atoms: N3_3  and  C8_4 
REMARK    2  A    between atoms: C2_6  and  C3_7 
REMARK    3  A    between atoms: C3_7  and  C6_8 
REMARK    4  A    between atoms: C3_7  and  C5_9 
REMARK    5  A    between atoms: C3_7  and  C4_10 
REMARK    6  A    between atoms: N1_12  and  C1_13 
REMARK    7  A    between atoms: N4_14  and  C10_15 
REMARK    8  A    between atoms: C13_18  and  S_21 
REMARK    9  A    between atoms: S_21  and  C14_22 
ROOT
ATOM      1  O1  N58 d   1     -13.250  12.037 -26.367  0.00  0.00    -0.247 OA
ATOM      2  C9  N58 d   1     -14.309  11.429 -26.454  0.00  0.00     0.326 C 
ATOM      3  N3  N58 d   1     -15.257  11.673 -25.371  0.00  0.00    -0.293 N 
ATOM      4  N4  N58 d   1     -14.530  10.544 -27.588  0.00  0.00    -0.309 N 
ATOM      5  H1  N58 d   1     -16.135  11.197 -25.424  0.00  0.00     0.172 HD
ATOM      6  H15 N58 d   1     -15.411  10.072 -27.602  0.00  0.00     0.170 HD
ENDROOT
BRANCH   3   7
ATOM      7  C8  N58 d   1     -15.051  12.540 -24.223  0.00  0.00     0.129 A 
ATOM      8  C7  N58 d   1     -14.585  13.872 -24.111  0.00  0.00    -0.013 A 
ATOM      9  C2  N58 d   1     -14.563  14.259 -22.728  0.00  0.00     0.066 A 
ATOM     10  H2  N58 d   1     -14.289  14.506 -24.945  0.00  0.00     0.092 H 
ATOM     11  N2  N58 d   1     -15.013  13.183 -21.999  0.00  0.00    -0.175 NA
ATOM     12  N1  N58 d   1     -15.300  12.169 -22.895  0.00  0.00    -0.258 N 
BRANCH   9  13
ATOM     13  C3  N58 d   1     -14.136  15.614 -22.131  0.00  0.00    -0.005 C 
BRANCH  13  14
ATOM     14  C6  N58 d   1     -12.711  15.994 -22.552  0.00  0.00    -0.064 C 
ATOM     15  H3  N58 d   1     -12.444  16.964 -22.107  0.00  0.00     0.028 H 
ATOM     16  H4  N58 d   1     -12.660  16.067 -23.648  0.00  0.00     0.028 H 
ATOM     17  H5  N58 d   1     -12.008  15.224 -22.202  0.00  0.00     0.028 H 
ENDBRANCH  13  14
BRANCH  13  18
ATOM     18  C5  N58 d   1     -14.133  15.613 -20.593  0.00  0.00    -0.064 C 
ATOM     19  H6  N58 d   1     -15.134  15.346 -20.225  0.00  0.00     0.028 H 
ATOM     20  H7  N58 d   1     -13.862  16.614 -20.226  0.00  0.00     0.028 H 
ATOM     21  H8  N58 d   1     -13.400  14.878 -20.228  0.00  0.00     0.028 H 
ENDBRANCH  13  18
BRANCH  13  22
ATOM     22  C4  N58 d   1     -15.039  16.775 -22.576  0.00  0.00    -0.064 C 
ATOM     23  H9  N58 d   1     -15.071  16.814 -23.675  0.00  0.00     0.028 H 
ATOM     24  H10 N58 d   1     -14.637  17.722 -22.187  0.00  0.00     0.028 H 
ATOM     25  H11 N58 d   1     -16.055  16.620 -22.185  0.00  0.00     0.028 H 
ENDBRANCH  13  22
ENDBRANCH   9  13
BRANCH  12  26
ATOM     26  C1  N58 d   1     -15.812  10.844 -22.481  0.00  0.00     0.004 C 
ATOM     27  H12 N58 d   1     -15.917  10.817 -21.386  0.00  0.00     0.059 H 
ATOM     28  H13 N58 d   1     -15.107  10.062 -22.801  0.00  0.00     0.059 H 
ATOM     29  H14 N58 d   1     -16.792  10.668 -22.948  0.00  0.00     0.059 H 
ENDBRANCH  12  26
ENDBRANCH   3   7
BRANCH   4  30
ATOM     30  C10 N58 d   1     -13.631  10.248 -28.721  0.00  0.00     0.036 A 
ATOM     31  C20 N58 d   1     -12.237  10.422 -28.694  0.00  0.00    -0.056 A 
ATOM     32  C19 N58 d   1     -11.383  10.136 -29.775  0.00  0.00    -0.064 A 
ATOM     33  H16 N58 d   1     -11.791  10.801 -27.782  0.00  0.00     0.087 H 
ATOM     34  C13 N58 d   1     -11.848   9.636 -30.980  0.00  0.00     0.005 A 
ATOM     35  H17 N58 d   1     -10.320  10.314 -29.660  0.00  0.00     0.085 H 
ATOM     36  C12 N58 d   1     -13.224   9.451 -31.058  0.00  0.00    -0.064 A 
ATOM     37  C11 N58 d   1     -14.079   9.737 -29.976  0.00  0.00    -0.056 A 
ATOM     38  H18 N58 d   1     -13.652   9.075 -31.980  0.00  0.00     0.085 H 
ATOM     39  H19 N58 d   1     -15.140   9.558 -30.104  0.00  0.00     0.087 H 
BRANCH  34  40
ATOM     40  S   N58 d   1     -10.769   9.287 -32.360  0.00  0.00    -0.091 SA
BRANCH  40  41
ATOM     41  C14 N58 d   1     -10.546  10.772 -33.340  0.00  0.00     0.008 A 
ATOM     42  C18 N58 d   1      -9.648  10.826 -34.406  0.00  0.00    -0.050 A 
ATOM     43  C17 N58 d   1      -9.525  12.027 -35.126  0.00  0.00     0.003 A 
ATOM     44  H20 N58 d   1      -9.056   9.958 -34.674  0.00  0.00     0.087 H 
ATOM     45  N5  N58 d   1     -10.234  13.146 -34.842  0.00  0.00    -0.273 NA
ATOM     46  H21 N58 d   1      -8.825  12.060 -35.953  0.00  0.00     0.114 H 
ATOM     47  C16 N58 d   1     -11.098  13.075 -33.804  0.00  0.00     0.003 A 
ATOM     48  C15 N58 d   1     -11.284  11.919 -33.035  0.00  0.00    -0.050 A 
ATOM     49  H22 N58 d   1     -11.676  13.957 -33.554  0.00  0.00     0.114 H 
ATOM     50  H23 N58 d   1     -11.991  11.914 -32.214  0.00  0.00     0.087 H 
ENDBRANCH  40  41
ENDBRANCH  34  40
ENDBRANCH   4  30
TORSDOF 9
