REMARK  6 active torsions:
REMARK  status: ('A' for Active; 'I' for Inactive)
REMARK    1  A    between atoms: C9_2  and  C8_3 
REMARK       I    between atoms: C9_2  and  N2_15 
REMARK    2  A    between atoms: C4_8  and  N1_9 
REMARK    3  A    between atoms: C2_13  and  C1_14 
REMARK    4  A    between atoms: N2_15  and  C10_16 
REMARK    5  A    between atoms: C13_19  and  O2_22 
REMARK    6  A    between atoms: O2_22  and  C14_23 
ROOT
ATOM      1  O1  N17 d   1     -13.176  12.439 -26.447  0.00  0.00    -0.267 OA
ATOM      2  C9  N17 d   1     -13.989  11.551 -26.260  0.00  0.00     0.256 C 
ATOM      3  N2  N17 d   1     -14.198  10.549 -27.122  0.00  0.00    -0.323 N 
ATOM      4  H10 N17 d   1     -14.898   9.877 -26.881  0.00  0.00     0.169 HD
ENDROOT
BRANCH   2   5
ATOM      5  C8  N17 d   1     -14.797  11.615 -24.993  0.00  0.00     0.034 A 
ATOM      6  C7  N17 d   1     -15.165  12.849 -24.482  0.00  0.00    -0.068 A 
ATOM      7  C6  N17 d   1     -15.912  12.910 -23.316  0.00  0.00    -0.080 A 
ATOM      8  H1  N17 d   1     -14.871  13.760 -24.990  0.00  0.00     0.085 H 
ATOM      9  C5  N17 d   1     -16.284  11.741 -22.668  0.00  0.00    -0.057 A 
ATOM     10  H2  N17 d   1     -16.206  13.871 -22.910  0.00  0.00     0.083 H 
ATOM     11  C4  N17 d   1     -15.940  10.477 -23.145  0.00  0.00     0.040 A 
ATOM     12  H3  N17 d   1     -16.865  11.813 -21.756  0.00  0.00     0.086 H 
ATOM     13  C21 N17 d   1     -15.191  10.458 -24.330  0.00  0.00    -0.041 A 
ATOM     14  H4  N17 d   1     -14.906   9.499 -24.748  0.00  0.00     0.088 H 
BRANCH  11  15
ATOM     15  N1  N17 d   1     -16.301   9.349 -22.526  0.00  0.00    -0.315 N 
ATOM     16  C3  N17 d   1     -15.947   8.166 -23.015  0.00  0.00     0.010 A 
ATOM     17  C2  N17 d   1     -16.512   7.319 -22.082  0.00  0.00     0.048 A 
ATOM     18  H5  N17 d   1     -15.369   7.929 -23.907  0.00  0.00     0.115 H 
ATOM     19  N4  N17 d   1     -17.159   8.002 -21.108  0.00  0.00    -0.247 NA
ATOM     20  C22 N17 d   1     -17.027   9.323 -21.402  0.00  0.00     0.070 A 
ATOM     21  H6  N17 d   1     -17.424  10.171 -20.846  0.00  0.00     0.144 H 
BRANCH  17  22
ATOM     22  C1  N17 d   1     -16.280   5.861 -22.365  0.00  0.00    -0.034 C 
ATOM     23  H7  N17 d   1     -16.758   5.255 -21.581  0.00  0.00     0.035 H 
ATOM     24  H8  N17 d   1     -15.199   5.657 -22.378  0.00  0.00     0.035 H 
ATOM     25  H9  N17 d   1     -16.713   5.604 -23.343  0.00  0.00     0.035 H 
ENDBRANCH  17  22
ENDBRANCH  11  15
ENDBRANCH   2   5
BRANCH   3  26
ATOM     26  C10 N17 d   1     -13.537  10.366 -28.302  0.00  0.00     0.035 A 
ATOM     27  C20 N17 d   1     -12.179  10.647 -28.447  0.00  0.00    -0.054 A 
ATOM     28  C19 N17 d   1     -11.525  10.431 -29.658  0.00  0.00    -0.048 A 
ATOM     29  H11 N17 d   1     -11.623  11.040 -27.604  0.00  0.00     0.087 H 
ATOM     30  C13 N17 d   1     -12.225   9.914 -30.741  0.00  0.00     0.076 A 
ATOM     31  H12 N17 d   1     -10.471  10.666 -29.755  0.00  0.00     0.087 H 
ATOM     32  C12 N17 d   1     -13.569   9.596 -30.598  0.00  0.00    -0.048 A 
ATOM     33  C11 N17 d   1     -14.219   9.822 -29.387  0.00  0.00    -0.054 A 
ATOM     34  H13 N17 d   1     -14.115   9.170 -31.432  0.00  0.00     0.087 H 
ATOM     35  H14 N17 d   1     -15.269   9.571 -29.288  0.00  0.00     0.087 H 
BRANCH  30  36
ATOM     36  O2  N17 d   1     -11.592   9.674 -31.931  0.00  0.00    -0.311 OA
BRANCH  36  37
ATOM     37  C14 N17 d   1     -11.144  10.667 -32.759  0.00  0.00     0.078 A 
ATOM     38  C18 N17 d   1     -11.721  11.933 -32.753  0.00  0.00    -0.033 A 
ATOM     39  C17 N17 d   1     -11.226  12.907 -33.612  0.00  0.00     0.004 A 
ATOM     40  H15 N17 d   1     -12.546  12.157 -32.087  0.00  0.00     0.090 H 
ATOM     41  N3  N17 d   1     -10.213  12.626 -34.447  0.00  0.00    -0.273 NA
ATOM     42  H16 N17 d   1     -11.661  13.900 -33.608  0.00  0.00     0.114 H 
ATOM     43  C16 N17 d   1      -9.644  11.417 -34.477  0.00  0.00     0.004 A 
ATOM     44  C15 N17 d   1     -10.094  10.403 -33.632  0.00  0.00    -0.033 A 
ATOM     45  H17 N17 d   1      -8.827  11.223 -35.163  0.00  0.00     0.114 H 
ATOM     46  H18 N17 d   1      -9.632   9.423 -33.655  0.00  0.00     0.090 H 
ENDBRANCH  36  37
ENDBRANCH  30  36
ENDBRANCH   3  26
TORSDOF 6
