REMARK  3 active torsions:
REMARK  status: ('A' for Active; 'I' for Inactive)
REMARK    1  A    between atoms: NAB_1  and  CAH_2 
REMARK    2  A    between atoms: CAG_4  and  CAA_5 
REMARK    3  A    between atoms: CAI_9  and  NAC_10 
ROOT
ATOM      1  CAH 2CQ d   1     -38.006 -49.062 -14.711  0.00  0.00     0.052 A 
ATOM      2  CAE 2CQ d   1     -38.486 -49.838 -15.803  0.00  0.00    -0.048 A 
ATOM      3  CAG 2CQ d   1     -39.851 -50.210 -15.847  0.00  0.00    -0.038 A 
ATOM      4  CAJ 2CQ d   1     -40.690 -49.823 -14.806  0.00  0.00     0.042 A 
ATOM      5 CL   2CQ d   1     -42.383 -50.227 -14.885  0.00  0.00    -0.084 Cl
ATOM      6  CAF 2CQ d   1     -40.270 -49.088 -13.706  0.00  0.00    -0.034 A 
ATOM      7  CAI 2CQ d   1     -38.919 -48.691 -13.648  0.00  0.00     0.053 A 
ATOM      8  H3  2CQ d   1     -37.811 -50.142 -16.595  0.00  0.00     0.087 H 
ATOM      9  H7  2CQ d   1     -40.962 -48.827 -12.914  0.00  0.00     0.089 H 
ENDROOT
BRANCH   3  10
ATOM     10  CAA 2CQ d   1     -40.393 -50.952 -17.013  0.00  0.00    -0.050 C 
ATOM     11  H4  2CQ d   1     -39.580 -51.165 -17.722  0.00  0.00     0.033 H 
ATOM     12  H5  2CQ d   1     -41.162 -50.343 -17.510  0.00  0.00     0.033 H 
ATOM     13  H6  2CQ d   1     -40.839 -51.898 -16.671  0.00  0.00     0.033 H 
ENDBRANCH   3  10
BRANCH   1  14
ATOM     14  NAB 2CQ d   1     -36.644 -48.649 -14.716  0.00  0.00    -0.397 N 
ATOM     15  H1  2CQ d   1     -36.023 -48.931 -15.488  0.00  0.00     0.156 HD
ATOM     16  H2  2CQ d   1     -36.279 -48.068 -13.948  0.00  0.00     0.156 HD
ENDBRANCH   1  14
BRANCH   7  17
ATOM     17  NAC 2CQ d   1     -38.480 -47.938 -12.536  0.00  0.00    -0.397 N 
ATOM     18  H8  2CQ d   1     -37.497 -47.637 -12.473  0.00  0.00     0.156 HD
ATOM     19  H9  2CQ d   1     -39.143 -47.690 -11.788  0.00  0.00     0.156 HD
ENDBRANCH   7  17
TORSDOF 3
