REMARK  8 active torsions:
REMARK  status: ('A' for Active; 'I' for Inactive)
REMARK    1  A    between atoms: C5_2  and  C11_4 
REMARK       I    between atoms: C6_3  and  N1_10 
REMARK    2  A    between atoms: O2_12  and  C6_3 
REMARK    3  A    between atoms: C11_4  and  C12_9 
REMARK    4  A    between atoms: C7_5  and  C8_6 
REMARK    5  A    between atoms: C7_5  and  C10_8 
REMARK    6  A    between atoms: C7_5  and  O2_12 
REMARK    7  A    between atoms: C8_6  and  C9_7 
REMARK    8  A    between atoms: C12_9  and  O3_16 
ROOT
ATOM      1  C4  KBR d   1       2.270  -2.023 -38.215  0.00  0.00    -0.046 C 
ATOM      2  C5  KBR d   1       1.752  -2.543 -36.878  0.00  0.00     0.018 C 
ATOM      3  C6  KBR d   1       2.773  -2.154 -34.650  0.00  0.00     0.363 C 
ATOM      4  N1  KBR d   1       2.835  -2.697 -35.878  0.00  0.00    -0.323 N 
ATOM      5  C3  KBR d   1       3.594  -2.731 -38.572  0.00  0.00    -0.062 C 
ATOM      6  O1  KBR d   1       1.778  -1.526 -34.298  0.00  0.00    -0.238 OA
ATOM      7  C1  KBR d   1       4.052  -3.382 -36.345  0.00  0.00     0.000 C 
ATOM      8  C2  KBR d   1       4.555  -2.506 -37.429  0.00  0.00    -0.050 C 
ATOM      9  H1  KBR d   1       2.443  -0.939 -38.143  0.00  0.00     0.036 H 
ATOM     10  H2  KBR d   1       1.525  -2.224 -38.999  0.00  0.00     0.036 H 
ATOM     11  H3  KBR d   1       0.992  -1.851 -36.487  0.00  0.00     0.073 H 
ATOM     12  H17 KBR d   1       4.008  -2.307 -39.499  0.00  0.00     0.033 H 
ATOM     13  H18 KBR d   1       3.418  -3.808 -38.708  0.00  0.00     0.033 H 
ATOM     14  H19 KBR d   1       3.814  -4.385 -36.730  0.00  0.00     0.064 H 
ATOM     15  H20 KBR d   1       4.790  -3.466 -35.534  0.00  0.00     0.064 H 
ATOM     16  H21 KBR d   1       4.545  -1.452 -37.114  0.00  0.00     0.035 H 
ATOM     17  H22 KBR d   1       5.577  -2.792 -37.718  0.00  0.00     0.035 H 
ENDROOT
BRANCH   2  18
ATOM     18  C11 KBR d   1       1.144  -3.903 -37.120  0.00  0.00    -0.026 C 
ATOM     19  H4  KBR d   1       1.336  -4.579 -36.274  0.00  0.00     0.039 H 
ATOM     20  H5  KBR d   1       1.535  -4.353 -38.044  0.00  0.00     0.039 H 
BRANCH  18  21
ATOM     21  C12 KBR d   1      -0.304  -3.599 -37.244  0.00  0.00     0.019 C 
ATOM     22  H15 KBR d   1      -0.498  -3.001 -38.147  0.00  0.00     0.074 H 
ATOM     23  H16 KBR d   1      -0.662  -3.053 -36.359  0.00  0.00     0.074 H 
BRANCH  21  24
ATOM     24  O3  KBR d   1      -0.945  -4.879 -37.340  0.00  0.00    -0.401 OA
ATOM     25  H23 KBR d   1      -0.758  -5.385 -36.558  0.00  0.00     0.209 HD
ENDBRANCH  21  24
ENDBRANCH  18  21
ENDBRANCH   2  18
BRANCH   3  26
ATOM     26  O2  KBR d   1       3.807  -2.350 -33.794  0.00  0.00    -0.299 OA
BRANCH  26  27
ATOM     27  C7  KBR d   1       3.862  -1.713 -32.510  0.00  0.00     0.046 C 
ATOM     28  H6  KBR d   1       3.658  -0.637 -32.611  0.00  0.00     0.083 H 
BRANCH  27  29
ATOM     29  C8  KBR d   1       2.843  -2.330 -31.561  0.00  0.00    -0.044 C 
ATOM     30  H7  KBR d   1       2.813  -3.417 -31.725  0.00  0.00     0.036 H 
ATOM     31  H8  KBR d   1       1.852  -1.900 -31.770  0.00  0.00     0.036 H 
BRANCH  29  32
ATOM     32  C9  KBR d   1       3.207  -2.057 -30.101  0.00  0.00    -0.074 C 
ATOM     33  H9  KBR d   1       2.453  -2.515 -29.444  0.00  0.00     0.027 H 
ATOM     34  H10 KBR d   1       3.235  -0.971 -29.927  0.00  0.00     0.027 H 
ATOM     35  H11 KBR d   1       4.195  -2.489 -29.883  0.00  0.00     0.027 H 
ENDBRANCH  29  32
ENDBRANCH  27  29
BRANCH  27  36
ATOM     36  C10 KBR d   1       5.288  -1.935 -31.996  0.00  0.00    -0.052 C 
ATOM     37  H12 KBR d   1       6.005  -1.482 -32.696  0.00  0.00     0.030 H 
ATOM     38  H13 KBR d   1       5.485  -3.014 -31.917  0.00  0.00     0.030 H 
ATOM     39  H14 KBR d   1       5.398  -1.468 -31.006  0.00  0.00     0.030 H 
ENDBRANCH  27  36
ENDBRANCH  26  27
ENDBRANCH   3  26
TORSDOF 8
