REMARK  30 active torsions:
REMARK  status: ('A' for Active; 'I' for Inactive)
REMARK    1  A    between atoms: C1_1  and  O1L_15 
REMARK    2  A    between atoms: N2_14  and  C2_2 
REMARK    3  A    between atoms: C3_3  and  O3_10 
REMARK    4  A    between atoms: C4_4  and  O4_11 
REMARK    5  A    between atoms: C5_5  and  C6_6 
REMARK    6  A    between atoms: C6_6  and  O6_12 
REMARK    7  A    between atoms: C7_7  and  C8_8 
REMARK       I    between atoms: C7_7  and  N2_14 
REMARK    8  A    between atoms: O3_10  and  C1_51 
REMARK    9  A    between atoms: O4_11  and  C1_16 
REMARK   10  A    between atoms: C2_17  and  O2_22 
REMARK   11  A    between atoms: C3_18  and  O3_23 
REMARK   12  A    between atoms: C4_19  and  O4_24 
REMARK   13  A    between atoms: C5_20  and  C6_21 
REMARK   14  A    between atoms: C6_21  and  O6_26 
REMARK   15  A    between atoms: O2_22  and  C1_41 
REMARK   16  A    between atoms: O3_23  and  C1_28 
REMARK   17  A    between atoms: C2_29  and  N2_30 
REMARK       I    between atoms: N2_30  and  C7_38 
REMARK   18  A    between atoms: C3_31  and  O3_32 
REMARK   19  A    between atoms: C4_33  and  O4_34 
REMARK   20  A    between atoms: C5_35  and  C6_36 
REMARK   21  A    between atoms: C6_36  and  O6_37 
REMARK   22  A    between atoms: C7_38  and  C8_40 
REMARK   23  A    between atoms: C2_42  and  O2_47 
REMARK   24  A    between atoms: C3_43  and  O3_48 
REMARK   25  A    between atoms: C4_44  and  O4_49 
REMARK   26  A    between atoms: C5_45  and  C6_46 
REMARK   27  A    between atoms: C2_52  and  O2_57 
REMARK   28  A    between atoms: C3_53  and  O3_58 
REMARK   29  A    between atoms: C4_54  and  O4_59 
REMARK   30  A    between atoms: C5_55  and  C6_56 
ROOT
ATOM      1  H14 NDG d   1      -1.248  -3.170 -31.493  0.00  0.00     0.133 H 
ATOM      2  H15 NDG d   1      -0.496  -3.766 -28.587  0.00  0.00     0.095 H 
ATOM      3  H16 NDG d   1       0.798  -1.919 -30.674  0.00  0.00     0.091 H 
ATOM      4  H17 NDG d   1       2.680  -3.463 -30.640  0.00  0.00     0.091 H 
ATOM      5  H18 NDG d   1       0.853  -3.772 -32.265  0.00  0.00     0.090 H 
ATOM      6  C1  GAL d   1      -1.113  -3.861 -30.648  0.00  0.00     0.159 C 
ATOM      7  C2  GAL d   1      -0.544  -3.109 -29.468  0.00  0.00     0.116 C 
ATOM      8  C3  GAL d   1       0.861  -2.619 -29.828  0.00  0.00     0.098 C 
ATOM      9  C4  GAL d   1       1.705  -3.827 -30.285  0.00  0.00     0.090 C 
ATOM     10  C5  GAL d   1       0.967  -4.520 -31.467  0.00  0.00     0.089 C 
ATOM     11  O5  GAL d   1      -0.329  -4.940 -31.052  0.00  0.00    -0.348 OA
ENDROOT
BRANCH   6  12
ATOM     12  O4  NDG d   1      -2.384  -4.402 -30.216  0.00  0.00    -0.348 OA
BRANCH  12  13
ATOM     13  C4  NDG d   1      -3.254  -4.745 -31.303  0.00  0.00     0.096 C 
ATOM     14  C3  NDG d   1      -3.834  -6.184 -31.133  0.00  0.00     0.093 C 
ATOM     15  C2  NDG d   1      -4.924  -6.463 -32.167  0.00  0.00     0.087 C 
ATOM     16  H3  NDG d   1      -4.261  -6.279 -30.123  0.00  0.00     0.091 H 
ATOM     17  C1  NDG d   1      -5.945  -5.345 -32.218  0.00  0.00     0.151 C 
ATOM     18  H2  NDG d   1      -4.443  -6.545 -33.153  0.00  0.00     0.084 H 
ATOM     19  O   NDG d   1      -5.236  -4.132 -32.451  0.00  0.00    -0.349 OA
ATOM     20  H1  NDG d   1      -6.628  -5.513 -33.064  0.00  0.00     0.132 H 
ATOM     21  C5  NDG d   1      -4.388  -3.737 -31.353  0.00  0.00     0.089 C 
ATOM     22  H5  NDG d   1      -4.963  -3.815 -30.419  0.00  0.00     0.090 H 
ATOM     23  H4  NDG d   1      -2.686  -4.701 -32.244  0.00  0.00     0.091 H 
BRANCH  14  24
ATOM     24  O3  NDG d   1      -2.793  -7.154 -31.303  0.00  0.00    -0.348 OA
BRANCH  24  25
ATOM     25  C1  FUC d   1      -2.898  -8.384 -30.531  0.00  0.00     0.159 C 
ATOM     26  C2  FUC d   1      -1.989  -9.438 -31.104  0.00  0.00     0.110 C 
ATOM     27  C3  FUC d   1      -0.540  -8.971 -31.079  0.00  0.00     0.092 C 
ATOM     28  H49 NDG d   1      -2.075 -10.354 -30.502  0.00  0.00     0.094 H 
ATOM     29  C4  FUC d   1      -0.146  -8.531 -29.657  0.00  0.00     0.087 C 
ATOM     30  H50 NDG d   1      -0.420  -8.123 -31.770  0.00  0.00     0.091 H 
ATOM     31  C5  FUC d   1      -1.137  -7.528 -29.127  0.00  0.00     0.065 C 
ATOM     32  H51 NDG d   1       0.843  -8.051 -29.703  0.00  0.00     0.091 H 
ATOM     33  O5  FUC d   1      -2.483  -8.033 -29.204  0.00  0.00    -0.351 OA
ATOM     34  H52 NDG d   1      -1.050  -6.598 -29.708  0.00  0.00     0.086 H 
ATOM     35  H48 NDG d   1      -3.934  -8.752 -30.528  0.00  0.00     0.133 H 
BRANCH  26  36
ATOM     36  O2  FUC d   1      -2.417  -9.723 -32.477  0.00  0.00    -0.388 OA
ATOM     37  H56 NDG d   1      -3.322 -10.012 -32.472  0.00  0.00     0.210 HD
ENDBRANCH  26  36
BRANCH  27  38
ATOM     38  O3  FUC d   1       0.311 -10.040 -31.484  0.00  0.00    -0.390 OA
ATOM     39  H57 NDG d   1       0.074 -10.317 -32.361  0.00  0.00     0.210 HD
ENDBRANCH  27  38
BRANCH  29  40
ATOM     40  O4  FUC d   1      -0.054  -9.690 -28.766  0.00  0.00    -0.390 OA
ATOM     41  H58 NDG d   1      -0.906 -10.105 -28.700  0.00  0.00     0.210 HD
ENDBRANCH  29  40
BRANCH  31  42
ATOM     42  C6  FUC d   1      -0.885  -7.247 -27.641  0.00  0.00    -0.050 C 
ATOM     43  H53 NDG d   1      -1.619  -6.513 -27.277  0.00  0.00     0.031 H 
ATOM     44  H54 NDG d   1       0.131  -6.845 -27.511  0.00  0.00     0.031 H 
ATOM     45  H55 NDG d   1      -0.986  -8.181 -27.069  0.00  0.00     0.031 H 
ENDBRANCH  31  42
ENDBRANCH  24  25
ENDBRANCH  14  24
BRANCH  15  46
ATOM     46  N2  NDG d   1      -5.636  -7.728 -31.882  0.00  0.00    -0.349 N 
ATOM     47  C7  NDG d   1      -5.707  -8.690 -32.807  0.00  0.00     0.214 C 
ATOM     48  O7  NDG d   1      -5.193  -8.594 -33.924  0.00  0.00    -0.274 OA
ATOM     49  H12 NDG d   1      -6.067  -7.864 -30.990  0.00  0.00     0.163 HD
BRANCH  47  50
ATOM     50  C8  NDG d   1      -6.429  -9.994 -32.416  0.00  0.00    -0.003 C 
ATOM     51  H8  NDG d   1      -6.823  -9.902 -31.393  0.00  0.00     0.040 H 
ATOM     52  H9  NDG d   1      -5.720 -10.834 -32.462  0.00  0.00     0.040 H 
ATOM     53  H10 NDG d   1      -7.259 -10.177 -33.114  0.00  0.00     0.040 H 
ENDBRANCH  47  50
ENDBRANCH  15  46
BRANCH  17  54
ATOM     54  O1L NDG d   1      -6.722  -5.364 -31.014  0.00  0.00    -0.369 OA
ATOM     55  H13 NDG d   1      -7.369  -4.669 -31.045  0.00  0.00     0.212 HD
ENDBRANCH  17  54
BRANCH  21  56
ATOM     56  C6  NDG d   1      -3.915  -2.290 -31.473  0.00  0.00     0.043 C 
ATOM     57  H6  NDG d   1      -3.154  -2.077 -30.708  0.00  0.00     0.078 H 
ATOM     58  H7  NDG d   1      -4.765  -1.604 -31.345  0.00  0.00     0.078 H 
BRANCH  56  59
ATOM     59  O6  NDG d   1      -3.347  -2.135 -32.793  0.00  0.00    -0.398 OA
ATOM     60  H11 NDG d   1      -3.041  -1.242 -32.902  0.00  0.00     0.209 HD
ENDBRANCH  56  59
ENDBRANCH  21  56
ENDBRANCH  12  13
ENDBRANCH   6  12
BRANCH   7  61
ATOM     61  O2  GAL d   1      -1.394  -1.988 -29.195  0.00  0.00    -0.346 OA
BRANCH  61  62
ATOM     62  C1  FUC d   1      -1.439  -1.496 -27.864  0.00  0.00     0.159 C 
ATOM     63  C2  FUC d   1      -2.070  -0.146 -27.852  0.00  0.00     0.110 C 
ATOM     64  C3  FUC d   1      -3.534  -0.216 -28.330  0.00  0.00     0.092 C 
ATOM     65  H38 NDG d   1      -2.032   0.273 -26.836  0.00  0.00     0.094 H 
ATOM     66  C4  FUC d   1      -4.319  -1.346 -27.597  0.00  0.00     0.087 C 
ATOM     67  H39 NDG d   1      -3.542  -0.442 -29.407  0.00  0.00     0.091 H 
ATOM     68  C5  FUC d   1      -3.539  -2.637 -27.705  0.00  0.00     0.065 C 
ATOM     69  H40 NDG d   1      -5.305  -1.474 -28.068  0.00  0.00     0.091 H 
ATOM     70  O5  FUC d   1      -2.260  -2.449 -27.116  0.00  0.00    -0.351 OA
ATOM     71  H41 NDG d   1      -3.425  -2.914 -28.764  0.00  0.00     0.086 H 
ATOM     72  H37 NDG d   1      -0.427  -1.438 -27.436  0.00  0.00     0.133 H 
BRANCH  63  73
ATOM     73  O2  FUC d   1      -1.329   0.704 -28.779  0.00  0.00    -0.388 OA
ATOM     74  H45 NDG d   1      -1.371   0.331 -29.652  0.00  0.00     0.210 HD
ENDBRANCH  63  73
BRANCH  64  75
ATOM     75  O3  FUC d   1      -4.138   1.073 -28.129  0.00  0.00    -0.390 OA
ATOM     76  H46 NDG d   1      -4.152   1.274 -27.201  0.00  0.00     0.210 HD
ENDBRANCH  64  75
BRANCH  66  77
ATOM     77  O4  FUC d   1      -4.496  -0.985 -26.206  0.00  0.00    -0.390 OA
ATOM     78  H47 NDG d   1      -4.987  -0.173 -26.151  0.00  0.00     0.210 HD
ENDBRANCH  66  77
BRANCH  68  79
ATOM     79  C6  FUC d   1      -4.278  -3.755 -26.956  0.00  0.00    -0.050 C 
ATOM     80  H42 NDG d   1      -3.706  -4.691 -27.038  0.00  0.00     0.031 H 
ATOM     81  H43 NDG d   1      -5.276  -3.895 -27.398  0.00  0.00     0.031 H 
ATOM     82  H44 NDG d   1      -4.381  -3.480 -25.896  0.00  0.00     0.031 H 
ENDBRANCH  68  79
ENDBRANCH  61  62
ENDBRANCH   7  61
BRANCH   8  83
ATOM     83  O3  GAL d   1       1.360  -1.898 -28.696  0.00  0.00    -0.348 OA
BRANCH  83  84
ATOM     84  C1  A2G d   1       2.705  -1.513 -28.919  0.00  0.00     0.154 C 
ATOM     85  O   A2G d   1       2.731  -0.581 -30.026  0.00  0.00    -0.349 OA
ATOM     86  C5  A2G d   1       1.925   0.526 -29.775  0.00  0.00     0.089 C 
ATOM     87  C4  A2G d   1       2.587   1.323 -28.644  0.00  0.00     0.089 C 
ATOM     88  H30 NDG d   1       0.942   0.183 -29.420  0.00  0.00     0.090 H 
ATOM     89  C3  A2G d   1       2.577   0.400 -27.401  0.00  0.00     0.086 C 
ATOM     90  H28 NDG d   1       2.030   2.252 -28.455  0.00  0.00     0.091 H 
ATOM     91  C2  A2G d   1       3.279  -0.863 -27.716  0.00  0.00     0.087 C 
ATOM     92  H26 NDG d   1       1.533   0.185 -27.128  0.00  0.00     0.090 H 
ATOM     93  H24 NDG d   1       4.340  -0.647 -27.911  0.00  0.00     0.084 H 
ATOM     94  H23 NDG d   1       3.303  -2.402 -29.168  0.00  0.00     0.132 H 
BRANCH  86  95
ATOM     95  C6  A2G d   1       1.699   1.309 -31.079  0.00  0.00     0.043 C 
ATOM     96  H31 NDG d   1       2.495   2.056 -31.218  0.00  0.00     0.078 H 
ATOM     97  H32 NDG d   1       0.722   1.814 -31.056  0.00  0.00     0.078 H 
BRANCH  95  98
ATOM     98  O6  A2G d   1       1.735   0.314 -32.171  0.00  0.00    -0.398 OA
ATOM     99  H33 NDG d   1       2.580  -0.120 -32.175  0.00  0.00     0.209 HD
ENDBRANCH  95  98
ENDBRANCH  86  95
BRANCH  87 100
ATOM    100  O4  A2G d   1       3.971   1.623 -28.941  0.00  0.00    -0.390 OA
ATOM    101  H29 NDG d   1       4.438   0.815 -29.120  0.00  0.00     0.210 HD
ENDBRANCH  87 100
BRANCH  89 102
ATOM    102  O3  A2G d   1       3.247   1.005 -26.272  0.00  0.00    -0.391 OA
ATOM    103  H27 NDG d   1       3.212   0.413 -25.530  0.00  0.00     0.210 HD
ENDBRANCH  89 102
BRANCH  91 104
ATOM    104  N2  A2G d   1       3.173  -1.733 -26.539  0.00  0.00    -0.349 N 
ATOM    105  C7  A2G d   1       4.283  -2.152 -25.932  0.00  0.00     0.214 C 
ATOM    106  O7  A2G d   1       5.425  -1.953 -26.341  0.00  0.00    -0.274 OA
ATOM    107  H25 NDG d   1       2.275  -2.009 -26.195  0.00  0.00     0.163 HD
BRANCH 105 108
ATOM    108  C8  A2G d   1       4.090  -2.912 -24.640  0.00  0.00    -0.003 C 
ATOM    109  H34 NDG d   1       5.071  -3.203 -24.236  0.00  0.00     0.040 H 
ATOM    110  H35 NDG d   1       3.490  -3.814 -24.831  0.00  0.00     0.040 H 
ATOM    111  H36 NDG d   1       3.569  -2.272 -23.913  0.00  0.00     0.040 H 
ENDBRANCH 105 108
ENDBRANCH  91 104
ENDBRANCH  83  84
ENDBRANCH   8  83
BRANCH  10 112
ATOM    112  C6  GAL d   1       1.696  -5.710 -32.056  0.00  0.00     0.043 C 
ATOM    113  H19 NDG d   1       1.695  -6.545 -31.339  0.00  0.00     0.078 H 
ATOM    114  H20 NDG d   1       2.733  -5.434 -32.296  0.00  0.00     0.078 H 
BRANCH 112 115
ATOM    115  O6  GAL d   1       0.988  -6.095 -33.271  0.00  0.00    -0.398 OA
ATOM    116  H22 NDG d   1       0.092  -6.326 -33.054  0.00  0.00     0.209 HD
ENDBRANCH 112 115
ENDBRANCH  10 112
BRANCH   9 117
ATOM    117  O4  GAL d   1       1.939  -4.760 -29.187  0.00  0.00    -0.390 OA
ATOM    118  H21 NDG d   1       2.473  -5.483 -29.495  0.00  0.00     0.210 HD
ENDBRANCH   9 117
TORSDOF 30
