REMARK  30 active torsions:
REMARK  status: ('A' for Active; 'I' for Inactive)
REMARK    1  A    between atoms: C1_1  and  O1L_15 
REMARK    2  A    between atoms: N2_14  and  C2_2 
REMARK    3  A    between atoms: C3_3  and  O3_10 
REMARK    4  A    between atoms: C4_4  and  O4_11 
REMARK    5  A    between atoms: C5_5  and  C6_6 
REMARK    6  A    between atoms: C6_6  and  O6_12 
REMARK    7  A    between atoms: C7_7  and  C8_8 
REMARK       I    between atoms: C7_7  and  N2_14 
REMARK    8  A    between atoms: O3_10  and  C1_51 
REMARK    9  A    between atoms: O4_11  and  C1_16 
REMARK   10  A    between atoms: C2_17  and  O2_22 
REMARK   11  A    between atoms: C3_18  and  O3_23 
REMARK   12  A    between atoms: C4_19  and  O4_24 
REMARK   13  A    between atoms: C5_20  and  C6_21 
REMARK   14  A    between atoms: C6_21  and  O6_26 
REMARK   15  A    between atoms: O2_22  and  C1_41 
REMARK   16  A    between atoms: O3_23  and  C1_28 
REMARK   17  A    between atoms: C2_29  and  N2_30 
REMARK       I    between atoms: N2_30  and  C7_38 
REMARK   18  A    between atoms: C3_31  and  O3_32 
REMARK   19  A    between atoms: C4_33  and  O4_34 
REMARK   20  A    between atoms: C5_35  and  C6_36 
REMARK   21  A    between atoms: C6_36  and  O6_37 
REMARK   22  A    between atoms: C7_38  and  C8_40 
REMARK   23  A    between atoms: C2_42  and  O2_47 
REMARK   24  A    between atoms: C3_43  and  O3_48 
REMARK   25  A    between atoms: C4_44  and  O4_49 
REMARK   26  A    between atoms: C5_45  and  C6_46 
REMARK   27  A    between atoms: C2_52  and  O2_57 
REMARK   28  A    between atoms: C3_53  and  O3_58 
REMARK   29  A    between atoms: C4_54  and  O4_59 
REMARK   30  A    between atoms: C5_55  and  C6_56 
ROOT
ATOM      1  H14 NDG d   1      17.460  -3.284 -31.312  0.00  0.00     0.133 H 
ATOM      2  H15 NDG d   1      16.043  -1.977 -28.957  0.00  0.00     0.095 H 
ATOM      3  H16 NDG d   1      18.999  -2.201 -29.723  0.00  0.00     0.091 H 
ATOM      4  H17 NDG d   1      19.265  -3.592 -27.736  0.00  0.00     0.091 H 
ATOM      5  H18 NDG d   1      18.839  -4.691 -29.852  0.00  0.00     0.090 H 
ATOM      6  C1  GAL d   1      16.677  -3.275 -30.539  0.00  0.00     0.159 C 
ATOM      7  C2  GAL d   1      16.865  -2.075 -29.681  0.00  0.00     0.116 C 
ATOM      8  C3  GAL d   1      18.184  -2.203 -28.984  0.00  0.00     0.098 C 
ATOM      9  C4  GAL d   1      18.262  -3.495 -28.178  0.00  0.00     0.090 C 
ATOM     10  C5  GAL d   1      18.028  -4.647 -29.111  0.00  0.00     0.089 C 
ATOM     11  O5  GAL d   1      16.768  -4.497 -29.793  0.00  0.00    -0.348 OA
ENDROOT
BRANCH   6  12
ATOM     12  O4  NDG d   1      15.398  -3.169 -31.169  0.00  0.00    -0.348 OA
BRANCH  12  13
ATOM     13  C4  NDG d   1      15.292  -3.888 -32.373  0.00  0.00     0.096 C 
ATOM     14  C3  NDG d   1      13.963  -4.613 -32.305  0.00  0.00     0.093 C 
ATOM     15  C2  NDG d   1      13.701  -5.310 -33.618  0.00  0.00     0.087 C 
ATOM     16  H3  NDG d   1      13.148  -3.905 -32.095  0.00  0.00     0.091 H 
ATOM     17  C1  NDG d   1      13.884  -4.351 -34.800  0.00  0.00     0.151 C 
ATOM     18  H2  NDG d   1      14.361  -6.185 -33.712  0.00  0.00     0.084 H 
ATOM     19  O   NDG d   1      15.164  -3.732 -34.794  0.00  0.00    -0.349 OA
ATOM     20  H1  NDG d   1      13.765  -4.914 -35.738  0.00  0.00     0.132 H 
ATOM     21  C5  NDG d   1      15.397  -2.955 -33.606  0.00  0.00     0.089 C 
ATOM     22  H5  NDG d   1      14.668  -2.136 -33.521  0.00  0.00     0.090 H 
ATOM     23  H4  NDG d   1      16.105  -4.626 -32.432  0.00  0.00     0.091 H 
BRANCH  14  24
ATOM     24  O3  NDG d   1      14.084  -5.595 -31.204  0.00  0.00    -0.348 OA
BRANCH  24  25
ATOM     25  C1  FUC d   1      12.879  -5.921 -30.409  0.00  0.00     0.159 C 
ATOM     26  C2  FUC d   1      13.095  -7.301 -29.725  0.00  0.00     0.110 C 
ATOM     27  C3  FUC d   1      14.237  -7.189 -28.766  0.00  0.00     0.092 C 
ATOM     28  H49 NDG d   1      12.187  -7.593 -29.178  0.00  0.00     0.094 H 
ATOM     29  C4  FUC d   1      13.964  -6.057 -27.757  0.00  0.00     0.087 C 
ATOM     30  H50 NDG d   1      15.158  -6.959 -29.322  0.00  0.00     0.091 H 
ATOM     31  C5  FUC d   1      13.654  -4.722 -28.483  0.00  0.00     0.065 C 
ATOM     32  H51 NDG d   1      14.879  -5.912 -27.163  0.00  0.00     0.091 H 
ATOM     33  O5  FUC d   1      12.643  -4.886 -29.450  0.00  0.00    -0.351 OA
ATOM     34  H52 NDG d   1      14.569  -4.402 -29.003  0.00  0.00     0.086 H 
ATOM     35  H48 NDG d   1      12.008  -5.987 -31.078  0.00  0.00     0.133 H 
BRANCH  26  36
ATOM     36  O2  FUC d   1      13.371  -8.269 -30.735  0.00  0.00    -0.388 OA
ATOM     37  H56 NDG d   1      14.149  -8.011 -31.215  0.00  0.00     0.210 HD
ENDBRANCH  26  36
BRANCH  27  38
ATOM     38  O3  FUC d   1      14.397  -8.438 -28.088  0.00  0.00    -0.390 OA
ATOM     39  H57 NDG d   1      13.604  -8.639 -27.605  0.00  0.00     0.210 HD
ENDBRANCH  27  38
BRANCH  29  40
ATOM     40  O4  FUC d   1      12.883  -6.407 -26.833  0.00  0.00    -0.390 OA
ATOM     41  H58 NDG d   1      12.072  -6.502 -27.318  0.00  0.00     0.210 HD
ENDBRANCH  29  40
BRANCH  31  42
ATOM     42  C6  FUC d   1      13.279  -3.645 -27.503  0.00  0.00    -0.050 C 
ATOM     43  H53 NDG d   1      13.066  -2.713 -28.047  0.00  0.00     0.031 H 
ATOM     44  H54 NDG d   1      14.112  -3.479 -26.804  0.00  0.00     0.031 H 
ATOM     45  H55 NDG d   1      12.385  -3.955 -26.942  0.00  0.00     0.031 H 
ENDBRANCH  31  42
ENDBRANCH  24  25
ENDBRANCH  14  24
BRANCH  15  46
ATOM     46  N2  NDG d   1      12.308  -5.689 -33.714  0.00  0.00    -0.349 N 
ATOM     47  C7  NDG d   1      11.937  -6.731 -34.460  0.00  0.00     0.214 C 
ATOM     48  O7  NDG d   1      12.726  -7.480 -35.020  0.00  0.00    -0.274 OA
ATOM     49  H12 NDG d   1      11.617  -5.165 -33.217  0.00  0.00     0.163 HD
BRANCH  47  50
ATOM     50  C8  NDG d   1      10.426  -6.952 -34.584  0.00  0.00    -0.003 C 
ATOM     51  H8  NDG d   1       9.894  -6.178 -34.012  0.00  0.00     0.040 H 
ATOM     52  H9  NDG d   1      10.167  -7.944 -34.187  0.00  0.00     0.040 H 
ATOM     53  H10 NDG d   1      10.132  -6.892 -35.642  0.00  0.00     0.040 H 
ENDBRANCH  47  50
ENDBRANCH  15  46
BRANCH  17  54
ATOM     54  O1L NDG d   1      12.862  -3.318 -34.718  0.00  0.00    -0.369 OA
ATOM     55  H13 NDG d   1      12.942  -2.735 -35.464  0.00  0.00     0.212 HD
ENDBRANCH  17  54
BRANCH  21  56
ATOM     56  C6  NDG d   1      16.797  -2.408 -33.743  0.00  0.00     0.043 C 
ATOM     57  H6  NDG d   1      17.489  -3.200 -34.065  0.00  0.00     0.078 H 
ATOM     58  H7  NDG d   1      17.141  -1.987 -32.787  0.00  0.00     0.078 H 
BRANCH  56  59
ATOM     59  O6  NDG d   1      16.710  -1.381 -34.741  0.00  0.00    -0.398 OA
ATOM     60  H11 NDG d   1      16.403  -1.759 -35.557  0.00  0.00     0.209 HD
ENDBRANCH  56  59
ENDBRANCH  21  56
ENDBRANCH  12  13
ENDBRANCH   6  12
BRANCH   7  61
ATOM     61  O2  GAL d   1      16.941  -0.916 -30.542  0.00  0.00    -0.346 OA
BRANCH  61  62
ATOM     62  C1  FUC d   1      16.308   0.315 -30.081  0.00  0.00     0.159 C 
ATOM     63  C2  FUC d   1      16.705   1.493 -31.027  0.00  0.00     0.110 C 
ATOM     64  C3  FUC d   1      16.014   1.311 -32.403  0.00  0.00     0.092 C 
ATOM     65  H38 NDG d   1      16.393   2.448 -30.579  0.00  0.00     0.094 H 
ATOM     66  C4  FUC d   1      14.485   1.093 -32.248  0.00  0.00     0.087 C 
ATOM     67  H39 NDG d   1      16.451   0.433 -32.901  0.00  0.00     0.091 H 
ATOM     68  C5  FUC d   1      14.235  -0.111 -31.345  0.00  0.00     0.065 C 
ATOM     69  H40 NDG d   1      14.036   0.903 -33.234  0.00  0.00     0.091 H 
ATOM     70  O5  FUC d   1      14.819   0.121 -30.056  0.00  0.00    -0.351 OA
ATOM     71  H41 NDG d   1      14.680  -1.006 -31.804  0.00  0.00     0.086 H 
ATOM     72  H37 NDG d   1      16.656   0.543 -29.063  0.00  0.00     0.133 H 
BRANCH  63  73
ATOM     73  O2  FUC d   1      18.144   1.488 -31.219  0.00  0.00    -0.388 OA
ATOM     74  H45 NDG d   1      18.408   0.661 -31.605  0.00  0.00     0.210 HD
ENDBRANCH  63  73
BRANCH  64  75
ATOM     75  O3  FUC d   1      16.223   2.465 -33.217  0.00  0.00    -0.390 OA
ATOM     76  H46 NDG d   1      15.826   3.221 -32.800  0.00  0.00     0.210 HD
ENDBRANCH  64  75
BRANCH  66  77
ATOM     77  O4  FUC d   1      13.912   2.295 -31.685  0.00  0.00    -0.390 OA
ATOM     78  H47 NDG d   1      14.305   2.464 -30.837  0.00  0.00     0.210 HD
ENDBRANCH  66  77
BRANCH  68  79
ATOM     79  C6  FUC d   1      12.735  -0.332 -31.129  0.00  0.00    -0.050 C 
ATOM     80  H42 NDG d   1      12.583  -1.204 -30.476  0.00  0.00     0.031 H 
ATOM     81  H43 NDG d   1      12.247  -0.511 -32.099  0.00  0.00     0.031 H 
ATOM     82  H44 NDG d   1      12.297   0.560 -30.657  0.00  0.00     0.031 H 
ENDBRANCH  68  79
ENDBRANCH  61  62
ENDBRANCH   7  61
BRANCH   8  83
ATOM     83  O3  GAL d   1      18.290  -1.013 -28.125  0.00  0.00    -0.348 OA
BRANCH  83  84
ATOM     84  C1  A2G d   1      19.578  -0.906 -27.424  0.00  0.00     0.154 C 
ATOM     85  O   A2G d   1      20.752  -1.297 -28.271  0.00  0.00    -0.349 OA
ATOM     86  C5  A2G d   1      20.933  -0.392 -29.415  0.00  0.00     0.089 C 
ATOM     87  C4  A2G d   1      21.126   1.060 -28.923  0.00  0.00     0.089 C 
ATOM     88  H30 NDG d   1      20.024  -0.430 -30.033  0.00  0.00     0.090 H 
ATOM     89  C3  A2G d   1      19.947   1.513 -28.073  0.00  0.00     0.086 C 
ATOM     90  H28 NDG d   1      21.235   1.725 -29.792  0.00  0.00     0.091 H 
ATOM     91  C2  A2G d   1      19.751   0.541 -26.917  0.00  0.00     0.087 C 
ATOM     92  H26 NDG d   1      19.036   1.554 -28.689  0.00  0.00     0.090 H 
ATOM     93  H24 NDG d   1      20.647   0.569 -26.280  0.00  0.00     0.084 H 
ATOM     94  H23 NDG d   1      19.550  -1.582 -26.557  0.00  0.00     0.132 H 
BRANCH  86  95
ATOM     95  C6  A2G d   1      22.115  -0.830 -30.277  0.00  0.00     0.043 C 
ATOM     96  H31 NDG d   1      22.116  -1.921 -30.416  0.00  0.00     0.078 H 
ATOM     97  H32 NDG d   1      23.067  -0.517 -29.824  0.00  0.00     0.078 H 
BRANCH  95  98
ATOM     98  O6  A2G d   1      21.894  -0.145 -31.547  0.00  0.00    -0.398 OA
ATOM     99  H33 NDG d   1      21.061  -0.419 -31.913  0.00  0.00     0.209 HD
ENDBRANCH  95  98
ENDBRANCH  86  95
BRANCH  87 100
ATOM    100  O4  A2G d   1      22.289   1.137 -28.100  0.00  0.00    -0.390 OA
ATOM    101  H29 NDG d   1      22.410   2.033 -27.808  0.00  0.00     0.210 HD
ENDBRANCH  87 100
BRANCH  89 102
ATOM    102  O3  A2G d   1      20.237   2.826 -27.525  0.00  0.00    -0.391 OA
ATOM    103  H27 NDG d   1      21.028   2.781 -27.000  0.00  0.00     0.210 HD
ENDBRANCH  89 102
BRANCH  91 104
ATOM    104  N2  A2G d   1      18.598   0.997 -26.117  0.00  0.00    -0.349 N 
ATOM    105  C7  A2G d   1      18.577   0.950 -24.765  0.00  0.00     0.214 C 
ATOM    106  O7  A2G d   1      17.610   1.362 -24.114  0.00  0.00    -0.274 OA
ATOM    107  H25 NDG d   1      17.797   1.357 -26.595  0.00  0.00     0.163 HD
BRANCH 105 108
ATOM    108  C8  A2G d   1      19.794   0.313 -24.069  0.00  0.00    -0.003 C 
ATOM    109  H34 NDG d   1      19.648   0.339 -22.979  0.00  0.00     0.040 H 
ATOM    110  H35 NDG d   1      20.702   0.875 -24.331  0.00  0.00     0.040 H 
ATOM    111  H36 NDG d   1      19.901  -0.731 -24.399  0.00  0.00     0.040 H 
ENDBRANCH 105 108
ENDBRANCH  91 104
ENDBRANCH  83  84
ENDBRANCH   8  83
BRANCH  10 112
ATOM    112  C6  GAL d   1      18.012  -5.917 -28.297  0.00  0.00     0.043 C 
ATOM    113  H19 NDG d   1      17.093  -5.980 -27.696  0.00  0.00     0.078 H 
ATOM    114  H20 NDG d   1      18.888  -5.963 -27.634  0.00  0.00     0.078 H 
BRANCH 112 115
ATOM    115  O6  GAL d   1      18.055  -6.958 -29.249  0.00  0.00    -0.398 OA
ATOM    116  H22 NDG d   1      17.298  -6.896 -29.819  0.00  0.00     0.209 HD
ENDBRANCH 112 115
ENDBRANCH  10 112
BRANCH   9 117
ATOM    117  O4  GAL d   1      17.266  -3.453 -27.089  0.00  0.00    -0.390 OA
ATOM    118  H21 NDG d   1      17.448  -2.712 -26.523  0.00  0.00     0.210 HD
ENDBRANCH   9 117
TORSDOF 30
