REMARK  29 active torsions:
REMARK  status: ('A' for Active; 'I' for Inactive)
REMARK    1  A    between atoms: C1_1  and  O1_7 
REMARK    2  A    between atoms: C2_2  and  O2_8 
REMARK    3  A    between atoms: C3_3  and  O3_9 
REMARK    4  A    between atoms: C4_4  and  O4_10 
REMARK    5  A    between atoms: C5_5  and  C6_6 
REMARK    6  A    between atoms: C6_6  and  O6_12 
REMARK    7  A    between atoms: O3_9  and  C1_48 
REMARK    8  A    between atoms: O4_10  and  C1_13 
REMARK    9  A    between atoms: C2_14  and  O2_19 
REMARK   10  A    between atoms: C3_15  and  O3_20 
REMARK   11  A    between atoms: C4_16  and  O4_21 
REMARK   12  A    between atoms: C5_17  and  C6_18 
REMARK   13  A    between atoms: C6_18  and  O6_23 
REMARK   14  A    between atoms: O2_19  and  C1_38 
REMARK   15  A    between atoms: O3_20  and  C1_25 
REMARK   16  A    between atoms: C2_26  and  N2_27 
REMARK       I    between atoms: N2_27  and  C7_35 
REMARK   17  A    between atoms: C3_28  and  O3_29 
REMARK   18  A    between atoms: C4_30  and  O4_31 
REMARK   19  A    between atoms: C5_32  and  C6_33 
REMARK   20  A    between atoms: C6_33  and  O6_34 
REMARK   21  A    between atoms: C7_35  and  C8_37 
REMARK   22  A    between atoms: C2_39  and  O2_44 
REMARK   23  A    between atoms: C3_40  and  O3_45 
REMARK   24  A    between atoms: C4_41  and  O4_46 
REMARK   25  A    between atoms: C5_42  and  C6_43 
REMARK   26  A    between atoms: C2_49  and  O2_54 
REMARK   27  A    between atoms: C3_50  and  O3_55 
REMARK   28  A    between atoms: C4_51  and  O4_56 
REMARK   29  A    between atoms: C5_52  and  C6_53 
ROOT
ATOM      1  H11 GLC d   1     -32.346  12.733   5.794  0.00  0.00     0.133 H 
ATOM      2  H12 GLC d   1     -32.636  10.470   3.731  0.00  0.00     0.095 H 
ATOM      3  H13 GLC d   1     -34.515  11.129   6.031  0.00  0.00     0.091 H 
ATOM      4  H14 GLC d   1     -33.792   9.089   7.149  0.00  0.00     0.091 H 
ATOM      5  H15 GLC d   1     -32.639  11.192   7.656  0.00  0.00     0.090 H 
ATOM      6  C1  GAL d   1     -31.931  11.879   5.239  0.00  0.00     0.159 C 
ATOM      7  C2  GAL d   1     -33.056  11.152   4.485  0.00  0.00     0.116 C 
ATOM      8  C3  GAL d   1     -33.931  10.409   5.440  0.00  0.00     0.098 C 
ATOM      9  C4  GAL d   1     -33.128   9.531   6.391  0.00  0.00     0.090 C 
ATOM     10  C5  GAL d   1     -32.104  10.429   7.072  0.00  0.00     0.089 C 
ATOM     11  O5  GAL d   1     -31.265  10.999   6.100  0.00  0.00    -0.348 OA
ENDROOT
BRANCH   6  12
ATOM     12  O4  GLC d   1     -30.907  12.311   4.308  0.00  0.00    -0.348 OA
BRANCH  12  13
ATOM     13  C4  GLC d   1     -30.036  13.404   4.716  0.00  0.00     0.096 C 
ATOM     14  C3  GLC d   1     -28.629  13.105   4.180  0.00  0.00     0.098 C 
ATOM     15  C2  GLC d   1     -27.652  14.230   4.413  0.00  0.00     0.110 C 
ATOM     16  H3  GLC d   1     -28.665  12.838   3.114  0.00  0.00     0.091 H 
ATOM     17  C1  GLC d   1     -28.191  15.589   3.991  0.00  0.00     0.156 C 
ATOM     18  H2  GLC d   1     -27.396  14.267   5.482  0.00  0.00     0.094 H 
ATOM     19  O5  GLC d   1     -29.565  15.774   4.451  0.00  0.00    -0.349 OA
ATOM     20  H1  GLC d   1     -27.563  16.369   4.446  0.00  0.00     0.133 H 
ATOM     21  C5  GLC d   1     -30.523  14.752   4.125  0.00  0.00     0.089 C 
ATOM     22  H5  GLC d   1     -30.560  14.648   3.031  0.00  0.00     0.090 H 
ATOM     23  H4  GLC d   1     -30.016  13.472   5.814  0.00  0.00     0.091 H 
BRANCH  14  24
ATOM     24  O3  GLC d   1     -28.184  12.072   4.966  0.00  0.00    -0.348 OA
BRANCH  24  25
ATOM     25  C1  FUC d   1     -27.438  11.079   4.291  0.00  0.00     0.159 C 
ATOM     26  C2  FUC d   1     -26.844  10.249   5.377  0.00  0.00     0.110 C 
ATOM     27  C3  FUC d   1     -27.848   9.404   6.060  0.00  0.00     0.092 C 
ATOM     28  H46 GLC d   1     -26.045   9.609   4.974  0.00  0.00     0.094 H 
ATOM     29  C4  FUC d   1     -28.548   8.562   5.042  0.00  0.00     0.087 C 
ATOM     30  H47 GLC d   1     -28.579  10.027   6.595  0.00  0.00     0.091 H 
ATOM     31  C5  FUC d   1     -29.155   9.473   3.922  0.00  0.00     0.065 C 
ATOM     32  H48 GLC d   1     -29.366   8.008   5.525  0.00  0.00     0.091 H 
ATOM     33  O5  FUC d   1     -28.159  10.272   3.308  0.00  0.00    -0.351 OA
ATOM     34  H49 GLC d   1     -29.873  10.146   4.413  0.00  0.00     0.086 H 
ATOM     35  H45 GLC d   1     -26.625  11.581   3.745  0.00  0.00     0.133 H 
BRANCH  26  36
ATOM     36  O2  FUC d   1     -26.329  11.182   6.277  0.00  0.00    -0.388 OA
ATOM     37  H53 GLC d   1     -27.034  11.729   6.603  0.00  0.00     0.210 HD
ENDBRANCH  26  36
BRANCH  27  38
ATOM     38  O3  FUC d   1     -27.123   8.572   6.990  0.00  0.00    -0.390 OA
ATOM     39  H54 GLC d   1     -26.479   8.058   6.518  0.00  0.00     0.210 HD
ENDBRANCH  27  38
BRANCH  29  40
ATOM     40  O4  FUC d   1     -27.590   7.621   4.516  0.00  0.00    -0.390 OA
ATOM     41  H55 GLC d   1     -26.878   8.094   4.101  0.00  0.00     0.210 HD
ENDBRANCH  29  40
BRANCH  31  42
ATOM     42  C6  FUC d   1     -29.915   8.709   2.836  0.00  0.00    -0.050 C 
ATOM     43  H50 GLC d   1     -30.306   9.420   2.093  0.00  0.00     0.031 H 
ATOM     44  H51 GLC d   1     -30.751   8.158   3.292  0.00  0.00     0.031 H 
ATOM     45  H52 GLC d   1     -29.234   8.000   2.342  0.00  0.00     0.031 H 
ENDBRANCH  31  42
ENDBRANCH  24  25
ENDBRANCH  14  24
BRANCH  15  46
ATOM     46  O2  GLC d   1     -26.494  13.949   3.647  0.00  0.00    -0.388 OA
ATOM     47  H9  GLC d   1     -26.729  13.896   2.728  0.00  0.00     0.210 HD
ENDBRANCH  15  46
BRANCH  17  48
ATOM     48  O1  GLC d   1     -28.129  15.722   2.591  0.00  0.00    -0.369 OA
ATOM     49  H8  GLC d   1     -27.232  15.600   2.302  0.00  0.00     0.212 HD
ENDBRANCH  17  48
BRANCH  21  50
ATOM     50  C6  GLC d   1     -31.927  15.147   4.599  0.00  0.00     0.043 C 
ATOM     51  H6  GLC d   1     -32.669  14.415   4.248  0.00  0.00     0.078 H 
ATOM     52  H7  GLC d   1     -32.191  16.146   4.222  0.00  0.00     0.078 H 
BRANCH  50  53
ATOM     53  O6  GLC d   1     -31.872  15.153   6.040  0.00  0.00    -0.398 OA
ATOM     54  H10 GLC d   1     -31.222  15.783   6.328  0.00  0.00     0.209 HD
ENDBRANCH  50  53
ENDBRANCH  21  50
ENDBRANCH  12  13
ENDBRANCH   6  12
BRANCH   7  55
ATOM     55  O2  GAL d   1     -33.871  12.141   3.889  0.00  0.00    -0.346 OA
BRANCH  55  56
ATOM     56  C1  FUC d   1     -34.387  11.834   2.569  0.00  0.00     0.159 C 
ATOM     57  C2  FUC d   1     -35.420  12.904   2.175  0.00  0.00     0.110 C 
ATOM     58  C3  FUC d   1     -34.681  14.228   1.895  0.00  0.00     0.092 C 
ATOM     59  H35 GLC d   1     -35.945  12.585   1.262  0.00  0.00     0.094 H 
ATOM     60  C4  FUC d   1     -33.660  13.994   0.796  0.00  0.00     0.087 C 
ATOM     61  H36 GLC d   1     -34.165  14.551   2.811  0.00  0.00     0.091 H 
ATOM     62  C5  FUC d   1     -32.650  13.020   1.356  0.00  0.00     0.065 C 
ATOM     63  H37 GLC d   1     -33.178  14.939   0.505  0.00  0.00     0.091 H 
ATOM     64  O5  FUC d   1     -33.283  11.757   1.596  0.00  0.00    -0.351 OA
ATOM     65  H38 GLC d   1     -32.255  13.417   2.303  0.00  0.00     0.086 H 
ATOM     66  H34 GLC d   1     -34.889  10.856   2.601  0.00  0.00     0.133 H 
BRANCH  57  67
ATOM     67  O2  FUC d   1     -36.390  13.065   3.244  0.00  0.00    -0.388 OA
ATOM     68  H42 GLC d   1     -35.944  13.339   4.037  0.00  0.00     0.210 HD
ENDBRANCH  57  67
BRANCH  58  69
ATOM     69  O3  FUC d   1     -35.570  15.234   1.496  0.00  0.00    -0.390 OA
ATOM     70  H43 GLC d   1     -35.087  16.036   1.334  0.00  0.00     0.210 HD
ENDBRANCH  58  69
BRANCH  60  71
ATOM     71  O4  FUC d   1     -34.292  13.394  -0.331  0.00  0.00    -0.390 OA
ATOM     72  H44 GLC d   1     -34.728  12.595  -0.060  0.00  0.00     0.210 HD
ENDBRANCH  60  71
BRANCH  62  73
ATOM     73  C6  FUC d   1     -31.491  12.813   0.372  0.00  0.00    -0.050 C 
ATOM     74  H39 GLC d   1     -30.769  12.101   0.800  0.00  0.00     0.031 H 
ATOM     75  H40 GLC d   1     -30.991  13.775   0.186  0.00  0.00     0.031 H 
ATOM     76  H41 GLC d   1     -31.881  12.414  -0.576  0.00  0.00     0.031 H 
ENDBRANCH  62  73
ENDBRANCH  55  56
ENDBRANCH   7  55
BRANCH   8  77
ATOM     77  O3  GAL d   1     -34.821   9.586   4.657  0.00  0.00    -0.348 OA
BRANCH  77  78
ATOM     78  C1  A2G d   1     -35.971   9.046   5.368  0.00  0.00     0.154 C 
ATOM     79  O   A2G d   1     -36.415   9.923   6.457  0.00  0.00    -0.349 OA
ATOM     80  C5  A2G d   1     -37.098  11.201   6.130  0.00  0.00     0.089 C 
ATOM     81  C4  A2G d   1     -38.291  10.882   5.287  0.00  0.00     0.089 C 
ATOM     82  H27 GLC d   1     -36.444  11.937   5.639  0.00  0.00     0.090 H 
ATOM     83  C3  A2G d   1     -37.871  10.096   4.045  0.00  0.00     0.086 C 
ATOM     84  H25 GLC d   1     -38.806  11.809   4.994  0.00  0.00     0.091 H 
ATOM     85  C2  A2G d   1     -37.150   8.770   4.404  0.00  0.00     0.087 C 
ATOM     86  H23 GLC d   1     -37.194  10.716   3.439  0.00  0.00     0.090 H 
ATOM     87  H21 GLC d   1     -37.864   8.092   4.893  0.00  0.00     0.084 H 
ATOM     88  H20 GLC d   1     -35.664   8.088   5.812  0.00  0.00     0.132 H 
BRANCH  80  89
ATOM     89  C6  A2G d   1     -37.530  11.625   7.515  0.00  0.00     0.043 C 
ATOM     90  H28 GLC d   1     -38.043  10.801   8.032  0.00  0.00     0.078 H 
ATOM     91  H29 GLC d   1     -38.197  12.498   7.465  0.00  0.00     0.078 H 
BRANCH  89  92
ATOM     92  O6  A2G d   1     -36.309  11.958   8.180  0.00  0.00    -0.398 OA
ATOM     93  H30 GLC d   1     -35.743  11.195   8.201  0.00  0.00     0.209 HD
ENDBRANCH  89  92
ENDBRANCH  80  89
BRANCH  81  94
ATOM     94  O4  A2G d   1     -39.171  10.029   6.069  0.00  0.00    -0.390 OA
ATOM     95  H26 GLC d   1     -38.706   9.239   6.318  0.00  0.00     0.210 HD
ENDBRANCH  81  94
BRANCH  83  96
ATOM     96  O3  A2G d   1     -39.050   9.793   3.296  0.00  0.00    -0.391 OA
ATOM     97  H24 GLC d   1     -39.624   9.246   3.819  0.00  0.00     0.210 HD
ENDBRANCH  83  96
BRANCH  85  98
ATOM     98  N2  A2G d   1     -36.639   8.133   3.163  0.00  0.00    -0.349 N 
ATOM     99  C7  A2G d   1     -37.203   7.102   2.481  0.00  0.00     0.214 C 
ATOM    100  O7  A2G d   1     -36.689   6.631   1.459  0.00  0.00    -0.274 OA
ATOM    101  H22 GLC d   1     -35.788   8.503   2.789  0.00  0.00     0.163 HD
BRANCH  99 102
ATOM    102  C8  A2G d   1     -38.518   6.474   3.021  0.00  0.00    -0.003 C 
ATOM    103  H31 GLC d   1     -38.835   5.658   2.355  0.00  0.00     0.040 H 
ATOM    104  H32 GLC d   1     -39.303   7.243   3.059  0.00  0.00     0.040 H 
ATOM    105  H33 GLC d   1     -38.346   6.076   4.032  0.00  0.00     0.040 H 
ENDBRANCH  99 102
ENDBRANCH  85  98
ENDBRANCH  77  78
ENDBRANCH   8  77
BRANCH  10 106
ATOM    106  C6  GAL d   1     -31.062   9.747   7.921  0.00  0.00     0.043 C 
ATOM    107  H16 GLC d   1     -30.387  10.489   8.373  0.00  0.00     0.078 H 
ATOM    108  H17 GLC d   1     -30.476   9.038   7.317  0.00  0.00     0.078 H 
BRANCH 106 109
ATOM    109  O6  GAL d   1     -31.798   9.055   8.934  0.00  0.00    -0.398 OA
ATOM    110  H19 GLC d   1     -31.193   8.600   9.508  0.00  0.00     0.209 HD
ENDBRANCH 106 109
ENDBRANCH  10 106
BRANCH   9 111
ATOM    111  O4  GAL d   1     -32.506   8.483   5.646  0.00  0.00    -0.390 OA
ATOM    112  H18 GLC d   1     -33.175   7.946   5.237  0.00  0.00     0.210 HD
ENDBRANCH   9 111
TORSDOF 29
