REMARK  32 active torsions:
REMARK  status: ('A' for Active; 'I' for Inactive)
REMARK    1  A    between atoms: N_1  and  CA_2 
REMARK    2  A    between atoms: CA_2  and  C_3 
REMARK    3  A    between atoms: CA_2  and  CB_5 
REMARK       I    between atoms: C_3  and  N_10 
REMARK    4  A    between atoms: CB_5  and  CG_6 
REMARK    5  A    between atoms: CG_6  and  CD_7 
REMARK    6  A    between atoms: N_10  and  CA_11 
REMARK    7  A    between atoms: CA_11  and  C_12 
REMARK    8  A    between atoms: CA_11  and  CB_14 
REMARK       I    between atoms: C_12  and  N_18 
REMARK    9  A    between atoms: CB_14  and  CG_15 
REMARK   10  A    between atoms: N_18  and  CA_19 
REMARK   11  A    between atoms: CA_19  and  C_20 
REMARK   12  A    between atoms: CA_19  and  CB_22 
REMARK       I    between atoms: C_20  and  N_27 
REMARK   13  A    between atoms: CB_22  and  CG_23 
REMARK   14  A    between atoms: CG_23  and  CD_24 
REMARK       I    between atoms: CD_24  and  NE2_26 
REMARK   15  A    between atoms: N_27  and  CA_28 
REMARK   16  A    between atoms: CA_28  and  C_29 
REMARK   17  A    between atoms: CA_28  and  CB_31 
REMARK       I    between atoms: C_29  and  N_36 
REMARK   18  A    between atoms: CB_31  and  CG_32 
REMARK   19  A    between atoms: CG_32  and  CD_33 
REMARK   20  A    between atoms: N_36  and  CA_37 
REMARK   21  A    between atoms: CA_37  and  C_38 
REMARK   22  A    between atoms: CA_37  and  CB_40 
REMARK       I    between atoms: C_38  and  N_43 
REMARK   23  A    between atoms: CB_40  and  OG1_41 
REMARK   24  A    between atoms: CB_40  and  CG2_42 
REMARK   25  A    between atoms: N_43  and  CA_44 
REMARK   26  A    between atoms: CA_44  and  C_45 
REMARK   27  A    between atoms: CA_44  and  CB_47 
REMARK       I    between atoms: C_45  and  N_48 
REMARK   28  A    between atoms: N_48  and  CA_49 
REMARK   29  A    between atoms: CA_49  and  C_50 
REMARK   30  A    between atoms: CA_49  and  CB_52 
REMARK   31  A    between atoms: CB_52  and  CG1_53 
REMARK   32  A    between atoms: CB_52  and  CG2_54 
ROOT
ATOM      1  CA  GLU d   1      47.779  22.392  60.874  0.00  0.00     0.090 C 
ATOM      2  H22 GLU d   1      48.222  21.571  61.457  0.00  0.00     0.087 H 
ENDROOT
BRANCH   1   3
ATOM      3  N   GLU d   1      47.970  23.638  61.590  0.00  0.00    -0.346 N 
ATOM      4  C   GLN d   1      48.421  23.700  62.839  0.00  0.00     0.241 C 
ATOM      5  O   GLN d   1      48.697  22.715  63.519  0.00  0.00    -0.271 OA
ATOM      6  H21 GLU d   1      47.752  24.494  61.121  0.00  0.00     0.163 HD
BRANCH   4   7
ATOM      7  CA  GLN d   1      48.557  25.087  63.430  0.00  0.00     0.090 C 
ATOM      8  H14 GLN d   1      47.783  25.749  63.014  0.00  0.00     0.087 H 
BRANCH   7   9
ATOM      9  N   GLN d   1      48.370  24.940  64.865  0.00  0.00    -0.346 N 
ATOM     10  C   ASP d   1      47.684  25.800  65.594  0.00  0.00     0.241 C 
ATOM     11  O   ASP d   1      47.198  26.835  65.142  0.00  0.00    -0.271 OA
ATOM     12  H13 GLN d   1      48.781  24.150  65.321  0.00  0.00     0.163 HD
BRANCH  10  13
ATOM     13  CA  ASP d   1      47.544  25.430  67.061  0.00  0.00     0.098 C 
ATOM     14  H10 ASP d   1      48.521  25.096  67.440  0.00  0.00     0.088 H 
BRANCH  13  15
ATOM     15  N   ASP d   1      47.119  26.592  67.834  0.00  0.00    -0.345 N 
ATOM     16  C   GLU d   1      47.895  27.172  68.747  0.00  0.00     0.249 C 
ATOM     17  O   GLU d   1      49.050  26.809  69.011  0.00  0.00    -0.271 OA
ATOM     18  H9  ASP d   1      46.207  26.968  67.671  0.00  0.00     0.163 HD
BRANCH  16  19
ATOM     19  CA  GLU d   1      47.269  28.342  69.483  0.00  0.00     0.176 C 
ATOM     20  H4  GLU d   1      46.435  28.736  68.883  0.00  0.00     0.099 H 
BRANCH  19  21
ATOM     21  N   GLU d   1      46.749  27.903  70.773  0.00  0.00    -0.066 N 
ATOM     22  H1  GLU d   1      46.336  28.687  71.253  0.00  0.00     0.275 HD
ATOM     23  H2  GLU d   1      47.502  27.528  71.329  0.00  0.00     0.275 HD
ATOM     24  H3  GLU d   1      46.050  27.191  70.629  0.00  0.00     0.275 HD
ENDBRANCH  19  21
BRANCH  19  25
ATOM     25  CB  GLU d   1      48.306  29.444  69.664  0.00  0.00    -0.021 C 
ATOM     26  H5  GLU d   1      48.728  29.692  68.679  0.00  0.00     0.037 H 
ATOM     27  H6  GLU d   1      49.104  29.068  70.321  0.00  0.00     0.037 H 
BRANCH  25  28
ATOM     28  CG  GLU d   1      47.739  30.705  70.273  0.00  0.00     0.018 C 
ATOM     29  H7  GLU d   1      47.351  30.469  71.275  0.00  0.00     0.049 H 
ATOM     30  H8  GLU d   1      46.917  31.065  69.637  0.00  0.00     0.049 H 
BRANCH  28  31
ATOM     31  CD  GLU d   1      48.768  31.802  70.399  0.00  0.00     0.172 C 
ATOM     32  OE1 GLU d   1      49.808  31.736  69.707  0.00  0.00    -0.648 OA
ATOM     33  OE2 GLU d   1      48.555  32.721  71.214  0.00  0.00    -0.648 OA
ENDBRANCH  28  31
ENDBRANCH  25  28
ENDBRANCH  19  25
ENDBRANCH  16  19
ENDBRANCH  13  15
BRANCH  13  34
ATOM     34  CB  ASP d   1      46.543  24.278  67.198  0.00  0.00     0.043 C 
ATOM     35  H11 ASP d   1      46.703  23.575  66.368  0.00  0.00     0.052 H 
ATOM     36  H12 ASP d   1      45.525  24.690  67.138  0.00  0.00     0.052 H 
BRANCH  34  37
ATOM     37  CG  ASP d   1      46.683  23.510  68.523  0.00  0.00     0.175 C 
ATOM     38  OD1 ASP d   1      47.390  23.983  69.437  0.00  0.00    -0.648 OA
ATOM     39  OD2 ASP d   1      46.078  22.422  68.649  0.00  0.00    -0.648 OA
ENDBRANCH  34  37
ENDBRANCH  13  34
ENDBRANCH  10  13
ENDBRANCH   7   9
BRANCH   7  40
ATOM     40  CB  GLN d   1      49.942  25.682  63.133  0.00  0.00    -0.030 C 
ATOM     41  H15 GLN d   1      50.702  25.023  63.579  0.00  0.00     0.037 H 
ATOM     42  H16 GLN d   1      49.997  26.675  63.602  0.00  0.00     0.037 H 
BRANCH  40  43
ATOM     43  CG  GLN d   1      50.256  25.837  61.658  0.00  0.00     0.011 C 
ATOM     44  H17 GLN d   1      49.411  26.346  61.171  0.00  0.00     0.047 H 
ATOM     45  H18 GLN d   1      50.383  24.836  61.220  0.00  0.00     0.047 H 
BRANCH  43  46
ATOM     46  CD  GLN d   1      51.516  26.640  61.402  0.00  0.00     0.215 C 
ATOM     47  OE1 GLN d   1      52.123  27.185  62.324  0.00  0.00    -0.274 OA
ATOM     48  NE2 GLN d   1      51.900  26.736  60.134  0.00  0.00    -0.370 N 
ATOM     49  H19 GLN d   1      52.723  27.252  59.899  0.00  0.00     0.159 HD
ATOM     50  H20 GLN d   1      51.366  26.292  59.415  0.00  0.00     0.159 HD
ENDBRANCH  43  46
ENDBRANCH  40  43
ENDBRANCH   7  40
ENDBRANCH   4   7
ENDBRANCH   1   3
BRANCH   1  51
ATOM     51  C   GLU d   1      48.486  22.480  59.524  0.00  0.00     0.241 C 
ATOM     52  O   GLU d   1      48.339  23.466  58.798  0.00  0.00    -0.271 OA
ATOM     53  N   THR d   1      49.233  21.434  59.187  0.00  0.00    -0.344 N 
ATOM     54  H27 THR d   1      49.245  20.638  59.792  0.00  0.00     0.163 HD
BRANCH  53  55
ATOM     55  CA  THR d   1      50.042  21.399  57.962  0.00  0.00     0.113 C 
ATOM     56  H28 THR d   1      49.722  22.214  57.296  0.00  0.00     0.091 H 
BRANCH  55  57
ATOM     57  C   THR d   1      49.833  20.062  57.266  0.00  0.00     0.243 C 
ATOM     58  O   THR d   1      49.915  19.019  57.907  0.00  0.00    -0.271 OA
ATOM     59  N   ALA d   1      49.588  20.090  55.954  0.00  0.00    -0.346 N 
ATOM     60  H34 ALA d   1      49.447  20.975  55.511  0.00  0.00     0.163 HD
BRANCH  59  61
ATOM     61  CA  ALA d   1      49.518  18.876  55.138  0.00  0.00     0.086 C 
ATOM     62  H35 ALA d   1      49.081  18.062  55.735  0.00  0.00     0.086 H 
BRANCH  61  63
ATOM     63  C   ALA d   1      50.920  18.489  54.702  0.00  0.00     0.240 C 
ATOM     64  O   ALA d   1      51.674  19.334  54.216  0.00  0.00    -0.271 OA
ATOM     65  N   VAL d   1      51.267  17.218  54.843  0.00  0.00    -0.344 N 
ATOM     66  H39 VAL d   1      50.601  16.579  55.229  0.00  0.00     0.163 HD
BRANCH  65  67
ATOM     67  CA  VAL d   1      52.586  16.709  54.457  0.00  0.00     0.099 C 
ATOM     68  H40 VAL d   1      53.102  17.499  53.891  0.00  0.00     0.090 H 
BRANCH  67  69
ATOM     69  C   VAL d   1      52.466  15.478  53.562  0.00  0.00     0.197 C 
ATOM     70  O   VAL d   1      53.480  15.028  53.025  0.00  0.00    -0.646 OA
ATOM     71  OXT VAL d   1      51.364  14.905  53.394  0.00  0.00    -0.646 OA
ENDBRANCH  67  69
BRANCH  67  72
ATOM     72  CB  VAL d   1      53.437  16.365  55.695  0.00  0.00    -0.032 C 
ATOM     73  H41 VAL d   1      54.398  15.957  55.348  0.00  0.00     0.042 H 
BRANCH  72  74
ATOM     74  CG1 VAL d   1      53.713  17.614  56.509  0.00  0.00    -0.071 C 
ATOM     75  H42 VAL d   1      54.321  17.352  57.388  0.00  0.00     0.028 H 
ATOM     76  H43 VAL d   1      52.761  18.054  56.840  0.00  0.00     0.028 H 
ATOM     77  H44 VAL d   1      54.258  18.342  55.890  0.00  0.00     0.028 H 
ENDBRANCH  72  74
BRANCH  72  78
ATOM     78  CG2 VAL d   1      52.760  15.315  56.555  0.00  0.00    -0.071 C 
ATOM     79  H45 VAL d   1      52.566  14.416  55.952  0.00  0.00     0.028 H 
ATOM     80  H46 VAL d   1      51.808  15.712  56.937  0.00  0.00     0.028 H 
ATOM     81  H47 VAL d   1      53.415  15.055  57.400  0.00  0.00     0.028 H 
ENDBRANCH  72  78
ENDBRANCH  67  72
ENDBRANCH  65  67
ENDBRANCH  61  63
BRANCH  61  82
ATOM     82  CB  ALA d   1      48.660  19.112  53.915  0.00  0.00    -0.049 C 
ATOM     83  H36 ALA d   1      48.618  18.192  53.314  0.00  0.00     0.030 H 
ATOM     84  H37 ALA d   1      49.095  19.924  53.313  0.00  0.00     0.030 H 
ATOM     85  H38 ALA d   1      47.644  19.392  54.229  0.00  0.00     0.030 H 
ENDBRANCH  61  82
ENDBRANCH  59  61
ENDBRANCH  55  57
BRANCH  55  86
ATOM     86  CB  THR d   1      51.542  21.570  58.285  0.00  0.00     0.060 C 
ATOM     87  H29 THR d   1      51.856  20.759  58.959  0.00  0.00     0.086 H 
BRANCH  86  88
ATOM     88  OG1 THR d   1      51.735  22.822  58.935  0.00  0.00    -0.393 OA
ATOM     89  H30 THR d   1      51.229  22.842  59.739  0.00  0.00     0.210 HD
ENDBRANCH  86  88
BRANCH  86  90
ATOM     90  CG2 THR d   1      52.395  21.516  57.021  0.00  0.00    -0.050 C 
ATOM     91  H31 THR d   1      53.455  21.641  57.288  0.00  0.00     0.031 H 
ATOM     92  H32 THR d   1      52.091  22.324  56.339  0.00  0.00     0.031 H 
ATOM     93  H33 THR d   1      52.254  20.544  56.525  0.00  0.00     0.031 H 
ENDBRANCH  86  90
ENDBRANCH  55  86
ENDBRANCH  53  55
ENDBRANCH   1  51
BRANCH   1  94
ATOM     94  CB  GLU d   1      46.282  22.110  60.687  0.00  0.00    -0.029 C 
ATOM     95  H23 GLU d   1      45.854  22.913  60.069  0.00  0.00     0.037 H 
ATOM     96  H24 GLU d   1      45.803  22.114  61.677  0.00  0.00     0.037 H 
BRANCH  94  97
ATOM     97  CG  GLU d   1      45.982  20.783  60.019  0.00  0.00     0.018 C 
ATOM     98  H25 GLU d   1      46.593  20.007  60.504  0.00  0.00     0.049 H 
ATOM     99  H26 GLU d   1      46.262  20.860  58.958  0.00  0.00     0.049 H 
BRANCH  97 100
ATOM    100  CD  GLU d   1      44.533  20.361  60.097  0.00  0.00     0.172 C 
ATOM    101  OE1 GLU d   1      43.717  21.040  60.778  0.00  0.00    -0.648 OA
ATOM    102  OE2 GLU d   1      44.200  19.329  59.470  0.00  0.00    -0.648 OA
ENDBRANCH  97 100
ENDBRANCH  94  97
ENDBRANCH   1  94
TORSDOF 32
