REMARK  2 active torsions:
REMARK  status: ('A' for Active; 'I' for Inactive)
REMARK    1  A    between atoms: C3_3  and  O1_10 
REMARK    2  A    between atoms: N2_8  and  C8_14 
ROOT
ATOM      1  C1  5PX d   1     -17.066  45.916  -3.247  0.00  0.00    -0.053 A 
ATOM      2  C2  5PX d   1     -17.812  44.745  -3.058  0.00  0.00    -0.049 A 
ATOM      3  C3  5PX d   1     -17.810  43.789  -4.071  0.00  0.00     0.067 A 
ATOM      4  C4  5PX d   1     -17.104  44.003  -5.244  0.00  0.00    -0.026 A 
ATOM      5  C5  5PX d   1     -16.375  45.188  -5.412  0.00  0.00     0.108 A 
ATOM      6  N1  5PX d   1     -15.129  47.051  -6.926  0.00  0.00    -0.298 N 
ATOM      7  C6  5PX d   1     -14.620  47.535  -5.651  0.00  0.00     0.064 C 
ATOM      8  N2  5PX d   1     -15.604  47.379  -4.574  0.00  0.00    -0.358 N 
ATOM      9  C7  5PX d   1     -16.330  46.181  -4.425  0.00  0.00     0.055 A 
ATOM     10  S1  5PX d   1     -15.472  45.431  -6.902  0.00  0.00     0.262 S 
ATOM     11  O2  5PX d   1     -14.229  44.707  -6.684  0.00  0.00    -0.200 OA
ATOM     12  O3  5PX d   1     -16.320  45.119  -8.034  0.00  0.00    -0.200 OA
ATOM     13  H1  5PX d   1     -17.052  46.654  -2.453  0.00  0.00     0.087 H 
ATOM     14  H2  5PX d   1     -18.377  44.587  -2.146  0.00  0.00     0.087 H 
ATOM     15  H3  5PX d   1     -17.116  43.256  -6.029  0.00  0.00     0.090 H 
ATOM     16  H4  5PX d   1     -15.258  47.633  -7.729  0.00  0.00     0.174 HD
ATOM     17  H5  5PX d   1     -14.368  48.601  -5.750  0.00  0.00     0.097 H 
ATOM     18  H6  5PX d   1     -13.715  46.967  -5.391  0.00  0.00     0.097 H 
ENDROOT
BRANCH   8  19
ATOM     19  C8  5PX d   1     -15.603  48.389  -3.500  0.00  0.00     0.014 A 
ATOM     20  C9  5PX d   1     -16.845  49.187  -3.168  0.00  0.00    -0.044 A 
ATOM     21  C10 5PX d   1     -15.673  49.859  -3.820  0.00  0.00    -0.044 A 
ATOM     22  H9  5PX d   1     -17.093  49.408  -2.119  0.00  0.00     0.036 H 
ATOM     23  H10 5PX d   1     -17.772  49.024  -3.737  0.00  0.00     0.036 H 
ATOM     24  H11 5PX d   1     -15.743  50.190  -4.867  0.00  0.00     0.036 H 
ATOM     25  H12 5PX d   1     -15.063  50.575  -3.249  0.00  0.00     0.036 H 
ATOM     26  H8  5PX d   1     -14.950  48.041  -2.686  0.00  0.00     0.072 H 
ENDBRANCH   8  19
BRANCH   3  27
ATOM     27  O1  5PX d   1     -18.523  42.638  -3.923  0.00  0.00    -0.361 OA
ATOM     28  H7  5PX d   1     -18.948  42.637  -3.074  0.00  0.00     0.217 HD
ENDBRANCH   3  27
TORSDOF 2
