REMARK  8 active torsions:
REMARK  status: ('A' for Active; 'I' for Inactive)
REMARK    1  A    between atoms: CAS_3  and  CAO_4 
REMARK    2  A    between atoms: CAR_9  and  CAM_10 
REMARK    3  A    between atoms: CAM_10  and  CAT_11 
REMARK    4  A    between atoms: CAT_11  and  CAP_12 
REMARK    5  A    between atoms: CAT_11  and  CAL_15 
REMARK    6  A    between atoms: CAL_15  and  CAK_16 
REMARK    7  A    between atoms: CAK_16  and  CAQ_17 
REMARK       I    between atoms: CAQ_17  and  NAN_19 
REMARK    8  A    between atoms: NAN_19  and  OAD_20 
ROOT
ATOM      1  CAT 5PU d   1      20.767  47.124  43.695  0.00  0.00     0.035 C 
ATOM      2  H7  5PU d   1      20.580  47.696  42.774  0.00  0.00     0.057 H 
ENDROOT
BRANCH   1   3
ATOM      3  CAM 5PU d   1      22.300  46.960  43.944  0.00  0.00    -0.028 C 
ATOM      4  H5  5PU d   1      22.732  47.953  44.137  0.00  0.00     0.041 H 
ATOM      5  H6  5PU d   1      22.445  46.320  44.827  0.00  0.00     0.041 H 
BRANCH   3   6
ATOM      6  CAR 5PU d   1      23.052  46.317  42.734  0.00  0.00    -0.057 A 
ATOM      7  CAG 5PU d   1      23.141  46.949  41.486  0.00  0.00    -0.076 A 
ATOM      8  CAI 5PU d   1      23.843  46.312  40.421  0.00  0.00    -0.066 A 
ATOM      9  H1  5PU d   1      22.678  47.917  41.331  0.00  0.00     0.084 H 
ATOM     10  CAS 5PU d   1      24.399  45.065  40.678  0.00  0.00     0.040 A 
ATOM     11  H2  5PU d   1      23.939  46.782  39.449  0.00  0.00     0.085 H 
ATOM     12  CAJ 5PU d   1      24.316  44.476  41.912  0.00  0.00    -0.066 A 
ATOM     13  CAH 5PU d   1      23.630  45.070  42.969  0.00  0.00    -0.076 A 
ATOM     14  H3  5PU d   1      24.799  43.519  42.071  0.00  0.00     0.085 H 
ATOM     15  H4  5PU d   1      23.549  44.583  43.934  0.00  0.00     0.084 H 
BRANCH  10  16
ATOM     16  CAO 5PU d   1      25.244  44.283  39.615  0.00  0.00     0.209 C 
ATOM     17  OAE 5PU d   1      25.336  44.817  38.543  0.00  0.00    -0.644 OA
ATOM     18  OAA 5PU d   1      25.849  43.230  39.973  0.00  0.00    -0.644 OA
ENDBRANCH  10  16
ENDBRANCH   3   6
ENDBRANCH   1   3
BRANCH   1  19
ATOM     19  CAP 5PU d   1      20.198  47.877  44.933  0.00  0.00     0.177 C 
ATOM     20  OAF 5PU d   1      19.818  47.202  45.892  0.00  0.00    -0.648 OA
ATOM     21  OAB 5PU d   1      20.332  49.106  44.908  0.00  0.00    -0.648 OA
ENDBRANCH   1  19
BRANCH   1  22
ATOM     22  CAL 5PU d   1      20.122  45.730  43.592  0.00  0.00    -0.044 C 
ATOM     23  H8  5PU d   1      20.134  45.270  44.591  0.00  0.00     0.035 H 
ATOM     24  H9  5PU d   1      20.724  45.122  42.901  0.00  0.00     0.035 H 
BRANCH  22  25
ATOM     25  CAK 5PU d   1      18.642  45.743  43.074  0.00  0.00     0.012 C 
ATOM     26  H10 5PU d   1      18.615  46.039  42.015  0.00  0.00     0.047 H 
ATOM     27  H11 5PU d   1      18.040  46.447  43.667  0.00  0.00     0.047 H 
BRANCH  25  28
ATOM     28  CAQ 5PU d   1      18.095  44.307  43.238  0.00  0.00     0.240 C 
ATOM     29  OAC 5PU d   1      18.562  43.328  42.615  0.00  0.00    -0.271 OA
ATOM     30  NAN 5PU d   1      17.091  44.183  44.081  0.00  0.00    -0.237 N 
ATOM     31  H12 5PU d   1      16.617  44.997  44.416  0.00  0.00     0.197 HD
BRANCH  30  32
ATOM     32  OAD 5PU d   1      16.695  42.937  44.500  0.00  0.00    -0.287 OA
ATOM     33  H13 5PU d   1      15.964  43.024  45.101  0.00  0.00     0.244 HD
ENDBRANCH  30  32
ENDBRANCH  25  28
ENDBRANCH  22  25
ENDBRANCH   1  22
TORSDOF 8
