REMARK  1 active torsions:
REMARK  status: ('A' for Active; 'I' for Inactive)
REMARK    1  A    between atoms: C8_10  and  O1_11 
ROOT
ATOM      1  C2  5Q0 d   1      15.653   0.806  -7.922  0.00  0.00    -0.054 A 
ATOM      2  C3  5Q0 d   1      14.527   0.034  -7.657  0.00  0.00     0.069 A 
ATOM      3  C4  5Q0 d   1      13.864   0.147  -6.436  0.00  0.00     0.026 A 
ATOM      4  C5  5Q0 d   1      12.737  -0.619  -6.156  0.00  0.00    -0.067 A 
ATOM      5  C6  5Q0 d   1      12.280  -1.506  -7.120  0.00  0.00    -0.065 A 
ATOM      6  C7  5Q0 d   1      12.961  -1.598  -8.325  0.00  0.00     0.003 A 
ATOM      7  C9  5Q0 d   1      15.451   1.814  -5.730  0.00  0.00    -0.050 A 
ATOM      8  C1  5Q0 d   1      16.105   1.696  -6.954  0.00  0.00    -0.078 A 
ATOM      9  N1  5Q0 d   1      14.088  -0.818  -8.584  0.00  0.00    -0.260 NA
ATOM     10  C8  5Q0 d   1      14.330   1.036  -5.481  0.00  0.00     0.078 A 
ATOM     11  H1  5Q0 d   1      16.171   0.715  -8.870  0.00  0.00     0.087 H 
ATOM     12  H2  5Q0 d   1      12.226  -0.525  -5.204  0.00  0.00     0.085 H 
ATOM     13  H3  5Q0 d   1      11.404  -2.118  -6.934  0.00  0.00     0.085 H 
ATOM     14  H4  5Q0 d   1      12.610  -2.291  -9.081  0.00  0.00     0.114 H 
ATOM     15  H5  5Q0 d   1      15.814   2.507  -4.980  0.00  0.00     0.087 H 
ATOM     16  H6  5Q0 d   1      16.978   2.306  -7.155  0.00  0.00     0.083 H 
ENDROOT
BRANCH  10  17
ATOM     17  O1  5Q0 d   1      13.628   1.088  -4.307  0.00  0.00    -0.360 OA
ATOM     18  H7  5Q0 d   1      14.201   0.854  -3.586  0.00  0.00     0.217 HD
ENDBRANCH  10  17
TORSDOF 1
