REMARK  8 active torsions:
REMARK  status: ('A' for Active; 'I' for Inactive)
REMARK    1  A    between atoms: C11_3  and  N14_14 
REMARK    2  A    between atoms: C8_5  and  N5_13 
REMARK    3  A    between atoms: N2_10  and  C1_12 
REMARK       I    between atoms: N14_14  and  C15_15 
REMARK    4  A    between atoms: C15_15  and  C17_17 
REMARK    5  A    between atoms: C18_18  and  N25_24 
REMARK    6  A    between atoms: N25_24  and  C26_25 
REMARK    7  A    between atoms: C26_25  and  C27_26 
REMARK    8  A    between atoms: C27_26  and  C28_27 
ROOT
ATOM      1  N14 5Q2 d   1     -53.966   1.693 -21.569  0.00  0.00    -0.323 N 
ATOM      2  C15 5Q2 d   1     -53.860   0.878 -22.658  0.00  0.00     0.264 C 
ATOM      3  O16 5Q2 d   1     -53.202  -0.146 -22.584  0.00  0.00    -0.267 OA
ATOM      4  H17 5Q2 d   1     -54.469   2.546 -21.712  0.00  0.00     0.169 HD
ENDROOT
BRANCH   1   5
ATOM      5  C11 5Q2 d   1     -53.459   1.491 -20.265  0.00  0.00     0.035 A 
ATOM      6  C10 5Q2 d   1     -52.286   0.782 -19.953  0.00  0.00    -0.055 A 
ATOM      7  C9  5Q2 d   1     -51.907   0.598 -18.624  0.00  0.00    -0.060 A 
ATOM      8  H8  5Q2 d   1     -51.673   0.376 -20.750  0.00  0.00     0.087 H 
ATOM      9  C8  5Q2 d   1     -52.683   1.135 -17.579  0.00  0.00     0.010 A 
ATOM     10  H7  5Q2 d   1     -51.008   0.037 -18.393  0.00  0.00     0.086 H 
ATOM     11  C13 5Q2 d   1     -53.857   1.826 -17.901  0.00  0.00    -0.060 A 
ATOM     12  C12 5Q2 d   1     -54.234   1.998 -19.222  0.00  0.00    -0.055 A 
ATOM     13  H10 5Q2 d   1     -54.477   2.230 -17.109  0.00  0.00     0.086 H 
ATOM     14  H9  5Q2 d   1     -55.147   2.536 -19.450  0.00  0.00     0.087 H 
BRANCH   9  15
ATOM     15  N5  5Q2 d   1     -52.377   0.953 -16.209  0.00  0.00    -0.280 NA
ATOM     16  C4  5Q2 d   1     -53.176  -0.146 -15.608  0.00  0.00     0.006 C 
ATOM     17  C3  5Q2 d   1     -53.035  -0.110 -14.081  0.00  0.00     0.094 C 
ATOM     18  H1  5Q2 d   1     -54.234  -0.021 -15.881  0.00  0.00     0.058 H 
ATOM     19  H2  5Q2 d   1     -52.812  -1.113 -15.986  0.00  0.00     0.058 H 
ATOM     20  N2  5Q2 d   1     -51.602  -0.258 -13.765  0.00  0.00    -0.073 N 
ATOM     21  H12 5Q2 d   1     -53.606  -0.936 -13.631  0.00  0.00     0.077 H 
ATOM     22  H13 5Q2 d   1     -53.408   0.849 -13.692  0.00  0.00     0.077 H 
ATOM     23  C7  5Q2 d   1     -50.772   0.849 -14.295  0.00  0.00     0.094 C 
ATOM     24  H11 5Q2 d   1     -51.290  -1.093 -14.235  0.00  0.00     0.279 HD
ATOM     25  C6  5Q2 d   1     -50.940   0.957 -15.828  0.00  0.00     0.006 C 
ATOM     26  H5  5Q2 d   1     -51.086   1.794 -13.828  0.00  0.00     0.077 H 
ATOM     27  H6  5Q2 d   1     -49.715   0.656 -14.058  0.00  0.00     0.077 H 
ATOM     28  H3  5Q2 d   1     -50.439   0.102 -16.306  0.00  0.00     0.058 H 
ATOM     29  H4  5Q2 d   1     -50.479   1.893 -16.175  0.00  0.00     0.058 H 
BRANCH  20  30
ATOM     30  C1  5Q2 d   1     -51.396  -0.483 -12.327  0.00  0.00     0.066 C 
ATOM     31  H14 5Q2 d   1     -50.320  -0.589 -12.123  0.00  0.00     0.068 H 
ATOM     32  H15 5Q2 d   1     -51.920  -1.401 -12.021  0.00  0.00     0.068 H 
ATOM     33  H16 5Q2 d   1     -51.794   0.372 -11.761  0.00  0.00     0.068 H 
ENDBRANCH  20  30
ENDBRANCH   9  15
ENDBRANCH   1   5
BRANCH   2  34
ATOM     34  C17 5Q2 d   1     -54.572   1.199 -23.926  0.00  0.00     0.126 A 
ATOM     35  C18 5Q2 d   1     -54.312   0.483 -25.143  0.00  0.00     0.050 A 
ATOM     36  C19 5Q2 d   1     -55.054   0.831 -26.305  0.00  0.00    -0.042 A 
ATOM     37  C20 5Q2 d   1     -55.998   1.796 -26.280  0.00  0.00    -0.018 A 
ATOM     38  H18 5Q2 d   1     -54.856   0.306 -27.238  0.00  0.00     0.089 H 
ATOM     39  N21 5Q2 d   1     -56.265   2.461 -25.130  0.00  0.00    -0.333 N 
ATOM     40  H19 5Q2 d   1     -56.547   2.041 -27.188  0.00  0.00     0.111 H 
ATOM     41  C23 5Q2 d   1     -55.606   2.207 -23.972  0.00  0.00     0.263 A 
ATOM     42  H20 5Q2 d   1     -56.975   3.166 -25.135  0.00  0.00     0.168 HD
ATOM     43  O24 5Q2 d   1     -55.930   2.874 -22.996  0.00  0.00    -0.267 OA
BRANCH  35  44
ATOM     44  N25 5Q2 d   1     -53.347  -0.521 -25.204  0.00  0.00    -0.389 N 
ATOM     45  H21 5Q2 d   1     -52.706  -0.597 -24.402  0.00  0.00     0.159 HD
BRANCH  44  46
ATOM     46  C26 5Q2 d   1     -53.153  -1.486 -26.305  0.00  0.00    -0.004 C 
ATOM     47  H22 5Q2 d   1     -54.014  -1.435 -26.988  0.00  0.00     0.064 H 
ATOM     48  H23 5Q2 d   1     -53.075  -2.501 -25.888  0.00  0.00     0.064 H 
BRANCH  46  49
ATOM     49  C27 5Q2 d   1     -51.870  -1.160 -27.084  0.00  0.00    -0.026 C 
ATOM     50  H24 5Q2 d   1     -51.660  -1.964 -27.805  0.00  0.00     0.042 H 
ATOM     51  H25 5Q2 d   1     -51.026  -1.064 -26.385  0.00  0.00     0.042 H 
BRANCH  49  52
ATOM     52  C28 5Q2 d   1     -52.073   0.142 -27.818  0.00  0.00    -0.057 A 
ATOM     53  C29 5Q2 d   1     -51.804   1.343 -27.162  0.00  0.00    -0.075 A 
ATOM     54  C30 5Q2 d   1     -52.064   2.558 -27.769  0.00  0.00    -0.061 A 
ATOM     55  H26 5Q2 d   1     -51.385   1.324 -26.162  0.00  0.00     0.084 H 
ATOM     56  C31 5Q2 d   1     -52.545   2.562 -29.069  0.00  0.00     0.034 A 
ATOM     57  H27 5Q2 d   1     -51.895   3.488 -27.239  0.00  0.00     0.086 H 
ATOM     58  C32 5Q2 d   1     -52.757   1.369 -29.758  0.00  0.00    -0.061 A 
ATOM     59 CL   5Q2 d   1     -52.831   4.086 -29.830  0.00  0.00    -0.084 Cl
ATOM     60  C33 5Q2 d   1     -52.553   0.149 -29.125  0.00  0.00    -0.075 A 
ATOM     61  H28 5Q2 d   1     -53.082   1.393 -30.792  0.00  0.00     0.086 H 
ATOM     62  H29 5Q2 d   1     -52.764  -0.781 -29.640  0.00  0.00     0.084 H 
ENDBRANCH  49  52
ENDBRANCH  46  49
ENDBRANCH  44  46
ENDBRANCH  35  44
ENDBRANCH   2  34
TORSDOF 8
