REMARK  7 active torsions:
REMARK  status: ('A' for Active; 'I' for Inactive)
REMARK    1  A    between atoms: C11_3  and  N14_14 
REMARK    2  A    between atoms: C8_5  and  N5_13 
REMARK    3  A    between atoms: N2_10  and  C1_12 
REMARK       I    between atoms: N14_14  and  C15_15 
REMARK    4  A    between atoms: C15_15  and  C17_17 
REMARK    5  A    between atoms: C18_18  and  N25_24 
REMARK    6  A    between atoms: N25_24  and  C26_25 
REMARK    7  A    between atoms: C30_29  and  N32_31 
ROOT
ATOM      1  C11 5Q3 d   1     -52.182   0.745 -19.336  0.00  0.00     0.035 A 
ATOM      2  C8  5Q3 d   1     -51.025   0.428 -16.790  0.00  0.00     0.010 A 
ATOM      3  C9  5Q3 d   1     -52.167   1.223 -16.960  0.00  0.00    -0.060 A 
ATOM      4  C10 5Q3 d   1     -52.736   1.372 -18.215  0.00  0.00    -0.055 A 
ATOM      5  C12 5Q3 d   1     -51.042  -0.054 -19.179  0.00  0.00    -0.055 A 
ATOM      6  C13 5Q3 d   1     -50.485  -0.227 -17.913  0.00  0.00    -0.060 A 
ATOM      7  H7  5Q3 d   1     -52.607   1.724 -16.105  0.00  0.00     0.086 H 
ATOM      8  H8  5Q3 d   1     -53.624   1.984 -18.330  0.00  0.00     0.087 H 
ATOM      9  H9  5Q3 d   1     -50.594  -0.537 -20.040  0.00  0.00     0.087 H 
ATOM     10  H10 5Q3 d   1     -49.624  -0.875 -17.791  0.00  0.00     0.086 H 
ENDROOT
BRANCH   1  11
ATOM     11  N14 5Q3 d   1     -52.852   0.963 -20.561  0.00  0.00    -0.323 N 
ATOM     12  C15 5Q3 d   1     -52.849   0.243 -21.718  0.00  0.00     0.264 C 
ATOM     13  O16 5Q3 d   1     -52.175  -0.774 -21.802  0.00  0.00    -0.267 OA
ATOM     14  H17 5Q3 d   1     -53.424   1.783 -20.582  0.00  0.00     0.169 HD
BRANCH  12  15
ATOM     15  C17 5Q3 d   1     -53.743   0.648 -22.841  0.00  0.00     0.126 A 
ATOM     16  C18 5Q3 d   1     -53.661   0.056 -24.155  0.00  0.00     0.056 A 
ATOM     17  C19 5Q3 d   1     -54.588   0.481 -25.144  0.00  0.00    -0.041 A 
ATOM     18  C20 5Q3 d   1     -55.542   1.402 -24.882  0.00  0.00    -0.018 A 
ATOM     19  H18 5Q3 d   1     -54.528   0.052 -26.143  0.00  0.00     0.089 H 
ATOM     20  N21 5Q3 d   1     -55.621   1.957 -23.648  0.00  0.00    -0.333 N 
ATOM     21  H19 5Q3 d   1     -56.245   1.697 -25.660  0.00  0.00     0.111 H 
ATOM     22  C23 5Q3 d   1     -54.785   1.630 -22.634  0.00  0.00     0.263 A 
ATOM     23  H20 5Q3 d   1     -56.331   2.641 -23.478  0.00  0.00     0.168 HD
ATOM     24  O24 5Q3 d   1     -54.962   2.216 -21.569  0.00  0.00    -0.267 OA
BRANCH  16  25
ATOM     25  N25 5Q3 d   1     -52.698  -0.907 -24.466  0.00  0.00    -0.339 N 
ATOM     26  H21 5Q3 d   1     -52.049  -1.138 -23.700  0.00  0.00     0.167 HD
BRANCH  25  27
ATOM     27  C26 5Q3 d   1     -52.478  -1.610 -25.666  0.00  0.00     0.148 A 
ATOM     28  C27 5Q3 d   1     -51.514  -2.640 -25.669  0.00  0.00    -0.021 A 
ATOM     29  C28 5Q3 d   1     -51.273  -3.347 -26.849  0.00  0.00     0.025 A 
ATOM     30  H22 5Q3 d   1     -50.966  -2.880 -24.765  0.00  0.00     0.091 H 
ATOM     31  N29 5Q3 d   1     -51.945  -3.029 -27.954  0.00  0.00    -0.075 NA
ATOM     32  H23 5Q3 d   1     -50.544  -4.149 -26.865  0.00  0.00     0.115 H 
ATOM     33  C30 5Q3 d   1     -52.838  -2.043 -27.937  0.00  0.00     0.721 A 
ATOM     34  N31 5Q3 d   1     -53.103  -1.343 -26.828  0.00  0.00    -0.045 NA
BRANCH  33  35
ATOM     35  N32 5Q3 d   1     -53.516  -1.753 -29.100  0.00  0.00    -0.231 N 
ATOM     36  H24 5Q3 d   1     -53.318  -2.287 -29.958  0.00  0.00     0.174 HD
ATOM     37  H25 5Q3 d   1     -54.221  -1.002 -29.112  0.00  0.00     0.174 HD
ENDBRANCH  33  35
ENDBRANCH  25  27
ENDBRANCH  16  25
ENDBRANCH  12  15
ENDBRANCH   1  11
BRANCH   2  38
ATOM     38  N5  5Q3 d   1     -50.495   0.278 -15.488  0.00  0.00    -0.280 NA
ATOM     39  C4  5Q3 d   1     -51.324  -0.665 -14.689  0.00  0.00     0.006 C 
ATOM     40  C3  5Q3 d   1     -50.831  -0.749 -13.236  0.00  0.00     0.094 C 
ATOM     41  H1  5Q3 d   1     -52.367  -0.317 -14.694  0.00  0.00     0.058 H 
ATOM     42  H2  5Q3 d   1     -51.269  -1.665 -15.144  0.00  0.00     0.058 H 
ATOM     43  N2  5Q3 d   1     -49.399  -1.117 -13.258  0.00  0.00    -0.073 N 
ATOM     44  H12 5Q3 d   1     -51.404  -1.514 -12.691  0.00  0.00     0.077 H 
ATOM     45  H13 5Q3 d   1     -50.958   0.226 -12.742  0.00  0.00     0.077 H 
ATOM     46  C7  5Q3 d   1     -48.547  -0.123 -13.955  0.00  0.00     0.094 C 
ATOM     47  H11 5Q3 d   1     -49.326  -1.974 -13.783  0.00  0.00     0.279 HD
ATOM     48  C6  5Q3 d   1     -49.020   0.067 -15.411  0.00  0.00     0.006 C 
ATOM     49  H5  5Q3 d   1     -48.607   0.840 -13.426  0.00  0.00     0.077 H 
ATOM     50  H6  5Q3 d   1     -47.505  -0.476 -13.956  0.00  0.00     0.077 H 
ATOM     51  H3  5Q3 d   1     -48.757  -0.830 -15.991  0.00  0.00     0.058 H 
ATOM     52  H4  5Q3 d   1     -48.512   0.943 -15.840  0.00  0.00     0.058 H 
BRANCH  43  53
ATOM     53  C1  5Q3 d   1     -48.922  -1.404 -11.897  0.00  0.00     0.066 C 
ATOM     54  H14 5Q3 d   1     -47.857  -1.676 -11.931  0.00  0.00     0.068 H 
ATOM     55  H15 5Q3 d   1     -49.500  -2.239 -11.475  0.00  0.00     0.068 H 
ATOM     56  H16 5Q3 d   1     -49.053  -0.512 -11.267  0.00  0.00     0.068 H 
ENDBRANCH  43  53
ENDBRANCH   2  38
TORSDOF 7
