REMARK  8 active torsions:
REMARK  status: ('A' for Active; 'I' for Inactive)
REMARK    1  A    between atoms: C11_3  and  N14_14 
REMARK    2  A    between atoms: C8_5  and  N5_13 
REMARK    3  A    between atoms: N2_10  and  C1_12 
REMARK       I    between atoms: N14_14  and  C15_15 
REMARK    4  A    between atoms: C15_15  and  C17_17 
REMARK    5  A    between atoms: C18_18  and  N25_24 
REMARK    6  A    between atoms: N25_24  and  C26_25 
REMARK    7  A    between atoms: C31_30  and  O32_31 
REMARK    8  A    between atoms: O32_31  and  C33_32 
ROOT
ATOM      1  N14 5Q4 d   1     -52.793   1.099 -20.315  0.00  0.00    -0.323 N 
ATOM      2  C15 5Q4 d   1     -52.495   0.460 -21.481  0.00  0.00     0.264 C 
ATOM      3  O16 5Q4 d   1     -51.619  -0.385 -21.488  0.00  0.00    -0.267 OA
ATOM      4  H17 5Q4 d   1     -53.514   1.788 -20.386  0.00  0.00     0.169 HD
ENDROOT
BRANCH   1   5
ATOM      5  C11 5Q4 d   1     -52.244   0.943 -19.019  0.00  0.00     0.035 A 
ATOM      6  C10 5Q4 d   1     -52.734   1.784 -18.013  0.00  0.00    -0.055 A 
ATOM      7  C9  5Q4 d   1     -52.279   1.674 -16.704  0.00  0.00    -0.060 A 
ATOM      8  H8  5Q4 d   1     -53.479   2.532 -18.258  0.00  0.00     0.087 H 
ATOM      9  C8  5Q4 d   1     -51.317   0.712 -16.360  0.00  0.00     0.010 A 
ATOM     10  H7  5Q4 d   1     -52.671   2.338 -15.942  0.00  0.00     0.086 H 
ATOM     11  C13 5Q4 d   1     -50.847  -0.154 -17.368  0.00  0.00    -0.060 A 
ATOM     12  C12 5Q4 d   1     -51.304  -0.040 -18.677  0.00  0.00    -0.055 A 
ATOM     13  H10 5Q4 d   1     -50.120  -0.919 -17.120  0.00  0.00     0.086 H 
ATOM     14  H9  5Q4 d   1     -50.931  -0.716 -19.438  0.00  0.00     0.087 H 
BRANCH   9  15
ATOM     15  N5  5Q4 d   1     -50.910   0.597 -15.008  0.00  0.00    -0.280 NA
ATOM     16  C4  5Q4 d   1     -51.945  -0.133 -14.228  0.00  0.00     0.006 C 
ATOM     17  C3  5Q4 d   1     -51.556  -0.280 -12.752  0.00  0.00     0.094 C 
ATOM     18  H1  5Q4 d   1     -52.893   0.420 -14.292  0.00  0.00     0.058 H 
ATOM     19  H2  5Q4 d   1     -52.075  -1.135 -14.662  0.00  0.00     0.058 H 
ATOM     20  N2  5Q4 d   1     -50.241  -0.944 -12.684  0.00  0.00    -0.073 N 
ATOM     21  H12 5Q4 d   1     -52.308  -0.889 -12.228  0.00  0.00     0.077 H 
ATOM     22  H13 5Q4 d   1     -51.496   0.713 -12.282  0.00  0.00     0.077 H 
ATOM     23  C7  5Q4 d   1     -49.177  -0.152 -13.339  0.00  0.00     0.094 C 
ATOM     24  H11 5Q4 d   1     -50.318  -1.814 -13.187  0.00  0.00     0.279 HD
ATOM     25  C6  5Q4 d   1     -49.521   0.092 -14.822  0.00  0.00     0.006 C 
ATOM     26  H5  5Q4 d   1     -49.079   0.816 -12.826  0.00  0.00     0.077 H 
ATOM     27  H6  5Q4 d   1     -48.225  -0.700 -13.274  0.00  0.00     0.077 H 
ATOM     28  H3  5Q4 d   1     -49.414  -0.856 -15.370  0.00  0.00     0.058 H 
ATOM     29  H4  5Q4 d   1     -48.818   0.833 -15.230  0.00  0.00     0.058 H 
BRANCH  20  30
ATOM     30  C1  5Q4 d   1     -49.891  -1.266 -11.292  0.00  0.00     0.066 C 
ATOM     31  H14 5Q4 d   1     -48.908  -1.760 -11.266  0.00  0.00     0.068 H 
ATOM     32  H15 5Q4 d   1     -50.651  -1.940 -10.869  0.00  0.00     0.068 H 
ATOM     33  H16 5Q4 d   1     -49.852  -0.340 -10.700  0.00  0.00     0.068 H 
ENDBRANCH  20  30
ENDBRANCH   9  15
ENDBRANCH   1   5
BRANCH   2  34
ATOM     34  C17 5Q4 d   1     -53.257   0.753 -22.732  0.00  0.00     0.126 A 
ATOM     35  C18 5Q4 d   1     -52.925   0.146 -23.992  0.00  0.00     0.055 A 
ATOM     36  C19 5Q4 d   1     -53.694   0.460 -25.140  0.00  0.00    -0.041 A 
ATOM     37  C20 5Q4 d   1     -54.748   1.304 -25.058  0.00  0.00    -0.018 A 
ATOM     38  H18 5Q4 d   1     -53.433   0.017 -26.100  0.00  0.00     0.089 H 
ATOM     39  N21 5Q4 d   1     -55.075   1.893 -23.878  0.00  0.00    -0.333 N 
ATOM     40  H19 5Q4 d   1     -55.341   1.514 -25.947  0.00  0.00     0.111 H 
ATOM     41  C23 5Q4 d   1     -54.386   1.650 -22.735  0.00  0.00     0.263 A 
ATOM     42  H20 5Q4 d   1     -55.849   2.526 -23.851  0.00  0.00     0.168 HD
ATOM     43  O24 5Q4 d   1     -54.759   2.237 -21.731  0.00  0.00    -0.267 OA
BRANCH  35  44
ATOM     44  N25 5Q4 d   1     -51.846  -0.706 -24.159  0.00  0.00    -0.353 N 
ATOM     45  H21 5Q4 d   1     -50.908  -0.295 -24.051  0.00  0.00     0.166 HD
BRANCH  44  46
ATOM     46  C26 5Q4 d   1     -51.907  -2.078 -24.462  0.00  0.00     0.066 A 
ATOM     47  C27 5Q4 d   1     -52.106  -2.999 -23.427  0.00  0.00    -0.054 A 
ATOM     48  C28 5Q4 d   1     -52.124  -4.365 -23.689  0.00  0.00    -0.081 A 
ATOM     49  H22 5Q4 d   1     -52.247  -2.645 -22.412  0.00  0.00     0.087 H 
ATOM     50  C29 5Q4 d   1     -51.899  -4.826 -24.982  0.00  0.00    -0.080 A 
ATOM     51  H23 5Q4 d   1     -52.313  -5.069 -22.887  0.00  0.00     0.083 H 
ATOM     52  C30 5Q4 d   1     -51.663  -3.924 -26.016  0.00  0.00    -0.049 A 
ATOM     53  H24 5Q4 d   1     -51.907  -5.891 -25.185  0.00  0.00     0.083 H 
ATOM     54  C31 5Q4 d   1     -51.669  -2.543 -25.772  0.00  0.00     0.094 A 
ATOM     55  H25 5Q4 d   1     -51.473  -4.292 -27.018  0.00  0.00     0.087 H 
BRANCH  54  56
ATOM     56  O32 5Q4 d   1     -51.424  -1.658 -26.790  0.00  0.00    -0.354 OA
BRANCH  56  57
ATOM     57  C33 5Q4 d   1     -52.356  -1.539 -27.876  0.00  0.00     0.010 C 
ATOM     58  H26 5Q4 d   1     -51.992  -0.786 -28.590  0.00  0.00     0.066 H 
ATOM     59  H27 5Q4 d   1     -53.337  -1.231 -27.485  0.00  0.00     0.066 H 
ATOM     60  H28 5Q4 d   1     -52.453  -2.510 -28.384  0.00  0.00     0.066 H 
ENDBRANCH  56  57
ENDBRANCH  54  56
ENDBRANCH  44  46
ENDBRANCH  35  44
ENDBRANCH   2  34
TORSDOF 8
