REMARK  8 active torsions:
REMARK  status: ('A' for Active; 'I' for Inactive)
REMARK    1  A    between atoms: C11_3  and  N14_14 
REMARK    2  A    between atoms: C8_5  and  N5_13 
REMARK    3  A    between atoms: N2_10  and  C1_12 
REMARK       I    between atoms: N14_14  and  C15_15 
REMARK    4  A    between atoms: C15_15  and  C17_17 
REMARK    5  A    between atoms: C18_18  and  N25_24 
REMARK    6  A    between atoms: N25_24  and  C26_25 
REMARK    7  A    between atoms: C31_30  and  O32_31 
REMARK    8  A    between atoms: O32_31  and  C33_32 
ROOT
ATOM      1  N14 5Q4 d   1     -53.319   0.739 -20.283  0.00  0.00    -0.323 N 
ATOM      2  C15 5Q4 d   1     -53.006   0.041 -21.410  0.00  0.00     0.264 C 
ATOM      3  O16 5Q4 d   1     -52.174  -0.847 -21.346  0.00  0.00    -0.267 OA
ATOM      4  H17 5Q4 d   1     -54.003   1.456 -20.415  0.00  0.00     0.169 HD
ENDROOT
BRANCH   1   5
ATOM      5  C11 5Q4 d   1     -52.840   0.621 -18.959  0.00  0.00     0.035 A 
ATOM      6  C10 5Q4 d   1     -51.812  -0.242 -18.538  0.00  0.00    -0.055 A 
ATOM      7  C9  5Q4 d   1     -51.446  -0.301 -17.195  0.00  0.00    -0.060 A 
ATOM      8  H8  5Q4 d   1     -51.301  -0.865 -19.263  0.00  0.00     0.087 H 
ATOM      9  C8  5Q4 d   1     -52.088   0.514 -16.241  0.00  0.00     0.010 A 
ATOM     10  H7  5Q4 d   1     -50.661  -0.979 -16.881  0.00  0.00     0.086 H 
ATOM     11  C13 5Q4 d   1     -53.110   1.370 -16.675  0.00  0.00    -0.060 A 
ATOM     12  C12 5Q4 d   1     -53.483   1.417 -18.010  0.00  0.00    -0.055 A 
ATOM     13  H10 5Q4 d   1     -53.616   2.005 -15.957  0.00  0.00     0.086 H 
ATOM     14  H9  5Q4 d   1     -54.283   2.079 -18.320  0.00  0.00     0.087 H 
BRANCH   9  15
ATOM     15  N5  5Q4 d   1     -51.803   0.469 -14.850  0.00  0.00    -0.280 NA
ATOM     16  C4  5Q4 d   1     -52.905  -0.209 -14.122  0.00  0.00     0.006 C 
ATOM     17  C3  5Q4 d   1     -52.687  -0.130 -12.605  0.00  0.00     0.094 C 
ATOM     18  H1  5Q4 d   1     -53.858   0.279 -14.375  0.00  0.00     0.058 H 
ATOM     19  H2  5Q4 d   1     -52.942  -1.265 -14.426  0.00  0.00     0.058 H 
ATOM     20  N2  5Q4 d   1     -51.393  -0.779 -12.331  0.00  0.00    -0.073 N 
ATOM     21  H12 5Q4 d   1     -53.495  -0.658 -12.078  0.00  0.00     0.077 H 
ATOM     22  H13 5Q4 d   1     -52.661   0.920 -12.280  0.00  0.00     0.077 H 
ATOM     23  C7  5Q4 d   1     -50.263  -0.037 -12.932  0.00  0.00     0.094 C 
ATOM     24  H11 5Q4 d   1     -51.419  -1.677 -12.789  0.00  0.00     0.279 HD
ATOM     25  C6  5Q4 d   1     -50.437   0.014 -14.463  0.00  0.00     0.006 C 
ATOM     26  H5  5Q4 d   1     -50.242   0.987 -12.531  0.00  0.00     0.077 H 
ATOM     27  H6  5Q4 d   1     -49.319  -0.546 -12.687  0.00  0.00     0.077 H 
ATOM     28  H3  5Q4 d   1     -50.267  -0.992 -14.874  0.00  0.00     0.058 H 
ATOM     29  H4  5Q4 d   1     -49.697   0.712 -14.882  0.00  0.00     0.058 H 
BRANCH  20  30
ATOM     30  C1  5Q4 d   1     -51.205  -1.050 -10.897  0.00  0.00     0.066 C 
ATOM     31  H14 5Q4 d   1     -50.229  -1.533 -10.740  0.00  0.00     0.068 H 
ATOM     32  H15 5Q4 d   1     -52.005  -1.716 -10.542  0.00  0.00     0.068 H 
ATOM     33  H16 5Q4 d   1     -51.240  -0.104 -10.337  0.00  0.00     0.068 H 
ENDBRANCH  20  30
ENDBRANCH   9  15
ENDBRANCH   1   5
BRANCH   2  34
ATOM     34  C17 5Q4 d   1     -53.716   0.328 -22.699  0.00  0.00     0.126 A 
ATOM     35  C18 5Q4 d   1     -53.365  -0.326 -23.939  0.00  0.00     0.055 A 
ATOM     36  C19 5Q4 d   1     -54.105   0.001 -25.112  0.00  0.00    -0.041 A 
ATOM     37  C20 5Q4 d   1     -55.141   0.872 -25.083  0.00  0.00    -0.018 A 
ATOM     38  H18 5Q4 d   1     -53.830  -0.463 -26.058  0.00  0.00     0.089 H 
ATOM     39  N21 5Q4 d   1     -55.472   1.500 -23.924  0.00  0.00    -0.333 N 
ATOM     40  H19 5Q4 d   1     -55.710   1.070 -25.990  0.00  0.00     0.111 H 
ATOM     41  C23 5Q4 d   1     -54.816   1.272 -22.755  0.00  0.00     0.263 A 
ATOM     42  H20 5Q4 d   1     -56.227   2.155 -23.931  0.00  0.00     0.168 HD
ATOM     43  O24 5Q4 d   1     -55.203   1.912 -21.781  0.00  0.00    -0.267 OA
BRANCH  35  44
ATOM     44  N25 5Q4 d   1     -52.301  -1.225 -24.050  0.00  0.00    -0.353 N 
ATOM     45  H21 5Q4 d   1     -51.402  -0.930 -23.644  0.00  0.00     0.166 HD
BRANCH  44  46
ATOM     46  C26 5Q4 d   1     -52.333  -2.500 -24.664  0.00  0.00     0.066 A 
ATOM     47  C27 5Q4 d   1     -52.655  -2.632 -26.029  0.00  0.00    -0.054 A 
ATOM     48  C28 5Q4 d   1     -52.699  -3.883 -26.637  0.00  0.00    -0.081 A 
ATOM     49  H22 5Q4 d   1     -52.872  -1.746 -26.614  0.00  0.00     0.087 H 
ATOM     50  C29 5Q4 d   1     -52.364  -5.020 -25.901  0.00  0.00    -0.080 A 
ATOM     51  H23 5Q4 d   1     -52.992  -3.974 -27.677  0.00  0.00     0.083 H 
ATOM     52  C30 5Q4 d   1     -52.026  -4.914 -24.551  0.00  0.00    -0.049 A 
ATOM     53  H24 5Q4 d   1     -52.366  -5.992 -26.381  0.00  0.00     0.083 H 
ATOM     54  C31 5Q4 d   1     -51.974  -3.658 -23.926  0.00  0.00     0.094 A 
ATOM     55  H25 5Q4 d   1     -51.802  -5.808 -23.981  0.00  0.00     0.087 H 
BRANCH  54  56
ATOM     56  O32 5Q4 d   1     -51.604  -3.582 -22.603  0.00  0.00    -0.354 OA
BRANCH  56  57
ATOM     57  C33 5Q4 d   1     -50.209  -3.437 -22.269  0.00  0.00     0.010 C 
ATOM     58  H26 5Q4 d   1     -50.096  -3.393 -21.176  0.00  0.00     0.066 H 
ATOM     59  H27 5Q4 d   1     -49.819  -2.510 -22.715  0.00  0.00     0.066 H 
ATOM     60  H28 5Q4 d   1     -49.647  -4.297 -22.661  0.00  0.00     0.066 H 
ENDBRANCH  56  57
ENDBRANCH  54  56
ENDBRANCH  44  46
ENDBRANCH  35  44
ENDBRANCH   2  34
TORSDOF 8
