REMARK  28 active torsions:
REMARK  status: ('A' for Active; 'I' for Inactive)
REMARK    1  A    between atoms: N_1  and  CA_2 
REMARK    2  A    between atoms: CA_2  and  CB_3 
REMARK    3  A    between atoms: CA_2  and  C_5 
REMARK    4  A    between atoms: CB_3  and  OG_4 
REMARK    5  A    between atoms: OG_4  and  P_7 
REMARK       I    between atoms: C_5  and  N_11 
REMARK    6  A    between atoms: N_11  and  CA_12 
REMARK    7  A    between atoms: CA_12  and  C_13 
REMARK    8  A    between atoms: CA_12  and  CB_15 
REMARK       I    between atoms: C_13  and  N_19 
REMARK    9  A    between atoms: CB_15  and  CG_16 
REMARK   10  A    between atoms: CG_16  and  CD1_17 
REMARK   11  A    between atoms: CG_16  and  CD2_18 
REMARK   12  A    between atoms: N_19  and  CA_20 
REMARK   13  A    between atoms: CA_20  and  C_21 
REMARK   14  A    between atoms: CA_20  and  CB_23 
REMARK       I    between atoms: C_21  and  N_28 
REMARK   15  A    between atoms: CB_23  and  CG_24 
REMARK   16  A    between atoms: CG_24  and  CD_25 
REMARK   17  A    between atoms: N_28  and  CA_29 
REMARK   18  A    between atoms: CA_29  and  C_30 
REMARK   19  A    between atoms: CA_29  and  CB_32 
REMARK       I    between atoms: C_30  and  N_34 
REMARK   20  A    between atoms: CB_32  and  OG_33 
REMARK   21  A    between atoms: N_34  and  CA_35 
REMARK   22  A    between atoms: CA_35  and  C_36 
REMARK   23  A    between atoms: CA_35  and  CB_38 
REMARK       I    between atoms: C_36  and  N_40 
REMARK   24  A    between atoms: CB_38  and  SG_39 
REMARK   25  A    between atoms: N_40  and  CA_41 
REMARK   26  A    between atoms: CA_41  and  C_42 
REMARK   27  A    between atoms: CA_41  and  CB_44 
REMARK   28  A    between atoms: CB_44  and  CG_45 
ROOT
ATOM      1  CA  GLU d   1      -9.205  -0.232 -14.647  0.00  0.00     0.090 C 
ATOM      2  H19 GLU d   1      -8.838   0.213 -13.710  0.00  0.00     0.087 H 
ENDROOT
BRANCH   1   3
ATOM      3  N   GLU d   1     -10.660  -0.178 -14.654  0.00  0.00    -0.346 N 
ATOM      4  C   LEU d   1     -11.364   0.276 -13.609  0.00  0.00     0.241 C 
ATOM      5  O   LEU d   1     -10.853   0.718 -12.588  0.00  0.00    -0.271 OA
ATOM      6  H18 GLU d   1     -11.151  -0.491 -15.467  0.00  0.00     0.163 HD
BRANCH   4   7
ATOM      7  CA  LEU d   1     -12.865   0.273 -13.733  0.00  0.00     0.089 C 
ATOM      8  H8  LEU d   1     -13.173  -0.529 -14.420  0.00  0.00     0.087 H 
BRANCH   7   9
ATOM      9  N   LEU d   1     -13.490   0.043 -12.426  0.00  0.00    -0.346 N 
ATOM     10  C   SEP d   1     -14.400  -0.909 -12.213  0.00  0.00     0.251 C 
ATOM     11  O   SEP d   1     -14.712  -1.746 -13.060  0.00  0.00    -0.271 OA
ATOM     12  H7  LEU d   1     -13.222   0.626 -11.659  0.00  0.00     0.163 HD
BRANCH  10  13
ATOM     13  CA  SEP d   1     -15.074  -0.911 -10.843  0.00  0.00     0.196 C 
ATOM     14  H4  SEP d   1     -15.206   0.132 -10.521  0.00  0.00     0.102 H 
BRANCH  13  15
ATOM     15  N   SEP d   1     -16.431  -1.549 -10.932  0.00  0.00    -0.064 N 
ATOM     16  H1  SEP d   1     -16.865  -1.544 -10.022  0.00  0.00     0.275 HD
ATOM     17  H2  SEP d   1     -16.335  -2.500 -11.253  0.00  0.00     0.275 HD
ATOM     18  H3  SEP d   1     -17.004  -1.032 -11.580  0.00  0.00     0.275 HD
ENDBRANCH  13  15
BRANCH  13  19
ATOM     19  CB  SEP d   1     -14.195  -1.619  -9.814  0.00  0.00     0.067 C 
ATOM     20  H5  SEP d   1     -14.803  -1.853  -8.927  0.00  0.00     0.079 H 
ATOM     21  H6  SEP d   1     -13.371  -0.949  -9.528  0.00  0.00     0.079 H 
BRANCH  19  22
ATOM     22  OG  SEP d   1     -13.653  -2.815 -10.324  0.00  0.00    -0.280 OA
BRANCH  22  23
ATOM     23  P   SEP d   1     -13.808  -4.009  -9.270  0.00  0.00     0.422 P 
ATOM     24  O1P SEP d   1     -13.049  -5.289  -9.859  0.00  0.00    -0.617 OA
ATOM     25  O2P SEP d   1     -15.372  -4.304  -9.060  0.00  0.00    -0.617 OA
ATOM     26  O3P SEP d   1     -13.124  -3.631  -7.875  0.00  0.00    -0.617 OA
ENDBRANCH  22  23
ENDBRANCH  19  22
ENDBRANCH  13  19
ENDBRANCH  10  13
ENDBRANCH   7   9
BRANCH   7  27
ATOM     27  CB  LEU d   1     -13.288   1.617 -14.306  0.00  0.00    -0.035 C 
ATOM     28  H9  LEU d   1     -12.927   1.658 -15.344  0.00  0.00     0.037 H 
ATOM     29  H10 LEU d   1     -12.788   2.397 -13.713  0.00  0.00     0.037 H 
BRANCH  27  30
ATOM     30  CG  LEU d   1     -14.770   1.948 -14.330  0.00  0.00    -0.059 C 
ATOM     31  H11 LEU d   1     -15.197   1.809 -13.326  0.00  0.00     0.038 H 
BRANCH  30  32
ATOM     32  CD1 LEU d   1     -14.961   3.396 -14.758  0.00  0.00    -0.073 C 
ATOM     33  H12 LEU d   1     -16.035   3.635 -14.775  0.00  0.00     0.028 H 
ATOM     34  H13 LEU d   1     -14.537   3.540 -15.763  0.00  0.00     0.028 H 
ATOM     35  H14 LEU d   1     -14.449   4.060 -14.046  0.00  0.00     0.028 H 
ENDBRANCH  30  32
BRANCH  30  36
ATOM     36  CD2 LEU d   1     -15.432   1.025 -15.278  0.00  0.00    -0.073 C 
ATOM     37  H15 LEU d   1     -15.279  -0.013 -14.947  0.00  0.00     0.028 H 
ATOM     38  H16 LEU d   1     -15.000   1.157 -16.281  0.00  0.00     0.028 H 
ATOM     39  H17 LEU d   1     -16.509   1.244 -15.312  0.00  0.00     0.028 H 
ENDBRANCH  30  36
ENDBRANCH  27  30
ENDBRANCH   7  27
ENDBRANCH   4   7
ENDBRANCH   1   3
BRANCH   1  40
ATOM     40  C   GLU d   1      -8.657   0.579 -15.821  0.00  0.00     0.241 C 
ATOM     41  O   GLU d   1      -9.190   0.506 -16.930  0.00  0.00    -0.271 OA
ATOM     42  N   SER d   1      -7.582   1.322 -15.576  0.00  0.00    -0.344 N 
ATOM     43  H24 SER d   1      -7.218   1.343 -14.645  0.00  0.00     0.163 HD
BRANCH  42  44
ATOM     44  CA  SER d   1      -6.910   2.109 -16.607  0.00  0.00     0.109 C 
ATOM     45  H25 SER d   1      -7.301   1.811 -17.591  0.00  0.00     0.090 H 
BRANCH  44  46
ATOM     46  C   SER d   1      -5.419   1.856 -16.584  0.00  0.00     0.243 C 
ATOM     47  O   SER d   1      -4.869   1.450 -15.568  0.00  0.00    -0.271 OA
ATOM     48  N   CYS d   1      -4.764   2.088 -17.726  0.00  0.00    -0.345 N 
ATOM     49  H29 CYS d   1      -5.278   2.477 -18.491  0.00  0.00     0.163 HD
BRANCH  48  50
ATOM     50  CA  CYS d   1      -3.332   1.807 -17.928  0.00  0.00     0.097 C 
ATOM     51  H30 CYS d   1      -2.954   1.260 -17.052  0.00  0.00     0.088 H 
BRANCH  50  52
ATOM     52  C   CYS d   1      -2.580   3.096 -18.078  0.00  0.00     0.242 C 
ATOM     53  O   CYS d   1      -3.058   4.037 -18.741  0.00  0.00    -0.271 OA
ATOM     54  N   PHE d   1      -1.383   3.128 -17.504  0.00  0.00    -0.344 N 
ATOM     55  H34 PHE d   1      -1.060   2.314 -17.021  0.00  0.00     0.163 HD
BRANCH  54  56
ATOM     56  CA  PHE d   1      -0.521   4.304 -17.550  0.00  0.00     0.100 C 
ATOM     57  H35 PHE d   1      -0.891   4.969 -18.345  0.00  0.00     0.090 H 
BRANCH  56  58
ATOM     58  C   PHE d   1       0.923   3.953 -17.868  0.00  0.00     0.197 C 
ATOM     59  O   PHE d   1       1.360   2.806 -17.692  0.00  0.00    -0.646 OA
ATOM     60  OXT PHE d   1       1.656   4.853 -18.305  0.00  0.00    -0.646 OA
ENDBRANCH  56  58
BRANCH  56  61
ATOM     61  CB  PHE d   1      -0.608   5.043 -16.219  0.00  0.00    -0.013 C 
ATOM     62  H36 PHE d   1      -0.003   5.959 -16.287  0.00  0.00     0.043 H 
ATOM     63  H37 PHE d   1      -0.202   4.393 -15.430  0.00  0.00     0.043 H 
BRANCH  61  64
ATOM     64  CG  PHE d   1      -2.004   5.421 -15.852  0.00  0.00    -0.056 A 
ATOM     65  CD1 PHE d   1      -2.577   6.551 -16.392  0.00  0.00    -0.077 A 
ATOM     66  CE1 PHE d   1      -3.862   6.913 -16.073  0.00  0.00    -0.082 A 
ATOM     67  H38 PHE d   1      -2.005   7.164 -17.079  0.00  0.00     0.084 H 
ATOM     68  CZ  PHE d   1      -4.613   6.135 -15.237  0.00  0.00    -0.083 A 
ATOM     69  H40 PHE d   1      -4.284   7.822 -16.487  0.00  0.00     0.083 H 
ATOM     70  CE2 PHE d   1      -4.061   4.995 -14.687  0.00  0.00    -0.082 A 
ATOM     71  H42 PHE d   1      -5.636   6.411 -15.007  0.00  0.00     0.083 H 
ATOM     72  CD2 PHE d   1      -2.764   4.643 -14.996  0.00  0.00    -0.077 A 
ATOM     73  H41 PHE d   1      -4.646   4.378 -14.014  0.00  0.00     0.083 H 
ATOM     74  H39 PHE d   1      -2.335   3.747 -14.563  0.00  0.00     0.084 H 
ENDBRANCH  61  64
ENDBRANCH  56  61
ENDBRANCH  54  56
ENDBRANCH  50  52
BRANCH  50  75
ATOM     75  CB  CYS d   1      -3.080   0.975 -19.179  0.00  0.00     0.001 C 
ATOM     76  H31 CYS d   1      -2.050   0.589 -19.148  0.00  0.00     0.052 H 
ATOM     77  H32 CYS d   1      -3.205   1.616 -20.064  0.00  0.00     0.052 H 
BRANCH  75  78
ATOM     78  SG  CYS d   1      -4.155  -0.336 -19.294  0.00  0.00    -0.180 SA
ATOM     79  H33 CYS d   1      -3.956  -0.860 -20.132  0.00  0.00     0.101 HD
ENDBRANCH  75  78
ENDBRANCH  50  75
ENDBRANCH  48  50
ENDBRANCH  44  46
BRANCH  44  80
ATOM     80  CB  SER d   1      -7.205   3.605 -16.388  0.00  0.00     0.044 C 
ATOM     81  H26 SER d   1      -6.692   4.199 -17.159  0.00  0.00     0.077 H 
ATOM     82  H27 SER d   1      -6.848   3.909 -15.393  0.00  0.00     0.077 H 
BRANCH  80  83
ATOM     83  OG  SER d   1      -8.593   3.817 -16.476  0.00  0.00    -0.398 OA
ATOM     84  H28 SER d   1      -9.034   3.303 -15.810  0.00  0.00     0.209 HD
ENDBRANCH  80  83
ENDBRANCH  44  80
ENDBRANCH  42  44
ENDBRANCH   1  40
BRANCH   1  85
ATOM     85  CB  GLU d   1      -8.730  -1.682 -14.713  0.00  0.00    -0.029 C 
ATOM     86  H20 GLU d   1      -9.100  -2.122 -15.651  0.00  0.00     0.037 H 
ATOM     87  H21 GLU d   1      -9.161  -2.224 -13.858  0.00  0.00     0.037 H 
BRANCH  85  88
ATOM     88  CG  GLU d   1      -7.249  -1.851 -14.672  0.00  0.00     0.018 C 
ATOM     89  H22 GLU d   1      -6.846  -1.191 -13.889  0.00  0.00     0.049 H 
ATOM     90  H23 GLU d   1      -6.839  -1.554 -15.649  0.00  0.00     0.049 H 
BRANCH  88  91
ATOM     91  CD  GLU d   1      -6.803  -3.268 -14.378  0.00  0.00     0.172 C 
ATOM     92  OE1 GLU d   1      -7.654  -4.174 -14.378  0.00  0.00    -0.648 OA
ATOM     93  OE2 GLU d   1      -5.591  -3.461 -14.148  0.00  0.00    -0.648 OA
ENDBRANCH  88  91
ENDBRANCH  85  88
ENDBRANCH   1  85
TORSDOF 28
