REMARK WARNING: 32 MAX_TORS EXCEEDED!!!
REMARK  34 active torsions:
REMARK  status: ('A' for Active; 'I' for Inactive)
REMARK    1  A    between atoms: N_1  and  CA_2 
REMARK    2  A    between atoms: CA_2  and  C_3 
REMARK    3  A    between atoms: CA_2  and  CB_5 
REMARK       I    between atoms: C_3  and  N_9 
REMARK    4  A    between atoms: CB_5  and  CG_6 
REMARK    5  A    between atoms: N_9  and  CA_10 
REMARK    6  A    between atoms: CA_10  and  C_11 
REMARK    7  A    between atoms: CA_10  and  CB_13 
REMARK       I    between atoms: C_11  and  N_17 
REMARK    8  A    between atoms: CB_13  and  CG_14 
REMARK    9  A    between atoms: N_17  and  CA_18 
REMARK   10  A    between atoms: CA_18  and  C_19 
REMARK   11  A    between atoms: CA_18  and  CB_21 
REMARK       I    between atoms: C_19  and  N_25 
REMARK   12  A    between atoms: CB_21  and  CG1_22 
REMARK   13  A    between atoms: CB_21  and  CG2_23 
REMARK   14  A    between atoms: CG1_22  and  CD1_24 
REMARK   15  A    between atoms: N_25  and  CA_26 
REMARK   16  A    between atoms: CA_26  and  CB_27 
REMARK   17  A    between atoms: CA_26  and  C_29 
REMARK   18  A    between atoms: CB_27  and  OG_28 
REMARK   19  A    between atoms: OG_28  and  P_31 
REMARK       I    between atoms: C_29  and  N_35 
REMARK   20  A    between atoms: N_35  and  CA_36 
REMARK   21  A    between atoms: CA_36  and  C_37 
REMARK   22  A    between atoms: CA_36  and  CB_39 
REMARK       I    between atoms: C_37  and  N_42 
REMARK   23  A    between atoms: CB_39  and  OG1_40 
REMARK   24  A    between atoms: CB_39  and  CG2_41 
REMARK   25  A    between atoms: N_42  and  CA_43 
REMARK   26  A    between atoms: CA_43  and  C_44 
REMARK   27  A    between atoms: CA_43  and  CB_46 
REMARK       I    between atoms: C_44  and  N_49 
REMARK   28  A    between atoms: CB_46  and  CG1_47 
REMARK   29  A    between atoms: CB_46  and  CG2_48 
REMARK   30  A    between atoms: N_49  and  CA_50 
REMARK   31  A    between atoms: CA_50  and  C_51 
REMARK   32  A    between atoms: CA_50  and  CB_53 
REMARK   33  A    between atoms: CB_53  and  CG1_54 
REMARK   34  A    between atoms: CB_53  and  CG2_55 
ROOT
ATOM      1  CA  SEP d   1      -9.309   0.765  14.044  0.00  0.00     0.110 C 
ATOM      2  H23 SEP d   1      -8.870   0.373  13.114  0.00  0.00     0.090 H 
ENDROOT
BRANCH   1   3
ATOM      3  N   SEP d   1     -10.750   0.827  13.937  0.00  0.00    -0.344 N 
ATOM      4  C   ILE d   1     -11.439   0.524  12.851  0.00  0.00     0.241 C 
ATOM      5  O   ILE d   1     -10.939   0.004  11.852  0.00  0.00    -0.271 OA
ATOM      6  H22 SEP d   1     -11.262   1.121  14.744  0.00  0.00     0.163 HD
BRANCH   4   7
ATOM      7  CA  ILE d   1     -12.932   0.840  12.900  0.00  0.00     0.092 C 
ATOM      8  H12 ILE d   1     -13.060   1.852  13.312  0.00  0.00     0.088 H 
BRANCH   7   9
ATOM      9  N   ILE d   1     -13.494   0.827  11.549  0.00  0.00    -0.346 N 
ATOM     10  C   ASP d   1     -14.184   1.851  11.051  0.00  0.00     0.241 C 
ATOM     11  O   ASP d   1     -14.517   2.837  11.727  0.00  0.00    -0.271 OA
ATOM     12  H11 ILE d   1     -13.354   0.018  10.978  0.00  0.00     0.163 HD
BRANCH  10  13
ATOM     13  CA  ASP d   1     -14.601   1.747   9.586  0.00  0.00     0.098 C 
ATOM     14  H8  ASP d   1     -14.918   0.715   9.375  0.00  0.00     0.088 H 
BRANCH  13  15
ATOM     15  N   ASP d   1     -15.710   2.648   9.331  0.00  0.00    -0.345 N 
ATOM     16  C   ASP d   1     -16.881   2.451   9.909  0.00  0.00     0.249 C 
ATOM     17  O   ASP d   1     -17.121   1.458  10.589  0.00  0.00    -0.271 OA
ATOM     18  H7  ASP d   1     -15.586   3.424   8.713  0.00  0.00     0.163 HD
BRANCH  16  19
ATOM     19  CA  ASP d   1     -17.923   3.538   9.678  0.00  0.00     0.185 C 
ATOM     20  H4  ASP d   1     -17.737   3.995   8.695  0.00  0.00     0.100 H 
BRANCH  19  21
ATOM     21  N   ASP d   1     -19.314   2.990   9.677  0.00  0.00    -0.066 N 
ATOM     22  H1  ASP d   1     -19.970   3.739   9.522  0.00  0.00     0.275 HD
ATOM     23  H2  ASP d   1     -19.505   2.555  10.566  0.00  0.00     0.275 HD
ATOM     24  H3  ASP d   1     -19.405   2.306   8.942  0.00  0.00     0.275 HD
ENDBRANCH  19  21
BRANCH  19  25
ATOM     25  CB  ASP d   1     -17.758   4.613  10.758  0.00  0.00     0.050 C 
ATOM     26  H5  ASP d   1     -16.689   4.854  10.853  0.00  0.00     0.052 H 
ATOM     27  H6  ASP d   1     -18.130   4.212  11.712  0.00  0.00     0.052 H 
BRANCH  25  28
ATOM     28  CG  ASP d   1     -18.516   5.890  10.440  0.00  0.00     0.175 C 
ATOM     29  OD1 ASP d   1     -19.082   5.999   9.330  0.00  0.00    -0.648 OA
ATOM     30  OD2 ASP d   1     -18.533   6.790  11.304  0.00  0.00    -0.648 OA
ENDBRANCH  25  28
ENDBRANCH  19  25
ENDBRANCH  16  19
ENDBRANCH  13  15
BRANCH  13  31
ATOM     31  CB  ASP d   1     -13.436   2.100   8.684  0.00  0.00     0.043 C 
ATOM     32  H9  ASP d   1     -12.530   1.614   9.075  0.00  0.00     0.052 H 
ATOM     33  H10 ASP d   1     -13.301   3.192   8.697  0.00  0.00     0.052 H 
BRANCH  31  34
ATOM     34  CG  ASP d   1     -13.642   1.656   7.251  0.00  0.00     0.175 C 
ATOM     35  OD1 ASP d   1     -14.641   0.968   6.966  0.00  0.00    -0.648 OA
ATOM     36  OD2 ASP d   1     -12.784   2.000   6.421  0.00  0.00    -0.648 OA
ENDBRANCH  31  34
ENDBRANCH  13  31
ENDBRANCH  10  13
ENDBRANCH   7   9
BRANCH   7  37
ATOM     37  CB  ILE d   1     -13.644  -0.144  13.829  0.00  0.00    -0.030 C 
ATOM     38  H13 ILE d   1     -13.133  -0.118  14.803  0.00  0.00     0.043 H 
BRANCH  37  39
ATOM     39  CG1 ILE d   1     -13.550  -1.574  13.294  0.00  0.00    -0.063 C 
ATOM     40  H14 ILE d   1     -12.500  -1.790  13.049  0.00  0.00     0.033 H 
ATOM     41  H15 ILE d   1     -14.162  -1.651  12.383  0.00  0.00     0.033 H 
BRANCH  39  42
ATOM     42  CD1 ILE d   1     -14.039  -2.606  14.298  0.00  0.00    -0.076 C 
ATOM     43  H19 ILE d   1     -13.949  -3.612  13.863  0.00  0.00     0.027 H 
ATOM     44  H20 ILE d   1     -15.092  -2.406  14.546  0.00  0.00     0.027 H 
ATOM     45  H21 ILE d   1     -13.430  -2.546  15.212  0.00  0.00     0.027 H 
ENDBRANCH  39  42
ENDBRANCH  37  39
BRANCH  37  46
ATOM     46  CG2 ILE d   1     -15.116   0.287  14.058  0.00  0.00    -0.071 C 
ATOM     47  H16 ILE d   1     -15.141   1.318  14.442  0.00  0.00     0.028 H 
ATOM     48  H17 ILE d   1     -15.586  -0.388  14.789  0.00  0.00     0.028 H 
ATOM     49  H18 ILE d   1     -15.665   0.237  13.106  0.00  0.00     0.028 H 
ENDBRANCH  37  46
ENDBRANCH   7  37
ENDBRANCH   4   7
ENDBRANCH   1   3
BRANCH   1  50
ATOM     50  CB  SEP d   1      -8.809   2.170  14.360  0.00  0.00     0.059 C 
ATOM     51  H24 SEP d   1      -8.112   2.126  15.210  0.00  0.00     0.079 H 
ATOM     52  H25 SEP d   1      -9.664   2.811  14.620  0.00  0.00     0.079 H 
BRANCH  50  53
ATOM     53  OG  SEP d   1      -8.175   2.686  13.289  0.00  0.00    -0.280 OA
BRANCH  53  54
ATOM     54  P   SEP d   1      -7.567   4.119  13.606  0.00  0.00     0.422 P 
ATOM     55  O1P SEP d   1      -8.237   4.905  12.465  0.00  0.00    -0.617 OA
ATOM     56  O2P SEP d   1      -7.850   4.810  15.029  0.00  0.00    -0.617 OA
ATOM     57  O3P SEP d   1      -6.056   3.916  13.418  0.00  0.00    -0.617 OA
ENDBRANCH  53  54
ENDBRANCH  50  53
ENDBRANCH   1  50
BRANCH   1  58
ATOM     58  C   SEP d   1      -8.890  -0.049  15.220  0.00  0.00     0.243 C 
ATOM     59  O   SEP d   1      -9.546   0.018  16.248  0.00  0.00    -0.271 OA
ATOM     60  N   THR d   1      -7.779  -0.761  15.101  0.00  0.00    -0.344 N 
ATOM     61  H26 THR d   1      -7.346  -0.833  14.202  0.00  0.00     0.163 HD
BRANCH  60  62
ATOM     62  CA  THR d   1      -7.163  -1.445  16.236  0.00  0.00     0.113 C 
ATOM     63  H27 THR d   1      -7.590  -1.050  17.170  0.00  0.00     0.091 H 
BRANCH  62  64
ATOM     64  C   THR d   1      -5.671  -1.214  16.229  0.00  0.00     0.243 C 
ATOM     65  O   THR d   1      -5.018  -1.353  15.208  0.00  0.00    -0.271 OA
ATOM     66  N   VAL d   1      -5.109  -0.906  17.396  0.00  0.00    -0.346 N 
ATOM     67  H33 VAL d   1      -5.702  -0.715  18.178  0.00  0.00     0.163 HD
BRANCH  66  68
ATOM     68  CA  VAL d   1      -3.668  -0.836  17.581  0.00  0.00     0.092 C 
ATOM     69  H34 VAL d   1      -3.203  -0.390  16.689  0.00  0.00     0.088 H 
BRANCH  68  70
ATOM     70  C   VAL d   1      -3.124  -2.222  17.817  0.00  0.00     0.241 C 
ATOM     71  O   VAL d   1      -3.602  -2.914  18.710  0.00  0.00    -0.271 OA
ATOM     72  N   VAL d   1      -2.123  -2.632  17.042  0.00  0.00    -0.344 N 
ATOM     73  H42 VAL d   1      -1.758  -2.011  16.348  0.00  0.00     0.163 HD
BRANCH  72  74
ATOM     74  CA  VAL d   1      -1.539  -3.976  17.181  0.00  0.00     0.099 C 
ATOM     75  H43 VAL d   1      -1.928  -4.400  18.118  0.00  0.00     0.090 H 
BRANCH  74  76
ATOM     76  C   VAL d   1      -0.022  -3.931  17.299  0.00  0.00     0.197 C 
ATOM     77  O   VAL d   1       0.592  -4.959  17.635  0.00  0.00    -0.646 OA
ATOM     78  OXT VAL d   1       0.601  -2.876  17.100  0.00  0.00    -0.646 OA
ENDBRANCH  74  76
BRANCH  74  79
ATOM     79  CB  VAL d   1      -1.965  -4.911  16.048  0.00  0.00    -0.032 C 
ATOM     80  H44 VAL d   1      -1.469  -5.881  16.198  0.00  0.00     0.042 H 
BRANCH  79  81
ATOM     81  CG1 VAL d   1      -3.478  -5.134  16.077  0.00  0.00    -0.071 C 
ATOM     82  H45 VAL d   1      -3.765  -5.808  15.256  0.00  0.00     0.028 H 
ATOM     83  H46 VAL d   1      -3.993  -4.170  15.957  0.00  0.00     0.028 H 
ATOM     84  H47 VAL d   1      -3.764  -5.585  17.039  0.00  0.00     0.028 H 
ENDBRANCH  79  81
BRANCH  79  85
ATOM     85  CG2 VAL d   1      -1.536  -4.363  14.699  0.00  0.00    -0.071 C 
ATOM     86  H48 VAL d   1      -0.447  -4.209  14.695  0.00  0.00     0.028 H 
ATOM     87  H49 VAL d   1      -2.043  -3.404  14.515  0.00  0.00     0.028 H 
ATOM     88  H50 VAL d   1      -1.807  -5.079  13.909  0.00  0.00     0.028 H 
ENDBRANCH  79  85
ENDBRANCH  74  79
ENDBRANCH  72  74
ENDBRANCH  68  70
BRANCH  68  89
ATOM     89  CB  VAL d   1      -3.321   0.001  18.836  0.00  0.00    -0.033 C 
ATOM     90  H35 VAL d   1      -3.709  -0.514  19.727  0.00  0.00     0.042 H 
BRANCH  89  91
ATOM     91  CG1 VAL d   1      -1.814   0.148  18.967  0.00  0.00    -0.071 C 
ATOM     92  H36 VAL d   1      -1.580   0.744  19.861  0.00  0.00     0.028 H 
ATOM     93  H37 VAL d   1      -1.416   0.654  18.075  0.00  0.00     0.028 H 
ATOM     94  H38 VAL d   1      -1.355  -0.847  19.059  0.00  0.00     0.028 H 
ENDBRANCH  89  91
BRANCH  89  95
ATOM     95  CG2 VAL d   1      -3.954   1.356  18.740  0.00  0.00    -0.071 C 
ATOM     96  H39 VAL d   1      -5.044   1.245  18.645  0.00  0.00     0.028 H 
ATOM     97  H40 VAL d   1      -3.561   1.883  17.858  0.00  0.00     0.028 H 
ATOM     98  H41 VAL d   1      -3.721   1.934  19.646  0.00  0.00     0.028 H 
ENDBRANCH  89  95
ENDBRANCH  68  89
ENDBRANCH  66  68
ENDBRANCH  62  64
BRANCH  62  99
ATOM     99  CB  THR d   1      -7.427  -2.946  16.153  0.00  0.00     0.060 C 
ATOM    100  H28 THR d   1      -6.912  -3.351  15.270  0.00  0.00     0.086 H 
BRANCH  99 101
ATOM    101  OG1 THR d   1      -8.830  -3.168  16.027  0.00  0.00    -0.393 OA
ATOM    102  H29 THR d   1      -9.147  -2.744  15.239  0.00  0.00     0.210 HD
ENDBRANCH  99 101
BRANCH  99 103
ATOM    103  CG2 THR d   1      -6.919  -3.668  17.399  0.00  0.00    -0.050 C 
ATOM    104  H30 THR d   1      -7.124  -4.745  17.308  0.00  0.00     0.031 H 
ATOM    105  H31 THR d   1      -7.432  -3.271  18.288  0.00  0.00     0.031 H 
ATOM    106  H32 THR d   1      -5.835  -3.508  17.499  0.00  0.00     0.031 H 
ENDBRANCH  99 103
ENDBRANCH  62  99
ENDBRANCH  60  62
ENDBRANCH   1  58
TORSDOF 34
