REMARK WARNING: 32 MAX_TORS EXCEEDED!!!
REMARK  35 active torsions:
REMARK  status: ('A' for Active; 'I' for Inactive)
REMARK    1  A    between atoms: N_1  and  CA_2 
REMARK    2  A    between atoms: CA_2  and  C_3 
REMARK    3  A    between atoms: CA_2  and  CB_5 
REMARK       I    between atoms: C_3  and  N_10 
REMARK    4  A    between atoms: CB_5  and  CG_6 
REMARK    5  A    between atoms: CG_6  and  CD_7 
REMARK    6  A    between atoms: N_10  and  CA_11 
REMARK    7  A    between atoms: CA_11  and  C_12 
REMARK    8  A    between atoms: CA_11  and  CB_14 
REMARK       I    between atoms: C_12  and  N_19 
REMARK    9  A    between atoms: CB_14  and  CG_15 
REMARK   10  A    between atoms: CG_15  and  CD_16 
REMARK   11  A    between atoms: N_19  and  CA_20 
REMARK   12  A    between atoms: CA_20  and  C_21 
REMARK   13  A    between atoms: CA_20  and  CB_23 
REMARK       I    between atoms: C_21  and  N_33 
REMARK   14  A    between atoms: CB_23  and  CG_24 
REMARK   15  A    between atoms: N_33  and  CA_34 
REMARK   16  A    between atoms: CA_34  and  CB_35 
REMARK   17  A    between atoms: CA_34  and  C_37 
REMARK   18  A    between atoms: CB_35  and  OG_36 
REMARK   19  A    between atoms: OG_36  and  P_39 
REMARK       I    between atoms: C_37  and  N_43 
REMARK   20  A    between atoms: N_43  and  CA_44 
REMARK   21  A    between atoms: CA_44  and  C_45 
REMARK   22  A    between atoms: CA_44  and  CB_47 
REMARK       I    between atoms: C_45  and  N_50 
REMARK   23  A    between atoms: CB_47  and  OG1_48 
REMARK   24  A    between atoms: CB_47  and  CG2_49 
REMARK   25  A    between atoms: N_50  and  CA_51 
REMARK   26  A    between atoms: CA_51  and  C_52 
REMARK   27  A    between atoms: CA_51  and  CB_54 
REMARK       I    between atoms: C_52  and  N_57 
REMARK   28  A    between atoms: CB_54  and  CG1_55 
REMARK   29  A    between atoms: CB_54  and  CG2_56 
REMARK   30  A    between atoms: N_57  and  CA_58 
REMARK   31  A    between atoms: CA_58  and  C_59 
REMARK   32  A    between atoms: CA_58  and  CB_61 
REMARK   33  A    between atoms: CB_61  and  CG_62 
REMARK   34  A    between atoms: CG_62  and  SD_63 
REMARK   35  A    between atoms: SD_63  and  CE_64 
ROOT
ATOM      1  CA  SEP d   1       9.233   0.708 -14.143  0.00  0.00     0.110 C 
ATOM      2  H26 SEP d   1       8.780   0.259 -13.247  0.00  0.00     0.090 H 
ENDROOT
BRANCH   1   3
ATOM      3  N   SEP d   1      10.685   0.571 -14.136  0.00  0.00    -0.344 N 
ATOM      4  C   TRP d   1      11.376   0.038 -13.146  0.00  0.00     0.241 C 
ATOM      5  O   TRP d   1      10.871  -0.407 -12.114  0.00  0.00    -0.271 OA
ATOM      6  H25 SEP d   1      11.190   0.902 -14.933  0.00  0.00     0.163 HD
BRANCH   4   7
ATOM      7  CA  TRP d   1      12.874  -0.091 -13.398  0.00  0.00     0.093 C 
ATOM      8  H16 TRP d   1      13.206   0.735 -14.044  0.00  0.00     0.088 H 
BRANCH   7   9
ATOM      9  N   TRP d   1      13.592  -0.015 -12.143  0.00  0.00    -0.346 N 
ATOM     10  C   GLU d   1      14.492   0.895 -11.884  0.00  0.00     0.241 C 
ATOM     11  O   GLU d   1      14.885   1.724 -12.708  0.00  0.00    -0.271 OA
ATOM     12  H15 TRP d   1      13.388  -0.695 -11.438  0.00  0.00     0.163 HD
BRANCH  10  13
ATOM     13  CA  GLU d   1      15.029   0.856 -10.448  0.00  0.00     0.090 C 
ATOM     14  H10 GLU d   1      14.956  -0.174 -10.069  0.00  0.00     0.087 H 
BRANCH  13  15
ATOM     15  N   GLU d   1      16.437   1.229 -10.420  0.00  0.00    -0.346 N 
ATOM     16  C   GLU d   1      17.396   0.405  -9.965  0.00  0.00     0.249 C 
ATOM     17  O   GLU d   1      17.235  -0.734  -9.499  0.00  0.00    -0.271 OA
ATOM     18  H9  GLU d   1      16.700   2.135 -10.753  0.00  0.00     0.163 HD
BRANCH  16  19
ATOM     19  CA  GLU d   1      18.823   0.992 -10.021  0.00  0.00     0.176 C 
ATOM     20  H4  GLU d   1      18.784   1.985 -10.493  0.00  0.00     0.099 H 
BRANCH  19  21
ATOM     21  N   GLU d   1      19.306   1.137  -8.649  0.00  0.00    -0.066 N 
ATOM     22  H1  GLU d   1      20.238   1.520  -8.660  0.00  0.00     0.275 HD
ATOM     23  H2  GLU d   1      19.318   0.235  -8.200  0.00  0.00     0.275 HD
ATOM     24  H3  GLU d   1      18.694   1.757  -8.141  0.00  0.00     0.275 HD
ENDBRANCH  19  21
BRANCH  19  25
ATOM     25  CB  GLU d   1      19.752   0.100 -10.849  0.00  0.00    -0.021 C 
ATOM     26  H5  GLU d   1      19.643  -0.937 -10.500  0.00  0.00     0.037 H 
ATOM     27  H6  GLU d   1      20.788   0.433 -10.691  0.00  0.00     0.037 H 
BRANCH  25  28
ATOM     28  CG  GLU d   1      19.447   0.143 -12.370  0.00  0.00     0.018 C 
ATOM     29  H7  GLU d   1      19.827   1.082 -12.799  0.00  0.00     0.049 H 
ATOM     30  H8  GLU d   1      18.361   0.078 -12.534  0.00  0.00     0.049 H 
BRANCH  28  31
ATOM     31  CD  GLU d   1      20.139  -1.042 -13.030  0.00  0.00     0.172 C 
ATOM     32  OE1 GLU d   1      21.138  -1.623 -12.347  0.00  0.00    -0.648 OA
ATOM     33  OE2 GLU d   1      19.792  -1.290 -14.302  0.00  0.00    -0.648 OA
ENDBRANCH  28  31
ENDBRANCH  25  28
ENDBRANCH  19  25
ENDBRANCH  16  19
ENDBRANCH  13  15
BRANCH  13  34
ATOM     34  CB  GLU d   1      14.142   1.708  -9.626  0.00  0.00    -0.029 C 
ATOM     35  H11 GLU d   1      13.105   1.368  -9.762  0.00  0.00     0.037 H 
ATOM     36  H12 GLU d   1      14.235   2.748  -9.973  0.00  0.00     0.037 H 
BRANCH  34  37
ATOM     37  CG  GLU d   1      14.481   1.660  -8.120  0.00  0.00     0.018 C 
ATOM     38  H13 GLU d   1      15.443   2.176  -7.983  0.00  0.00     0.049 H 
ATOM     39  H14 GLU d   1      14.589   0.602  -7.841  0.00  0.00     0.049 H 
BRANCH  37  40
ATOM     40  CD  GLU d   1      13.489   2.285  -7.155  0.00  0.00     0.172 C 
ATOM     41  OE1 GLU d   1      12.453   2.802  -7.554  0.00  0.00    -0.648 OA
ATOM     42  OE2 GLU d   1      13.769   2.193  -5.951  0.00  0.00    -0.648 OA
ENDBRANCH  37  40
ENDBRANCH  34  37
ENDBRANCH  13  34
ENDBRANCH  10  13
ENDBRANCH   7   9
BRANCH   7  43
ATOM     43  CB  TRP d   1      13.135  -1.413 -14.112  0.00  0.00    -0.012 C 
ATOM     44  H17 TRP d   1      12.308  -1.585 -14.817  0.00  0.00     0.044 H 
ATOM     45  H18 TRP d   1      13.143  -2.210 -13.354  0.00  0.00     0.044 H 
BRANCH  43  46
ATOM     46  CG  TRP d   1      14.415  -1.496 -14.878  0.00  0.00    -0.028 A 
ATOM     47  CD1 TRP d   1      15.557  -0.782 -14.708  0.00  0.00    -0.015 A 
ATOM     48  NE1 TRP d   1      16.484  -1.192 -15.604  0.00  0.00    -0.365 N 
ATOM     49  H19 TRP d   1      15.704   0.000 -13.965  0.00  0.00     0.112 H 
ATOM     50  CE2 TRP d   1      15.961  -2.130 -16.432  0.00  0.00     0.042 A 
ATOM     51  H20 TRP d   1      17.451  -0.841 -15.651  0.00  0.00     0.165 HD
ATOM     52  CD2 TRP d   1      14.644  -2.369 -15.990  0.00  0.00    -0.002 A 
ATOM     53  CZ2 TRP d   1      16.515  -2.786 -17.523  0.00  0.00    -0.056 A 
ATOM     54  CE3 TRP d   1      13.847  -3.272 -16.713  0.00  0.00    -0.070 A 
ATOM     55  CZ3 TRP d   1      14.408  -3.939 -17.760  0.00  0.00    -0.082 A 
ATOM     56  H21 TRP d   1      12.809  -3.434 -16.444  0.00  0.00     0.084 H 
ATOM     57  CH2 TRP d   1      15.711  -3.688 -18.177  0.00  0.00    -0.081 A 
ATOM     58  H23 TRP d   1      13.822  -4.686 -18.283  0.00  0.00     0.083 H 
ATOM     59  H24 TRP d   1      16.102  -4.217 -19.039  0.00  0.00     0.083 H 
ATOM     60  H22 TRP d   1      17.533  -2.596 -17.843  0.00  0.00     0.086 H 
ENDBRANCH  43  46
ENDBRANCH   7  43
ENDBRANCH   4   7
ENDBRANCH   1   3
BRANCH   1  61
ATOM     61  CB  SEP d   1       9.021   2.201 -14.141  0.00  0.00     0.059 C 
ATOM     62  H27 SEP d   1       9.347   2.622 -15.103  0.00  0.00     0.079 H 
ATOM     63  H28 SEP d   1       9.603   2.656 -13.326  0.00  0.00     0.079 H 
BRANCH  61  64
ATOM     64  OG  SEP d   1       7.628   2.469 -13.946  0.00  0.00    -0.280 OA
BRANCH  64  65
ATOM     65  P   SEP d   1       7.271   4.030 -13.676  0.00  0.00     0.422 P 
ATOM     66  O1P SEP d   1       8.058   4.659 -12.593  0.00  0.00    -0.617 OA
ATOM     67  O2P SEP d   1       7.539   4.744 -15.045  0.00  0.00    -0.617 OA
ATOM     68  O3P SEP d   1       5.781   3.933 -13.477  0.00  0.00    -0.617 OA
ENDBRANCH  64  65
ENDBRANCH  61  64
ENDBRANCH   1  61
BRANCH   1  69
ATOM     69  C   SEP d   1       8.706   0.002 -15.383  0.00  0.00     0.243 C 
ATOM     70  O   SEP d   1       9.265   0.170 -16.462  0.00  0.00    -0.271 OA
ATOM     71  N   THR d   1       7.626  -0.775 -15.235  0.00  0.00    -0.344 N 
ATOM     72  H29 THR d   1       7.196  -0.831 -14.334  0.00  0.00     0.163 HD
BRANCH  71  73
ATOM     73  CA  THR d   1       7.052  -1.540 -16.328  0.00  0.00     0.113 C 
ATOM     74  H30 THR d   1       7.455  -1.160 -17.278  0.00  0.00     0.091 H 
BRANCH  73  75
ATOM     75  C   THR d   1       5.535  -1.359 -16.322  0.00  0.00     0.243 C 
ATOM     76  O   THR d   1       4.901  -1.424 -15.269  0.00  0.00    -0.271 OA
ATOM     77  N   VAL d   1       4.982  -1.187 -17.530  0.00  0.00    -0.346 N 
ATOM     78  H36 VAL d   1       5.577  -1.190 -18.334  0.00  0.00     0.163 HD
BRANCH  77  79
ATOM     79  CA  VAL d   1       3.543  -0.995 -17.724  0.00  0.00     0.092 C 
ATOM     80  H37 VAL d   1       3.132  -0.453 -16.860  0.00  0.00     0.088 H 
BRANCH  79  81
ATOM     81  C   VAL d   1       2.868  -2.349 -17.828  0.00  0.00     0.241 C 
ATOM     82  O   VAL d   1       3.251  -3.177 -18.693  0.00  0.00    -0.271 OA
ATOM     83  N   MET d   1       1.878  -2.610 -17.013  0.00  0.00    -0.345 N 
ATOM     84  H45 MET d   1       1.552  -1.880 -16.412  0.00  0.00     0.163 HD
BRANCH  83  85
ATOM     85  CA  MET d   1       1.218  -3.927 -16.936  0.00  0.00     0.097 C 
ATOM     86  H46 MET d   1       1.714  -4.600 -17.651  0.00  0.00     0.089 H 
BRANCH  85  87
ATOM     87  C   MET d   1      -0.288  -3.798 -17.342  0.00  0.00     0.196 C 
ATOM     88  O   MET d   1      -0.860  -4.858 -17.645  0.00  0.00    -0.646 OA
ATOM     89  OXT MET d   1      -0.891  -2.712 -17.253  0.00  0.00    -0.646 OA
ENDBRANCH  85  87
BRANCH  85  90
ATOM     90  CB  MET d   1       1.340  -4.550 -15.526  0.00  0.00    -0.029 C 
ATOM     91  H47 MET d   1       1.080  -5.615 -15.613  0.00  0.00     0.037 H 
ATOM     92  H48 MET d   1       0.608  -4.045 -14.879  0.00  0.00     0.037 H 
BRANCH  90  93
ATOM     93  CG  MET d   1       2.704  -4.466 -14.829  0.00  0.00    -0.021 C 
ATOM     94  H49 MET d   1       2.663  -5.098 -13.929  0.00  0.00     0.049 H 
ATOM     95  H50 MET d   1       2.869  -3.419 -14.535  0.00  0.00     0.049 H 
BRANCH  93  96
ATOM     96  SD  MET d   1       4.136  -5.000 -15.823  0.00  0.00    -0.173 SA
BRANCH  96  97
ATOM     97  CE  MET d   1       3.823  -6.734 -15.998  0.00  0.00    -0.035 C 
ATOM     98  H51 MET d   1       4.628  -7.194 -16.590  0.00  0.00     0.041 H 
ATOM     99  H52 MET d   1       2.860  -6.883 -16.509  0.00  0.00     0.041 H 
ATOM    100  H53 MET d   1       3.787  -7.202 -15.003  0.00  0.00     0.041 H 
ENDBRANCH  96  97
ENDBRANCH  93  96
ENDBRANCH  90  93
ENDBRANCH  85  90
ENDBRANCH  83  85
ENDBRANCH  79  81
BRANCH  79 101
ATOM    101  CB  VAL d   1       3.285  -0.173 -18.998  0.00  0.00    -0.033 C 
ATOM    102  H38 VAL d   1       3.638  -0.750 -19.865  0.00  0.00     0.042 H 
BRANCH 101 103
ATOM    103  CG1 VAL d   1       1.794   0.083 -19.154  0.00  0.00    -0.071 C 
ATOM    104  H39 VAL d   1       1.617   0.671 -20.067  0.00  0.00     0.028 H 
ATOM    105  H40 VAL d   1       1.424   0.641 -18.281  0.00  0.00     0.028 H 
ATOM    106  H41 VAL d   1       1.263  -0.877 -19.228  0.00  0.00     0.028 H 
ENDBRANCH 101 103
BRANCH 101 107
ATOM    107  CG2 VAL d   1       4.039   1.153 -18.957  0.00  0.00    -0.071 C 
ATOM    108  H42 VAL d   1       5.116   0.959 -18.844  0.00  0.00     0.028 H 
ATOM    109  H43 VAL d   1       3.683   1.751 -18.105  0.00  0.00     0.028 H 
ATOM    110  H44 VAL d   1       3.862   1.705 -19.892  0.00  0.00     0.028 H 
ENDBRANCH 101 107
ENDBRANCH  79 101
ENDBRANCH  77  79
ENDBRANCH  73  75
BRANCH  73 111
ATOM    111  CB  THR d   1       7.410  -3.040 -16.204  0.00  0.00     0.060 C 
ATOM    112  H31 THR d   1       6.910  -3.440 -15.310  0.00  0.00     0.086 H 
BRANCH 111 113
ATOM    113  OG1 THR d   1       8.826  -3.146 -16.027  0.00  0.00    -0.393 OA
ATOM    114  H32 THR d   1       9.081  -2.682 -15.238  0.00  0.00     0.210 HD
ENDBRANCH 111 113
BRANCH 111 115
ATOM    115  CG2 THR d   1       6.960  -3.865 -17.393  0.00  0.00    -0.050 C 
ATOM    116  H33 THR d   1       7.245  -4.916 -17.239  0.00  0.00     0.031 H 
ATOM    117  H34 THR d   1       7.441  -3.485 -18.306  0.00  0.00     0.031 H 
ATOM    118  H35 THR d   1       5.867  -3.793 -17.497  0.00  0.00     0.031 H 
ENDBRANCH 111 115
ENDBRANCH  73 111
ENDBRANCH  71  73
ENDBRANCH   1  69
TORSDOF 35
