REMARK  8 active torsions:
REMARK  status: ('A' for Active; 'I' for Inactive)
REMARK    1  A    between atoms: NAU_10  and  CAT_11 
REMARK    2  A    between atoms: CAT_11  and  CAR_12 
REMARK    3  A    between atoms: CAR_12  and  OAS_13 
REMARK    4  A    between atoms: CAR_12  and  CAQ_14 
REMARK    5  A    between atoms: CAQ_14  and  NAP_15 
REMARK    6  A    between atoms: NAP_15  and  CAO_16 
REMARK    7  A    between atoms: CAK_21  and  CAH_22 
REMARK    8  A    between atoms: NAB_25  and  CAA_26 
ROOT
ATOM      1  CAQ 5QJ d   1      19.043 -47.627 -10.910  0.00  0.00     0.019 C 
ATOM      2  H16 5QJ d   1      19.026 -47.343 -11.973  0.00  0.00     0.068 H 
ATOM      3  H17 5QJ d   1      18.012 -47.736 -10.543  0.00  0.00     0.068 H 
ENDROOT
BRANCH   1   4
ATOM      4  CAR 5QJ d   1      19.751 -46.551 -10.111  0.00  0.00     0.074 C 
ATOM      5  H14 5QJ d   1      19.689 -46.789  -9.039  0.00  0.00     0.088 H 
BRANCH   4   6
ATOM      6  CAT 5QJ d   1      21.240 -46.396 -10.504  0.00  0.00     0.109 C 
ATOM      7  H12 5QJ d   1      21.819 -47.238 -10.097  0.00  0.00     0.080 H 
ATOM      8  H13 5QJ d   1      21.333 -46.383 -11.600  0.00  0.00     0.080 H 
BRANCH   6   9
ATOM      9  NAU 5QJ d   1      21.750 -45.135  -9.952  0.00  0.00    -0.064 N 
ATOM     10  CAV 5QJ d   1      23.045 -44.779 -10.556  0.00  0.00     0.087 C 
ATOM     11  CAW 5QJ d   1      23.597 -43.498  -9.931  0.00  0.00    -0.018 C 
ATOM     12  H1  5QJ d   1      23.759 -45.599 -10.389  0.00  0.00     0.076 H 
ATOM     13  H2  5QJ d   1      22.909 -44.624 -11.637  0.00  0.00     0.076 H 
ATOM     14  CAX 5QJ d   1      23.405 -43.459  -8.523  0.00  0.00    -0.049 A 
ATOM     15  H3  5QJ d   1      23.085 -42.635 -10.382  0.00  0.00     0.042 H 
ATOM     16  H4  5QJ d   1      24.675 -43.437 -10.143  0.00  0.00     0.042 H 
ATOM     17  CBD 5QJ d   1      24.129 -42.503  -7.789  0.00  0.00    -0.076 A 
ATOM     18  CAY 5QJ d   1      22.505 -44.324  -7.834  0.00  0.00    -0.026 A 
ATOM     19  CBC 5QJ d   1      23.990 -42.435  -6.399  0.00  0.00    -0.082 A 
ATOM     20  H5  5QJ d   1      24.795 -41.818  -8.301  0.00  0.00     0.084 H 
ATOM     21  CBB 5QJ d   1      23.103 -43.296  -5.720  0.00  0.00    -0.082 A 
ATOM     22  H6  5QJ d   1      24.571 -41.712  -5.837  0.00  0.00     0.083 H 
ATOM     23  CBA 5QJ d   1      22.356 -44.239  -6.440  0.00  0.00    -0.075 A 
ATOM     24  H7  5QJ d   1      22.999 -43.229  -4.643  0.00  0.00     0.083 H 
ATOM     25  H8  5QJ d   1      21.668 -44.898  -5.924  0.00  0.00     0.084 H 
ATOM     26  CAZ 5QJ d   1      21.767 -45.295  -8.491  0.00  0.00     0.108 C 
ATOM     27  H9  5QJ d   1      20.731 -45.251  -8.125  0.00  0.00     0.083 H 
ATOM     28  H10 5QJ d   1      22.198 -46.279  -8.254  0.00  0.00     0.083 H 
ATOM     29  H11 5QJ d   1      21.103 -44.395 -10.177  0.00  0.00     0.280 HD
ENDBRANCH   6   9
ENDBRANCH   4   6
BRANCH   4  30
ATOM     30  OAS 5QJ d   1      19.071 -45.351 -10.382  0.00  0.00    -0.392 OA
ATOM     31  H15 5QJ d   1      18.157 -45.445 -10.141  0.00  0.00     0.210 HD
ENDBRANCH   4  30
ENDBRANCH   1   4
BRANCH   1  32
ATOM     32  NAP 5QJ d   1      19.749 -48.895 -10.758  0.00  0.00    -0.372 N 
ATOM     33  H18 5QJ d   1      20.360 -49.181 -11.536  0.00  0.00     0.161 HD
BRANCH  32  34
ATOM     34  CAO 5QJ d   1      19.682 -49.718  -9.716  0.00  0.00     0.123 A 
ATOM     35  CBE 5QJ d   1      20.890 -50.062  -9.113  0.00  0.00    -0.028 A 
ATOM     36  CAK 5QJ d   1      20.938 -50.940  -8.029  0.00  0.00    -0.021 A 
ATOM     37  H19 5QJ d   1      21.812 -49.639  -9.494  0.00  0.00     0.090 H 
ATOM     38  CAL 5QJ d   1      19.723 -51.493  -7.574  0.00  0.00    -0.055 A 
ATOM     39  CAM 5QJ d   1      18.505 -51.155  -8.190  0.00  0.00     0.005 A 
ATOM     40  H21 5QJ d   1      19.728 -52.186  -6.740  0.00  0.00     0.087 H 
ATOM     41  NAN 5QJ d   1      18.509 -50.246  -9.283  0.00  0.00    -0.244 NA
ATOM     42  H20 5QJ d   1      17.574 -51.583  -7.836  0.00  0.00     0.114 H 
BRANCH  36  43
ATOM     43  CAH 5QJ d   1      22.179 -51.268  -7.433  0.00  0.00    -0.024 A 
ATOM     44  CAG 5QJ d   1      23.201 -51.935  -8.145  0.00  0.00    -0.044 A 
ATOM     45  CAF 5QJ d   1      24.371 -52.238  -7.548  0.00  0.00     0.064 A 
ATOM     46  H22 5QJ d   1      23.043 -52.206  -9.182  0.00  0.00     0.088 H 
ATOM     47  NAB 5QJ d   1      25.479 -52.857  -7.987  0.00  0.00    -0.344 N 
ATOM     48  CAE 5QJ d   1      24.589 -51.911  -6.257  0.00  0.00     0.085 A 
ATOM     49  CAC 5QJ d   1      26.354 -52.911  -6.991  0.00  0.00     0.067 A 
ATOM     50  NAD 5QJ d   1      25.802 -52.327  -5.930  0.00  0.00    -0.242 NA
ATOM     51  H26 5QJ d   1      27.348 -53.355  -7.034  0.00  0.00     0.143 H 
ATOM     52  CAJ 5QJ d   1      23.670 -51.274  -5.525  0.00  0.00    -0.052 A 
ATOM     53  CAI 5QJ d   1      22.432 -50.932  -6.097  0.00  0.00    -0.070 A 
ATOM     54  H27 5QJ d   1      23.879 -51.021  -4.492  0.00  0.00     0.087 H 
ATOM     55  H28 5QJ d   1      21.682 -50.414  -5.511  0.00  0.00     0.084 H 
BRANCH  47  56
ATOM     56  CAA 5QJ d   1      25.802 -53.443  -9.317  0.00  0.00    -0.013 C 
ATOM     57  H23 5QJ d   1      26.817 -53.867  -9.294  0.00  0.00     0.057 H 
ATOM     58  H24 5QJ d   1      25.749 -52.658 -10.086  0.00  0.00     0.057 H 
ATOM     59  H25 5QJ d   1      25.078 -54.237  -9.553  0.00  0.00     0.057 H 
ENDBRANCH  47  56
ENDBRANCH  36  43
ENDBRANCH  32  34
ENDBRANCH   1  32
TORSDOF 8
