REMARK  7 active torsions:
REMARK  status: ('A' for Active; 'I' for Inactive)
REMARK    1  A    between atoms: NAT_10  and  CAS_11 
REMARK    2  A    between atoms: CAS_11  and  CAB_12 
REMARK    3  A    between atoms: CAB_12  and  OAA_13 
REMARK    4  A    between atoms: CAB_12  and  CAC_14 
REMARK    5  A    between atoms: CAC_14  and  NAD_15 
REMARK       I    between atoms: NAD_15  and  CAE_16 
REMARK    6  A    between atoms: CAE_16  and  CAG_18 
REMARK    7  A    between atoms: CAI_23  and  CAM_24 
ROOT
ATOM      1  CAB 5QH d   1      19.599 -46.461 -10.395  0.00  0.00     0.074 C 
ATOM      2  H14 5QH d   1      19.375 -46.688  -9.342  0.00  0.00     0.088 H 
ENDROOT
BRANCH   1   3
ATOM      3  CAS 5QH d   1      21.132 -46.259 -10.546  0.00  0.00     0.109 C 
ATOM      4  H12 5QH d   1      21.666 -47.019  -9.957  0.00  0.00     0.080 H 
ATOM      5  H13 5QH d   1      21.415 -46.350 -11.605  0.00  0.00     0.080 H 
BRANCH   3   6
ATOM      6  NAT 5QH d   1      21.478 -44.916 -10.053  0.00  0.00    -0.064 N 
ATOM      7  CAU 5QH d   1      22.715 -44.417 -10.653  0.00  0.00     0.087 C 
ATOM      8  CAV 5QH d   1      22.962 -43.037 -10.212  0.00  0.00    -0.018 C 
ATOM      9  H1  5QH d   1      23.555 -45.056 -10.342  0.00  0.00     0.076 H 
ATOM     10  H2  5QH d   1      22.624 -44.439 -11.749  0.00  0.00     0.076 H 
ATOM     11  CAW 5QH d   1      22.950 -42.968  -8.806  0.00  0.00    -0.049 A 
ATOM     12  H3  5QH d   1      22.177 -42.380 -10.615  0.00  0.00     0.042 H 
ATOM     13  H4  5QH d   1      23.943 -42.706 -10.584  0.00  0.00     0.042 H 
ATOM     14  CBC 5QH d   1      23.707 -41.975  -8.160  0.00  0.00    -0.076 A 
ATOM     15  CAX 5QH d   1      22.199 -43.861  -8.015  0.00  0.00    -0.026 A 
ATOM     16  CBB 5QH d   1      23.734 -41.869  -6.769  0.00  0.00    -0.082 A 
ATOM     17  H5  5QH d   1      24.283 -41.276  -8.756  0.00  0.00     0.084 H 
ATOM     18  CBA 5QH d   1      22.977 -42.754  -5.992  0.00  0.00    -0.082 A 
ATOM     19  H6  5QH d   1      24.338 -41.105  -6.292  0.00  0.00     0.083 H 
ATOM     20  CAZ 5QH d   1      22.216 -43.744  -6.616  0.00  0.00    -0.075 A 
ATOM     21  H7  5QH d   1      22.982 -42.671  -4.911  0.00  0.00     0.083 H 
ATOM     22  H8  5QH d   1      21.632 -44.430  -6.014  0.00  0.00     0.084 H 
ATOM     23  CAY 5QH d   1      21.427 -44.879  -8.580  0.00  0.00     0.108 C 
ATOM     24  H9  5QH d   1      20.381 -44.732  -8.273  0.00  0.00     0.083 H 
ATOM     25  H10 5QH d   1      21.790 -45.844  -8.196  0.00  0.00     0.083 H 
ATOM     26  H11 5QH d   1      20.751 -44.295 -10.371  0.00  0.00     0.280 HD
ENDBRANCH   3   6
ENDBRANCH   1   3
BRANCH   1  27
ATOM     27  OAA 5QH d   1      18.931 -45.273 -10.751  0.00  0.00    -0.392 OA
ATOM     28  H15 5QH d   1      17.994 -45.398 -10.658  0.00  0.00     0.210 HD
ENDBRANCH   1  27
BRANCH   1  29
ATOM     29  CAC 5QH d   1      19.129 -47.630 -11.251  0.00  0.00     0.021 C 
ATOM     30  H16 5QH d   1      19.527 -47.565 -12.274  0.00  0.00     0.068 H 
ATOM     31  H17 5QH d   1      18.031 -47.685 -11.288  0.00  0.00     0.068 H 
BRANCH  29  32
ATOM     32  NAD 5QH d   1      19.698 -48.769 -10.527  0.00  0.00    -0.354 N 
ATOM     33  CAE 5QH d   1      19.062 -49.436  -9.553  0.00  0.00     0.251 C 
ATOM     34  OAF 5QH d   1      17.894 -49.211  -9.233  0.00  0.00    -0.268 OA
ATOM     35  H18 5QH d   1      20.619 -49.068 -10.775  0.00  0.00     0.162 HD
BRANCH  33  36
ATOM     36  CAG 5QH d   1      19.810 -50.433  -8.898  0.00  0.00     0.032 A 
ATOM     37  CAH 5QH d   1      21.192 -50.598  -9.095  0.00  0.00    -0.056 A 
ATOM     38  CAI 5QH d   1      21.883 -51.602  -8.400  0.00  0.00    -0.006 A 
ATOM     39  H19 5QH d   1      21.723 -49.950  -9.783  0.00  0.00     0.086 H 
ATOM     40  CAJ 5QH d   1      21.205 -52.433  -7.511  0.00  0.00    -0.071 A 
ATOM     41  CAK 5QH d   1      19.841 -52.272  -7.305  0.00  0.00    -0.081 A 
ATOM     42  H22 5QH d   1      21.744 -53.208  -6.978  0.00  0.00     0.084 H 
ATOM     43  CAL 5QH d   1      19.155 -51.272  -7.994  0.00  0.00    -0.068 A 
ATOM     44  H21 5QH d   1      19.313 -52.919  -6.614  0.00  0.00     0.083 H 
ATOM     45  H20 5QH d   1      18.092 -51.144  -7.824  0.00  0.00     0.085 H 
BRANCH  38  46
ATOM     46  CAM 5QH d   1      23.249 -51.808  -8.569  0.00  0.00     0.066 A 
ATOM     47  NAN 5QH d   1      23.790 -51.717  -9.809  0.00  0.00    -0.260 NA
ATOM     48  CAO 5QH d   1      25.170 -51.925 -10.002  0.00  0.00     0.003 A 
ATOM     49  CAP 5QH d   1      25.960 -52.238  -8.892  0.00  0.00    -0.066 A 
ATOM     50  H23 5QH d   1      25.610 -51.844 -10.990  0.00  0.00     0.114 H 
ATOM     51  CAQ 5QH d   1      25.411 -52.332  -7.611  0.00  0.00    -0.079 A 
ATOM     52  H24 5QH d   1      27.021 -52.411  -9.028  0.00  0.00     0.085 H 
ATOM     53  CAR 5QH d   1      24.045 -52.114  -7.447  0.00  0.00    -0.054 A 
ATOM     54  H25 5QH d   1      26.037 -52.571  -6.759  0.00  0.00     0.083 H 
ATOM     55  H26 5QH d   1      23.597 -52.179  -6.462  0.00  0.00     0.087 H 
ENDBRANCH  38  46
ENDBRANCH  33  36
ENDBRANCH  29  32
ENDBRANCH   1  29
TORSDOF 7
