REMARK  8 active torsions:
REMARK  status: ('A' for Active; 'I' for Inactive)
REMARK    1  A    between atoms: NAT_10  and  CAS_11 
REMARK    2  A    between atoms: CAS_11  and  CAB_12 
REMARK    3  A    between atoms: CAB_12  and  OAA_13 
REMARK    4  A    between atoms: CAB_12  and  CAC_14 
REMARK    5  A    between atoms: CAC_14  and  NAD_15 
REMARK       I    between atoms: NAD_15  and  CAE_16 
REMARK    6  A    between atoms: CAE_16  and  CAG_18 
REMARK    7  A    between atoms: CAG_18  and  OAH_19 
REMARK    8  A    between atoms: OAH_19  and  CAI_20 
ROOT
ATOM      1  CAB 5QK d   1      19.672 -46.866 -11.023  0.00  0.00     0.074 C 
ATOM      2  H14 5QK d   1      19.516 -46.585 -12.075  0.00  0.00     0.088 H 
ENDROOT
BRANCH   1   3
ATOM      3  CAS 5QK d   1      21.177 -46.598 -10.669  0.00  0.00     0.109 C 
ATOM      4  H12 5QK d   1      21.483 -47.325  -9.902  0.00  0.00     0.080 H 
ATOM      5  H13 5QK d   1      21.775 -46.751 -11.579  0.00  0.00     0.080 H 
BRANCH   3   6
ATOM      6  NAT 5QK d   1      21.462 -45.233 -10.152  0.00  0.00    -0.064 N 
ATOM      7  CAU 5QK d   1      22.728 -44.752 -10.742  0.00  0.00     0.087 C 
ATOM      8  CAV 5QK d   1      23.120 -43.372 -10.237  0.00  0.00    -0.018 C 
ATOM      9  H1  5QK d   1      23.528 -45.462 -10.486  0.00  0.00     0.076 H 
ATOM     10  H2  5QK d   1      22.613 -44.708 -11.835  0.00  0.00     0.076 H 
ATOM     11  CAW 5QK d   1      23.070 -43.337  -8.834  0.00  0.00    -0.049 A 
ATOM     12  H3  5QK d   1      22.423 -42.625 -10.644  0.00  0.00     0.042 H 
ATOM     13  H4  5QK d   1      24.142 -43.140 -10.570  0.00  0.00     0.042 H 
ATOM     14  CBC 5QK d   1      23.798 -42.341  -8.164  0.00  0.00    -0.076 A 
ATOM     15  CAX 5QK d   1      22.310 -44.273  -8.084  0.00  0.00    -0.026 A 
ATOM     16  CBB 5QK d   1      23.771 -42.282  -6.772  0.00  0.00    -0.082 A 
ATOM     17  H5  5QK d   1      24.379 -41.620  -8.728  0.00  0.00     0.084 H 
ATOM     18  CBA 5QK d   1      23.013 -43.198  -6.040  0.00  0.00    -0.082 A 
ATOM     19  H6  5QK d   1      24.342 -41.520  -6.254  0.00  0.00     0.083 H 
ATOM     20  CAZ 5QK d   1      22.286 -44.197  -6.686  0.00  0.00    -0.075 A 
ATOM     21  H7  5QK d   1      22.989 -43.132  -4.958  0.00  0.00     0.083 H 
ATOM     22  H8  5QK d   1      21.706 -44.910  -6.110  0.00  0.00     0.084 H 
ATOM     23  CAY 5QK d   1      21.563 -45.292  -8.682  0.00  0.00     0.108 C 
ATOM     24  H9  5QK d   1      20.543 -45.249  -8.271  0.00  0.00     0.083 H 
ATOM     25  H10 5QK d   1      22.026 -46.253  -8.414  0.00  0.00     0.083 H 
ATOM     26  H11 5QK d   1      20.714 -44.608 -10.411  0.00  0.00     0.280 HD
ENDBRANCH   3   6
ENDBRANCH   1   3
BRANCH   1  27
ATOM     27  OAA 5QK d   1      18.864 -46.029 -10.207  0.00  0.00    -0.392 OA
ATOM     28  H15 5QK d   1      17.948 -46.180 -10.410  0.00  0.00     0.210 HD
ENDBRANCH   1  27
BRANCH   1  29
ATOM     29  CAC 5QK d   1      19.246 -48.360 -10.868  0.00  0.00     0.021 C 
ATOM     30  H16 5QK d   1      18.770 -48.695 -11.802  0.00  0.00     0.068 H 
ATOM     31  H17 5QK d   1      18.527 -48.443 -10.040  0.00  0.00     0.068 H 
BRANCH  29  32
ATOM     32  NAD 5QK d   1      20.418 -49.234 -10.581  0.00  0.00    -0.357 N 
ATOM     33  CAE 5QK d   1      21.291 -49.700 -11.543  0.00  0.00     0.241 C 
ATOM     34  OAF 5QK d   1      21.202 -49.498 -12.761  0.00  0.00    -0.271 OA
ATOM     35  H18 5QK d   1      20.582 -49.500  -9.631  0.00  0.00     0.162 HD
BRANCH  33  36
ATOM     36  CAG 5QK d   1      22.466 -50.553 -11.034  0.00  0.00     0.099 C 
ATOM     37  H19 5QK d   1      23.339 -49.904 -10.874  0.00  0.00     0.089 H 
ATOM     38  H20 5QK d   1      22.709 -51.316 -11.788  0.00  0.00     0.089 H 
BRANCH  36  39
ATOM     39  OAH 5QK d   1      22.131 -51.205  -9.794  0.00  0.00    -0.340 OA
BRANCH  39  40
ATOM     40  CAI 5QK d   1      23.253 -51.665  -9.196  0.00  0.00     0.099 A 
ATOM     41  CAJ 5QK d   1      23.353 -51.460  -7.813  0.00  0.00     0.100 A 
ATOM     42  NAK 5QK d   1      22.376 -50.825  -7.122  0.00  0.00    -0.257 NA
ATOM     43  CAO 5QK d   1      24.499 -51.917  -7.140  0.00  0.00    -0.005 A 
ATOM     44  CAL 5QK d   1      22.502 -50.613  -5.723  0.00  0.00     0.003 A 
ATOM     45  CAM 5QK d   1      23.640 -51.062  -5.043  0.00  0.00    -0.065 A 
ATOM     46  H21 5QK d   1      21.715 -50.102  -5.181  0.00  0.00     0.114 H 
ATOM     47  CAN 5QK d   1      24.643 -51.719  -5.760  0.00  0.00    -0.069 A 
ATOM     48  H22 5QK d   1      23.742 -50.902  -3.976  0.00  0.00     0.085 H 
ATOM     49  H23 5QK d   1      25.531 -52.075  -5.250  0.00  0.00     0.085 H 
ATOM     50  CAP 5QK d   1      25.499 -52.570  -7.868  0.00  0.00    -0.071 A 
ATOM     51  CAQ 5QK d   1      25.380 -52.771  -9.247  0.00  0.00    -0.079 A 
ATOM     52  H24 5QK d   1      26.384 -52.927  -7.353  0.00  0.00     0.084 H 
ATOM     53  CAR 5QK d   1      24.252 -52.317  -9.922  0.00  0.00    -0.048 A 
ATOM     54  H25 5QK d   1      26.168 -53.281  -9.790  0.00  0.00     0.083 H 
ATOM     55  H26 5QK d   1      24.150 -52.466 -10.991  0.00  0.00     0.087 H 
ENDBRANCH  39  40
ENDBRANCH  36  39
ENDBRANCH  33  36
ENDBRANCH  29  32
ENDBRANCH   1  29
TORSDOF 8
