REMARK  8 active torsions:
REMARK  status: ('A' for Active; 'I' for Inactive)
REMARK    1  A    between atoms: NAU_10  and  CAT_11 
REMARK    2  A    between atoms: CAT_11  and  CAB_12 
REMARK    3  A    between atoms: CAB_12  and  OAA_13 
REMARK    4  A    between atoms: CAB_12  and  CAC_14 
REMARK    5  A    between atoms: CAC_14  and  NAD_15 
REMARK       I    between atoms: NAD_15  and  CAE_16 
REMARK    6  A    between atoms: CAE_16  and  CAG_18 
REMARK    7  A    between atoms: CAI_23  and  NAJ_24 
REMARK    8  A    between atoms: NAJ_24  and  CAK_25 
ROOT
ATOM      1  CAC 5QL d   1      19.302 -48.107 -11.005  0.00  0.00     0.021 C 
ATOM      2  H16 5QL d   1      19.216 -47.923 -12.086  0.00  0.00     0.068 H 
ATOM      3  H17 5QL d   1      18.339 -48.472 -10.618  0.00  0.00     0.068 H 
ENDROOT
BRANCH   1   4
ATOM      4  CAB 5QL d   1      19.758 -46.841 -10.259  0.00  0.00     0.074 C 
ATOM      5  H14 5QL d   1      19.780 -47.078  -9.185  0.00  0.00     0.088 H 
BRANCH   4   6
ATOM      6  CAT 5QL d   1      21.219 -46.426 -10.686  0.00  0.00     0.109 C 
ATOM      7  H12 5QL d   1      21.933 -47.148 -10.261  0.00  0.00     0.080 H 
ATOM      8  H13 5QL d   1      21.288 -46.445 -11.784  0.00  0.00     0.080 H 
BRANCH   6   9
ATOM      9  NAU 5QL d   1      21.566 -45.074 -10.209  0.00  0.00    -0.064 N 
ATOM     10  CAV 5QL d   1      22.907 -44.673 -10.676  0.00  0.00     0.087 C 
ATOM     11  CAW 5QL d   1      23.135 -43.258 -10.281  0.00  0.00    -0.018 C 
ATOM     12  H1  5QL d   1      23.670 -45.316 -10.213  0.00  0.00     0.076 H 
ATOM     13  H2  5QL d   1      22.963 -44.767 -11.771  0.00  0.00     0.076 H 
ATOM     14  CAX 5QL d   1      23.040 -43.165  -8.897  0.00  0.00    -0.049 A 
ATOM     15  H3  5QL d   1      22.375 -42.615 -10.749  0.00  0.00     0.042 H 
ATOM     16  H4  5QL d   1      24.136 -42.939 -10.606  0.00  0.00     0.042 H 
ATOM     17  CBD 5QL d   1      23.773 -42.165  -8.235  0.00  0.00    -0.076 A 
ATOM     18  CAY 5QL d   1      22.248 -44.055  -8.143  0.00  0.00    -0.026 A 
ATOM     19  CBC 5QL d   1      23.716 -42.057  -6.840  0.00  0.00    -0.082 A 
ATOM     20  H5  5QL d   1      24.384 -41.475  -8.806  0.00  0.00     0.084 H 
ATOM     21  CBB 5QL d   1      22.925 -42.946  -6.095  0.00  0.00    -0.082 A 
ATOM     22  H6  5QL d   1      24.284 -41.285  -6.334  0.00  0.00     0.083 H 
ATOM     23  CBA 5QL d   1      22.194 -43.944  -6.745  0.00  0.00    -0.075 A 
ATOM     24  H7  5QL d   1      22.881 -42.858  -5.015  0.00  0.00     0.083 H 
ATOM     25  H8  5QL d   1      21.585 -44.632  -6.170  0.00  0.00     0.084 H 
ATOM     26  CAZ 5QL d   1      21.521 -45.087  -8.738  0.00  0.00     0.108 C 
ATOM     27  H9  5QL d   1      20.471 -44.998  -8.422  0.00  0.00     0.083 H 
ATOM     28  H10 5QL d   1      21.930 -46.046  -8.387  0.00  0.00     0.083 H 
ATOM     29  H11 5QL d   1      20.889 -44.414 -10.559  0.00  0.00     0.280 HD
ENDBRANCH   6   9
ENDBRANCH   4   6
BRANCH   4  30
ATOM     30  OAA 5QL d   1      18.846 -45.773 -10.442  0.00  0.00    -0.392 OA
ATOM     31  H15 5QL d   1      17.977 -46.051 -10.177  0.00  0.00     0.210 HD
ENDBRANCH   4  30
ENDBRANCH   1   4
BRANCH   1  32
ATOM     32  NAD 5QL d   1      20.390 -49.056 -10.710  0.00  0.00    -0.354 N 
ATOM     33  CAE 5QL d   1      21.191 -49.575 -11.649  0.00  0.00     0.251 C 
ATOM     34  OAF 5QL d   1      21.054 -49.365 -12.860  0.00  0.00    -0.268 OA
ATOM     35  H18 5QL d   1      20.538 -49.327  -9.759  0.00  0.00     0.162 HD
BRANCH  33  36
ATOM     36  CAG 5QL d   1      22.229 -50.376 -11.147  0.00  0.00     0.034 A 
ATOM     37  CAH 5QL d   1      23.447 -50.437 -11.827  0.00  0.00    -0.042 A 
ATOM     38  CAI 5QL d   1      24.498 -51.210 -11.321  0.00  0.00     0.029 A 
ATOM     39  H19 5QL d   1      23.579 -49.884 -12.750  0.00  0.00     0.088 H 
ATOM     40  CAQ 5QL d   1      24.314 -51.941 -10.140  0.00  0.00    -0.058 A 
ATOM     41  CAR 5QL d   1      23.119 -51.877  -9.432  0.00  0.00    -0.080 A 
ATOM     42  H22 5QL d   1      25.118 -52.568  -9.771  0.00  0.00     0.086 H 
ATOM     43  CAS 5QL d   1      22.082 -51.090  -9.942  0.00  0.00    -0.068 A 
ATOM     44  H21 5QL d   1      22.994 -52.425  -8.505  0.00  0.00     0.083 H 
ATOM     45  H20 5QL d   1      21.146 -51.028  -9.399  0.00  0.00     0.085 H 
BRANCH  38  46
ATOM     46  NAJ 5QL d   1      25.622 -51.268 -12.058  0.00  0.00    -0.385 N 
ATOM     47  H23 5QL d   1      25.463 -51.364 -13.071  0.00  0.00     0.160 HD
BRANCH  46  48
ATOM     48  CAK 5QL d   1      27.058 -51.217 -11.661  0.00  0.00     0.013 C 
ATOM     49  CAL 5QL d   1      27.892 -52.144 -12.563  0.00  0.00    -0.026 C 
ATOM     50  CAM 5QL d   1      29.358 -51.825 -12.307  0.00  0.00     0.021 C 
ATOM     51  H25 5QL d   1      27.646 -51.962 -13.620  0.00  0.00     0.039 H 
ATOM     52  H26 5QL d   1      27.687 -53.196 -12.315  0.00  0.00     0.039 H 
ATOM     53  OAN 5QL d   1      29.679 -52.043 -10.917  0.00  0.00    -0.391 OA
ATOM     54  H27 5QL d   1      29.552 -50.773 -12.564  0.00  0.00     0.074 H 
ATOM     55  H28 5QL d   1      29.986 -52.477 -12.932  0.00  0.00     0.074 H 
ATOM     56  CAO 5QL d   1      28.889 -51.277  -9.994  0.00  0.00     0.021 C 
ATOM     57  CAP 5QL d   1      27.384 -51.563 -10.207  0.00  0.00    -0.026 C 
ATOM     58  H29 5QL d   1      29.081 -50.206 -10.155  0.00  0.00     0.074 H 
ATOM     59  H30 5QL d   1      29.168 -51.549  -8.965  0.00  0.00     0.074 H 
ATOM     60  H31 5QL d   1      27.172 -52.625 -10.016  0.00  0.00     0.039 H 
ATOM     61  H32 5QL d   1      26.783 -50.941  -9.528  0.00  0.00     0.039 H 
ATOM     62  H24 5QL d   1      27.392 -50.182 -11.827  0.00  0.00     0.072 H 
ENDBRANCH  46  48
ENDBRANCH  38  46
ENDBRANCH  33  36
ENDBRANCH   1  32
TORSDOF 8
