REMARK  3 active torsions:
REMARK  status: ('A' for Active; 'I' for Inactive)
REMARK    1  A    between atoms: C7_5  and  N1_1 
REMARK    2  A    between atoms: N_7  and  C6_4 
REMARK    3  A    between atoms: C1_8  and  C_9 
ROOT
ATOM      1  C4  5Q5 d   1     -25.574   1.805  -7.120  0.00  0.00    -0.081 A 
ATOM      2  C5  5Q5 d   1     -24.727   1.830  -8.210  0.00  0.00    -0.057 A 
ATOM      3  C6  5Q5 d   1     -24.335   3.055  -8.748  0.00  0.00     0.040 A 
ATOM      4  C1  5Q5 d   1     -24.801   4.263  -8.216  0.00  0.00    -0.035 A 
ATOM      5  C3  5Q5 d   1     -26.051   2.984  -6.585  0.00  0.00    -0.082 A 
ATOM      6  C2  5Q5 d   1     -25.676   4.197  -7.134  0.00  0.00    -0.075 A 
ATOM      7  H3  5Q5 d   1     -25.865   0.857  -6.683  0.00  0.00     0.083 H 
ATOM      8  H4  5Q5 d   1     -24.369   0.904  -8.645  0.00  0.00     0.086 H 
ATOM      9  H9  5Q5 d   1     -26.721   2.960  -5.733  0.00  0.00     0.083 H 
ATOM     10  H10 5Q5 d   1     -26.071   5.115  -6.714  0.00  0.00     0.084 H 
ENDROOT
BRANCH   3  11
ATOM     11  N   5Q5 d   1     -23.405   3.070  -9.807  0.00  0.00    -0.333 N 
ATOM     12  C7  5Q5 d   1     -22.074   3.193  -9.747  0.00  0.00     0.170 C 
ATOM     13  S   5Q5 d   1     -21.146   2.791 -11.096  0.00  0.00    -0.041 SA
ATOM     14  H5  5Q5 d   1     -23.791   2.976 -10.725  0.00  0.00     0.168 HD
BRANCH  12  15
ATOM     15  N1  5Q5 d   1     -21.515   3.507  -8.572  0.00  0.00    -0.376 N 
ATOM     16  H1  5Q5 d   1     -22.093   3.741  -7.790  0.00  0.00     0.158 HD
ATOM     17  H2  5Q5 d   1     -20.520   3.507  -8.476  0.00  0.00     0.158 HD
ENDBRANCH  12  15
ENDBRANCH   3  11
BRANCH   4  18
ATOM     18  C   5Q5 d   1     -24.328   5.595  -8.731  0.00  0.00    -0.049 C 
ATOM     19  H6  5Q5 d   1     -24.823   6.402  -8.170  0.00  0.00     0.033 H 
ATOM     20  H7  5Q5 d   1     -24.576   5.685  -9.799  0.00  0.00     0.033 H 
ATOM     21  H8  5Q5 d   1     -23.239   5.673  -8.600  0.00  0.00     0.033 H 
ENDBRANCH   4  18
TORSDOF 3
