REMARK  3 active torsions:
REMARK  status: ('A' for Active; 'I' for Inactive)
REMARK    1  A    between atoms: C1_7  and  C_8 
REMARK       I    between atoms: N_9  and  C1_7 
REMARK    2  A    between atoms: C2_10  and  N_9 
REMARK    3  A    between atoms: C2_10  and  C3_11 
ROOT
ATOM      1  C4  5QD d   1     -26.776   1.334  -6.774  0.00  0.00     0.043 A 
ATOM      2  C5  5QD d   1     -27.591   0.661  -5.874  0.00  0.00    -0.061 A 
ATOM      3  C6  5QD d   1     -28.731   1.284  -5.394  0.00  0.00    -0.080 A 
ATOM      4  C7  5QD d   1     -29.041   2.572  -5.796  0.00  0.00    -0.061 A 
ATOM      5  C8  5QD d   1     -28.203   3.225  -6.690  0.00  0.00     0.043 A 
ATOM      6  C3  5QD d   1     -27.055   2.625  -7.236  0.00  0.00     0.003 A 
ATOM      7 CL   5QD d   1     -28.545   4.881  -7.076  0.00  0.00    -0.084 Cl
ATOM      8 CL1  5QD d   1     -25.321   0.562  -7.316  0.00  0.00    -0.084 Cl
ATOM      9  H1  5QD d   1     -27.338  -0.342  -5.550  0.00  0.00     0.086 H 
ATOM     10  H2  5QD d   1     -29.382   0.762  -4.702  0.00  0.00     0.083 H 
ATOM     11  H3  5QD d   1     -29.929   3.066  -5.417  0.00  0.00     0.086 H 
ENDROOT
BRANCH   6  12
ATOM     12  C2  5QD d   1     -26.190   3.313  -8.271  0.00  0.00     0.022 C 
ATOM     13  H8  5QD d   1     -26.071   2.653  -9.143  0.00  0.00     0.071 H 
ATOM     14  H9  5QD d   1     -26.673   4.251  -8.584  0.00  0.00     0.071 H 
BRANCH  12  15
ATOM     15  N   5QD d   1     -24.877   3.610  -7.708  0.00  0.00    -0.357 N 
ATOM     16  C1  5QD d   1     -23.741   3.676  -8.406  0.00  0.00     0.213 C 
ATOM     17  O   5QD d   1     -23.685   3.343  -9.576  0.00  0.00    -0.274 OA
ATOM     18  H7  5QD d   1     -24.824   3.777  -6.723  0.00  0.00     0.162 HD
BRANCH  16  19
ATOM     19  C   5QD d   1     -22.535   4.179  -7.670  0.00  0.00    -0.003 C 
ATOM     20  H4  5QD d   1     -22.812   4.420  -6.633  0.00  0.00     0.040 H 
ATOM     21  H5  5QD d   1     -22.153   5.083  -8.167  0.00  0.00     0.040 H 
ATOM     22  H6  5QD d   1     -21.755   3.403  -7.670  0.00  0.00     0.040 H 
ENDBRANCH  16  19
ENDBRANCH  12  15
ENDBRANCH   6  12
TORSDOF 3
