REMARK  2 active torsions:
REMARK  status: ('A' for Active; 'I' for Inactive)
REMARK    1  A    between atoms: C_12  and  C7_5 
REMARK    2  A    between atoms: C_12  and  C1_13 
ROOT
ATOM      1  N1  5Q8 d   1     -31.651   5.236  -7.501  0.00  0.00    -0.190 NA
ATOM      2  C7  5Q8 d   1     -27.657   3.063  -8.001  0.00  0.00     0.153 A 
ATOM      3  C8  5Q8 d   1     -29.430   4.105  -8.324  0.00  0.00     0.189 A 
ATOM      4  C10 5Q8 d   1     -28.936   3.983  -9.684  0.00  0.00     0.183 A 
ATOM      5  C9  5Q8 d   1     -30.683   4.747  -7.857  0.00  0.00     0.124 C 
ATOM      6  N   5Q8 d   1     -28.672   3.579  -7.371  0.00  0.00    -0.213 NA
ATOM      7  N2  5Q8 d   1     -29.328   4.338 -10.898  0.00  0.00    -0.377 N 
ATOM      8  O   5Q8 d   1     -27.730   3.288  -9.484  0.00  0.00    -0.276 OA
ATOM      9  H4  5Q8 d   1     -28.746   4.106 -11.716  0.00  0.00     0.158 HD
ATOM     10  H5  5Q8 d   1     -30.215   4.846 -11.025  0.00  0.00     0.158 HD
ENDROOT
BRANCH   2  11
ATOM     11  C   5Q8 d   1     -26.437   2.361  -7.507  0.00  0.00     0.020 C 
ATOM     12  H6  5Q8 d   1     -26.398   1.354  -7.948  0.00  0.00     0.052 H 
ATOM     13  H7  5Q8 d   1     -26.487   2.280  -6.411  0.00  0.00     0.052 H 
BRANCH  11  14
ATOM     14  C1  5Q8 d   1     -25.187   3.117  -7.890  0.00  0.00    -0.051 A 
ATOM     15  C6  5Q8 d   1     -24.005   2.445  -8.153  0.00  0.00    -0.076 A 
ATOM     16  C5  5Q8 d   1     -22.855   3.140  -8.498  0.00  0.00    -0.082 A 
ATOM     17  H3  5Q8 d   1     -23.978   1.363  -8.088  0.00  0.00     0.084 H 
ATOM     18  C4  5Q8 d   1     -22.877   4.513  -8.589  0.00  0.00    -0.083 A 
ATOM     19  H2  5Q8 d   1     -21.936   2.600  -8.697  0.00  0.00     0.083 H 
ATOM     20  C3  5Q8 d   1     -24.046   5.196  -8.334  0.00  0.00    -0.082 A 
ATOM     21  H1  5Q8 d   1     -21.978   5.055  -8.860  0.00  0.00     0.083 H 
ATOM     22  C2  5Q8 d   1     -25.193   4.503  -7.980  0.00  0.00    -0.076 A 
ATOM     23  H8  5Q8 d   1     -24.069   6.277  -8.410  0.00  0.00     0.083 H 
ATOM     24  H9  5Q8 d   1     -26.106   5.049  -7.771  0.00  0.00     0.084 H 
ENDBRANCH  11  14
ENDBRANCH   2  11
TORSDOF 2
