REMARK  7 active torsions:
REMARK  status: ('A' for Active; 'I' for Inactive)
REMARK    1  A    between atoms: C4_1  and  O1_15 
REMARK    2  A    between atoms: C8_5  and  O_13 
REMARK    3  A    between atoms: O1_15  and  C10_6 
REMARK    4  A    between atoms: C1_8  and  C_9 
REMARK       I    between atoms: N_10  and  C1_8 
REMARK    5  A    between atoms: C2_11  and  N_10 
REMARK    6  A    between atoms: C2_11  and  C3_12 
REMARK    7  A    between atoms: O_13  and  C9_14 
ROOT
ATOM      1  C4  5QB d   1     -27.228   3.853  -6.276  0.00  0.00     0.078 A 
ATOM      2  C5  5QB d   1     -28.128   3.433  -5.305  0.00  0.00    -0.050 A 
ATOM      3  C6  5QB d   1     -28.193   2.093  -4.962  0.00  0.00    -0.078 A 
ATOM      4  C7  5QB d   1     -27.368   1.167  -5.576  0.00  0.00    -0.050 A 
ATOM      5  C8  5QB d   1     -26.473   1.585  -6.558  0.00  0.00     0.078 A 
ATOM      6  C3  5QB d   1     -26.391   2.936  -6.935  0.00  0.00     0.026 A 
ATOM      7  H1  5QB d   1     -28.777   4.152  -4.818  0.00  0.00     0.087 H 
ATOM      8  H2  5QB d   1     -28.897   1.766  -4.205  0.00  0.00     0.083 H 
ATOM      9  H3  5QB d   1     -27.418   0.121  -5.294  0.00  0.00     0.087 H 
ENDROOT
BRANCH   6  10
ATOM     10  C2  5QB d   1     -25.464   3.372  -8.051  0.00  0.00     0.024 C 
ATOM     11  H11 5QB d   1     -25.455   2.598  -8.832  0.00  0.00     0.071 H 
ATOM     12  H12 5QB d   1     -25.834   4.317  -8.475  0.00  0.00     0.071 H 
BRANCH  10  13
ATOM     13  N   5QB d   1     -24.104   3.570  -7.563  0.00  0.00    -0.357 N 
ATOM     14  C1  5QB d   1     -23.033   3.540  -8.361  0.00  0.00     0.213 C 
ATOM     15  O2  5QB d   1     -23.109   3.192  -9.534  0.00  0.00    -0.274 OA
ATOM     16  H10 5QB d   1     -23.967   3.736  -6.586  0.00  0.00     0.162 HD
BRANCH  14  17
ATOM     17  C   5QB d   1     -21.731   3.955  -7.741  0.00  0.00    -0.003 C 
ATOM     18  H7  5QB d   1     -21.896   4.225  -6.688  0.00  0.00     0.040 H 
ATOM     19  H8  5QB d   1     -21.327   4.823  -8.283  0.00  0.00     0.040 H 
ATOM     20  H9  5QB d   1     -21.015   3.122  -7.798  0.00  0.00     0.040 H 
ENDBRANCH  14  17
ENDBRANCH  10  13
ENDBRANCH   6  10
BRANCH   1  21
ATOM     21  O1  5QB d   1     -27.068   5.161  -6.646  0.00  0.00    -0.355 OA
BRANCH  21  22
ATOM     22  C10 5QB d   1     -26.772   6.108  -5.623  0.00  0.00     0.010 C 
ATOM     23  H4  5QB d   1     -26.672   7.109  -6.068  0.00  0.00     0.066 H 
ATOM     24  H5  5QB d   1     -25.829   5.831  -5.128  0.00  0.00     0.066 H 
ATOM     25  H6  5QB d   1     -27.586   6.115  -4.883  0.00  0.00     0.066 H 
ENDBRANCH  21  22
ENDBRANCH   1  21
BRANCH   5  26
ATOM     26  O   5QB d   1     -25.628   0.747  -7.235  0.00  0.00    -0.355 OA
BRANCH  26  27
ATOM     27  C9  5QB d   1     -25.467  -0.583  -6.744  0.00  0.00     0.010 C 
ATOM     28  H13 5QB d   1     -24.763  -1.129  -7.389  0.00  0.00     0.066 H 
ATOM     29  H14 5QB d   1     -26.440  -1.095  -6.747  0.00  0.00     0.066 H 
ATOM     30  H15 5QB d   1     -25.074  -0.550  -5.717  0.00  0.00     0.066 H 
ENDBRANCH  26  27
ENDBRANCH   5  26
TORSDOF 7
