REMARK  4 active torsions:
REMARK  status: ('A' for Active; 'I' for Inactive)
REMARK    1  A    between atoms: C7_4  and  C8_5 
REMARK       I    between atoms: N_8  and  C7_4 
REMARK    2  A    between atoms: C8_5  and  O_7 
REMARK    3  A    between atoms: C_9  and  N_8 
REMARK    4  A    between atoms: C_9  and  C1_10 
ROOT
ATOM      1  C   5QA d   1     -26.275   3.335  -8.169  0.00  0.00     0.022 C 
ATOM      2  H7  5QA d   1     -25.941   2.727  -9.023  0.00  0.00     0.071 H 
ATOM      3  H8  5QA d   1     -26.996   4.089  -8.516  0.00  0.00     0.071 H 
ENDROOT
BRANCH   1   4
ATOM      4  N   5QA d   1     -25.125   4.005  -7.574  0.00  0.00    -0.355 N 
ATOM      5  C7  5QA d   1     -23.867   3.857  -8.002  0.00  0.00     0.241 C 
ATOM      6  O1  5QA d   1     -23.565   3.355  -9.082  0.00  0.00    -0.271 OA
ATOM      7  H6  5QA d   1     -25.287   4.613  -6.797  0.00  0.00     0.162 HD
BRANCH   5   8
ATOM      8  C8  5QA d   1     -22.754   4.353  -7.076  0.00  0.00     0.090 C 
ATOM      9  H3  5QA d   1     -22.471   5.375  -7.367  0.00  0.00     0.088 H 
ATOM     10  H4  5QA d   1     -21.882   3.690  -7.172  0.00  0.00     0.088 H 
BRANCH   8  11
ATOM     11  O   5QA d   1     -23.190   4.356  -5.732  0.00  0.00    -0.392 OA
ATOM     12  H5  5QA d   1     -22.487   4.666  -5.173  0.00  0.00     0.210 HD
ENDBRANCH   8  11
ENDBRANCH   5   8
ENDBRANCH   1   4
BRANCH   1  13
ATOM     13  C1  5QA d   1     -26.941   2.438  -7.144  0.00  0.00     0.003 A 
ATOM     14  C6  5QA d   1     -26.372   1.220  -6.745  0.00  0.00     0.043 A 
ATOM     15  C5  5QA d   1     -26.967   0.375  -5.819  0.00  0.00    -0.061 A 
ATOM     16 CL   5QA d   1     -24.842   0.759  -7.416  0.00  0.00    -0.084 Cl
ATOM     17  C4  5QA d   1     -28.171   0.739  -5.243  0.00  0.00    -0.080 A 
ATOM     18  H2  5QA d   1     -26.493  -0.562  -5.549  0.00  0.00     0.086 H 
ATOM     19  C3  5QA d   1     -28.780   1.935  -5.588  0.00  0.00    -0.061 A 
ATOM     20  H1  5QA d   1     -28.641   0.085  -4.518  0.00  0.00     0.083 H 
ATOM     21  C2  5QA d   1     -28.174   2.766  -6.519  0.00  0.00     0.043 A 
ATOM     22  H9  5QA d   1     -29.723   2.219  -5.134  0.00  0.00     0.086 H 
ATOM     23 CL1  5QA d   1     -28.977   4.260  -6.886  0.00  0.00    -0.084 Cl
ENDBRANCH   1  13
TORSDOF 4
