REMARK  4 active torsions:
REMARK  status: ('A' for Active; 'I' for Inactive)
REMARK    1  A    between atoms: C3_11  and  C4_1 
REMARK    2  A    between atoms: C1_7  and  C_8 
REMARK       I    between atoms: N_9  and  C1_7 
REMARK    3  A    between atoms: N_9  and  C2_10 
REMARK    4  A    between atoms: N_9  and  C3_11 
ROOT
ATOM      1  C3  5Q9 d   1     -26.584   3.543  -8.243  0.00  0.00     0.024 C 
ATOM      2  H10 5Q9 d   1     -27.156   4.430  -8.554  0.00  0.00     0.071 H 
ATOM      3  H11 5Q9 d   1     -26.440   2.878  -9.107  0.00  0.00     0.071 H 
ENDROOT
BRANCH   1   4
ATOM      4  C4  5Q9 d   1     -27.353   2.806  -7.170  0.00  0.00     0.003 A 
ATOM      5  C5  5Q9 d   1     -26.961   1.537  -6.717  0.00  0.00     0.043 A 
ATOM      6  C6  5Q9 d   1     -27.686   0.814  -5.779  0.00  0.00    -0.061 A 
ATOM      7 CL1  5Q9 d   1     -25.492   0.856  -7.335  0.00  0.00    -0.084 Cl
ATOM      8  C7  5Q9 d   1     -28.839   1.358  -5.250  0.00  0.00    -0.080 A 
ATOM      9  H1  5Q9 d   1     -27.350  -0.168  -5.465  0.00  0.00     0.086 H 
ATOM     10  C8  5Q9 d   1     -29.260   2.615  -5.640  0.00  0.00    -0.061 A 
ATOM     11  H2  5Q9 d   1     -29.417   0.796  -4.525  0.00  0.00     0.083 H 
ATOM     12  C9  5Q9 d   1     -28.514   3.327  -6.570  0.00  0.00     0.043 A 
ATOM     13  H3  5Q9 d   1     -30.165   3.042  -5.223  0.00  0.00     0.086 H 
ATOM     14 CL   5Q9 d   1     -29.032   4.936  -6.939  0.00  0.00    -0.084 Cl
ENDBRANCH   1   4
BRANCH   1  15
ATOM     15  N   5Q9 d   1     -25.257   3.972  -7.729  0.00  0.00    -0.352 N 
ATOM     16  C1  5Q9 d   1     -24.063   3.631  -8.321  0.00  0.00     0.215 C 
ATOM     17  O   5Q9 d   1     -24.012   2.829  -9.243  0.00  0.00    -0.274 OA
BRANCH  16  18
ATOM     18  C   5Q9 d   1     -22.804   4.205  -7.738  0.00  0.00    -0.003 C 
ATOM     19  H4  5Q9 d   1     -23.060   4.901  -6.926  0.00  0.00     0.040 H 
ATOM     20  H5  5Q9 d   1     -22.250   4.744  -8.521  0.00  0.00     0.040 H 
ATOM     21  H6  5Q9 d   1     -22.180   3.391  -7.340  0.00  0.00     0.040 H 
ENDBRANCH  16  18
BRANCH  15  22
ATOM     22  C2  5Q9 d   1     -25.351   4.788  -6.524  0.00  0.00    -0.016 C 
ATOM     23  H7  5Q9 d   1     -26.409   4.919  -6.251  0.00  0.00     0.056 H 
ATOM     24  H8  5Q9 d   1     -24.896   5.772  -6.711  0.00  0.00     0.056 H 
ATOM     25  H9  5Q9 d   1     -24.819   4.289  -5.701  0.00  0.00     0.056 H 
ENDBRANCH  15  22
ENDBRANCH   1  15
TORSDOF 4
