REMARK  7 active torsions:
REMARK  status: ('A' for Active; 'I' for Inactive)
REMARK    1  A    between atoms: C12_10  and  N14_1 
REMARK    2  A    between atoms: C24_9  and  C18_2 
REMARK    3  A    between atoms: C16_4  and  C10_21 
REMARK    4  A    between atoms: C10_21  and  C15_5 
REMARK    5  A    between atoms: C2_13  and  C1_12 
REMARK    6  A    between atoms: C8_19  and  C3_14 
REMARK    7  A    between atoms: C4_15  and  C7_18 
ROOT
ATOM      1  C12 5QV d   1      15.994  40.047  -7.213  0.00  0.00     0.135 C 
ATOM      2  C8  5QV d   1      17.027  41.152  -9.643  0.00  0.00     0.030 C 
ATOM      3  C9  5QV d   1      17.100  39.632  -9.830  0.00  0.00    -0.022 C 
ATOM      4  C10 5QV d   1      17.652  38.890  -8.610  0.00  0.00     0.060 C 
ATOM      5  N11 5QV d   1      16.845  39.103  -7.402  0.00  0.00    -0.358 N 
ATOM      6  S13 5QV d   1      16.081  41.531  -8.163  0.00  0.00    -0.085 SA
ATOM      7  H15 5QV d   1      18.052  41.521  -9.490  0.00  0.00     0.065 H 
ATOM      8  H16 5QV d   1      17.751  39.418 -10.691  0.00  0.00     0.039 H 
ATOM      9  H17 5QV d   1      16.086  39.258 -10.035  0.00  0.00     0.039 H 
ATOM     10  H18 5QV d   1      16.973  38.431  -6.632  0.00  0.00     0.162 HD
ENDROOT
BRANCH   4  11
ATOM     11  C16 5QV d   1      19.119  39.233  -8.356  0.00  0.00     0.009 A 
ATOM     12  C17 5QV d   1      19.474  39.925  -7.197  0.00  0.00    -0.058 A 
ATOM     13  C18 5QV d   1      20.806  40.254  -6.944  0.00  0.00     0.016 A 
ATOM     14  H3  5QV d   1      18.707  40.210  -6.486  0.00  0.00     0.086 H 
ATOM     15  C19 5QV d   1      21.794  39.897  -7.869  0.00  0.00     0.130 A 
ATOM     16  C20 5QV d   1      21.452  39.214  -9.032  0.00  0.00    -0.007 A 
ATOM     17  F23 5QV d   1      23.079  40.208  -7.640  0.00  0.00    -0.205 F 
ATOM     18  C21 5QV d   1      20.120  38.886  -9.276  0.00  0.00     0.128 A 
ATOM     19  H7  5QV d   1      22.220  38.938  -9.746  0.00  0.00     0.093 H 
ATOM     20  F22 5QV d   1      19.846  38.233 -10.410  0.00  0.00    -0.205 F 
BRANCH  13  21
ATOM     21  C24 5QV d   1      21.136  40.999  -5.691  0.00  0.00     0.012 A 
ATOM     22  C25 5QV d   1      21.865  42.188  -5.750  0.00  0.00     0.016 A 
ATOM     23  N26 5QV d   1      22.148  42.864  -4.612  0.00  0.00    -0.253 NA
ATOM     24  H19 5QV d   1      22.204  42.570  -6.706  0.00  0.00     0.116 H 
ATOM     25  C27 5QV d   1      21.718  42.402  -3.415  0.00  0.00     0.086 A 
ATOM     26  N28 5QV d   1      21.001  41.256  -3.333  0.00  0.00    -0.253 NA
ATOM     27  H8  5QV d   1      21.950  42.955  -2.512  0.00  0.00     0.146 H 
ATOM     28  C29 5QV d   1      20.699  40.546  -4.445  0.00  0.00     0.016 A 
ATOM     29  H20 5QV d   1      20.122  39.632  -4.369  0.00  0.00     0.116 H 
ENDBRANCH  13  21
ENDBRANCH   4  11
BRANCH   4  30
ATOM     30  C15 5QV d   1      17.521  37.399  -8.928  0.00  0.00    -0.049 C 
ATOM     31  H4  5QV d   1      16.464  37.154  -9.111  0.00  0.00     0.031 H 
ATOM     32  H5  5QV d   1      17.892  36.809  -8.077  0.00  0.00     0.031 H 
ATOM     33  H6  5QV d   1      18.112  37.162  -9.825  0.00  0.00     0.031 H 
ENDBRANCH   4  30
BRANCH   2  34
ATOM     34  C3  5QV d   1      16.473  41.856 -10.871  0.00  0.00     0.014 A 
ATOM     35  C2  5QV d   1      15.191  41.733 -11.425  0.00  0.00     0.068 A 
ATOM     36  N6  5QV d   1      15.153  42.540 -12.506  0.00  0.00    -0.133 NA
ATOM     37  O5  5QV d   1      16.407  43.167 -12.632  0.00  0.00    -0.217 OA
ATOM     38  C4  5QV d   1      17.175  42.758 -11.670  0.00  0.00     0.084 A 
BRANCH  35  39
ATOM     39  C1  5QV d   1      14.033  40.881 -10.950  0.00  0.00    -0.033 C 
ATOM     40  H9  5QV d   1      13.173  41.025 -11.620  0.00  0.00     0.035 H 
ATOM     41  H10 5QV d   1      13.755  41.177  -9.928  0.00  0.00     0.035 H 
ATOM     42  H11 5QV d   1      14.330  39.822 -10.957  0.00  0.00     0.035 H 
ENDBRANCH  35  39
BRANCH  38  43
ATOM     43  C7  5QV d   1      18.605  43.206 -11.463  0.00  0.00    -0.029 C 
ATOM     44  H12 5QV d   1      18.883  43.921 -12.252  0.00  0.00     0.036 H 
ATOM     45  H13 5QV d   1      19.273  42.333 -11.507  0.00  0.00     0.036 H 
ATOM     46  H14 5QV d   1      18.699  43.690 -10.480  0.00  0.00     0.036 H 
ENDBRANCH  38  43
ENDBRANCH   2  34
BRANCH   1  47
ATOM     47  N14 5QV d   1      15.200  40.027  -6.133  0.00  0.00    -0.380 N 
ATOM     48  H1  5QV d   1      15.131  39.173  -5.561  0.00  0.00     0.158 HD
ATOM     49  H2  5QV d   1      14.659  40.865  -5.876  0.00  0.00     0.158 HD
ENDBRANCH   1  47
TORSDOF 7
