REMARK  5 active torsions:
REMARK  status: ('A' for Active; 'I' for Inactive)
REMARK    1  A    between atoms: C17_3  and  C23_8 
REMARK    2  A    between atoms: C10_20  and  C15_5 
REMARK    3  A    between atoms: C2_12  and  C1_11 
REMARK    4  A    between atoms: C8_18  and  C3_13 
REMARK    5  A    between atoms: C4_14  and  C7_17 
ROOT
ATOM      1  N14 5QU d   1      15.232  40.061  -6.084  0.00  0.00    -0.380 N 
ATOM      2  C12 5QU d   1      16.083  40.056  -7.120  0.00  0.00     0.135 C 
ATOM      3  C8  5QU d   1      17.364  41.145  -9.397  0.00  0.00     0.030 C 
ATOM      4  C9  5QU d   1      17.389  39.622  -9.578  0.00  0.00    -0.026 C 
ATOM      5  C10 5QU d   1      17.828  38.881  -8.301  0.00  0.00     0.041 C 
ATOM      6  N11 5QU d   1      17.043  39.202  -7.093  0.00  0.00    -0.362 N 
ATOM      7  S13 5QU d   1      16.363  41.572  -7.975  0.00  0.00    -0.085 SA
ATOM      8  H1  5QU d   1      15.048  39.191  -5.565  0.00  0.00     0.158 HD
ATOM      9  H2  5QU d   1      14.762  40.935  -5.808  0.00  0.00     0.158 HD
ATOM     10  H12 5QU d   1      18.394  41.464  -9.179  0.00  0.00     0.065 H 
ATOM     11  H13 5QU d   1      18.091  39.375 -10.388  0.00  0.00     0.038 H 
ATOM     12  H14 5QU d   1      16.379  39.283  -9.852  0.00  0.00     0.038 H 
ATOM     13  H15 5QU d   1      17.649  37.813  -8.495  0.00  0.00     0.080 H 
ATOM     14  H16 5QU d   1      17.270  38.730  -6.206  0.00  0.00     0.162 HD
ENDROOT
BRANCH   5  15
ATOM     15  C15 5QU d   1      19.321  39.032  -8.077  0.00  0.00     0.004 A 
ATOM     16  C16 5QU d   1      19.751  39.869  -7.046  0.00  0.00    -0.058 A 
ATOM     17  C17 5QU d   1      21.105  40.068  -6.774  0.00  0.00     0.016 A 
ATOM     18  H3  5QU d   1      19.012  40.379  -6.439  0.00  0.00     0.086 H 
ATOM     19  C18 5QU d   1      22.059  39.414  -7.559  0.00  0.00     0.130 A 
ATOM     20  C19 5QU d   1      21.636  38.581  -8.593  0.00  0.00    -0.007 A 
ATOM     21  F22 5QU d   1      23.370  39.578  -7.332  0.00  0.00    -0.205 F 
ATOM     22  C20 5QU d   1      20.282  38.388  -8.856  0.00  0.00     0.127 A 
ATOM     23  H4  5QU d   1      22.374  38.074  -9.204  0.00  0.00     0.093 H 
ATOM     24  F21 5QU d   1      19.988  37.569  -9.872  0.00  0.00    -0.205 F 
BRANCH  17  25
ATOM     25  C23 5QU d   1      21.506  40.973  -5.654  0.00  0.00     0.012 A 
ATOM     26  C24 5QU d   1      22.391  42.029  -5.882  0.00  0.00     0.016 A 
ATOM     27  N25 5QU d   1      22.737  42.838  -4.851  0.00  0.00    -0.253 NA
ATOM     28  H5  5QU d   1      22.797  42.200  -6.873  0.00  0.00     0.116 H 
ATOM     29  C26 5QU d   1      22.231  42.641  -3.611  0.00  0.00     0.086 A 
ATOM     30  N27 5QU d   1      21.369  41.625  -3.371  0.00  0.00    -0.253 NA
ATOM     31  H17 5QU d   1      22.519  43.303  -2.802  0.00  0.00     0.146 H 
ATOM     32  C28 5QU d   1      20.998  40.787  -4.366  0.00  0.00     0.016 A 
ATOM     33  H18 5QU d   1      20.309  39.974  -4.165  0.00  0.00     0.116 H 
ENDBRANCH  17  25
ENDBRANCH   5  15
BRANCH   3  34
ATOM     34  C3  5QU d   1      16.935  41.884 -10.651  0.00  0.00     0.014 A 
ATOM     35  C2  5QU d   1      15.732  41.823 -11.360  0.00  0.00     0.068 A 
ATOM     36  N6  5QU d   1      15.835  42.672 -12.403  0.00  0.00    -0.133 NA
ATOM     37  O5  5QU d   1      17.109  43.268 -12.342  0.00  0.00    -0.217 OA
ATOM     38  C4  5QU d   1      17.750  42.803 -11.312  0.00  0.00     0.084 A 
BRANCH  35  39
ATOM     39  C1  5QU d   1      14.492  40.996 -11.097  0.00  0.00    -0.033 C 
ATOM     40  H6  5QU d   1      13.738  41.210 -11.869  0.00  0.00     0.035 H 
ATOM     41  H7  5QU d   1      14.085  41.250 -10.107  0.00  0.00     0.035 H 
ATOM     42  H8  5QU d   1      14.751  39.927 -11.124  0.00  0.00     0.035 H 
ENDBRANCH  35  39
BRANCH  38  43
ATOM     43  C7  5QU d   1      19.153  43.200 -10.908  0.00  0.00    -0.029 C 
ATOM     44  H9  5QU d   1      19.543  43.943 -11.619  0.00  0.00     0.036 H 
ATOM     45  H10 5QU d   1      19.802  42.312 -10.914  0.00  0.00     0.036 H 
ATOM     46  H11 5QU d   1      19.135  43.634  -9.897  0.00  0.00     0.036 H 
ENDBRANCH  38  43
ENDBRANCH   3  34
TORSDOF 5
