REMARK  3 active torsions:
REMARK  status: ('A' for Active; 'I' for Inactive)
REMARK    1  A    between atoms: C13_1  and  C12_18 
REMARK    2  A    between atoms: C16_21  and  C13_1 
REMARK    3  A    between atoms: C06_12  and  C05_11 
ROOT
ATOM      1  C06 5QQ d   1       0.262   8.473  27.881  0.00  0.00     0.105 A 
ATOM      2  C07 5QQ d   1       1.010   8.317  26.700  0.00  0.00     0.036 A 
ATOM      3  N08 5QQ d   1       2.085   9.111  26.478  0.00  0.00    -0.220 NA
ATOM      4  C09 5QQ d   1       2.436  10.050  27.420  0.00  0.00     0.272 A 
ATOM      5  N10 5QQ d   1       3.462  10.974  27.440  0.00  0.00    -0.107 NA
ATOM      6  N11 5QQ d   1       3.352  11.675  28.597  0.00  0.00    -0.124 NA
ATOM      7  C12 5QQ d   1       2.283  11.212  29.272  0.00  0.00     0.230 A 
ATOM      8  N26 5QQ d   1       1.719  10.198  28.542  0.00  0.00    -0.174 N 
ATOM      9  N27 5QQ d   1       0.616   9.401  28.793  0.00  0.00    -0.161 NA
ATOM     10  H7  5QQ d   1       0.727   7.562  25.968  0.00  0.00     0.118 H 
ENDROOT
BRANCH   7  11
ATOM     11  C13 5QQ d   1       1.780  11.680  30.616  0.00  0.00     0.334 C 
ATOM     12  F14 5QQ d   1       2.717  12.455  31.164  0.00  0.00    -0.192 F 
ATOM     13  F15 5QQ d   1       1.546  10.617  31.396  0.00  0.00    -0.192 F 
BRANCH  11  14
ATOM     14  C16 5QQ d   1       0.524  12.505  30.486  0.00  0.00     0.022 A 
ATOM     15  C17 5QQ d   1       0.586  13.763  29.884  0.00  0.00    -0.068 A 
ATOM     16  C18 5QQ d   1      -0.559  14.547  29.767  0.00  0.00    -0.054 A 
ATOM     17  H1  5QQ d   1       1.532  14.132  29.505  0.00  0.00     0.084 H 
ATOM     18  C19 5QQ d   1      -1.794  14.050  30.277  0.00  0.00     0.066 A 
ATOM     19  H8  5QQ d   1      -0.512  15.522  29.295  0.00  0.00     0.087 H 
ATOM     20  C24 5QQ d   1      -1.859  12.806  30.862  0.00  0.00    -0.007 A 
ATOM     21  N20 5QQ d   1      -2.933  14.817  30.161  0.00  0.00    -0.260 NA
ATOM     22  C23 5QQ d   1      -3.109  12.311  31.361  0.00  0.00    -0.069 A 
ATOM     23  C25 5QQ d   1      -0.683  12.013  30.980  0.00  0.00    -0.059 A 
ATOM     24  C22 5QQ d   1      -4.235  13.124  31.233  0.00  0.00    -0.065 A 
ATOM     25  H9  5QQ d   1      -3.177  11.333  31.824  0.00  0.00     0.085 H 
ATOM     26  C21 5QQ d   1      -4.126  14.378  30.624  0.00  0.00     0.003 A 
ATOM     27  H3  5QQ d   1      -5.194  12.784  31.605  0.00  0.00     0.085 H 
ATOM     28  H2  5QQ d   1      -5.005  15.004  30.522  0.00  0.00     0.114 H 
ATOM     29  H10 5QQ d   1      -0.726  11.037  31.449  0.00  0.00     0.086 H 
ENDBRANCH  11  14
ENDBRANCH   7  11
BRANCH   1  30
ATOM     30  C05 5QQ d   1      -0.848   7.667  28.133  0.00  0.00    -0.004 A 
ATOM     31  C28 5QQ d   1      -1.661   7.954  29.217  0.00  0.00    -0.068 A 
ATOM     32  C29 5QQ d   1      -2.766   7.159  29.480  0.00  0.00    -0.045 A 
ATOM     33  H4  5QQ d   1      -1.434   8.798  29.858  0.00  0.00     0.085 H 
ATOM     34  C02 5QQ d   1      -3.051   6.074  28.665  0.00  0.00     0.116 A 
ATOM     35  H11 5QQ d   1      -3.408   7.386  30.324  0.00  0.00     0.088 H 
ATOM     36  F01 5QQ d   1      -4.120   5.300  28.922  0.00  0.00    -0.206 F 
ATOM     37  C03 5QQ d   1      -2.237   5.787  27.584  0.00  0.00    -0.045 A 
ATOM     38  C04 5QQ d   1      -1.137   6.589  27.315  0.00  0.00    -0.068 A 
ATOM     39  H5  5QQ d   1      -2.458   4.937  26.948  0.00  0.00     0.088 H 
ATOM     40  H6  5QQ d   1      -0.503   6.371  26.463  0.00  0.00     0.085 H 
ENDBRANCH   1  30
TORSDOF 3
