REMARK  30 active torsions:
REMARK  status: ('A' for Active; 'I' for Inactive)
REMARK    1  A    between atoms: N_1  and  CA_2 
REMARK    2  A    between atoms: CA_8  and  CB_11 
REMARK    3  A    between atoms: CB_11  and  CG_12 
REMARK    4  A    between atoms: CG_12  and  CD_13 
REMARK       I    between atoms: CD_13  and  NE2_15 
REMARK    5  A    between atoms: CA_17  and  CB_20 
REMARK    6  A    between atoms: CB_20  and  CG_21 
REMARK    7  A    between atoms: CG_21  and  CD1_22 
REMARK    8  A    between atoms: CG_21  and  CD2_23 
REMARK    9  A    between atoms: CA_25  and  CB_28 
REMARK   10  A    between atoms: CB_28  and  CG1_29 
REMARK   11  A    between atoms: CB_28  and  CG2_30 
REMARK   12  A    between atoms: CG1_29  and  CD1_31 
REMARK   13  A    between atoms: CA_33  and  CB_36 
REMARK   14  A    between atoms: CB_36  and  CG_37 
REMARK       I    between atoms: CG_37  and  ND2_39 
REMARK   15  A    between atoms: CA_41  and  CB_44 
REMARK   16  A    between atoms: CB_44  and  OG1_45 
REMARK   17  A    between atoms: CB_44  and  CG2_46 
REMARK   18  A    between atoms: CA_48  and  CB_51 
REMARK   19  A    between atoms: CB_51  and  CG_52 
REMARK       I    between atoms: CG_52  and  ND2_54 
REMARK   20  A    between atoms: CA_60  and  CB_63 
REMARK   21  A    between atoms: CB_63  and  OG_64 
REMARK   22  A    between atoms: CA_66  and  CB_69 
REMARK   23  A    between atoms: CB_69  and  CG_70 
REMARK   24  A    between atoms: CA_80  and  CB_83 
REMARK   25  A    between atoms: CB_83  and  CG_84 
REMARK   26  A    between atoms: CA_90  and  CB_93 
REMARK   27  A    between atoms: CB_93  and  CG1_94 
REMARK   28  A    between atoms: CB_93  and  CG2_95 
REMARK   29  A    between atoms: CG1_94  and  CD1_96 
REMARK   30  A    between atoms: CA_98  and  C_99 
ROOT
ATOM      1  CA  CYS d   1      74.073  62.167  54.750  0.00  0.00     0.184 C 
ATOM      2  C   CYS d   1      73.840  63.251  53.741  0.00  0.00     0.249 C 
ATOM      3  O   CYS d   1      74.626  64.189  53.652  0.00  0.00    -0.271 OA
ATOM      4  CB  CYS d   1      73.390  62.600  56.051  0.00  0.00     0.021 C 
ATOM      5  SG  CYS d   1      73.724  61.581  57.462  0.00  0.00    -0.095 SA
ATOM      6  N   CYS d   1      71.423  58.794  54.825  0.00  0.00    -0.344 N 
ATOM      7  CA  CYS d   1      72.775  58.759  55.380  0.00  0.00     0.105 C 
ATOM      8  CB  CYS d   1      72.713  58.793  56.915  0.00  0.00     0.015 C 
ATOM      9  SG  CYS d   1      72.112  60.366  57.599  0.00  0.00    -0.095 SA
ATOM     10  H4  CYS d   1      73.614  61.231  54.398  0.00  0.00     0.100 H 
ATOM     11  H5  CYS d   1      72.303  62.598  55.881  0.00  0.00     0.054 H 
ATOM     12  H6  CYS d   1      73.722  63.622  56.285  0.00  0.00     0.054 H 
ATOM     13  H92 CYS d   1      70.738  58.165  55.192  0.00  0.00     0.163 HD
ATOM     14  H93 CYS d   1      73.320  59.648  55.032  0.00  0.00     0.090 H 
ATOM     15  H94 CYS d   1      73.725  58.611  57.306  0.00  0.00     0.054 H 
ATOM     16  H95 CYS d   1      72.040  57.991  57.251  0.00  0.00     0.054 H 
ATOM     17  N   GLN d   1      72.751  63.131  52.979  0.00  0.00    -0.346 N 
ATOM     18  CA  GLN d   1      72.359  64.191  52.036  0.00  0.00     0.090 C 
ATOM     19  C   GLN d   1      70.852  64.255  51.686  0.00  0.00     0.241 C 
ATOM     20  O   GLN d   1      70.136  63.252  51.753  0.00  0.00    -0.271 OA
ATOM     21  H7  GLN d   1      72.191  62.306  53.050  0.00  0.00     0.163 HD
ATOM     22  H8  GLN d   1      72.574  65.138  52.553  0.00  0.00     0.087 H 
ATOM     23  N   LEU d   1      70.383  65.463  51.363  0.00  0.00    -0.346 N 
ATOM     24  CA  LEU d   1      68.984  65.704  50.994  0.00  0.00     0.089 C 
ATOM     25  C   LEU d   1      68.766  65.313  49.545  0.00  0.00     0.241 C 
ATOM     26  O   LEU d   1      69.426  65.853  48.654  0.00  0.00    -0.271 OA
ATOM     27  H15 LEU d   1      71.014  66.239  51.373  0.00  0.00     0.163 HD
ATOM     28  H16 LEU d   1      68.334  65.098  51.641  0.00  0.00     0.087 H 
ATOM     29  N   ILE d   1      67.828  64.400  49.299  0.00  0.00    -0.346 N 
ATOM     30  CA  ILE d   1      67.504  64.026  47.931  0.00  0.00     0.092 C 
ATOM     31  C   ILE d   1      66.064  64.423  47.593  0.00  0.00     0.241 C 
ATOM     32  O   ILE d   1      65.133  64.064  48.312  0.00  0.00    -0.271 OA
ATOM     33  N   ILE d   1      68.996  60.887  53.522  0.00  0.00    -0.346 N 
ATOM     34  CA  ILE d   1      69.613  59.566  53.427  0.00  0.00     0.092 C 
ATOM     35  C   ILE d   1      71.067  59.627  53.854  0.00  0.00     0.241 C 
ATOM     36  O   ILE d   1      71.846  60.389  53.294  0.00  0.00    -0.271 OA
ATOM     37  H26 ILE d   1      67.343  63.969  50.060  0.00  0.00     0.163 HD
ATOM     38  H27 ILE d   1      68.165  64.598  47.263  0.00  0.00     0.088 H 
ATOM     39  H81 ILE d   1      69.368  61.631  52.967  0.00  0.00     0.163 HD
ATOM     40  H82 ILE d   1      69.066  58.877  54.088  0.00  0.00     0.088 H 
ATOM     41  N   ASN d   1      65.899  65.204  46.523  0.00  0.00    -0.346 N 
ATOM     42  CA  ASN d   1      64.581  65.659  46.080  0.00  0.00     0.097 C 
ATOM     43  C   ASN d   1      64.006  64.695  45.040  0.00  0.00     0.241 C 
ATOM     44  O   ASN d   1      64.500  64.623  43.919  0.00  0.00    -0.271 OA
ATOM     45  N   ASN d   1      60.401  64.555  45.097  0.00  0.00    -0.345 N 
ATOM     46  CA  ASN d   1      59.630  65.816  44.952  0.00  0.00     0.097 C 
ATOM     47  C   ASN d   1      58.832  66.130  46.222  0.00  0.00     0.241 C 
ATOM     48  O   ASN d   1      58.465  67.261  46.462  0.00  0.00    -0.271 OA
ATOM     49  H37 ASN d   1      66.706  65.489  46.005  0.00  0.00     0.163 HD
ATOM     50  H38 ASN d   1      63.911  65.681  46.952  0.00  0.00     0.088 H 
ATOM     51  H50 ASN d   1      60.477  64.164  46.014  0.00  0.00     0.163 HD
ATOM     52  H51 ASN d   1      60.416  66.585  44.972  0.00  0.00     0.088 H 
ATOM     53  N   THR d   1      62.981  63.944  45.433  0.00  0.00    -0.344 N 
ATOM     54  CA  THR d   1      62.223  63.093  44.516  0.00  0.00     0.113 C 
ATOM     55  C   THR d   1      60.998  63.906  44.104  0.00  0.00     0.243 C 
ATOM     56  O   THR d   1      60.582  63.880  42.958  0.00  0.00    -0.271 OA
ATOM     57  H43 THR d   1      62.717  63.962  46.397  0.00  0.00     0.163 HD
ATOM     58  H44 THR d   1      62.831  62.907  43.618  0.00  0.00     0.091 H 
ATOM     59  N   GLY d   1      58.563  65.091  47.002  0.00  0.00    -0.351 N 
ATOM     60  CA  GLY d   1      58.667  65.376  48.418  0.00  0.00     0.069 C 
ATOM     61  C   GLY d   1      60.175  65.452  48.655  0.00  0.00     0.236 C 
ATOM     62  O   GLY d   1      60.906  65.977  47.815  0.00  0.00    -0.272 OA
ATOM     63  H56 GLY d   1      58.311  64.192  46.644  0.00  0.00     0.163 HD
ATOM     64  H57 GLY d   1      58.215  64.571  49.016  0.00  0.00     0.078 H 
ATOM     65  H58 GLY d   1      58.181  66.332  48.664  0.00  0.00     0.078 H 
ATOM     66  N   SER d   1      60.657  64.924  49.775  0.00  0.00    -0.344 N 
ATOM     67  CA  SER d   1      62.099  64.901  50.049  0.00  0.00     0.109 C 
ATOM     68  C   SER d   1      62.506  63.827  51.051  0.00  0.00     0.243 C 
ATOM     69  O   SER d   1      61.687  63.375  51.859  0.00  0.00    -0.271 OA
ATOM     70  H59 SER d   1      60.025  64.534  50.445  0.00  0.00     0.163 HD
ATOM     71  H60 SER d   1      62.614  64.689  49.100  0.00  0.00     0.090 H 
ATOM     72  N   TRP d   1      63.784  63.441  50.985  0.00  0.00    -0.346 N 
ATOM     73  CA  TRP d   1      64.342  62.368  51.806  0.00  0.00     0.093 C 
ATOM     74  C   TRP d   1      65.744  62.730  52.341  0.00  0.00     0.241 C 
ATOM     75  O   TRP d   1      66.579  63.281  51.620  0.00  0.00    -0.271 OA
ATOM     76  H64 TRP d   1      64.389  63.910  50.342  0.00  0.00     0.163 HD
ATOM     77  H65 TRP d   1      63.672  62.204  52.663  0.00  0.00     0.088 H 
ATOM     78  N   HIS d   1      65.998  62.395  53.605  0.00  0.00    -0.346 N 
ATOM     79  CA  HIS d   1      67.331  62.517  54.184  0.00  0.00     0.094 C 
ATOM     80  C   HIS d   1      67.956  61.141  54.319  0.00  0.00     0.241 C 
ATOM     81  O   HIS d   1      67.509  60.336  55.139  0.00  0.00    -0.271 OA
ATOM     82  H74 HIS d   1      65.252  62.049  54.174  0.00  0.00     0.163 HD
ATOM     83  H75 HIS d   1      67.953  63.131  53.516  0.00  0.00     0.088 H 
ENDROOT
BRANCH  73  84
ATOM     84  CB  TRP d   1      64.434  61.066  50.990  0.00  0.00    -0.012 C 
ATOM     85  H66 TRP d   1      64.773  60.267  51.666  0.00  0.00     0.044 H 
ATOM     86  H67 TRP d   1      65.181  61.217  50.197  0.00  0.00     0.044 H 
BRANCH  84  87
ATOM     87  CG  TRP d   1      63.143  60.605  50.333  0.00  0.00    -0.028 A 
ATOM     88  CD1 TRP d   1      62.568  61.119  49.208  0.00  0.00    -0.015 A 
ATOM     89  NE1 TRP d   1      61.417  60.438  48.913  0.00  0.00    -0.365 N 
ATOM     90  H68 TRP d   1      62.966  61.950  48.628  0.00  0.00     0.112 H 
ATOM     91  CE2 TRP d   1      61.231  59.449  49.844  0.00  0.00     0.042 A 
ATOM     92  H69 TRP d   1      60.792  60.637  48.119  0.00  0.00     0.165 HD
ATOM     93  CD2 TRP d   1      62.304  59.521  50.753  0.00  0.00    -0.002 A 
ATOM     94  CZ2 TRP d   1      60.217  58.500  49.958  0.00  0.00    -0.056 A 
ATOM     95  CE3 TRP d   1      62.354  58.610  51.812  0.00  0.00    -0.070 A 
ATOM     96  CZ3 TRP d   1      61.345  57.668  51.926  0.00  0.00    -0.082 A 
ATOM     97  H70 TRP d   1      63.166  58.640  52.529  0.00  0.00     0.084 H 
ATOM     98  CH2 TRP d   1      60.290  57.622  51.003  0.00  0.00    -0.081 A 
ATOM     99  H72 TRP d   1      61.371  56.955  52.742  0.00  0.00     0.083 H 
ATOM    100  H73 TRP d   1      59.515  56.873  51.121  0.00  0.00     0.083 H 
ATOM    101  H71 TRP d   1      59.401  58.460  49.245  0.00  0.00     0.086 H 
ENDBRANCH  84  87
ENDBRANCH  73  84
BRANCH  67 102
ATOM    102  CB  SER d   1      62.569  66.262  50.559  0.00  0.00     0.044 C 
ATOM    103  H61 SER d   1      62.218  67.046  49.872  0.00  0.00     0.077 H 
ATOM    104  H62 SER d   1      63.668  66.273  50.597  0.00  0.00     0.077 H 
BRANCH 102 105
ATOM    105  OG  SER d   1      62.057  66.514  51.851  0.00  0.00    -0.398 OA
ATOM    106  H63 SER d   1      62.360  67.363  52.150  0.00  0.00     0.209 HD
ENDBRANCH 102 105
ENDBRANCH  67 102
BRANCH  79 107
ATOM    107  CB  HIS d   1      67.271  63.186  55.553  0.00  0.00     0.004 C 
ATOM    108  H76 HIS d   1      68.275  63.150  56.002  0.00  0.00     0.046 H 
ATOM    109  H77 HIS d   1      66.567  62.624  56.184  0.00  0.00     0.046 H 
BRANCH 107 110
ATOM    110  CG  HIS d   1      66.827  64.611  55.503  0.00  0.00     0.053 A 
ATOM    111  ND1 HIS d   1      65.563  65.007  55.880  0.00  0.00    -0.247 NA
ATOM    112  CE1 HIS d   1      65.447  66.312  55.712  0.00  0.00     0.064 A 
ATOM    113  NE2 HIS d   1      66.590  66.776  55.239  0.00  0.00    -0.359 N 
ATOM    114  H79 HIS d   1      64.559  66.905  55.927  0.00  0.00     0.143 H 
ATOM    115  CD2 HIS d   1      67.469  65.732  55.097  0.00  0.00     0.002 A 
ATOM    116  H80 HIS d   1      66.789  67.761  55.014  0.00  0.00     0.166 HD
ATOM    117  H78 HIS d   1      68.491  65.793  54.727  0.00  0.00     0.114 H 
ENDBRANCH 107 110
ENDBRANCH  79 107
BRANCH  34 118
ATOM    118  CB  ILE d   1      69.580  59.017  51.987  0.00  0.00    -0.030 C 
ATOM    119  H83 ILE d   1      70.368  59.523  51.409  0.00  0.00     0.043 H 
BRANCH 118 120
ATOM    120  CG1 ILE d   1      68.234  59.312  51.311  0.00  0.00    -0.063 C 
ATOM    121  H84 ILE d   1      68.253  58.889  50.296  0.00  0.00     0.033 H 
ATOM    122  H85 ILE d   1      68.105  60.403  51.252  0.00  0.00     0.033 H 
BRANCH 120 123
ATOM    123  CD1 ILE d   1      67.044  58.724  52.057  0.00  0.00    -0.076 C 
ATOM    124  H89 ILE d   1      66.116  58.972  51.521  0.00  0.00     0.027 H 
ATOM    125  H90 ILE d   1      67.004  59.144  53.073  0.00  0.00     0.027 H 
ATOM    126  H91 ILE d   1      67.152  57.631  52.117  0.00  0.00     0.027 H 
ENDBRANCH 120 123
ENDBRANCH 118 120
BRANCH 118 127
ATOM    127  CG2 ILE d   1      69.878  57.512  51.988  0.00  0.00    -0.071 C 
ATOM    128  H86 ILE d   1      70.846  57.330  52.477  0.00  0.00     0.028 H 
ATOM    129  H87 ILE d   1      69.916  57.145  50.952  0.00  0.00     0.028 H 
ATOM    130  H88 ILE d   1      69.085  56.981  52.536  0.00  0.00     0.028 H 
ENDBRANCH 118 127
ENDBRANCH  34 118
BRANCH  46 131
ATOM    131  CB  ASN d   1      58.987  66.080  43.585  0.00  0.00     0.036 C 
ATOM    132  H52 ASN d   1      57.898  65.955  43.672  0.00  0.00     0.051 H 
ATOM    133  H53 ASN d   1      59.382  65.356  42.858  0.00  0.00     0.051 H 
BRANCH 131 134
ATOM    134  CG  ASN d   1      59.286  67.489  43.093  0.00  0.00     0.217 C 
ATOM    135  OD1 ASN d   1      60.240  68.099  43.546  0.00  0.00    -0.274 OA
ATOM    136  ND2 ASN d   1      58.486  68.002  42.167  0.00  0.00    -0.370 N 
ATOM    137  H54 ASN d   1      58.651  68.925  41.819  0.00  0.00     0.159 HD
ATOM    138  H55 ASN d   1      57.718  67.466  41.817  0.00  0.00     0.159 HD
ENDBRANCH 131 134
ENDBRANCH  46 131
BRANCH   7 139
ATOM    139  C   CYS d   1      73.519  57.516  54.899  0.00  0.00     0.197 C 
ATOM    140  O   CYS d   1      72.968  56.416  54.908  0.00  0.00    -0.646 OA
ATOM    141  OXT CYS d   1      74.679  57.599  54.497  0.00  0.00    -0.646 OA
ENDBRANCH   7 139
BRANCH  54 142
ATOM    142  CB  THR d   1      61.902  61.705  45.148  0.00  0.00     0.060 C 
ATOM    143  H45 THR d   1      61.173  61.188  44.507  0.00  0.00     0.086 H 
BRANCH 142 144
ATOM    144  OG1 THR d   1      61.344  61.855  46.465  0.00  0.00    -0.393 OA
ATOM    145  H46 THR d   1      60.541  62.359  46.412  0.00  0.00     0.210 HD
ENDBRANCH 142 144
BRANCH 142 146
ATOM    146  CG2 THR d   1      63.163  60.862  45.247  0.00  0.00    -0.050 C 
ATOM    147  H47 THR d   1      62.918  59.887  45.694  0.00  0.00     0.031 H 
ATOM    148  H48 THR d   1      63.902  61.380  45.877  0.00  0.00     0.031 H 
ATOM    149  H49 THR d   1      63.582  60.709  44.241  0.00  0.00     0.031 H 
ENDBRANCH 142 146
ENDBRANCH  54 142
BRANCH   1 150
ATOM    150  N   CYS d   1      75.539  61.941  54.926  0.00  0.00    -0.066 N 
ATOM    151  H1  CYS d   1      75.687  61.211  55.605  0.00  0.00     0.275 HD
ATOM    152  H2  CYS d   1      75.974  62.792  55.246  0.00  0.00     0.275 HD
ATOM    153  H3  CYS d   1      75.945  61.667  54.045  0.00  0.00     0.275 HD
ENDBRANCH   1 150
BRANCH  42 154
ATOM    154  CB  ASN d   1      64.646  67.075  45.474  0.00  0.00     0.036 C 
ATOM    155  H39 ASN d   1      63.671  67.305  45.019  0.00  0.00     0.051 H 
ATOM    156  H40 ASN d   1      65.425  67.087  44.698  0.00  0.00     0.051 H 
BRANCH 154 157
ATOM    157  CG  ASN d   1      64.968  68.155  46.499  0.00  0.00     0.217 C 
ATOM    158  OD1 ASN d   1      65.870  68.962  46.290  0.00  0.00    -0.274 OA
ATOM    159  ND2 ASN d   1      64.227  68.185  47.596  0.00  0.00    -0.370 N 
ATOM    160  H41 ASN d   1      64.400  68.876  48.298  0.00  0.00     0.159 HD
ATOM    161  H42 ASN d   1      63.494  67.517  47.723  0.00  0.00     0.159 HD
ENDBRANCH 154 157
ENDBRANCH  42 154
BRANCH  18 162
ATOM    162  CB  GLN d   1      73.260  64.176  50.782  0.00  0.00    -0.030 C 
ATOM    163  H9  GLN d   1      73.938  65.040  50.843  0.00  0.00     0.037 H 
ATOM    164  H10 GLN d   1      72.612  64.281  49.899  0.00  0.00     0.037 H 
BRANCH 162 165
ATOM    165  CG  GLN d   1      74.130  62.897  50.588  0.00  0.00     0.011 C 
ATOM    166  H11 GLN d   1      73.878  62.182  51.385  0.00  0.00     0.047 H 
ATOM    167  H12 GLN d   1      75.189  63.181  50.672  0.00  0.00     0.047 H 
BRANCH 165 168
ATOM    168  CD  GLN d   1      73.923  62.219  49.257  0.00  0.00     0.215 C 
ATOM    169  OE1 GLN d   1      73.250  62.746  48.378  0.00  0.00    -0.274 OA
ATOM    170  NE2 GLN d   1      74.521  61.047  49.092  0.00  0.00    -0.370 N 
ATOM    171  H13 GLN d   1      74.419  60.551  48.230  0.00  0.00     0.159 HD
ATOM    172  H14 GLN d   1      75.073  60.659  49.830  0.00  0.00     0.159 HD
ENDBRANCH 165 168
ENDBRANCH 162 165
ENDBRANCH  18 162
BRANCH  30 173
ATOM    173  CB  ILE d   1      67.797  62.524  47.687  0.00  0.00    -0.030 C 
ATOM    174  H28 ILE d   1      68.376  62.144  48.541  0.00  0.00     0.043 H 
BRANCH 173 175
ATOM    175  CG1 ILE d   1      68.631  62.362  46.424  0.00  0.00    -0.063 C 
ATOM    176  H29 ILE d   1      68.158  62.944  45.620  0.00  0.00     0.033 H 
ATOM    177  H30 ILE d   1      68.640  61.297  46.149  0.00  0.00     0.033 H 
BRANCH 175 178
ATOM    178  CD1 ILE d   1      70.073  62.831  46.570  0.00  0.00    -0.076 C 
ATOM    179  H34 ILE d   1      70.605  62.681  45.619  0.00  0.00     0.027 H 
ATOM    180  H35 ILE d   1      70.569  62.252  47.363  0.00  0.00     0.027 H 
ATOM    181  H36 ILE d   1      70.086  63.899  46.833  0.00  0.00     0.027 H 
ENDBRANCH 175 178
ENDBRANCH 173 175
BRANCH 173 182
ATOM    182  CG2 ILE d   1      66.541  61.713  47.578  0.00  0.00    -0.071 C 
ATOM    183  H31 ILE d   1      65.945  61.836  48.494  0.00  0.00     0.028 H 
ATOM    184  H32 ILE d   1      66.800  60.652  47.448  0.00  0.00     0.028 H 
ATOM    185  H33 ILE d   1      65.957  62.056  46.712  0.00  0.00     0.028 H 
ENDBRANCH 173 182
ENDBRANCH  30 173
BRANCH  24 186
ATOM    186  CB  LEU d   1      68.615  67.189  51.152  0.00  0.00    -0.035 C 
ATOM    187  H17 LEU d   1      69.303  67.769  50.520  0.00  0.00     0.037 H 
ATOM    188  H18 LEU d   1      68.772  67.458  52.207  0.00  0.00     0.037 H 
BRANCH 186 189
ATOM    189  CG  LEU d   1      67.177  67.605  50.776  0.00  0.00    -0.059 C 
ATOM    190  H19 LEU d   1      66.840  66.947  49.962  0.00  0.00     0.038 H 
BRANCH 189 191
ATOM    191  CD1 LEU d   1      66.247  67.419  51.955  0.00  0.00    -0.073 C 
ATOM    192  H20 LEU d   1      65.228  67.720  51.669  0.00  0.00     0.028 H 
ATOM    193  H21 LEU d   1      66.591  68.040  52.795  0.00  0.00     0.028 H 
ATOM    194  H22 LEU d   1      66.246  66.362  52.258  0.00  0.00     0.028 H 
ENDBRANCH 189 191
BRANCH 189 195
ATOM    195  CD2 LEU d   1      67.090  69.042  50.282  0.00  0.00    -0.073 C 
ATOM    196  H23 LEU d   1      67.766  69.177  49.425  0.00  0.00     0.028 H 
ATOM    197  H24 LEU d   1      67.383  69.727  51.092  0.00  0.00     0.028 H 
ATOM    198  H25 LEU d   1      66.058  69.261  49.972  0.00  0.00     0.028 H 
ENDBRANCH 189 195
ENDBRANCH 186 189
ENDBRANCH  24 186
TORSDOF 30
