REMARK WARNING: 32 MAX_TORS EXCEEDED!!!
REMARK  34 active torsions:
REMARK  status: ('A' for Active; 'I' for Inactive)
REMARK    1  A    between atoms: N_1  and  CA_2 
REMARK    2  A    between atoms: CA_2  and  C_3 
REMARK    3  A    between atoms: CA_2  and  CB_5 
REMARK       I    between atoms: C_3  and  N_11 
REMARK    4  A    between atoms: CB_5  and  CG_6 
REMARK    5  A    between atoms: N_11  and  CA_12 
REMARK    6  A    between atoms: CA_12  and  C_13 
REMARK    7  A    between atoms: CA_12  and  CB_15 
REMARK       I    between atoms: C_13  and  N_19 
REMARK    8  A    between atoms: CB_15  and  CG1_16 
REMARK    9  A    between atoms: CB_15  and  CG2_17 
REMARK   10  A    between atoms: CG1_16  and  CD1_18 
REMARK   11  A    between atoms: N_19  and  CA_20 
REMARK   12  A    between atoms: CA_20  and  C_21 
REMARK   13  A    between atoms: CA_20  and  CB_23 
REMARK       I    between atoms: C_21  and  N_31 
REMARK   14  A    between atoms: CB_23  and  CG_24 
REMARK   15  A    between atoms: CZ_29  and  OH_30 
REMARK   16  A    between atoms: CA_32  and  C_33 
REMARK       I    between atoms: C_33  and  N_38 
REMARK   17  A    between atoms: N_38  and  CA_39 
REMARK   18  A    between atoms: CA_39  and  C_40 
REMARK   19  A    between atoms: CA_39  and  CB_42 
REMARK       I    between atoms: C_40  and  N_46 
REMARK   20  A    between atoms: CB_42  and  CG_43 
REMARK   21  A    between atoms: N_46  and  CA_47 
REMARK   22  A    between atoms: CA_47  and  C_48 
REMARK   23  A    between atoms: CA_47  and  CB_50 
REMARK       I    between atoms: C_48  and  N_57 
REMARK   24  A    between atoms: CB_50  and  CG_51 
REMARK   25  A    between atoms: CA_58  and  C_59 
REMARK       I    between atoms: C_59  and  N_64 
REMARK   26  A    between atoms: N_64  and  CA_65 
REMARK   27  A    between atoms: CA_65  and  C_66 
REMARK   28  A    between atoms: CA_65  and  CB_68 
REMARK       I    between atoms: C_66  and  N_71 
REMARK   29  A    between atoms: CB_68  and  OG1_69 
REMARK   30  A    between atoms: CB_68  and  CG2_70 
REMARK   31  A    between atoms: N_71  and  CA_72 
REMARK   32  A    between atoms: CA_72  and  C_73 
REMARK   33  A    between atoms: CA_72  and  CB_75 
REMARK   34  A    between atoms: CB_75  and  CG_76 
ROOT
ATOM      1  C   PRO d   1       6.817 -29.118  -1.770  0.00  0.00     0.241 C 
ATOM      2  O   PRO d   1       7.852 -29.576  -1.245  0.00  0.00    -0.271 OA
ATOM      3  N   ASP d   1       5.845 -28.569  -1.055  0.00  0.00    -0.346 N 
ATOM      4  H37 ASP d   1       5.029 -28.217  -1.514  0.00  0.00     0.163 HD
ENDROOT
BRANCH   1   5
ATOM      5  CA  PRO d   1       6.609 -29.173  -3.305  0.00  0.00     0.091 C 
ATOM      6  N   PRO d   1       7.821 -29.607  -4.011  0.00  0.00    -0.337 N 
ATOM      7  C   TYR d   1       8.800 -28.697  -4.087  0.00  0.00     0.243 C 
ATOM      8  CD  PRO d   1       7.711 -30.971  -4.584  0.00  0.00    -0.001 C 
ATOM      9  O   TYR d   1       8.657 -27.550  -3.679  0.00  0.00    -0.271 OA
ATOM     10  CG  PRO d   1       6.346 -31.434  -4.157  0.00  0.00    -0.048 C 
ATOM     11  H35 PRO d   1       8.492 -31.630  -4.178  0.00  0.00     0.064 H 
ATOM     12  H36 PRO d   1       7.789 -30.942  -5.681  0.00  0.00     0.064 H 
ATOM     13  CB  PRO d   1       5.563 -30.223  -3.724  0.00  0.00    -0.036 C 
ATOM     14  H33 PRO d   1       5.838 -31.927  -4.999  0.00  0.00     0.035 H 
ATOM     15  H34 PRO d   1       6.436 -32.141  -3.319  0.00  0.00     0.035 H 
ATOM     16  H31 PRO d   1       4.952 -29.844  -4.557  0.00  0.00     0.036 H 
ATOM     17  H32 PRO d   1       4.910 -30.473  -2.875  0.00  0.00     0.036 H 
ATOM     18  H30 PRO d   1       6.303 -28.174  -3.651  0.00  0.00     0.087 H 
BRANCH   7  19
ATOM     19  CA  TYR d   1      10.093 -29.137  -4.749  0.00  0.00     0.093 C 
ATOM     20  H22 TYR d   1       9.825 -29.884  -5.511  0.00  0.00     0.088 H 
BRANCH  19  21
ATOM     21  N   TYR d   1      10.795 -28.057  -5.442  0.00  0.00    -0.346 N 
ATOM     22  C   ILE d   1      10.659 -27.878  -6.756  0.00  0.00     0.241 C 
ATOM     23  O   ILE d   1       9.972 -28.622  -7.460  0.00  0.00    -0.271 OA
ATOM     24  H21 TYR d   1      11.387 -27.442  -4.921  0.00  0.00     0.163 HD
BRANCH  22  25
ATOM     25  CA  ILE d   1      11.425 -26.711  -7.389  0.00  0.00     0.092 C 
ATOM     26  H11 ILE d   1      12.161 -26.323  -6.670  0.00  0.00     0.088 H 
BRANCH  25  27
ATOM     27  N   ILE d   1      12.121 -27.258  -8.545  0.00  0.00    -0.346 N 
ATOM     28  C   HIS d   1      13.440 -27.432  -8.583  0.00  0.00     0.249 C 
ATOM     29  O   HIS d   1      14.206 -26.897  -7.788  0.00  0.00    -0.271 OA
ATOM     30  H10 ILE d   1      11.583 -27.515  -9.348  0.00  0.00     0.163 HD
BRANCH  28  31
ATOM     31  CA  HIS d   1      13.969 -28.306  -9.698  0.00  0.00     0.181 C 
ATOM     32  H4  HIS d   1      13.213 -28.342 -10.496  0.00  0.00     0.099 H 
BRANCH  31  33
ATOM     33  N   HIS d   1      15.226 -27.750 -10.267  0.00  0.00    -0.066 N 
ATOM     34  H1  HIS d   1      15.555 -28.351 -11.006  0.00  0.00     0.275 HD
ATOM     35  H2  HIS d   1      15.926 -27.693  -9.544  0.00  0.00     0.275 HD
ATOM     36  H3  HIS d   1      15.049 -26.829 -10.637  0.00  0.00     0.275 HD
ENDBRANCH  31  33
BRANCH  31  37
ATOM     37  CB  HIS d   1      14.211 -29.733  -9.192  0.00  0.00     0.011 C 
ATOM     38  H5  HIS d   1      14.224 -29.711  -8.092  0.00  0.00     0.046 H 
ATOM     39  H6  HIS d   1      15.190 -30.069  -9.563  0.00  0.00     0.046 H 
BRANCH  37  40
ATOM     40  CG  HIS d   1      13.159 -30.742  -9.638  0.00  0.00     0.053 A 
ATOM     41  ND1 HIS d   1      13.484 -31.926 -10.201  0.00  0.00    -0.247 NA
ATOM     42  CE1 HIS d   1      12.357 -32.610 -10.492  0.00  0.00     0.064 A 
ATOM     43  NE2 HIS d   1      11.305 -31.860 -10.115  0.00  0.00    -0.359 N 
ATOM     44  H8  HIS d   1      12.308 -33.596 -10.951  0.00  0.00     0.143 H 
ATOM     45  CD2 HIS d   1      11.762 -30.703  -9.585  0.00  0.00     0.002 A 
ATOM     46  H9  HIS d   1      10.314 -32.124 -10.214  0.00  0.00     0.166 HD
ATOM     47  H7  HIS d   1      11.154 -29.890  -9.190  0.00  0.00     0.114 H 
ENDBRANCH  37  40
ENDBRANCH  31  37
ENDBRANCH  28  31
ENDBRANCH  25  27
BRANCH  25  48
ATOM     48  CB  ILE d   1      10.474 -25.557  -7.785  0.00  0.00    -0.030 C 
ATOM     49  H12 ILE d   1       9.919 -25.861  -8.685  0.00  0.00     0.043 H 
BRANCH  48  50
ATOM     50  CG1 ILE d   1      11.301 -24.310  -8.135  0.00  0.00    -0.063 C 
ATOM     51  H13 ILE d   1      12.009 -24.586  -8.930  0.00  0.00     0.033 H 
ATOM     52  H14 ILE d   1      11.859 -24.010  -7.235  0.00  0.00     0.033 H 
BRANCH  50  53
ATOM     53  CD1 ILE d   1      10.505 -23.107  -8.614  0.00  0.00    -0.076 C 
ATOM     54  H18 ILE d   1      11.192 -22.277  -8.835  0.00  0.00     0.027 H 
ATOM     55  H19 ILE d   1       9.798 -22.799  -7.829  0.00  0.00     0.027 H 
ATOM     56  H20 ILE d   1       9.949 -23.374  -9.524  0.00  0.00     0.027 H 
ENDBRANCH  50  53
ENDBRANCH  48  50
BRANCH  48  57
ATOM     57  CG2 ILE d   1       9.451 -25.279  -6.679  0.00  0.00    -0.071 C 
ATOM     58  H15 ILE d   1       8.885 -26.197  -6.464  0.00  0.00     0.028 H 
ATOM     59  H16 ILE d   1       8.759 -24.491  -7.010  0.00  0.00     0.028 H 
ATOM     60  H17 ILE d   1       9.975 -24.949  -5.770  0.00  0.00     0.028 H 
ENDBRANCH  48  57
ENDBRANCH  25  48
ENDBRANCH  22  25
ENDBRANCH  19  21
BRANCH  19  61
ATOM     61  CB  TYR d   1      10.999 -29.817  -3.744  0.00  0.00    -0.014 C 
ATOM     62  H23 TYR d   1      10.437 -30.612  -3.232  0.00  0.00     0.043 H 
ATOM     63  H24 TYR d   1      11.339 -29.075  -3.006  0.00  0.00     0.043 H 
BRANCH  61  64
ATOM     64  CG  TYR d   1      12.188 -30.416  -4.418  0.00  0.00    -0.056 A 
ATOM     65  CD1 TYR d   1      13.271 -29.613  -4.772  0.00  0.00    -0.074 A 
ATOM     66  CE1 TYR d   1      14.372 -30.140  -5.409  0.00  0.00    -0.051 A 
ATOM     67  H25 TYR d   1      13.246 -28.554  -4.542  0.00  0.00     0.084 H 
ATOM     68  CZ  TYR d   1      14.404 -31.483  -5.708  0.00  0.00     0.065 A 
ATOM     69  H27 TYR d   1      15.207 -29.502  -5.673  0.00  0.00     0.087 H 
ATOM     70  CE2 TYR d   1      13.335 -32.317  -5.384  0.00  0.00    -0.051 A 
ATOM     71  CD2 TYR d   1      12.228 -31.777  -4.741  0.00  0.00    -0.074 A 
ATOM     72  H28 TYR d   1      13.367 -33.372  -5.630  0.00  0.00     0.087 H 
ATOM     73  H26 TYR d   1      11.389 -32.415  -4.488  0.00  0.00     0.084 H 
BRANCH  68  74
ATOM     74  OH  TYR d   1      15.526 -31.953  -6.339  0.00  0.00    -0.361 OA
ATOM     75  H29 TYR d   1      16.136 -31.237  -6.472  0.00  0.00     0.217 HD
ENDBRANCH  68  74
ENDBRANCH  61  64
ENDBRANCH  19  61
ENDBRANCH   7  19
ENDBRANCH   1   5
BRANCH   3  76
ATOM     76  CA  ASP d   1       5.957 -28.476   0.387  0.00  0.00     0.098 C 
ATOM     77  H38 ASP d   1       6.922 -27.999   0.614  0.00  0.00     0.088 H 
BRANCH  76  78
ATOM     78  C   ASP d   1       5.922 -29.810   1.102  0.00  0.00     0.241 C 
ATOM     79  O   ASP d   1       5.917 -30.872   0.492  0.00  0.00    -0.271 OA
ATOM     80  N   PHE d   1       5.911 -29.741   2.419  0.00  0.00    -0.346 N 
ATOM     81  H41 PHE d   1       6.105 -28.867   2.864  0.00  0.00     0.163 HD
BRANCH  80  82
ATOM     82  CA  PHE d   1       5.627 -30.890   3.229  0.00  0.00     0.093 C 
ATOM     83  H42 PHE d   1       6.023 -31.792   2.740  0.00  0.00     0.088 H 
BRANCH  82  84
ATOM     84  C   PHE d   1       4.112 -31.023   3.382  0.00  0.00     0.243 C 
ATOM     85  O   PHE d   1       3.413 -30.017   3.500  0.00  0.00    -0.271 OA
ATOM     86  N   PRO d   1       3.600 -32.270   3.330  0.00  0.00    -0.337 N 
ATOM     87  CA  PRO d   1       2.192 -32.654   3.526  0.00  0.00     0.091 C 
ATOM     88  CD  PRO d   1       4.384 -33.365   2.719  0.00  0.00    -0.001 C 
ATOM     89  CB  PRO d   1       2.263 -34.172   3.635  0.00  0.00    -0.036 C 
ATOM     90  H50 PRO d   1       1.590 -32.337   2.662  0.00  0.00     0.087 H 
ATOM     91  CG  PRO d   1       3.507 -34.572   2.904  0.00  0.00    -0.048 C 
ATOM     92  H51 PRO d   1       1.379 -34.632   3.169  0.00  0.00     0.036 H 
ATOM     93  H52 PRO d   1       2.322 -34.479   4.690  0.00  0.00     0.036 H 
ATOM     94  H53 PRO d   1       3.239 -34.985   1.921  0.00  0.00     0.035 H 
ATOM     95  H54 PRO d   1       4.047 -35.333   3.487  0.00  0.00     0.035 H 
ATOM     96  H55 PRO d   1       5.346 -33.495   3.236  0.00  0.00     0.064 H 
ATOM     97  H56 PRO d   1       4.565 -33.171   1.651  0.00  0.00     0.064 H 
BRANCH  87  98
ATOM     98  C   PRO d   1       1.554 -32.133   4.796  0.00  0.00     0.241 C 
ATOM     99  O   PRO d   1       2.154 -32.190   5.870  0.00  0.00    -0.271 OA
ATOM    100  N   THR d   1       0.324 -31.656   4.649  0.00  0.00    -0.344 N 
ATOM    101  H57 THR d   1      -0.021 -31.539   3.718  0.00  0.00     0.163 HD
BRANCH 100 102
ATOM    102  CA  THR d   1      -0.568 -31.287   5.759  0.00  0.00     0.113 C 
ATOM    103  H58 THR d   1       0.029 -30.801   6.545  0.00  0.00     0.091 H 
BRANCH 102 104
ATOM    104  C   THR d   1      -1.272 -32.526   6.363  0.00  0.00     0.243 C 
ATOM    105  O   THR d   1      -1.767 -32.478   7.499  0.00  0.00    -0.271 OA
ATOM    106  N   ASP d   1      -1.306 -33.618   5.587  0.00  0.00    -0.344 N 
ATOM    107  H64 ASP d   1      -0.824 -33.574   4.712  0.00  0.00     0.163 HD
BRANCH 106 108
ATOM    108  CA  ASP d   1      -2.000 -34.889   5.919  0.00  0.00     0.105 C 
ATOM    109  H65 ASP d   1      -1.880 -35.541   5.041  0.00  0.00     0.090 H 
BRANCH 108 110
ATOM    110  C   ASP d   1      -3.515 -34.735   6.143  0.00  0.00     0.197 C 
ATOM    111  O   ASP d   1      -4.055 -33.623   6.179  0.00  0.00    -0.646 OA
ATOM    112  OXT ASP d   1      -4.251 -35.717   6.296  0.00  0.00    -0.646 OA
ENDBRANCH 108 110
BRANCH 108 113
ATOM    113  CB  ASP d   1      -1.342 -35.621   7.113  0.00  0.00     0.044 C 
ATOM    114  H66 ASP d   1      -2.030 -36.405   7.463  0.00  0.00     0.053 H 
ATOM    115  H67 ASP d   1      -1.177 -34.892   7.920  0.00  0.00     0.053 H 
BRANCH 113 116
ATOM    116  CG  ASP d   1       0.007 -36.276   6.764  0.00  0.00     0.175 C 
ATOM    117  OD1 ASP d   1       0.570 -36.938   7.656  0.00  0.00    -0.648 OA
ATOM    118  OD2 ASP d   1       0.516 -36.138   5.629  0.00  0.00    -0.648 OA
ENDBRANCH 113 116
ENDBRANCH 108 113
ENDBRANCH 106 108
ENDBRANCH 102 104
BRANCH 102 119
ATOM    119  CB  THR d   1      -1.635 -30.296   5.245  0.00  0.00     0.060 C 
ATOM    120  H59 THR d   1      -2.338 -30.846   4.601  0.00  0.00     0.086 H 
BRANCH 119 121
ATOM    121  OG1 THR d   1      -0.986 -29.286   4.466  0.00  0.00    -0.393 OA
ATOM    122  H60 THR d   1      -1.634 -28.670   4.144  0.00  0.00     0.210 HD
ENDBRANCH 119 121
BRANCH 119 123
ATOM    123  CG2 THR d   1      -2.439 -29.647   6.388  0.00  0.00    -0.050 C 
ATOM    124  H61 THR d   1      -3.181 -28.953   5.966  0.00  0.00     0.031 H 
ATOM    125  H62 THR d   1      -1.755 -29.095   7.050  0.00  0.00     0.031 H 
ATOM    126  H63 THR d   1      -2.954 -30.430   6.964  0.00  0.00     0.031 H 
ENDBRANCH 119 123
ENDBRANCH 102 119
ENDBRANCH 100 102
ENDBRANCH  87  98
ENDBRANCH  82  84
BRANCH  82 127
ATOM    127  CB  PHE d   1       6.291 -30.724   4.585  0.00  0.00    -0.014 C 
ATOM    128  H43 PHE d   1       5.728 -31.315   5.322  0.00  0.00     0.043 H 
ATOM    129  H44 PHE d   1       6.253 -29.660   4.862  0.00  0.00     0.043 H 
BRANCH 127 130
ATOM    130  CG  PHE d   1       7.717 -31.169   4.615  0.00  0.00    -0.056 A 
ATOM    131  CD1 PHE d   1       8.723 -30.281   4.929  0.00  0.00    -0.077 A 
ATOM    132  CE1 PHE d   1      10.050 -30.702   4.967  0.00  0.00    -0.082 A 
ATOM    133  H45 PHE d   1       8.480 -29.248   5.148  0.00  0.00     0.084 H 
ATOM    134  CZ  PHE d   1      10.373 -32.022   4.692  0.00  0.00    -0.083 A 
ATOM    135  H47 PHE d   1      10.834 -29.995   5.213  0.00  0.00     0.083 H 
ATOM    136  CE2 PHE d   1       9.371 -32.919   4.376  0.00  0.00    -0.082 A 
ATOM    137  H49 PHE d   1      11.406 -32.348   4.725  0.00  0.00     0.083 H 
ATOM    138  CD2 PHE d   1       8.054 -32.493   4.341  0.00  0.00    -0.077 A 
ATOM    139  H48 PHE d   1       9.615 -33.952   4.156  0.00  0.00     0.083 H 
ATOM    140  H46 PHE d   1       7.271 -33.202   4.096  0.00  0.00     0.084 H 
ENDBRANCH 127 130
ENDBRANCH  82 127
ENDBRANCH  80  82
ENDBRANCH  76  78
BRANCH  76 141
ATOM    141  CB  ASP d   1       4.844 -27.604   0.936  0.00  0.00     0.043 C 
ATOM    142  H39 ASP d   1       4.634 -27.910   1.971  0.00  0.00     0.052 H 
ATOM    143  H40 ASP d   1       3.944 -27.751   0.320  0.00  0.00     0.052 H 
BRANCH 141 144
ATOM    144  CG  ASP d   1       5.201 -26.140   0.928  0.00  0.00     0.175 C 
ATOM    145  OD1 ASP d   1       6.364 -25.783   0.607  0.00  0.00    -0.648 OA
ATOM    146  OD2 ASP d   1       4.303 -25.340   1.262  0.00  0.00    -0.648 OA
ENDBRANCH 141 144
ENDBRANCH  76 141
ENDBRANCH   3  76
TORSDOF 34
