REMARK  2 active torsions:
REMARK  status: ('A' for Active; 'I' for Inactive)
REMARK    1  A    between atoms: C18_14  and  C19_15 
REMARK    2  A    between atoms: C1_26  and  C9_27 
ROOT
ATOM      1  C15 5QO d   1     -15.757 -34.270   2.060  0.00  0.00     0.004 C 
ATOM      2  N5  5QO d   1     -15.480 -33.775   0.675  0.00  0.00    -0.356 N 
ATOM      3  C16 5QO d   1     -16.265 -34.186  -0.430  0.00  0.00     0.253 C 
ATOM      4  O1  5QO d   1     -16.007 -33.778  -1.561  0.00  0.00    -0.268 OA
ATOM      5  C12 5QO d   1     -17.299 -35.097  -0.214  0.00  0.00     0.057 A 
ATOM      6  C13 5QO d   1     -17.983 -35.943  -0.981  0.00  0.00    -0.039 A 
ATOM      7  C10 5QO d   1     -18.867 -36.597  -0.209  0.00  0.00     0.046 A 
ATOM      8  N4  5QO d   1     -18.741 -36.177   1.057  0.00  0.00    -0.358 N 
ATOM      9  C11 5QO d   1     -17.788 -35.259   1.069  0.00  0.00     0.031 A 
ATOM     10  C14 5QO d   1     -17.264 -34.474   2.277  0.00  0.00     0.005 C 
ATOM     11  C17 5QO d   1     -17.534 -35.205   3.606  0.00  0.00    -0.040 C 
ATOM     12  C21 5QO d   1     -18.830 -34.925   4.048  0.00  0.00    -0.104 C 
ATOM     13  C20 5QO d   1     -19.737 -35.898   4.470  0.00  0.00    -0.085 C 
ATOM     14  C18 5QO d   1     -19.411 -37.396   4.559  0.00  0.00     0.024 C 
ATOM     15  N3  5QO d   1     -20.572 -38.198   4.127  0.00  0.00    -0.366 N 
ATOM     16  C2  5QO d   1     -20.824 -38.542   2.857  0.00  0.00     0.149 A 
ATOM     17  N2  5QO d   1     -20.202 -37.921   1.839  0.00  0.00    -0.226 NA
ATOM     18  C3  5QO d   1     -20.451 -38.258   0.557  0.00  0.00     0.100 A 
ATOM     19  C5  5QO d   1     -19.802 -37.593  -0.490  0.00  0.00     0.022 A 
ATOM     20  C6  5QO d   1     -20.060 -37.968  -1.810  0.00  0.00    -0.068 A 
ATOM     21  C7  5QO d   1     -20.978 -38.980  -2.081  0.00  0.00    -0.080 A 
ATOM     22  C8  5QO d   1     -21.638 -39.631  -1.041  0.00  0.00    -0.053 A 
ATOM     23  C4  5QO d   1     -21.374 -39.271   0.280  0.00  0.00     0.087 A 
ATOM     24  N1  5QO d   1     -22.000 -39.896   1.293  0.00  0.00    -0.248 NA
ATOM     25  C1  5QO d   1     -21.749 -39.556   2.570  0.00  0.00     0.077 A 
ATOM     26  H1  5QO d   1     -15.385 -33.533   2.787  0.00  0.00     0.065 H 
ATOM     27  H2  5QO d   1     -15.238 -35.228   2.211  0.00  0.00     0.065 H 
ATOM     28  H3  5QO d   1     -14.723 -33.139   0.526  0.00  0.00     0.162 HD
ATOM     29  H4  5QO d   1     -17.849 -36.082  -2.053  0.00  0.00     0.088 H 
ATOM     30  H5  5QO d   1     -19.284 -36.507   1.868  0.00  0.00     0.166 HD
ATOM     31  H6  5QO d   1     -17.763 -33.494   2.314  0.00  0.00     0.052 H 
ATOM     32  H7  5QO d   1     -16.810 -34.867   4.362  0.00  0.00     0.040 H 
ATOM     33  H8  5QO d   1     -17.427 -36.289   3.454  0.00  0.00     0.040 H 
ATOM     34  H9  5QO d   1     -19.151 -33.885   4.064  0.00  0.00     0.076 H 
ATOM     35  H10 5QO d   1     -20.738 -35.575   4.754  0.00  0.00     0.079 H 
ATOM     36  H11 5QO d   1     -18.539 -37.629   3.931  0.00  0.00     0.078 H 
ATOM     37  H15 5QO d   1     -21.233 -38.515   4.851  0.00  0.00     0.161 HD
ATOM     38  H16 5QO d   1     -19.546 -37.471  -2.625  0.00  0.00     0.085 H 
ATOM     39  H17 5QO d   1     -21.180 -39.263  -3.108  0.00  0.00     0.083 H 
ATOM     40  H18 5QO d   1     -22.355 -40.415  -1.258  0.00  0.00     0.087 H 
ENDROOT
BRANCH  14  41
ATOM     41  C19 5QO d   1     -19.120 -37.730   6.022  0.00  0.00    -0.054 C 
ATOM     42  H12 5QO d   1     -18.883 -38.800   6.114  0.00  0.00     0.030 H 
ATOM     43  H13 5QO d   1     -20.004 -37.497   6.634  0.00  0.00     0.030 H 
ATOM     44  H14 5QO d   1     -18.264 -37.134   6.371  0.00  0.00     0.030 H 
ENDBRANCH  14  41
BRANCH  25  45
ATOM     45  C9  5QO d   1     -22.487 -40.291   3.691  0.00  0.00    -0.032 C 
ATOM     46  H19 5QO d   1     -23.161 -41.043   3.255  0.00  0.00     0.035 H 
ATOM     47  H20 5QO d   1     -23.073 -39.569   4.279  0.00  0.00     0.035 H 
ATOM     48  H21 5QO d   1     -21.757 -40.789   4.346  0.00  0.00     0.035 H 
ENDBRANCH  25  45
TORSDOF 2
