REMARK  10 active torsions:
REMARK  status: ('A' for Active; 'I' for Inactive)
REMARK    1  A    between atoms: O3B_8  and  PG_1 
REMARK    2  A    between atoms: PB_5  and  O3B_8 
REMARK    3  A    between atoms: O3A_12  and  PB_5 
REMARK    4  A    between atoms: PA_9  and  O3A_12 
REMARK    5  A    between atoms: PA_9  and  O5'_13 
REMARK    6  A    between atoms: O5'_13  and  C5'_14 
REMARK    7  A    between atoms: C5'_14  and  C4'_15 
REMARK    8  A    between atoms: C3'_17  and  O3'_18 
REMARK    9  A    between atoms: C2'_19  and  O2'_20 
REMARK   10  A    between atoms: C1'_21  and  N9_22 
ROOT
ATOM      1  C4' ATP d   1     366.465 239.171 190.702  0.00  0.00     0.089 C 
ATOM      2  O4' ATP d   1     367.370 240.185 190.298  0.00  0.00    -0.353 OA
ATOM      3  C3' ATP d   1     365.866 239.635 192.009  0.00  0.00     0.091 C 
ATOM      4  C2' ATP d   1     366.202 241.097 192.083  0.00  0.00     0.105 C 
ATOM      5  C1' ATP d   1     367.499 241.166 191.317  0.00  0.00     0.139 C 
ATOM      6  H3  ATP d   1     366.987 238.214 190.845  0.00  0.00     0.090 H 
ATOM      7  H4  ATP d   1     364.783 239.448 192.060  0.00  0.00     0.091 H 
ATOM      8  H6  ATP d   1     365.422 241.721 191.623  0.00  0.00     0.093 H 
ATOM      9  H8  ATP d   1     368.342 240.924 191.981  0.00  0.00     0.122 H 
ENDROOT
BRANCH   1  10
ATOM     10  C5' ATP d   1     365.416 239.024 189.618  0.00  0.00     0.058 C 
ATOM     11  H1  ATP d   1     364.686 238.254 189.909  0.00  0.00     0.079 H 
ATOM     12  H2  ATP d   1     364.898 239.983 189.470  0.00  0.00     0.079 H 
BRANCH  10  13
ATOM     13  O5' ATP d   1     366.068 238.639 188.416  0.00  0.00    -0.287 OA
BRANCH  13  14
ATOM     14  PA  ATP d   1     365.333 237.682 187.386  0.00  0.00     0.417 P 
ATOM     15  O1A ATP d   1     366.193 237.509 186.185  0.00  0.00    -0.624 OA
ATOM     16  O2A ATP d   1     363.932 238.160 187.234  0.00  0.00    -0.624 OA
BRANCH  14  17
ATOM     17  O3A ATP d   1     365.314 236.346 188.268  0.00  0.00    -0.180 OA
BRANCH  17  18
ATOM     18  PB  ATP d   1     364.294 235.131 188.059  0.00  0.00     0.428 P 
ATOM     19  O1B ATP d   1     364.797 234.284 186.926  0.00  0.00    -0.624 OA
ATOM     20  O2B ATP d   1     362.921 235.722 188.050  0.00  0.00    -0.624 OA
BRANCH  18  21
ATOM     21  O3B ATP d   1     364.428 234.253 189.383  0.00  0.00    -0.173 OA
BRANCH  21  22
ATOM     22  PG  ATP d   1     364.513 232.667 189.296  0.00  0.00     0.431 P 
ATOM     23  O1G ATP d   1     365.729 232.409 188.475  0.00  0.00    -0.616 OA
ATOM     24  O2G ATP d   1     364.617 232.214 190.708  0.00  0.00    -0.616 OA
ATOM     25  O3G ATP d   1     363.245 232.246 188.630  0.00  0.00    -0.616 OA
ENDBRANCH  21  22
ENDBRANCH  18  21
ENDBRANCH  17  18
ENDBRANCH  14  17
ENDBRANCH  13  14
ENDBRANCH  10  13
ENDBRANCH   1  10
BRANCH   3  26
ATOM     26  O3' ATP d   1     366.562 239.001 193.076  0.00  0.00    -0.390 OA
ATOM     27  H5  ATP d   1     366.195 239.285 193.905  0.00  0.00     0.210 HD
ENDBRANCH   3  26
BRANCH   5  28
ATOM     28  N9  ATP d   1     367.728 242.491 190.716  0.00  0.00    -0.294 N 
ATOM     29  C8  ATP d   1     366.926 243.096 189.837  0.00  0.00     0.071 A 
ATOM     30  N7  ATP d   1     367.430 244.294 189.469  0.00  0.00    -0.236 NA
ATOM     31  H9  ATP d   1     365.991 242.679 189.466  0.00  0.00     0.144 H 
ATOM     32  C5  ATP d   1     368.583 244.468 190.125  0.00  0.00     0.149 A 
ATOM     33  C6  ATP d   1     369.620 245.519 190.194  0.00  0.00     0.155 A 
ATOM     34  C4  ATP d   1     368.773 243.275 190.947  0.00  0.00     0.167 A 
ATOM     35  N6  ATP d   1     369.509 246.652 189.470  0.00  0.00    -0.382 N 
ATOM     36  N1  ATP d   1     370.671 245.312 191.001  0.00  0.00    -0.222 NA
ATOM     37  H10 ATP d   1     370.240 247.375 189.529  0.00  0.00     0.157 HD
ATOM     38  H11 ATP d   1     368.693 246.794 188.858  0.00  0.00     0.157 HD
ATOM     39  C2  ATP d   1     370.777 244.188 191.723  0.00  0.00     0.091 A 
ATOM     40  N3  ATP d   1     369.878 243.195 191.712  0.00  0.00    -0.222 NA
ATOM     41  H12 ATP d   1     371.648 244.075 192.358  0.00  0.00     0.146 H 
ENDBRANCH   5  28
BRANCH   4  42
ATOM     42  O2' ATP d   1     366.405 241.478 193.432  0.00  0.00    -0.388 OA
ATOM     43  H7  ATP d   1     367.121 240.973 193.798  0.00  0.00     0.210 HD
ENDBRANCH   4  42
TORSDOF 10
