REMARK WARNING: 32 MAX_TORS EXCEEDED!!!
REMARK  72 active torsions:
REMARK  status: ('A' for Active; 'I' for Inactive)
REMARK    1  A    between atoms: N_1  and  CA_2 
REMARK    2  A    between atoms: CA_2  and  C_3 
REMARK    3  A    between atoms: CA_2  and  CB_5 
REMARK       I    between atoms: C_3  and  N_7 
REMARK    4  A    between atoms: CB_5  and  OG_6 
REMARK    5  A    between atoms: CA_8  and  C_9 
REMARK       I    between atoms: C_9  and  N_14 
REMARK    6  A    between atoms: N_14  and  CA_15 
REMARK    7  A    between atoms: CA_15  and  C_16 
REMARK    8  A    between atoms: CA_15  and  CB_18 
REMARK       I    between atoms: C_16  and  N_23 
REMARK    9  A    between atoms: CB_18  and  CG_19 
REMARK   10  A    between atoms: CG_19  and  CD_20 
REMARK   11  A    between atoms: N_23  and  CA_24 
REMARK   12  A    between atoms: CA_24  and  C_25 
REMARK   13  A    between atoms: CA_24  and  CB_27 
REMARK       I    between atoms: C_25  and  N_32 
REMARK   14  A    between atoms: CB_27  and  CG_28 
REMARK   15  A    between atoms: CG_28  and  CD_29 
REMARK   16  A    between atoms: N_32  and  CA_33 
REMARK   17  A    between atoms: CA_33  and  C_34 
REMARK   18  A    between atoms: CA_33  and  CB_36 
REMARK       I    between atoms: C_34  and  N_40 
REMARK   19  A    between atoms: CB_36  and  CG_37 
REMARK   20  A    between atoms: CG_37  and  SD_38 
REMARK   21  A    between atoms: SD_38  and  CE_39 
REMARK   22  A    between atoms: N_40  and  CA_41 
REMARK   23  A    between atoms: CA_41  and  C_42 
REMARK   24  A    between atoms: CA_41  and  CB_44 
REMARK       I    between atoms: C_42  and  N_51 
REMARK   25  A    between atoms: CB_44  and  CG_45 
REMARK   26  A    between atoms: CG_45  and  CD_46 
REMARK   27  A    between atoms: CD_46  and  NE_47 
REMARK       I    between atoms: NE_47  and  CZ_48 
REMARK       I    between atoms: CZ_48  and  NH1_49 
REMARK       I    between atoms: CZ_48  and  NH2_50 
REMARK   28  A    between atoms: N_51  and  CA_52 
REMARK   29  A    between atoms: CA_52  and  C_53 
REMARK   30  A    between atoms: CA_52  and  CB_55 
REMARK       I    between atoms: C_53  and  N_62 
REMARK   31  A    between atoms: CB_55  and  CG_56 
REMARK   32  A    between atoms: CG_56  and  CD_57 
REMARK   33  A    between atoms: CD_57  and  NE_58 
REMARK       I    between atoms: NE_58  and  CZ_59 
REMARK       I    between atoms: CZ_59  and  NH1_60 
REMARK       I    between atoms: CZ_59  and  NH2_61 
REMARK   34  A    between atoms: N_62  and  CA_63 
REMARK   35  A    between atoms: CA_63  and  C_64 
REMARK   36  A    between atoms: CA_63  and  CB_66 
REMARK       I    between atoms: C_64  and  N_71 
REMARK   37  A    between atoms: CB_66  and  CG_67 
REMARK   38  A    between atoms: CG_67  and  CD_68 
REMARK       I    between atoms: CD_68  and  NE2_70 
REMARK   39  A    between atoms: N_71  and  CA_72 
REMARK   40  A    between atoms: CA_72  and  C_73 
REMARK   41  A    between atoms: CA_72  and  CB_75 
REMARK       I    between atoms: C_73  and  N_82 
REMARK   42  A    between atoms: CB_75  and  CG_76 
REMARK   43  A    between atoms: CG_76  and  CD_77 
REMARK   44  A    between atoms: CD_77  and  NE_78 
REMARK       I    between atoms: NE_78  and  CZ_79 
REMARK       I    between atoms: CZ_79  and  NH1_80 
REMARK       I    between atoms: CZ_79  and  NH2_81 
REMARK   45  A    between atoms: N_82  and  CA_83 
REMARK   46  A    between atoms: CA_83  and  C_84 
REMARK   47  A    between atoms: CA_83  and  CB_86 
REMARK       I    between atoms: C_84  and  N_90 
REMARK   48  A    between atoms: CB_86  and  CG_87 
REMARK   49  A    between atoms: CG_87  and  CD1_88 
REMARK   50  A    between atoms: CG_87  and  CD2_89 
REMARK   51  A    between atoms: N_90  and  CA_91 
REMARK   52  A    between atoms: CA_91  and  C_92 
REMARK   53  A    between atoms: CA_91  and  CB_94 
REMARK       I    between atoms: C_92  and  N_100 
REMARK   54  A    between atoms: CB_94  and  CG_95 
REMARK   55  A    between atoms: N_100  and  CA_101 
REMARK   56  A    between atoms: CA_101  and  C_102 
REMARK   57  A    between atoms: CA_101  and  CB_104 
REMARK       I    between atoms: C_102  and  N_111 
REMARK   58  A    between atoms: CB_104  and  CG_105 
REMARK   59  A    between atoms: CG_105  and  CD_106 
REMARK   60  A    between atoms: CD_106  and  NE_107 
REMARK       I    between atoms: NE_107  and  CZ_108 
REMARK       I    between atoms: CZ_108  and  NH1_109 
REMARK       I    between atoms: CZ_108  and  NH2_110 
REMARK   61  A    between atoms: N_111  and  CA_112 
REMARK   62  A    between atoms: CA_112  and  C_113 
REMARK   63  A    between atoms: CA_112  and  CB_115 
REMARK       I    between atoms: C_113  and  N_122 
REMARK   64  A    between atoms: CB_115  and  CG_116 
REMARK   65  A    between atoms: N_122  and  CA_123 
REMARK   66  A    between atoms: CA_123  and  C_124 
REMARK   67  A    between atoms: CA_123  and  CB_126 
REMARK       I    between atoms: C_124  and  N_130 
REMARK   68  A    between atoms: CB_126  and  CG_127 
REMARK   69  A    between atoms: N_130  and  CA_131 
REMARK   70  A    between atoms: CA_131  and  C_132 
REMARK   71  A    between atoms: CA_131  and  CB_134 
REMARK   72  A    between atoms: CB_134  and  OG_135 
ROOT
ATOM      1  CA  GLN d   1      45.332 -23.732 -11.798  0.00  0.00     0.090 C 
ATOM      2  H63 GLN d   1      46.422 -23.662 -11.927  0.00  0.00     0.087 H 
ENDROOT
BRANCH   1   3
ATOM      3  N   GLN d   1      44.878 -24.966 -12.436  0.00  0.00    -0.346 N 
ATOM      4  C   ARG d   1      45.507 -26.102 -12.140  0.00  0.00     0.241 C 
ATOM      5  O   ARG d   1      46.436 -26.135 -11.321  0.00  0.00    -0.271 OA
ATOM      6  H62 GLN d   1      44.113 -24.958 -13.080  0.00  0.00     0.163 HD
BRANCH   4   7
ATOM      7  CA  ARG d   1      45.058 -27.365 -12.870  0.00  0.00     0.089 C 
ATOM      8  H50 ARG d   1      45.468 -28.234 -12.335  0.00  0.00     0.087 H 
BRANCH   7   9
ATOM      9  N   ARG d   1      43.600 -27.486 -12.885  0.00  0.00    -0.346 N 
ATOM     10  C   ARG d   1      42.923 -27.516 -11.735  0.00  0.00     0.241 C 
ATOM     11  O   ARG d   1      43.499 -27.523 -10.639  0.00  0.00    -0.271 OA
ATOM     12  H49 ARG d   1      43.111 -27.546 -13.755  0.00  0.00     0.163 HD
BRANCH  10  13
ATOM     13  CA  ARG d   1      41.398 -27.567 -11.808  0.00  0.00     0.089 C 
ATOM     14  H37 ARG d   1      41.001 -27.254 -10.831  0.00  0.00     0.087 H 
BRANCH  13  15
ATOM     15  N   ARG d   1      40.884 -26.648 -12.820  0.00  0.00    -0.346 N 
ATOM     16  C   MET d   1      41.080 -25.336 -12.686  0.00  0.00     0.241 C 
ATOM     17  O   MET d   1      41.688 -24.858 -11.721  0.00  0.00    -0.271 OA
ATOM     18  H36 ARG d   1      40.386 -27.002 -13.612  0.00  0.00     0.163 HD
BRANCH  16  19
ATOM     19  CA  MET d   1      40.537 -24.431 -13.785  0.00  0.00     0.090 C 
ATOM     20  H28 MET d   1      41.040 -23.456 -13.709  0.00  0.00     0.087 H 
BRANCH  19  21
ATOM     21  N   MET d   1      40.816 -24.986 -15.104  0.00  0.00    -0.346 N 
ATOM     22  C   GLU d   1      42.089 -25.127 -15.493  0.00  0.00     0.241 C 
ATOM     23  O   GLU d   1      43.029 -24.741 -14.795  0.00  0.00    -0.271 OA
ATOM     24  H27 MET d   1      40.068 -25.257 -15.709  0.00  0.00     0.163 HD
BRANCH  22  25
ATOM     25  CA  GLU d   1      42.360 -25.819 -16.824  0.00  0.00     0.090 C 
ATOM     26  H22 GLU d   1      43.355 -26.284 -16.766  0.00  0.00     0.087 H 
BRANCH  25  27
ATOM     27  N   GLU d   1      41.385 -26.874 -17.061  0.00  0.00    -0.346 N 
ATOM     28  C   GLU d   1      41.389 -27.926 -16.239  0.00  0.00     0.241 C 
ATOM     29  O   GLU d   1      42.252 -28.071 -15.370  0.00  0.00    -0.271 OA
ATOM     30  H21 GLU d   1      40.732 -26.812 -17.816  0.00  0.00     0.163 HD
BRANCH  28  31
ATOM     31  CA  GLU d   1      40.261 -28.937 -16.343  0.00  0.00     0.090 C 
ATOM     32  H16 GLU d   1      40.075 -29.315 -15.327  0.00  0.00     0.087 H 
BRANCH  31  33
ATOM     33  N   GLU d   1      39.031 -28.321 -16.813  0.00  0.00    -0.346 N 
ATOM     34  C   PRO d   1      38.300 -27.699 -15.885  0.00  0.00     0.241 C 
ATOM     35  O   PRO d   1      38.706 -27.562 -14.725  0.00  0.00    -0.271 OA
ATOM     36  H15 GLU d   1      38.750 -28.361 -17.772  0.00  0.00     0.163 HD
BRANCH  34  37
ATOM     37  CA  PRO d   1      36.940 -27.157 -16.273  0.00  0.00     0.091 C 
ATOM     38  N   PRO d   1      36.875 -26.780 -17.690  0.00  0.00    -0.337 N 
ATOM     39  C   SER d   1      37.756 -25.891 -18.153  0.00  0.00     0.253 C 
ATOM     40  CD  PRO d   1      35.786 -27.479 -18.386  0.00  0.00    -0.001 C 
ATOM     41  O   SER d   1      38.486 -25.234 -17.404  0.00  0.00    -0.271 OA
ATOM     42  CG  PRO d   1      35.551 -28.670 -17.502  0.00  0.00    -0.048 C 
ATOM     43  H13 PRO d   1      36.093 -27.788 -19.396  0.00  0.00     0.064 H 
ATOM     44  H14 PRO d   1      34.887 -26.849 -18.452  0.00  0.00     0.064 H 
ATOM     45  CB  PRO d   1      35.844 -28.224 -16.128  0.00  0.00    -0.036 C 
ATOM     46  H11 PRO d   1      34.506 -29.003 -17.580  0.00  0.00     0.035 H 
ATOM     47  H12 PRO d   1      36.221 -29.495 -17.787  0.00  0.00     0.035 H 
ATOM     48  H9  PRO d   1      34.945 -27.793 -15.663  0.00  0.00     0.036 H 
ATOM     49  H10 PRO d   1      36.204 -29.066 -15.518  0.00  0.00     0.036 H 
ATOM     50  H8  PRO d   1      36.713 -26.288 -15.638  0.00  0.00     0.087 H 
BRANCH  39  51
ATOM     51  CA  SER d   1      37.850 -25.717 -19.666  0.00  0.00     0.196 C 
ATOM     52  H4  SER d   1      36.864 -25.932 -20.104  0.00  0.00     0.102 H 
BRANCH  51  53
ATOM     53  N   SER d   1      38.222 -24.350 -20.019  0.00  0.00    -0.064 N 
ATOM     54  H1  SER d   1      38.276 -24.265 -21.022  0.00  0.00     0.275 HD
ATOM     55  H2  SER d   1      39.119 -24.131 -19.614  0.00  0.00     0.275 HD
ATOM     56  H3  SER d   1      37.528 -23.711 -19.665  0.00  0.00     0.275 HD
ENDBRANCH  51  53
BRANCH  51  57
ATOM     57  CB  SER d   1      38.870 -26.712 -20.236  0.00  0.00     0.051 C 
ATOM     58  H5  SER d   1      38.850 -26.655 -21.334  0.00  0.00     0.077 H 
ATOM     59  H6  SER d   1      38.596 -27.728 -19.916  0.00  0.00     0.077 H 
BRANCH  57  60
ATOM     60  OG  SER d   1      40.186 -26.422 -19.781  0.00  0.00    -0.398 OA
ATOM     61  H7  SER d   1      40.793 -27.053 -20.149  0.00  0.00     0.209 HD
ENDBRANCH  57  60
ENDBRANCH  51  57
ENDBRANCH  39  51
ENDBRANCH  34  37
ENDBRANCH  31  33
BRANCH  31  62
ATOM     62  CB  GLU d   1      40.615 -30.136 -17.213  0.00  0.00    -0.029 C 
ATOM     63  H17 GLU d   1      41.636 -30.469 -16.974  0.00  0.00     0.037 H 
ATOM     64  H18 GLU d   1      40.563 -29.844 -18.272  0.00  0.00     0.037 H 
BRANCH  62  65
ATOM     65  CG  GLU d   1      39.631 -31.290 -16.955  0.00  0.00     0.018 C 
ATOM     66  H19 GLU d   1      40.049 -32.212 -17.387  0.00  0.00     0.049 H 
ATOM     67  H20 GLU d   1      38.676 -31.055 -17.447  0.00  0.00     0.049 H 
BRANCH  65  68
ATOM     68  CD  GLU d   1      39.365 -31.526 -15.438  0.00  0.00     0.172 C 
ATOM     69  OE1 GLU d   1      38.201 -31.368 -14.991  0.00  0.00    -0.648 OA
ATOM     70  OE2 GLU d   1      40.315 -31.876 -14.690  0.00  0.00    -0.648 OA
ENDBRANCH  65  68
ENDBRANCH  62  65
ENDBRANCH  31  62
ENDBRANCH  28  31
ENDBRANCH  25  27
BRANCH  25  71
ATOM     71  CB  GLU d   1      42.379 -24.817 -17.984  0.00  0.00    -0.029 C 
ATOM     72  H23 GLU d   1      41.904 -25.291 -18.855  0.00  0.00     0.037 H 
ATOM     73  H24 GLU d   1      43.428 -24.584 -18.220  0.00  0.00     0.037 H 
BRANCH  71  74
ATOM     74  CG  GLU d   1      41.663 -23.525 -17.703  0.00  0.00     0.018 C 
ATOM     75  H25 GLU d   1      42.165 -23.025 -16.862  0.00  0.00     0.049 H 
ATOM     76  H26 GLU d   1      40.624 -23.756 -17.425  0.00  0.00     0.049 H 
BRANCH  74  77
ATOM     77  CD  GLU d   1      41.643 -22.568 -18.890  0.00  0.00     0.172 C 
ATOM     78  OE1 GLU d   1      40.608 -21.876 -19.050  0.00  0.00    -0.648 OA
ATOM     79  OE2 GLU d   1      42.651 -22.501 -19.638  0.00  0.00    -0.648 OA
ENDBRANCH  74  77
ENDBRANCH  71  74
ENDBRANCH  25  71
ENDBRANCH  22  25
ENDBRANCH  19  21
BRANCH  19  80
ATOM     80  CB  MET d   1      39.040 -24.214 -13.598  0.00  0.00    -0.030 C 
ATOM     81  H29 MET d   1      38.502 -25.088 -13.995  0.00  0.00     0.037 H 
ATOM     82  H30 MET d   1      38.739 -23.314 -14.155  0.00  0.00     0.037 H 
BRANCH  80  83
ATOM     83  CG  MET d   1      38.668 -24.032 -12.133  0.00  0.00    -0.021 C 
ATOM     84  H31 MET d   1      39.350 -23.298 -11.679  0.00  0.00     0.049 H 
ATOM     85  H32 MET d   1      38.771 -24.997 -11.615  0.00  0.00     0.049 H 
BRANCH  83  86
ATOM     86  SD  MET d   1      36.983 -23.451 -11.955  0.00  0.00    -0.173 SA
BRANCH  86  87
ATOM     87  CE  MET d   1      36.064 -24.923 -12.353  0.00  0.00    -0.035 C 
ATOM     88  H33 MET d   1      34.987 -24.712 -12.284  0.00  0.00     0.041 H 
ATOM     89  H34 MET d   1      36.328 -25.723 -11.645  0.00  0.00     0.041 H 
ATOM     90  H35 MET d   1      36.310 -25.243 -13.376  0.00  0.00     0.041 H 
ENDBRANCH  86  87
ENDBRANCH  83  86
ENDBRANCH  80  83
ENDBRANCH  19  80
ENDBRANCH  16  19
ENDBRANCH  13  15
BRANCH  13  91
ATOM     91  CB  ARG d   1      40.914 -28.997 -12.084  0.00  0.00    -0.036 C 
ATOM     92  H38 ARG d   1      41.446 -29.382 -12.967  0.00  0.00     0.036 H 
ATOM     93  H39 ARG d   1      39.834 -28.967 -12.290  0.00  0.00     0.036 H 
BRANCH  91  94
ATOM     94  CG  ARG d   1      41.161 -29.961 -10.904  0.00  0.00    -0.048 C 
ATOM     95  H40 ARG d   1      40.560 -29.627 -10.046  0.00  0.00     0.035 H 
ATOM     96  H41 ARG d   1      42.228 -29.927 -10.640  0.00  0.00     0.035 H 
BRANCH  94  97
ATOM     97  CD  ARG d   1      40.784 -31.412 -11.231  0.00  0.00     0.009 C 
ATOM     98  H42 ARG d   1      40.791 -32.001 -10.302  0.00  0.00     0.064 H 
ATOM     99  H43 ARG d   1      41.524 -31.824 -11.933  0.00  0.00     0.064 H 
BRANCH  97 100
ATOM    100  NE  ARG d   1      39.456 -31.497 -11.837  0.00  0.00    -0.227 N 
ATOM    101  CZ  ARG d   1      38.322 -31.404 -11.154  0.00  0.00     0.665 C 
ATOM    102  NH1 ARG d   1      38.352 -31.249  -9.821  0.00  0.00    -0.235 N 
ATOM    103  NH2 ARG d   1      37.159 -31.482 -11.798  0.00  0.00    -0.235 N 
ATOM    104  H45 ARG d   1      37.472 -31.177  -9.291  0.00  0.00     0.174 HD
ATOM    105  H46 ARG d   1      39.255 -31.202  -9.328  0.00  0.00     0.174 HD
ATOM    106  H47 ARG d   1      37.144 -31.601 -12.821  0.00  0.00     0.174 HD
ATOM    107  H48 ARG d   1      36.275 -31.423 -11.273  0.00  0.00     0.174 HD
ATOM    108  H44 ARG d   1      39.397 -31.638 -12.856  0.00  0.00     0.177 HD
ENDBRANCH  97 100
ENDBRANCH  94  97
ENDBRANCH  91  94
ENDBRANCH  13  91
ENDBRANCH  10  13
ENDBRANCH   7   9
BRANCH   7 109
ATOM    109  CB  ARG d   1      45.609 -27.374 -14.304  0.00  0.00    -0.036 C 
ATOM    110  H51 ARG d   1      46.675 -27.106 -14.269  0.00  0.00     0.036 H 
ATOM    111  H52 ARG d   1      45.062 -26.623 -14.892  0.00  0.00     0.036 H 
BRANCH 109 112
ATOM    112  CG  ARG d   1      45.472 -28.733 -15.004  0.00  0.00    -0.048 C 
ATOM    113  H53 ARG d   1      44.414 -28.902 -15.255  0.00  0.00     0.035 H 
ATOM    114  H54 ARG d   1      45.819 -29.524 -14.323  0.00  0.00     0.035 H 
BRANCH 112 115
ATOM    115  CD  ARG d   1      46.298 -28.780 -16.280  0.00  0.00     0.009 C 
ATOM    116  H55 ARG d   1      46.310 -29.815 -16.651  0.00  0.00     0.064 H 
ATOM    117  H56 ARG d   1      47.325 -28.463 -16.044  0.00  0.00     0.064 H 
BRANCH 115 118
ATOM    118  NE  ARG d   1      45.774 -27.914 -17.335  0.00  0.00    -0.227 N 
ATOM    119  CZ  ARG d   1      44.840 -28.293 -18.203  0.00  0.00     0.665 C 
ATOM    120  NH1 ARG d   1      44.431 -27.457 -19.154  0.00  0.00    -0.235 N 
ATOM    121  NH2 ARG d   1      44.313 -29.514 -18.127  0.00  0.00    -0.235 N 
ATOM    122  H58 ARG d   1      43.708 -27.754 -19.824  0.00  0.00     0.174 HD
ATOM    123  H59 ARG d   1      44.838 -26.513 -19.220  0.00  0.00     0.174 HD
ATOM    124  H60 ARG d   1      44.626 -30.165 -17.393  0.00  0.00     0.174 HD
ATOM    125  H61 ARG d   1      43.593 -29.807 -18.802  0.00  0.00     0.174 HD
ATOM    126  H57 ARG d   1      46.149 -26.958 -17.410  0.00  0.00     0.177 HD
ENDBRANCH 115 118
ENDBRANCH 112 115
ENDBRANCH 109 112
ENDBRANCH   7 109
ENDBRANCH   4   7
ENDBRANCH   1   3
BRANCH   1 127
ATOM    127  C   GLN d   1      45.035 -23.739 -10.304  0.00  0.00     0.241 C 
ATOM    128  O   GLN d   1      45.862 -23.287  -9.498  0.00  0.00    -0.271 OA
ATOM    129  N   ARG d   1      43.861 -24.232  -9.915  0.00  0.00    -0.346 N 
ATOM    130  H70 ARG d   1      43.205 -24.563 -10.593  0.00  0.00     0.163 HD
BRANCH 129 131
ATOM    131  CA  ARG d   1      43.538 -24.286  -8.489  0.00  0.00     0.089 C 
ATOM    132  H71 ARG d   1      43.598 -23.264  -8.088  0.00  0.00     0.087 H 
BRANCH 131 133
ATOM    133  C   ARG d   1      44.535 -25.154  -7.729  0.00  0.00     0.241 C 
ATOM    134  O   ARG d   1      45.016 -24.770  -6.655  0.00  0.00    -0.271 OA
ATOM    135  N   LEU d   1      44.859 -26.333  -8.260  0.00  0.00    -0.346 N 
ATOM    136  H83 LEU d   1      44.479 -26.619  -9.140  0.00  0.00     0.163 HD
BRANCH 135 137
ATOM    137  CA  LEU d   1      45.786 -27.202  -7.525  0.00  0.00     0.089 C 
ATOM    138  H84 LEU d   1      45.425 -27.285  -6.489  0.00  0.00     0.087 H 
BRANCH 137 139
ATOM    139  C   LEU d   1      47.192 -26.618  -7.487  0.00  0.00     0.241 C 
ATOM    140  O   LEU d   1      47.917 -26.798  -6.500  0.00  0.00    -0.271 OA
ATOM    141  N   HIS d   1      47.602 -25.923  -8.548  0.00  0.00    -0.346 N 
ATOM    142  H94 HIS d   1      47.021 -25.858  -9.359  0.00  0.00     0.163 HD
BRANCH 141 143
ATOM    143  CA  HIS d   1      48.897 -25.258  -8.525  0.00  0.00     0.094 C 
ATOM    144  H95 HIS d   1      49.672 -26.003  -8.294  0.00  0.00     0.088 H 
BRANCH 143 145
ATOM    145  C   HIS d   1      48.938 -24.173  -7.450  0.00  0.00     0.241 C 
ATOM    146  O   HIS d   1      49.918 -24.057  -6.707  0.00  0.00    -0.271 OA
ATOM    147  N   ARG d   1      47.859 -23.400  -7.332  0.00  0.00    -0.346 N 
ATOM    148 1H10 ARG d   1      47.066 -23.579  -7.914  0.00  0.00     0.163 HD
BRANCH 147 149
ATOM    149  CA  ARG d   1      47.804 -22.297  -6.373  0.00  0.00     0.089 C 
ATOM    150 2H10 ARG d   1      48.750 -21.739  -6.429  0.00  0.00     0.087 H 
BRANCH 149 151
ATOM    151  C   ARG d   1      47.636 -22.805  -4.944  0.00  0.00     0.241 C 
ATOM    152  O   ARG d   1      48.269 -22.287  -4.016  0.00  0.00    -0.271 OA
ATOM    153  N   PHE d   1      46.799 -23.823  -4.740  0.00  0.00    -0.346 N 
ATOM    154 4H11 PHE d   1      46.471 -24.362  -5.516  0.00  0.00     0.163 HD
BRANCH 153 155
ATOM    155  CA  PHE d   1      46.360 -24.152  -3.389  0.00  0.00     0.093 C 
ATOM    156 5H11 PHE d   1      46.741 -23.362  -2.725  0.00  0.00     0.088 H 
BRANCH 155 157
ATOM    157  C   PHE d   1      46.856 -25.485  -2.839  0.00  0.00     0.241 C 
ATOM    158  O   PHE d   1      46.595 -25.772  -1.668  0.00  0.00    -0.271 OA
ATOM    159  N   ASP d   1      47.551 -26.316  -3.625  0.00  0.00    -0.345 N 
ATOM    160 3H12 ASP d   1      47.799 -26.048  -4.556  0.00  0.00     0.163 HD
BRANCH 159 161
ATOM    161  CA  ASP d   1      47.941 -27.622  -3.097  0.00  0.00     0.098 C 
ATOM    162 4H12 ASP d   1      48.033 -27.526  -2.005  0.00  0.00     0.088 H 
BRANCH 161 163
ATOM    163  C   ASP d   1      49.296 -28.070  -3.635  0.00  0.00     0.241 C 
ATOM    164  O   ASP d   1      49.590 -29.271  -3.600  0.00  0.00    -0.271 OA
ATOM    165  N   SER d   1      50.061 -27.141  -4.202  0.00  0.00    -0.343 N 
ATOM    166 7H12 SER d   1      49.565 -26.366  -4.595  0.00  0.00     0.163 HD
BRANCH 165 167
ATOM    167  CA  SER d   1      51.524 -27.078  -4.340  0.00  0.00     0.116 C 
ATOM    168 8H12 SER d   1      51.847 -26.145  -3.856  0.00  0.00     0.093 H 
BRANCH 167 169
ATOM    169  C   SER d   1      51.922 -26.992  -5.782  0.00  0.00     0.198 C 
ATOM    170  O   SER d   1      52.211 -25.884  -6.236  0.00  0.00    -0.646 OA
ATOM    171  OXT SER d   1      51.940 -28.034  -6.439  0.00  0.00    -0.646 OA
ENDBRANCH 167 169
BRANCH 167 172
ATOM    172  CB  SER d   1      52.255 -28.209  -3.637  0.00  0.00     0.045 C 
ATOM    173 9H12 SER d   1      53.234 -28.377  -4.110  0.00  0.00     0.077 H 
ATOM    174 0H13 SER d   1      51.660 -29.133  -3.688  0.00  0.00     0.077 H 
BRANCH 172 175
ATOM    175  OG  SER d   1      52.429 -27.817  -2.284  0.00  0.00    -0.398 OA
ATOM    176 1H13 SER d   1      52.885 -28.504  -1.812  0.00  0.00     0.209 HD
ENDBRANCH 172 175
ENDBRANCH 167 172
ENDBRANCH 165 167
ENDBRANCH 161 163
BRANCH 161 177
ATOM    177  CB  ASP d   1      46.855 -28.674  -3.386  0.00  0.00     0.043 C 
ATOM    178 5H12 ASP d   1      47.045 -29.112  -4.377  0.00  0.00     0.052 H 
ATOM    179 6H12 ASP d   1      45.874 -28.175  -3.387  0.00  0.00     0.052 H 
BRANCH 177 180
ATOM    180  CG  ASP d   1      46.829 -29.805  -2.347  0.00  0.00     0.175 C 
ATOM    181  OD1 ASP d   1      47.251 -29.588  -1.188  0.00  0.00    -0.648 OA
ATOM    182  OD2 ASP d   1      46.362 -30.909  -2.697  0.00  0.00    -0.648 OA
ENDBRANCH 177 180
ENDBRANCH 161 177
ENDBRANCH 159 161
ENDBRANCH 155 157
BRANCH 155 183
ATOM    183  CB  PHE d   1      44.824 -24.142  -3.326  0.00  0.00    -0.014 C 
ATOM    184 6H11 PHE d   1      44.517 -24.465  -2.321  0.00  0.00     0.043 H 
ATOM    185 7H11 PHE d   1      44.442 -24.854  -4.073  0.00  0.00     0.043 H 
BRANCH 183 186
ATOM    186  CG  PHE d   1      44.208 -22.789  -3.600  0.00  0.00    -0.056 A 
ATOM    187  CD1 PHE d   1      44.400 -21.731  -2.721  0.00  0.00    -0.077 A 
ATOM    188  CE1 PHE d   1      43.818 -20.487  -2.962  0.00  0.00    -0.082 A 
ATOM    189 8H11 PHE d   1      45.010 -21.874  -1.836  0.00  0.00     0.084 H 
ATOM    190  CZ  PHE d   1      43.048 -20.289  -4.105  0.00  0.00    -0.083 A 
ATOM    191 0H12 PHE d   1      43.965 -19.674  -2.260  0.00  0.00     0.083 H 
ATOM    192  CE2 PHE d   1      42.852 -21.334  -4.987  0.00  0.00    -0.082 A 
ATOM    193 2H12 PHE d   1      42.605 -19.320  -4.302  0.00  0.00     0.083 H 
ATOM    194  CD2 PHE d   1      43.433 -22.581  -4.729  0.00  0.00    -0.077 A 
ATOM    195 1H12 PHE d   1      42.250 -21.189  -5.877  0.00  0.00     0.083 H 
ATOM    196 9H11 PHE d   1      43.274 -23.397  -5.424  0.00  0.00     0.084 H 
ENDBRANCH 183 186
ENDBRANCH 155 183
ENDBRANCH 153 155
ENDBRANCH 149 151
BRANCH 149 197
ATOM    197  CB  ARG d   1      46.650 -21.350  -6.756  0.00  0.00    -0.036 C 
ATOM    198 3H10 ARG d   1      45.746 -21.963  -6.882  0.00  0.00     0.036 H 
ATOM    199 4H10 ARG d   1      46.911 -20.881  -7.716  0.00  0.00     0.036 H 
BRANCH 197 200
ATOM    200  CG  ARG d   1      46.307 -20.207  -5.752  0.00  0.00    -0.048 C 
ATOM    201 5H10 ARG d   1      46.408 -20.614  -4.735  0.00  0.00     0.035 H 
ATOM    202 6H10 ARG d   1      45.262 -19.911  -5.927  0.00  0.00     0.035 H 
BRANCH 200 203
ATOM    203  CD  ARG d   1      47.176 -18.935  -5.837  0.00  0.00     0.009 C 
ATOM    204 7H10 ARG d   1      46.955 -18.420  -6.784  0.00  0.00     0.064 H 
ATOM    205 8H10 ARG d   1      48.235 -19.230  -5.819  0.00  0.00     0.064 H 
BRANCH 203 206
ATOM    206  NE  ARG d   1      46.925 -17.995  -4.714  0.00  0.00    -0.227 N 
ATOM    207  CZ  ARG d   1      46.428 -16.754  -4.825  0.00  0.00     0.665 C 
ATOM    208  NH1 ARG d   1      46.114 -16.227  -6.007  0.00  0.00    -0.235 N 
ATOM    209  NH2 ARG d   1      46.263 -16.006  -3.736  0.00  0.00    -0.235 N 
ATOM    210 0H11 ARG d   1      45.734 -15.271  -6.060  0.00  0.00     0.174 HD
ATOM    211 1H11 ARG d   1      46.251 -16.775  -6.868  0.00  0.00     0.174 HD
ATOM    212 2H11 ARG d   1      46.498 -16.388  -2.809  0.00  0.00     0.174 HD
ATOM    213 3H11 ARG d   1      45.901 -15.046  -3.821  0.00  0.00     0.174 HD
ATOM    214 9H10 ARG d   1      47.153 -18.326  -3.766  0.00  0.00     0.177 HD
ENDBRANCH 203 206
ENDBRANCH 200 203
ENDBRANCH 197 200
ENDBRANCH 149 197
ENDBRANCH 147 149
ENDBRANCH 143 145
BRANCH 143 215
ATOM    215  CB  HIS d   1      49.181 -24.667  -9.910  0.00  0.00     0.004 C 
ATOM    216  H96 HIS d   1      48.488 -23.830 -10.079  0.00  0.00     0.046 H 
ATOM    217  H97 HIS d   1      49.003 -25.448 -10.664  0.00  0.00     0.046 H 
BRANCH 215 218
ATOM    218  CG  HIS d   1      50.579 -24.162 -10.075  0.00  0.00     0.053 A 
ATOM    219  ND1 HIS d   1      50.980 -22.926  -9.616  0.00  0.00    -0.247 NA
ATOM    220  CE1 HIS d   1      52.257 -22.743  -9.911  0.00  0.00     0.064 A 
ATOM    221  NE2 HIS d   1      52.696 -23.814 -10.550  0.00  0.00    -0.359 N 
ATOM    222  H99 HIS d   1      52.846 -21.860  -9.668  0.00  0.00     0.143 H 
ATOM    223  CD2 HIS d   1      51.665 -24.715 -10.671  0.00  0.00     0.002 A 
ATOM    224 0H10 HIS d   1      53.655 -23.951 -10.900  0.00  0.00     0.166 HD
ATOM    225  H98 HIS d   1      51.711 -25.690 -11.155  0.00  0.00     0.114 H 
ENDBRANCH 215 218
ENDBRANCH 143 215
ENDBRANCH 141 143
ENDBRANCH 137 139
BRANCH 137 226
ATOM    226  CB  LEU d   1      45.805 -28.608  -8.139  0.00  0.00    -0.035 C 
ATOM    227  H85 LEU d   1      46.584 -29.195  -7.630  0.00  0.00     0.037 H 
ATOM    228  H86 LEU d   1      46.055 -28.514  -9.206  0.00  0.00     0.037 H 
BRANCH 226 229
ATOM    229  CG  LEU d   1      44.478 -29.369  -8.022  0.00  0.00    -0.059 C 
ATOM    230  H87 LEU d   1      43.733 -28.861  -8.652  0.00  0.00     0.038 H 
BRANCH 229 231
ATOM    231  CD1 LEU d   1      44.632 -30.810  -8.524  0.00  0.00    -0.073 C 
ATOM    232  H88 LEU d   1      43.670 -31.335  -8.431  0.00  0.00     0.028 H 
ATOM    233  H89 LEU d   1      45.393 -31.329  -7.922  0.00  0.00     0.028 H 
ATOM    234  H90 LEU d   1      44.943 -30.799  -9.579  0.00  0.00     0.028 H 
ENDBRANCH 229 231
BRANCH 229 235
ATOM    235  CD2 LEU d   1      43.979 -29.359  -6.592  0.00  0.00    -0.073 C 
ATOM    236  H91 LEU d   1      43.874 -28.320  -6.248  0.00  0.00     0.028 H 
ATOM    237  H92 LEU d   1      44.698 -29.887  -5.949  0.00  0.00     0.028 H 
ATOM    238  H93 LEU d   1      43.002 -29.863  -6.541  0.00  0.00     0.028 H 
ENDBRANCH 229 235
ENDBRANCH 226 229
ENDBRANCH 137 226
ENDBRANCH 135 137
ENDBRANCH 131 133
BRANCH 131 239
ATOM    239  CB  ARG d   1      42.115 -24.804  -8.270  0.00  0.00    -0.036 C 
ATOM    240  H72 ARG d   1      42.018 -25.096  -7.214  0.00  0.00     0.036 H 
ATOM    241  H73 ARG d   1      41.972 -25.688  -8.909  0.00  0.00     0.036 H 
BRANCH 239 242
ATOM    242  CG  ARG d   1      41.008 -23.811  -8.587  0.00  0.00    -0.048 C 
ATOM    243  H74 ARG d   1      41.128 -23.441  -9.616  0.00  0.00     0.035 H 
ATOM    244  H75 ARG d   1      41.060 -22.966  -7.885  0.00  0.00     0.035 H 
BRANCH 242 245
ATOM    245  CD  ARG d   1      39.664 -24.504  -8.450  0.00  0.00     0.009 C 
ATOM    246  H76 ARG d   1      39.648 -25.073  -7.509  0.00  0.00     0.064 H 
ATOM    247  H77 ARG d   1      39.526 -25.192  -9.297  0.00  0.00     0.064 H 
BRANCH 245 248
ATOM    248  NE  ARG d   1      38.571 -23.535  -8.440  0.00  0.00    -0.227 N 
ATOM    249  CZ  ARG d   1      37.296 -23.864  -8.315  0.00  0.00     0.665 C 
ATOM    250  NH1 ARG d   1      36.956 -25.136  -8.205  0.00  0.00    -0.235 N 
ATOM    251  NH2 ARG d   1      36.358 -22.920  -8.300  0.00  0.00    -0.235 N 
ATOM    252  H79 ARG d   1      35.965 -25.398  -8.107  0.00  0.00     0.174 HD
ATOM    253  H80 ARG d   1      37.682 -25.866  -8.217  0.00  0.00     0.174 HD
ATOM    254  H81 ARG d   1      36.624 -21.929  -8.386  0.00  0.00     0.174 HD
ATOM    255  H82 ARG d   1      35.366 -23.181  -8.203  0.00  0.00     0.174 HD
ATOM    256  H78 ARG d   1      38.807 -22.537  -8.536  0.00  0.00     0.177 HD
ENDBRANCH 245 248
ENDBRANCH 242 245
ENDBRANCH 239 242
ENDBRANCH 131 239
ENDBRANCH 129 131
ENDBRANCH   1 127
BRANCH   1 257
ATOM    257  CB  GLN d   1      44.691 -22.516 -12.475  0.00  0.00    -0.030 C 
ATOM    258  H64 GLN d   1      44.796 -21.644 -11.813  0.00  0.00     0.037 H 
ATOM    259  H65 GLN d   1      43.624 -22.724 -12.642  0.00  0.00     0.037 H 
BRANCH 257 260
ATOM    260  CG  GLN d   1      45.341 -22.202 -13.802  0.00  0.00     0.011 C 
ATOM    261  H66 GLN d   1      44.843 -21.330 -14.251  0.00  0.00     0.047 H 
ATOM    262  H67 GLN d   1      45.236 -23.069 -14.470  0.00  0.00     0.047 H 
BRANCH 260 263
ATOM    263  CD  GLN d   1      46.812 -21.893 -13.616  0.00  0.00     0.215 C 
ATOM    264  OE1 GLN d   1      47.172 -20.917 -12.958  0.00  0.00    -0.274 OA
ATOM    265  NE2 GLN d   1      47.673 -22.758 -14.146  0.00  0.00    -0.370 N 
ATOM    266  H68 GLN d   1      48.657 -22.604 -14.054  0.00  0.00     0.159 HD
ATOM    267  H69 GLN d   1      47.336 -23.562 -14.636  0.00  0.00     0.159 HD
ENDBRANCH 260 263
ENDBRANCH 257 260
ENDBRANCH   1 257
TORSDOF 72
