REMARK  1 active torsions:
REMARK  status: ('A' for Active; 'I' for Inactive)
REMARK    1  A    between atoms: CA_11  and  CB_12 
ROOT
ATOM      1  O   5QY d   1      14.607   0.640  -8.755  0.00  0.00    -0.271 OA
ATOM      2  C   5QY d   1      14.364   1.124  -7.650  0.00  0.00     0.244 C 
ATOM      3  NAG 5QY d   1      13.127   0.836  -7.061  0.00  0.00    -0.323 N 
ATOM      4  CAJ 5QY d   1      12.797   1.330  -5.797  0.00  0.00     0.061 A 
ATOM      5  CAE 5QY d   1      11.516   1.164  -5.284  0.00  0.00    -0.055 A 
ATOM      6  CAC 5QY d   1      11.203   1.646  -4.017  0.00  0.00    -0.081 A 
ATOM      7  CAD 5QY d   1      12.177   2.287  -3.260  0.00  0.00    -0.081 A 
ATOM      8  CAF 5QY d   1      13.461   2.442  -3.771  0.00  0.00    -0.055 A 
ATOM      9  CAK 5QY d   1      13.771   1.960  -5.041  0.00  0.00     0.055 A 
ATOM     10  N   5QY d   1      15.058   2.114  -5.569  0.00  0.00    -0.375 N 
ATOM     11  CA  5QY d   1      15.270   2.002  -7.036  0.00  0.00     0.084 C 
ATOM     12  H1  5QY d   1      12.469   0.267  -7.554  0.00  0.00     0.169 HD
ATOM     13  H2  5QY d   1      10.759   0.658  -5.872  0.00  0.00     0.087 H 
ATOM     14  H3  5QY d   1      10.202   1.522  -3.621  0.00  0.00     0.083 H 
ATOM     15  H4  5QY d   1      11.936   2.665  -2.273  0.00  0.00     0.083 H 
ATOM     16  H5  5QY d   1      14.222   2.939  -3.180  0.00  0.00     0.087 H 
ATOM     17  H6  5QY d   1      15.854   2.304  -4.944  0.00  0.00     0.160 HD
ATOM     18  H7  5QY d   1      15.099   3.000  -7.465  0.00  0.00     0.086 H 
ENDROOT
BRANCH  11  19
ATOM     19  CB  5QY d   1      16.710   1.600  -7.360  0.00  0.00    -0.049 C 
ATOM     20  H8  5QY d   1      16.834   1.526  -8.450  0.00  0.00     0.030 H 
ATOM     21  H9  5QY d   1      16.931   0.626  -6.899  0.00  0.00     0.030 H 
ATOM     22  H10 5QY d   1      17.401   2.359  -6.963  0.00  0.00     0.030 H 
ENDBRANCH  11  19
TORSDOF 1
