REMARK  1 active torsions:
REMARK  status: ('A' for Active; 'I' for Inactive)
REMARK    1  A    between atoms: NAL_11  and  CAA_12 
ROOT
ATOM      1  O   5QX d   1      14.605   0.451  -8.634  0.00  0.00    -0.271 OA
ATOM      2  C   5QX d   1      14.436   1.016  -7.549  0.00  0.00     0.241 C 
ATOM      3  CA  5QX d   1      15.398   1.913  -7.071  0.00  0.00     0.067 C 
ATOM      4  N   5QX d   1      15.244   2.248  -5.637  0.00  0.00    -0.379 N 
ATOM      5  CAJ 5QX d   1      14.011   2.065  -5.030  0.00  0.00     0.055 A 
ATOM      6  CAE 5QX d   1      13.760   2.619  -3.779  0.00  0.00    -0.055 A 
ATOM      7  CAC 5QX d   1      12.521   2.427  -3.185  0.00  0.00    -0.081 A 
ATOM      8  CAD 5QX d   1      11.546   1.681  -3.839  0.00  0.00    -0.081 A 
ATOM      9  CAF 5QX d   1      11.806   1.126  -5.087  0.00  0.00    -0.055 A 
ATOM     10  CAK 5QX d   1      13.039   1.325  -5.687  0.00  0.00     0.063 A 
ATOM     11  NAL 5QX d   1      13.298   0.776  -6.885  0.00  0.00    -0.319 N 
ATOM     12  H1  5QX d   1      15.325   2.843  -7.654  0.00  0.00     0.078 H 
ATOM     13  H2  5QX d   1      16.392   1.466  -7.218  0.00  0.00     0.078 H 
ATOM     14  H3  5QX d   1      16.042   2.612  -5.098  0.00  0.00     0.160 HD
ATOM     15  H4  5QX d   1      14.526   3.196  -3.273  0.00  0.00     0.087 H 
ATOM     16  H5  5QX d   1      12.313   2.858  -2.212  0.00  0.00     0.083 H 
ATOM     17  H6  5QX d   1      10.579   1.532  -3.373  0.00  0.00     0.083 H 
ATOM     18  H7  5QX d   1      11.046   0.539  -5.590  0.00  0.00     0.087 H 
ENDROOT
BRANCH  11  19
ATOM     19  CAA 5QX d   1      12.327  -0.172  -7.462  0.00  0.00    -0.011 C 
ATOM     20  H8  5QX d   1      12.693  -0.523  -8.438  0.00  0.00     0.057 H 
ATOM     21  H9  5QX d   1      11.357   0.331  -7.593  0.00  0.00     0.057 H 
ATOM     22  H10 5QX d   1      12.207  -1.031  -6.785  0.00  0.00     0.057 H 
ENDBRANCH  11  19
TORSDOF 1
