REMARK  15 active torsions:
REMARK  status: ('A' for Active; 'I' for Inactive)
REMARK    1  A    between atoms: C13_2  and  N36_36 
REMARK    2  A    between atoms: C02_9  and  C01_8 
REMARK    3  A    between atoms: C03_10  and  C02_9 
REMARK    4  A    between atoms: O05_12  and  C04_11 
REMARK    5  A    between atoms: C06_13  and  O05_12 
REMARK    6  A    between atoms: C23_23  and  C27_27 
REMARK       I    between atoms: C27_27  and  N29_29 
REMARK    7  A    between atoms: N29_29  and  S30_30 
REMARK    8  A    between atoms: S30_30  and  C33_33 
REMARK       I    between atoms: N36_36  and  C37_37 
REMARK    9  A    between atoms: C37_37  and  O39_39 
REMARK   10  A    between atoms: O39_39  and  C40_40 
REMARK   11  A    between atoms: C40_40  and  C41_41 
REMARK   12  A    between atoms: C40_40  and  C42_42 
REMARK   13  A    between atoms: C40_40  and  C43_43 
REMARK   14  A    between atoms: C47_47  and  O48_48 
REMARK   15  A    between atoms: O48_48  and  C49_49 
ROOT
ATOM      1  C10 5R2 d   1     -14.965 -10.552  12.926  0.00  0.00     0.023 C 
ATOM      2  C13 5R2 d   1     -17.250  -8.946  13.816  0.00  0.00     0.091 C 
ATOM      3  C15 5R2 d   1     -16.558  -7.130  12.182  0.00  0.00    -0.063 C 
ATOM      4  C17 5R2 d   1     -15.358  -4.975  12.503  0.00  0.00    -0.062 C 
ATOM      5  C20 5R2 d   1     -14.049  -5.243  15.351  0.00  0.00    -0.100 C 
ATOM      6  C21 5R2 d   1     -13.085  -5.124  16.442  0.00  0.00    -0.002 A 
ATOM      7  C22 5R2 d   1     -12.854  -6.269  17.344  0.00  0.00    -0.023 A 
ATOM      8  C06 5R2 d   1     -13.767 -11.593  13.052  0.00  0.00     0.064 C 
ATOM      9  C07 5R2 d   1     -12.747 -10.910  13.448  0.00  0.00    -0.011 C 
ATOM     10  C08 5R2 d   1     -13.364  -9.783  14.320  0.00  0.00     0.094 C 
ATOM     11  N09 5R2 d   1     -14.844  -9.743  13.916  0.00  0.00    -0.334 N 
ATOM     12  C11 5R2 d   1     -15.873  -8.916  14.463  0.00  0.00     0.243 C 
ATOM     13  O12 5R2 d   1     -15.648  -8.187  15.335  0.00  0.00    -0.271 OA
ATOM     14  C14 5R2 d   1     -17.587  -7.617  13.178  0.00  0.00    -0.038 C 
ATOM     15  C16 5R2 d   1     -16.620  -5.629  12.000  0.00  0.00    -0.065 C 
ATOM     16  C18 5R2 d   1     -15.615  -4.271  13.796  0.00  0.00    -0.050 C 
ATOM     17  C19 5R2 d   1     -14.306  -4.174  14.547  0.00  0.00    -0.106 C 
ATOM     18  C23 5R2 d   1     -12.278  -6.387  15.930  0.00  0.00     0.122 A 
ATOM     19  N24 5R2 d   1     -12.579  -7.778  15.611  0.00  0.00    -0.341 N 
ATOM     20  C25 5R2 d   1     -12.986  -8.315  14.376  0.00  0.00     0.241 C 
ATOM     21  O26 5R2 d   1     -13.082  -7.661  13.435  0.00  0.00    -0.271 OA
ATOM     22  H1  5R2 d   1     -15.931 -11.075  12.977  0.00  0.00     0.068 H 
ATOM     23  H2  5R2 d   1     -14.895 -10.004  11.975  0.00  0.00     0.068 H 
ATOM     24  H3  5R2 d   1     -17.213  -9.717  13.032  0.00  0.00     0.087 H 
ATOM     25  H4  5R2 d   1     -16.744  -7.614  11.212  0.00  0.00     0.033 H 
ATOM     26  H5  5R2 d   1     -15.556  -7.404  12.543  0.00  0.00     0.033 H 
ATOM     27  H6  5R2 d   1     -15.005  -4.247  11.758  0.00  0.00     0.033 H 
ATOM     28  H7  5R2 d   1     -14.587  -5.745  12.657  0.00  0.00     0.033 H 
ATOM     29  H8  5R2 d   1     -14.563  -6.188  15.180  0.00  0.00     0.077 H 
ATOM     30  H9  5R2 d   1     -12.755  -4.108  16.705  0.00  0.00     0.050 H 
ATOM     31  H10 5R2 d   1     -13.702  -6.906  17.636  0.00  0.00     0.038 H 
ATOM     32  H11 5R2 d   1     -12.170  -6.154  18.198  0.00  0.00     0.038 H 
ATOM     33  H17 5R2 d   1     -13.531 -12.038  12.074  0.00  0.00     0.086 H 
ATOM     34  H18 5R2 d   1     -12.203 -10.487  12.591  0.00  0.00     0.040 H 
ATOM     35  H19 5R2 d   1     -12.065 -11.535  14.043  0.00  0.00     0.040 H 
ATOM     36  H20 5R2 d   1     -13.265 -10.143  15.355  0.00  0.00     0.088 H 
ATOM     37  H21 5R2 d   1     -17.679  -6.865  13.975  0.00  0.00     0.036 H 
ATOM     38  H22 5R2 d   1     -18.550  -7.719  12.657  0.00  0.00     0.036 H 
ATOM     39  H23 5R2 d   1     -17.479  -5.233  12.561  0.00  0.00     0.033 H 
ATOM     40  H24 5R2 d   1     -16.743  -5.400  10.931  0.00  0.00     0.033 H 
ATOM     41  H25 5R2 d   1     -16.345  -4.839  14.391  0.00  0.00     0.038 H 
ATOM     42  H26 5R2 d   1     -16.008  -3.262  13.600  0.00  0.00     0.038 H 
ATOM     43  H27 5R2 d   1     -13.630  -3.326  14.453  0.00  0.00     0.076 H 
ATOM     44  H28 5R2 d   1     -12.484  -8.431  16.363  0.00  0.00     0.163 HD
ENDROOT
BRANCH   8  45
ATOM     45  O05 5R2 d   1     -14.237 -12.621  13.915  0.00  0.00    -0.326 OA
BRANCH  45  46
ATOM     46  C04 5R2 d   1     -13.427 -13.720  14.079  0.00  0.00     0.190 A 
ATOM     47  C03 5R2 d   1     -13.515 -14.444  15.278  0.00  0.00     0.087 A 
ATOM     48  N53 5R2 d   1     -12.833 -15.518  15.503  0.00  0.00    -0.247 NA
ATOM     49  C52 5R2 d   1     -11.998 -15.943  14.605  0.00  0.00     0.086 A 
ATOM     50  C45 5R2 d   1     -11.884 -15.293  13.413  0.00  0.00     0.091 A 
ATOM     51  C51 5R2 d   1     -11.260 -17.089  14.972  0.00  0.00    -0.050 A 
ATOM     52  N44 5R2 d   1     -12.605 -14.156  13.122  0.00  0.00    -0.221 NA
ATOM     53  C46 5R2 d   1     -10.980 -15.823  12.495  0.00  0.00    -0.021 A 
ATOM     54  C47 5R2 d   1     -10.240 -16.974  12.823  0.00  0.00     0.070 A 
ATOM     55  H45 5R2 d   1     -10.847 -15.349  11.529  0.00  0.00     0.091 H 
ATOM     56  C50 5R2 d   1     -10.392 -17.609  14.045  0.00  0.00    -0.048 A 
ATOM     57  H49 5R2 d   1      -9.830 -18.509  14.267  0.00  0.00     0.087 H 
ATOM     58  H50 5R2 d   1     -11.375 -17.542  15.950  0.00  0.00     0.087 H 
BRANCH  47  59
ATOM     59  C02 5R2 d   1     -14.398 -14.116  16.431  0.00  0.00    -0.024 C 
ATOM     60  H15 5R2 d   1     -14.066 -14.689  17.309  0.00  0.00     0.042 H 
ATOM     61  H16 5R2 d   1     -14.320 -13.040  16.645  0.00  0.00     0.042 H 
BRANCH  59  62
ATOM     62  C01 5R2 d   1     -15.808 -14.447  16.149  0.00  0.00    -0.071 C 
ATOM     63  H12 5R2 d   1     -16.426 -14.191  17.022  0.00  0.00     0.028 H 
ATOM     64  H13 5R2 d   1     -15.897 -15.523  15.940  0.00  0.00     0.028 H 
ATOM     65  H14 5R2 d   1     -16.152 -13.874  15.275  0.00  0.00     0.028 H 
ENDBRANCH  59  62
ENDBRANCH  47  59
BRANCH  54  66
ATOM     66  O48 5R2 d   1      -9.328 -17.561  11.991  0.00  0.00    -0.356 OA
BRANCH  66  67
ATOM     67  C49 5R2 d   1      -9.015 -16.921  10.785  0.00  0.00     0.010 C 
ATOM     68  H46 5R2 d   1      -8.272 -17.517  10.236  0.00  0.00     0.066 H 
ATOM     69  H47 5R2 d   1      -8.602 -15.924  10.996  0.00  0.00     0.066 H 
ATOM     70  H48 5R2 d   1      -9.926 -16.820  10.177  0.00  0.00     0.066 H 
ENDBRANCH  66  67
ENDBRANCH  54  66
ENDBRANCH  45  46
ENDBRANCH   8  45
BRANCH   2  71
ATOM     71  N36 5R2 d   1     -18.331  -9.243  14.655  0.00  0.00    -0.324 N 
ATOM     72  C37 5R2 d   1     -18.817 -10.542  14.734  0.00  0.00     0.362 C 
ATOM     73  O38 5R2 d   1     -18.221 -11.456  14.239  0.00  0.00    -0.238 OA
ATOM     74  H35 5R2 d   1     -18.754  -8.518  15.199  0.00  0.00     0.165 HD
BRANCH  72  75
ATOM     75  O39 5R2 d   1     -19.673 -10.733  15.808  0.00  0.00    -0.294 OA
BRANCH  75  76
ATOM     76  C40 5R2 d   1     -20.454 -11.928  15.833  0.00  0.00     0.061 C 
BRANCH  76  77
ATOM     77  C41 5R2 d   1     -21.019 -12.322  14.460  0.00  0.00    -0.048 C 
ATOM     78  H36 5R2 d   1     -21.606 -13.247  14.557  0.00  0.00     0.031 H 
ATOM     79  H37 5R2 d   1     -20.190 -12.486  13.756  0.00  0.00     0.031 H 
ATOM     80  H38 5R2 d   1     -21.665 -11.515  14.084  0.00  0.00     0.031 H 
ENDBRANCH  76  77
BRANCH  76  81
ATOM     81  C42 5R2 d   1     -21.622 -11.701  16.783  0.00  0.00    -0.048 C 
ATOM     82  H39 5R2 d   1     -22.244 -12.608  16.823  0.00  0.00     0.031 H 
ATOM     83  H40 5R2 d   1     -22.228 -10.856  16.424  0.00  0.00     0.031 H 
ATOM     84  H41 5R2 d   1     -21.238 -11.475  17.789  0.00  0.00     0.031 H 
ENDBRANCH  76  81
BRANCH  76  85
ATOM     85  C43 5R2 d   1     -19.614 -13.054  16.339  0.00  0.00    -0.048 C 
ATOM     86  H42 5R2 d   1     -20.212 -13.977  16.360  0.00  0.00     0.031 H 
ATOM     87  H43 5R2 d   1     -19.263 -12.822  17.355  0.00  0.00     0.031 H 
ATOM     88  H44 5R2 d   1     -18.748 -13.193  15.675  0.00  0.00     0.031 H 
ENDBRANCH  76  85
ENDBRANCH  75  76
ENDBRANCH  72  75
ENDBRANCH   2  71
BRANCH  18  89
ATOM     89  C27 5R2 d   1     -10.978  -5.831  15.253  0.00  0.00     0.260 C 
ATOM     90  O28 5R2 d   1     -10.664  -4.737  15.405  0.00  0.00    -0.270 OA
ATOM     91  N29 5R2 d   1     -10.132  -6.596  14.423  0.00  0.00    -0.252 N 
ATOM     92  H29 5R2 d   1     -10.382  -7.549  14.253  0.00  0.00     0.181 HD
BRANCH  91  93
ATOM     93  S30 5R2 d   1      -8.833  -6.053  13.753  0.00  0.00     0.237 S 
ATOM     94  O31 5R2 d   1      -8.025  -5.466  14.637  0.00  0.00    -0.205 OA
ATOM     95  O32 5R2 d   1      -9.212  -5.087  12.958  0.00  0.00    -0.205 OA
BRANCH  93  96
ATOM     96  C33 5R2 d   1      -8.058  -7.292  12.683  0.00  0.00     0.063 A 
ATOM     97  C34 5R2 d   1      -6.582  -7.111  12.550  0.00  0.00    -0.046 A 
ATOM     98  C35 5R2 d   1      -7.085  -8.103  13.499  0.00  0.00    -0.046 A 
ATOM     99  H31 5R2 d   1      -6.109  -6.190  12.922  0.00  0.00     0.035 H 
ATOM    100  H32 5R2 d   1      -6.071  -7.441  11.633  0.00  0.00     0.035 H 
ATOM    101  H33 5R2 d   1      -6.955  -9.176  13.292  0.00  0.00     0.035 H 
ATOM    102  H34 5R2 d   1      -6.993  -7.924  14.580  0.00  0.00     0.035 H 
ATOM    103  H30 5R2 d   1      -8.704  -7.686  11.885  0.00  0.00     0.066 H 
ENDBRANCH  93  96
ENDBRANCH  91  93
ENDBRANCH  18  89
TORSDOF 15
