REMARK  24 active torsions:
REMARK  status: ('A' for Active; 'I' for Inactive)
REMARK       I    between atoms: N13_14  and  C14_1 
REMARK    1  A    between atoms: C14_1  and  C16_16 
REMARK    2  A    between atoms: C11_2  and  O29_29 
REMARK    3  A    between atoms: C02_6  and  C01_5 
REMARK    4  A    between atoms: C03_7  and  C02_6 
REMARK    5  A    between atoms: N06_10  and  C05_9 
REMARK    6  A    between atoms: C05_9  and  C44_44 
REMARK       I    between atoms: C07_11  and  N06_10 
REMARK    7  A    between atoms: C07_11  and  C09_13 
REMARK    8  A    between atoms: C16_16  and  N17_17 
REMARK    9  A    between atoms: C16_16  and  C25_25 
REMARK       I    between atoms: N17_17  and  C18_18 
REMARK   10  A    between atoms: C18_18  and  O20_20 
REMARK   11  A    between atoms: O20_20  and  C21_21 
REMARK   12  A    between atoms: C21_21  and  C22_22 
REMARK   13  A    between atoms: C21_21  and  C23_23 
REMARK   14  A    between atoms: C21_21  and  C24_24 
REMARK   15  A    between atoms: C25_25  and  C26_26 
REMARK   16  A    between atoms: C25_25  and  C27_27 
REMARK   17  A    between atoms: C25_25  and  C28_28 
REMARK   18  A    between atoms: O29_29  and  C30_30 
REMARK   19  A    between atoms: C31_31  and  C32_32 
REMARK   20  A    between atoms: C32_32  and  C33_33 
REMARK   21  A    between atoms: C38_38  and  O42_42 
REMARK   22  A    between atoms: O42_42  and  C43_43 
REMARK       I    between atoms: C44_44  and  N46_46 
REMARK   23  A    between atoms: N46_46  and  S47_47 
REMARK   24  A    between atoms: S47_47  and  C50_50 
ROOT
ATOM      1  C14 5RS d   1     -15.988  -8.838  14.253  0.00  0.00     0.244 C 
ATOM      2  C11 5RS d   1     -13.890 -11.475  12.824  0.00  0.00     0.064 C 
ATOM      3  C10 5RS d   1     -12.853 -10.564  13.331  0.00  0.00    -0.011 C 
ATOM      4  C12 5RS d   1     -15.070 -10.640  12.620  0.00  0.00     0.023 C 
ATOM      5  C09 5RS d   1     -13.635  -9.672  14.248  0.00  0.00     0.094 C 
ATOM      6  N13 5RS d   1     -14.983  -9.678  13.719  0.00  0.00    -0.334 N 
ATOM      7  O15 5RS d   1     -15.700  -8.119  15.208  0.00  0.00    -0.271 OA
ATOM      8  H1  5RS d   1     -13.550 -11.979  11.907  0.00  0.00     0.086 H 
ATOM      9  H2  5RS d   1     -12.392  -9.990  12.514  0.00  0.00     0.040 H 
ATOM     10  H3  5RS d   1     -12.073 -11.113  13.879  0.00  0.00     0.040 H 
ATOM     11  H4  5RS d   1     -15.993 -11.235  12.687  0.00  0.00     0.068 H 
ATOM     12  H5  5RS d   1     -15.032 -10.132  11.645  0.00  0.00     0.068 H 
ATOM     13  H15 5RS d   1     -13.601 -10.064  15.275  0.00  0.00     0.088 H 
ENDROOT
BRANCH   1  14
ATOM     14  C16 5RS d   1     -17.380  -8.895  13.659  0.00  0.00     0.098 C 
ATOM     15  H16 5RS d   1     -17.446  -9.766  12.990  0.00  0.00     0.088 H 
BRANCH  14  16
ATOM     16  N17 5RS d   1     -18.360  -9.040  14.685  0.00  0.00    -0.323 N 
ATOM     17  C18 5RS d   1     -18.532 -10.390  15.152  0.00  0.00     0.362 C 
ATOM     18  O19 5RS d   1     -18.428 -11.325  14.455  0.00  0.00    -0.238 OA
ATOM     19  H17 5RS d   1     -18.883  -8.269  15.049  0.00  0.00     0.165 HD
BRANCH  17  20
ATOM     20  O20 5RS d   1     -19.475 -10.331  16.127  0.00  0.00    -0.294 OA
BRANCH  20  21
ATOM     21  C21 5RS d   1     -19.922 -11.515  16.727  0.00  0.00     0.061 C 
BRANCH  21  22
ATOM     22  C22 5RS d   1     -20.665 -11.037  17.965  0.00  0.00    -0.048 C 
ATOM     23  H18 5RS d   1     -21.060 -11.905  18.513  0.00  0.00     0.031 H 
ATOM     24  H19 5RS d   1     -21.497 -10.384  17.664  0.00  0.00     0.031 H 
ATOM     25  H20 5RS d   1     -19.975 -10.477  18.613  0.00  0.00     0.031 H 
ENDBRANCH  21  22
BRANCH  21  26
ATOM     26  C23 5RS d   1     -20.836 -12.307  15.788  0.00  0.00    -0.048 C 
ATOM     27  H21 5RS d   1     -21.168 -13.228  16.290  0.00  0.00     0.031 H 
ATOM     28  H22 5RS d   1     -20.285 -12.567  14.872  0.00  0.00     0.031 H 
ATOM     29  H23 5RS d   1     -21.712 -11.695  15.527  0.00  0.00     0.031 H 
ENDBRANCH  21  26
BRANCH  21  30
ATOM     30  C24 5RS d   1     -18.777 -12.419  17.171  0.00  0.00    -0.048 C 
ATOM     31  H24 5RS d   1     -19.187 -13.329  17.633  0.00  0.00     0.031 H 
ATOM     32  H25 5RS d   1     -18.152 -11.886  17.902  0.00  0.00     0.031 H 
ATOM     33  H26 5RS d   1     -18.167 -12.694  16.298  0.00  0.00     0.031 H 
ENDBRANCH  21  30
ENDBRANCH  20  21
ENDBRANCH  17  20
ENDBRANCH  14  16
BRANCH  14  34
ATOM     34  C25 5RS d   1     -17.628  -7.593  12.819  0.00  0.00    -0.022 C 
BRANCH  34  35
ATOM     35  C26 5RS d   1     -16.535  -7.444  11.799  0.00  0.00    -0.067 C 
ATOM     36  H27 5RS d   1     -16.706  -6.532  11.209  0.00  0.00     0.028 H 
ATOM     37  H28 5RS d   1     -16.535  -8.318  11.131  0.00  0.00     0.028 H 
ATOM     38  H29 5RS d   1     -15.564  -7.373  12.310  0.00  0.00     0.028 H 
ENDBRANCH  34  35
BRANCH  34  39
ATOM     39  C27 5RS d   1     -18.995  -7.744  12.252  0.00  0.00    -0.067 C 
ATOM     40  H30 5RS d   1     -19.722  -7.846  13.071  0.00  0.00     0.028 H 
ATOM     41  H31 5RS d   1     -19.031  -8.641  11.616  0.00  0.00     0.028 H 
ATOM     42  H32 5RS d   1     -19.242  -6.857  11.650  0.00  0.00     0.028 H 
ENDBRANCH  34  39
BRANCH  34  43
ATOM     43  C28 5RS d   1     -17.661  -6.421  13.737  0.00  0.00    -0.067 C 
ATOM     44  H33 5RS d   1     -16.665  -6.274  14.180  0.00  0.00     0.028 H 
ATOM     45  H34 5RS d   1     -18.394  -6.602  14.537  0.00  0.00     0.028 H 
ATOM     46  H35 5RS d   1     -17.948  -5.521  13.173  0.00  0.00     0.028 H 
ENDBRANCH  34  43
ENDBRANCH  14  34
ENDBRANCH   1  14
BRANCH   5  47
ATOM     47  C07 5RS d   1     -13.168  -8.190  14.234  0.00  0.00     0.241 C 
ATOM     48  N06 5RS d   1     -12.549  -7.793  15.459  0.00  0.00    -0.341 N 
ATOM     49  H14 5RS d   1     -12.350  -8.486  16.151  0.00  0.00     0.163 HD
ATOM     50  O08 5RS d   1     -13.213  -7.448  13.304  0.00  0.00    -0.271 OA
BRANCH  48  51
ATOM     51  C05 5RS d   1     -12.212  -6.448  15.716  0.00  0.00     0.119 A 
ATOM     52  C03 5RS d   1     -13.464  -5.675  16.107  0.00  0.00    -0.018 A 
ATOM     53  C04 5RS d   1     -12.442  -5.983  17.158  0.00  0.00    -0.027 A 
ATOM     54  H11 5RS d   1     -14.465  -6.130  16.074  0.00  0.00     0.044 H 
ATOM     55  H12 5RS d   1     -12.667  -6.720  17.943  0.00  0.00     0.038 H 
ATOM     56  H13 5RS d   1     -11.826  -5.175  17.579  0.00  0.00     0.038 H 
BRANCH  52  57
ATOM     57  C02 5RS d   1     -13.467  -4.276  15.798  0.00  0.00    -0.062 C 
ATOM     58  H9  5RS d   1     -13.575  -3.726  16.744  0.00  0.00     0.033 H 
ATOM     59  H10 5RS d   1     -12.496  -4.033  15.342  0.00  0.00     0.033 H 
BRANCH  57  60
ATOM     60  C01 5RS d   1     -14.539  -3.796  14.868  0.00  0.00    -0.076 C 
ATOM     61  H6  5RS d   1     -14.432  -2.712  14.713  0.00  0.00     0.027 H 
ATOM     62  H7  5RS d   1     -15.526  -4.008  15.305  0.00  0.00     0.027 H 
ATOM     63  H8  5RS d   1     -14.447  -4.315  13.903  0.00  0.00     0.027 H 
ENDBRANCH  57  60
ENDBRANCH  52  57
BRANCH  51  64
ATOM     64  C44 5RS d   1     -10.986  -5.804  15.135  0.00  0.00     0.259 C 
ATOM     65  O45 5RS d   1     -10.662  -4.739  15.398  0.00  0.00    -0.270 OA
ATOM     66  N46 5RS d   1     -10.276  -6.541  14.261  0.00  0.00    -0.252 N 
ATOM     67  H47 5RS d   1     -10.580  -7.461  14.012  0.00  0.00     0.181 HD
BRANCH  66  68
ATOM     68  S47 5RS d   1      -8.957  -5.939  13.631  0.00  0.00     0.237 S 
ATOM     69  O48 5RS d   1      -9.477  -4.898  12.836  0.00  0.00    -0.205 OA
ATOM     70  O49 5RS d   1      -7.967  -5.516  14.408  0.00  0.00    -0.205 OA
BRANCH  68  71
ATOM     71  C50 5RS d   1      -8.312  -7.165  12.497  0.00  0.00     0.063 A 
ATOM     72  C51 5RS d   1      -6.877  -6.782  12.303  0.00  0.00    -0.046 A 
ATOM     73  C52 5RS d   1      -7.221  -7.860  13.285  0.00  0.00    -0.046 A 
ATOM     74  H49 5RS d   1      -6.516  -5.807  12.663  0.00  0.00     0.035 H 
ATOM     75  H50 5RS d   1      -6.363  -7.039  11.365  0.00  0.00     0.035 H 
ATOM     76  H51 5RS d   1      -6.965  -8.907  13.066  0.00  0.00     0.035 H 
ATOM     77  H52 5RS d   1      -7.118  -7.675  14.364  0.00  0.00     0.035 H 
ATOM     78  H48 5RS d   1      -8.991  -7.610  11.755  0.00  0.00     0.066 H 
ENDBRANCH  68  71
ENDBRANCH  66  68
ENDBRANCH  51  64
ENDBRANCH  48  51
ENDBRANCH   5  47
BRANCH   2  79
ATOM     79  O29 5RS d   1     -14.366 -12.419  13.795  0.00  0.00    -0.326 OA
BRANCH  79  80
ATOM     80  C30 5RS d   1     -13.590 -13.539  14.057  0.00  0.00     0.190 A 
ATOM     81  C31 5RS d   1     -13.816 -14.164  15.256  0.00  0.00     0.087 A 
ATOM     82  N34 5RS d   1     -13.153 -15.288  15.549  0.00  0.00    -0.247 NA
ATOM     83  C35 5RS d   1     -12.230 -15.740  14.663  0.00  0.00     0.086 A 
ATOM     84  C36 5RS d   1     -11.520 -16.895  14.979  0.00  0.00    -0.050 A 
ATOM     85  C40 5RS d   1     -12.025 -15.135  13.487  0.00  0.00     0.091 A 
ATOM     86  C37 5RS d   1     -10.606 -17.379  14.084  0.00  0.00    -0.048 A 
ATOM     87  H41 5RS d   1     -11.689 -17.404  15.921  0.00  0.00     0.087 H 
ATOM     88  C38 5RS d   1     -10.404 -16.817  12.899  0.00  0.00     0.070 A 
ATOM     89  H42 5RS d   1     -10.025 -18.254  14.353  0.00  0.00     0.087 H 
ATOM     90  C39 5RS d   1     -11.127 -15.661  12.584  0.00  0.00    -0.021 A 
ATOM     91  H43 5RS d   1     -10.980 -15.177  11.625  0.00  0.00     0.091 H 
ATOM     92  N41 5RS d   1     -12.714 -14.009  13.183  0.00  0.00    -0.221 NA
BRANCH  81  93
ATOM     93  C32 5RS d   1     -14.839 -13.522  16.167  0.00  0.00    -0.024 C 
ATOM     94  H36 5RS d   1     -15.622 -13.079  15.535  0.00  0.00     0.042 H 
ATOM     95  H37 5RS d   1     -14.333 -12.727  16.735  0.00  0.00     0.042 H 
BRANCH  93  96
ATOM     96  C33 5RS d   1     -15.489 -14.413  17.126  0.00  0.00    -0.071 C 
ATOM     97  H38 5RS d   1     -16.208 -13.840  17.730  0.00  0.00     0.028 H 
ATOM     98  H39 5RS d   1     -14.730 -14.859  17.785  0.00  0.00     0.028 H 
ATOM     99  H40 5RS d   1     -16.019 -15.210  16.585  0.00  0.00     0.028 H 
ENDBRANCH  93  96
ENDBRANCH  81  93
BRANCH  88 100
ATOM    100  O42 5RS d   1      -9.467 -17.310  11.985  0.00  0.00    -0.356 OA
BRANCH 100 101
ATOM    101  C43 5RS d   1      -9.278 -16.670  10.726  0.00  0.00     0.010 C 
ATOM    102  H44 5RS d   1      -8.504 -17.204  10.156  0.00  0.00     0.066 H 
ATOM    103  H45 5RS d   1      -8.961 -15.629  10.888  0.00  0.00     0.066 H 
ATOM    104  H46 5RS d   1     -10.223 -16.683  10.163  0.00  0.00     0.066 H 
ENDBRANCH 100 101
ENDBRANCH  88 100
ENDBRANCH  79  80
ENDBRANCH   2  79
TORSDOF 24
