REMARK  5 active torsions:
REMARK  status: ('A' for Active; 'I' for Inactive)
REMARK    1  A    between atoms: C3_3  and  N23_23 
REMARK    2  A    between atoms: N5_5  and  C21_21 
REMARK    3  A    between atoms: C6_6  and  C15_15 
REMARK    4  A    between atoms: C8_8  and  N24_24 
REMARK    5  A    between atoms: C21_21  and  C22_22 
ROOT
ATOM      1  C1   ET d   1      -0.774   9.465  15.239  0.00  0.00    -0.068 A 
ATOM      2  C2   ET d   1      -1.587  10.012  16.220  0.00  0.00    -0.057 A 
ATOM      3  C3   ET d   1      -2.310   9.198  17.063  0.00  0.00     0.027 A 
ATOM      4  C4   ET d   1      -2.240   7.805  16.926  0.00  0.00    -0.031 A 
ATOM      5  N5   ET d   1      -1.343   5.892  15.791  0.00  0.00    -0.345 N 
ATOM      6  C6   ET d   1      -0.577   5.285  14.863  0.00  0.00     0.056 A 
ATOM      7  C7   ET d   1       0.978   5.425  12.986  0.00  0.00    -0.045 A 
ATOM      8  C8   ET d   1       1.744   6.216  12.117  0.00  0.00     0.026 A 
ATOM      9  C9   ET d   1       1.705   7.602  12.218  0.00  0.00    -0.057 A 
ATOM     10  C10  ET d   1       0.919   8.235  13.187  0.00  0.00    -0.069 A 
ATOM     11  C11  ET d   1       0.188   6.050  13.960  0.00  0.00     0.005 A 
ATOM     12  C12  ET d   1       0.147   7.481  14.065  0.00  0.00    -0.011 A 
ATOM     13  C13  ET d   1      -0.686   8.072  15.084  0.00  0.00     0.002 A 
ATOM     14  C14  ET d   1      -1.421   7.220  15.931  0.00  0.00     0.048 A 
ATOM     15  H1   ET d   1      -0.203  10.117  14.588  0.00  0.00     0.085 H 
ATOM     16  H2   ET d   1      -1.654  11.089  16.324  0.00  0.00     0.086 H 
ATOM     17  H3   ET d   1      -2.818   7.170  17.588  0.00  0.00     0.090 H 
ATOM     18  H4   ET d   1       0.997   4.344  12.905  0.00  0.00     0.088 H 
ATOM     19  H5   ET d   1       2.294   8.203  11.534  0.00  0.00     0.086 H 
ATOM     20  H6   ET d   1       0.911   9.317  13.254  0.00  0.00     0.085 H 
ENDROOT
BRANCH   6  21
ATOM     21  C15  ET d   1      -0.525   3.870  14.727  0.00  0.00    -0.008 A 
ATOM     22  C16  ET d   1       0.482   3.117  15.343  0.00  0.00    -0.071 A 
ATOM     23  C17  ET d   1       0.511   1.731  15.171  0.00  0.00    -0.082 A 
ATOM     24  H7   ET d   1       1.235   3.607  15.950  0.00  0.00     0.084 H 
ATOM     25  C18  ET d   1      -0.448   1.101  14.390  0.00  0.00    -0.083 A 
ATOM     26  H8   ET d   1       1.287   1.144  15.650  0.00  0.00     0.083 H 
ATOM     27  C19  ET d   1      -1.445   1.842  13.770  0.00  0.00    -0.082 A 
ATOM     28  H9   ET d   1      -0.418   0.025  14.264  0.00  0.00     0.083 H 
ATOM     29  C20  ET d   1      -1.481   3.234  13.932  0.00  0.00    -0.071 A 
ATOM     30  H10  ET d   1      -2.193   1.346  13.163  0.00  0.00     0.083 H 
ATOM     31  H11  ET d   1      -2.251   3.817  13.440  0.00  0.00     0.084 H 
ENDBRANCH   6  21
BRANCH   5  32
ATOM     32  C21  ET d   1      -2.104   5.041  16.694  0.00  0.00    -0.003 C 
ATOM     33  H12  ET d   1      -2.003   3.995  16.368  0.00  0.00     0.064 H 
ATOM     34  H13  ET d   1      -3.163   5.337  16.654  0.00  0.00     0.064 H 
BRANCH  32  35
ATOM     35  C22  ET d   1      -1.618   5.157  18.117  0.00  0.00    -0.061 C 
ATOM     36  H14  ET d   1      -2.218   4.500  18.764  0.00  0.00     0.029 H 
ATOM     37  H15  ET d   1      -1.721   6.198  18.456  0.00  0.00     0.029 H 
ATOM     38  H16  ET d   1      -0.561   4.857  18.169  0.00  0.00     0.029 H 
ENDBRANCH  32  35
ENDBRANCH   5  32
BRANCH   8  39
ATOM     39  N24  ET d   1       2.562   5.604  11.100  0.00  0.00    -0.399 N 
ATOM     40  H19  ET d   1       2.598   4.578  11.017  0.00  0.00     0.156 HD
ATOM     41  H20  ET d   1       3.110   6.193  10.457  0.00  0.00     0.156 HD
ENDBRANCH   8  39
BRANCH   3  42
ATOM     42  N23  ET d   1      -3.147   9.781  18.085  0.00  0.00    -0.399 N 
ATOM     43  H17  ET d   1      -3.199  10.805  18.186  0.00  0.00     0.156 HD
ATOM     44  H18  ET d   1      -3.692   9.173  18.713  0.00  0.00     0.156 HD
ENDBRANCH   3  42
TORSDOF 5
