REMARK  11 active torsions:
REMARK  status: ('A' for Active; 'I' for Inactive)
REMARK    1  A    between atoms: N_1  and  CA_2 
REMARK    2  A    between atoms: CA_2  and  C_3 
REMARK    3  A    between atoms: CA_2  and  CB_6 
REMARK    4  A    between atoms: CB_6  and  CG_7 
REMARK    5  A    between atoms: CG_7  and  SD_8 
REMARK    6  A    between atoms: SD_8  and  CE_9 
REMARK    7  A    between atoms: SD_8  and  C5'_10 
REMARK    8  A    between atoms: C5'_10  and  C4'_11 
REMARK    9  A    between atoms: C3'_13  and  O3'_14 
REMARK   10  A    between atoms: C2'_15  and  O2'_16 
REMARK   11  A    between atoms: C1'_17  and  N9_18 
ROOT
ATOM      1  C4' SAM d   1      84.059   1.885 -11.851  0.00  0.00     0.076 C 
ATOM      2  O4' SAM d   1      85.256   1.138 -11.949  0.00  0.00    -0.355 OA
ATOM      3  C3' SAM d   1      84.466   3.187 -11.222  0.00  0.00     0.090 C 
ATOM      4  C2' SAM d   1      85.950   3.077 -10.981  0.00  0.00     0.105 C 
ATOM      5  C1' SAM d   1      86.165   1.581 -10.965  0.00  0.00     0.139 C 
ATOM      6  H14 SAM d   1      83.328   1.367 -11.212  0.00  0.00     0.088 H 
ATOM      7  H15 SAM d   1      84.220   4.045 -11.865  0.00  0.00     0.091 H 
ATOM      8  H17 SAM d   1      86.530   3.546 -11.789  0.00  0.00     0.093 H 
ATOM      9  H19 SAM d   1      85.919   1.169  -9.975  0.00  0.00     0.122 H 
ENDROOT
BRANCH   1  10
ATOM     10  C5' SAM d   1      83.466   2.078 -13.238  0.00  0.00    -0.005 C 
ATOM     11  H12 SAM d   1      83.939   2.957 -13.701  0.00  0.00     0.051 H 
ATOM     12  H13 SAM d   1      83.685   1.184 -13.840  0.00  0.00     0.051 H 
BRANCH  10  13
ATOM     13  SD  SAM d   1      81.827   2.311 -13.219  0.00  0.00    -0.221 SA
BRANCH  13  14
ATOM     14  CG  SAM d   1      81.030   0.891 -12.894  0.00  0.00    -0.029 C 
ATOM     15  H7  SAM d   1      81.304   0.151 -13.661  0.00  0.00     0.047 H 
ATOM     16  H8  SAM d   1      81.348   0.529 -11.905  0.00  0.00     0.047 H 
BRANCH  14  17
ATOM     17  CB  SAM d   1      79.514   1.049 -12.890  0.00  0.00    -0.022 C 
ATOM     18  H5  SAM d   1      79.250   1.884 -12.224  0.00  0.00     0.037 H 
ATOM     19  H6  SAM d   1      79.183   1.277 -13.914  0.00  0.00     0.037 H 
BRANCH  17  20
ATOM     20  CA  SAM d   1      78.786  -0.204 -12.411  0.00  0.00     0.183 C 
ATOM     21  H4  SAM d   1      79.199  -0.498 -11.435  0.00  0.00     0.101 H 
BRANCH  20  22
ATOM     22  N   SAM d   1      79.003  -1.258 -13.358  0.00  0.00    -0.065 N 
ATOM     23  H1  SAM d   1      79.993  -1.412 -13.469  0.00  0.00     0.275 HD
ATOM     24  H2  SAM d   1      78.602  -1.000 -14.246  0.00  0.00     0.275 HD
ATOM     25  H3  SAM d   1      78.567  -2.104 -13.025  0.00  0.00     0.275 HD
ENDBRANCH  20  22
BRANCH  20  26
ATOM     26  C   SAM d   1      77.309   0.006 -12.263  0.00  0.00     0.204 C 
ATOM     27  O   SAM d   1      76.877   0.798 -11.432  0.00  0.00    -0.646 OA
ATOM     28  OXT SAM d   1      76.542  -0.631 -12.965  0.00  0.00    -0.646 OA
ENDBRANCH  20  26
ENDBRANCH  17  20
ENDBRANCH  14  17
ENDBRANCH  13  14
BRANCH  13  29
ATOM     29  CE  SAM d   1      81.408   2.804 -14.719  0.00  0.00    -0.042 C 
ATOM     30  H9  SAM d   1      81.927   3.745 -14.954  0.00  0.00     0.040 H 
ATOM     31  H10 SAM d   1      80.321   2.964 -14.762  0.00  0.00     0.040 H 
ATOM     32  H11 SAM d   1      81.695   2.035 -15.451  0.00  0.00     0.040 H 
ENDBRANCH  13  29
ENDBRANCH  10  13
ENDBRANCH   1  10
BRANCH   3  33
ATOM     33  O3' SAM d   1      83.834   3.287  -9.979  0.00  0.00    -0.390 OA
ATOM     34  H16 SAM d   1      84.102   2.560  -9.429  0.00  0.00     0.210 HD
ENDBRANCH   3  33
BRANCH   5  35
ATOM     35  N9  SAM d   1      87.530   1.159 -11.336  0.00  0.00    -0.294 N 
ATOM     36  C8  SAM d   1      88.288   1.717 -12.269  0.00  0.00     0.071 A 
ATOM     37  N7  SAM d   1      89.460   1.093 -12.360  0.00  0.00    -0.236 NA
ATOM     38  H20 SAM d   1      87.992   2.570 -12.878  0.00  0.00     0.144 H 
ATOM     39  C5  SAM d   1      89.478   0.115 -11.467  0.00  0.00     0.149 A 
ATOM     40  C6  SAM d   1      90.436  -0.928 -11.046  0.00  0.00     0.155 A 
ATOM     41  C4  SAM d   1      88.200   0.161 -10.792  0.00  0.00     0.167 A 
ATOM     42  N6  SAM d   1      91.631  -1.011 -11.645  0.00  0.00    -0.382 N 
ATOM     43  N1  SAM d   1      90.077  -1.770 -10.074  0.00  0.00    -0.222 NA
ATOM     44  H21 SAM d   1      92.303  -1.736 -11.356  0.00  0.00     0.157 HD
ATOM     45  H22 SAM d   1      91.878  -0.350 -12.395  0.00  0.00     0.157 HD
ATOM     46  C2  SAM d   1      88.885  -1.664  -9.507  0.00  0.00     0.091 A 
ATOM     47  N3  SAM d   1      87.972  -0.746  -9.834  0.00  0.00    -0.222 NA
ATOM     48  H23 SAM d   1      88.633  -2.370  -8.724  0.00  0.00     0.146 H 
ENDBRANCH   5  35
BRANCH   4  49
ATOM     49  O2' SAM d   1      86.261   3.703  -9.751  0.00  0.00    -0.388 OA
ATOM     50  H18 SAM d   1      85.788   3.272  -9.049  0.00  0.00     0.210 HD
ENDBRANCH   4  49
TORSDOF 11
