REMARK  7 active torsions:
REMARK  status: ('A' for Active; 'I' for Inactive)
REMARK    1  A    between atoms: N17_24  and  C18_1 
REMARK    2  A    between atoms: C12_11  and  C16_2 
REMARK       I    between atoms: C16_2  and  N17_24 
REMARK    3  A    between atoms: C14_23  and  C15_3 
REMARK    4  A    between atoms: C15_3  and  C32_32 
REMARK    5  A    between atoms: C19_4  and  N27_28 
REMARK    6  A    between atoms: C10_21  and  C3_14 
REMARK    7  A    between atoms: C7_18  and  C28_29 
ROOT
ATOM      1  C11 5RC d   1     -43.484 -22.246  -3.082  0.00  0.00    -0.049 A 
ATOM      2  C12 5RC d   1     -42.243 -22.837  -3.070  0.00  0.00     0.073 A 
ATOM      3  C10 5RC d   1     -44.134 -22.261  -1.799  0.00  0.00    -0.006 A 
ATOM      4  S13 5RC d   1     -41.867 -23.419  -1.480  0.00  0.00    -0.088 SA
ATOM      5  C14 5RC d   1     -43.380 -22.876  -0.824  0.00  0.00    -0.006 A 
ATOM      6  H11 5RC d   1     -43.931 -21.810  -3.974  0.00  0.00     0.087 H 
ENDROOT
BRANCH   2   7
ATOM      7  C16 5RC d   1     -41.415 -23.456  -4.125  0.00  0.00     0.259 C 
ATOM      8  N17 5RC d   1     -41.942 -23.610  -5.354  0.00  0.00    -0.344 N 
ATOM      9  H15 5RC d   1     -42.873 -23.283  -5.518  0.00  0.00     0.163 HD
ATOM     10  O25 5RC d   1     -40.253 -23.774  -3.867  0.00  0.00    -0.267 OA
BRANCH   8  11
ATOM     11  C18 5RC d   1     -41.217 -24.233  -6.461  0.00  0.00     0.102 C 
ATOM     12  C19 5RC d   1     -41.514 -23.577  -7.825  0.00  0.00     0.125 C 
ATOM     13  C20 5RC d   1     -42.886 -23.999  -8.351  0.00  0.00    -0.036 C 
ATOM     14  H4  5RC d   1     -40.760 -23.951  -8.533  0.00  0.00     0.087 H 
ATOM     15  C21 5RC d   1     -43.009 -25.517  -8.472  0.00  0.00    -0.058 C 
ATOM     16  H5  5RC d   1     -43.040 -23.550  -9.343  0.00  0.00     0.036 H 
ATOM     17  H6  5RC d   1     -43.660 -23.634  -7.659  0.00  0.00     0.036 H 
ATOM     18  C22 5RC d   1     -42.806 -26.210  -7.126  0.00  0.00    -0.002 C 
ATOM     19  H7  5RC d   1     -42.248 -25.881  -9.178  0.00  0.00     0.033 H 
ATOM     20  H8  5RC d   1     -44.011 -25.764  -8.852  0.00  0.00     0.033 H 
ATOM     21  C23 5RC d   1     -41.510 -25.787  -6.496  0.00  0.00     0.265 C 
ATOM     22  H9  5RC d   1     -42.793 -27.299  -7.280  0.00  0.00     0.042 H 
ATOM     23  H10 5RC d   1     -43.636 -25.944  -6.455  0.00  0.00     0.042 H 
ATOM     24  F24 5RC d   1     -40.481 -26.451  -7.085  0.00  0.00    -0.204 F 
ATOM     25  F26 5RC d   1     -41.445 -26.267  -5.228  0.00  0.00    -0.204 F 
ATOM     26  H1  5RC d   1     -40.143 -24.100  -6.265  0.00  0.00     0.085 H 
BRANCH  12  27
ATOM     27  N27 5RC d   1     -41.393 -22.112  -7.801  0.00  0.00    -0.073 N 
ATOM     28  H16 5RC d   1     -40.483 -21.856  -7.452  0.00  0.00     0.274 HD
ATOM     29  H17 5RC d   1     -42.104 -21.726  -7.200  0.00  0.00     0.274 HD
ATOM     30  H18 5RC d   1     -41.509 -21.750  -8.735  0.00  0.00     0.274 HD
ENDBRANCH  12  27
ENDBRANCH   8  11
ENDBRANCH   2   7
BRANCH   3  31
ATOM     31  C3  5RC d   1     -45.492 -21.670  -1.574  0.00  0.00     0.042 A 
ATOM     32  C2  5RC d   1     -46.565 -21.652  -2.459  0.00  0.00     0.162 A 
ATOM     33  N1  5RC d   1     -47.635 -21.042  -1.810  0.00  0.00    -0.225 N 
ATOM     34  N9  5RC d   1     -46.635 -22.099  -3.720  0.00  0.00    -0.240 NA
ATOM     35  N5  5RC d   1     -47.301 -20.640  -0.519  0.00  0.00    -0.178 NA
ATOM     36  C6  5RC d   1     -48.816 -20.859  -2.443  0.00  0.00     0.022 A 
ATOM     37  C4  5RC d   1     -45.985 -21.040  -0.418  0.00  0.00     0.037 A 
ATOM     38  H12 5RC d   1     -45.383 -20.882   0.475  0.00  0.00     0.118 H 
ATOM     39  C7  5RC d   1     -48.891 -21.286  -3.789  0.00  0.00     0.083 A 
ATOM     40  H13 5RC d   1     -49.668 -20.405  -1.940  0.00  0.00     0.116 H 
ATOM     41  C8  5RC d   1     -47.796 -21.910  -4.354  0.00  0.00     0.021 A 
ATOM     42  H14 5RC d   1     -47.884 -22.270  -5.378  0.00  0.00     0.116 H 
BRANCH  39  43
ATOM     43  C28 5RC d   1     -50.091 -20.965  -4.631  0.00  0.00     0.420 C 
ATOM     44  F30 5RC d   1     -49.773 -20.203  -5.700  0.00  0.00    -0.166 F 
ATOM     45  F29 5RC d   1     -50.654 -22.072  -5.153  0.00  0.00    -0.166 F 
ATOM     46  F31 5RC d   1     -51.061 -20.304  -3.953  0.00  0.00    -0.166 F 
ENDBRANCH  39  43
ENDBRANCH   3  31
BRANCH   5  47
ATOM     47  C15 5RC d   1     -43.693 -23.165   0.614  0.00  0.00    -0.037 C 
ATOM     48  H2  5RC d   1     -44.731 -22.857   0.810  0.00  0.00     0.040 H 
ATOM     49  H3  5RC d   1     -43.010 -22.574   1.242  0.00  0.00     0.040 H 
BRANCH  47  50
ATOM     50  C32 5RC d   1     -43.549 -24.620   0.995  0.00  0.00    -0.072 C 
ATOM     51  H19 5RC d   1     -43.795 -24.746   2.060  0.00  0.00     0.028 H 
ATOM     52  H20 5RC d   1     -42.513 -24.945   0.817  0.00  0.00     0.028 H 
ATOM     53  H21 5RC d   1     -44.234 -25.228   0.386  0.00  0.00     0.028 H 
ENDBRANCH  47  50
ENDBRANCH   5  47
TORSDOF 7
