REMARK WARNING: 32 MAX_TORS EXCEEDED!!!
REMARK  53 active torsions:
REMARK  status: ('A' for Active; 'I' for Inactive)
REMARK    1  A    between atoms: N_1  and  CA_2 
REMARK    2  A    between atoms: CA_2  and  C_3 
REMARK    3  A    between atoms: CA_2  and  CB_5 
REMARK       I    between atoms: C_3  and  N_10 
REMARK    4  A    between atoms: CB_5  and  CG_6 
REMARK    5  A    between atoms: CG_6  and  CD_7 
REMARK       I    between atoms: CD_7  and  NE2_9 
REMARK    6  A    between atoms: N_10  and  CA_11 
REMARK    7  A    between atoms: CA_11  and  C_12 
REMARK    8  A    between atoms: CA_11  and  CB_14 
REMARK       I    between atoms: C_12  and  N_21 
REMARK    9  A    between atoms: CB_14  and  CG_15 
REMARK   10  A    between atoms: N_21  and  CA_22 
REMARK   11  A    between atoms: CA_22  and  C_23 
REMARK   12  A    between atoms: CA_22  and  CB_25 
REMARK       I    between atoms: C_23  and  N_29 
REMARK   13  A    between atoms: CB_25  and  CG_26 
REMARK   14  A    between atoms: N_29  and  CA_30 
REMARK   15  A    between atoms: CA_30  and  C_31 
REMARK   16  A    between atoms: CA_30  and  CB_33 
REMARK       I    between atoms: C_31  and  N_37 
REMARK   17  A    between atoms: CB_33  and  CG_34 
REMARK   18  A    between atoms: CG_34  and  CD1_35 
REMARK   19  A    between atoms: CG_34  and  CD2_36 
REMARK   20  A    between atoms: N_37  and  CA_38 
REMARK   21  A    between atoms: CA_38  and  C_39 
REMARK   22  A    between atoms: CA_38  and  CB_41 
REMARK       I    between atoms: C_39  and  N_43 
REMARK   23  A    between atoms: CB_41  and  OG_42 
REMARK   24  A    between atoms: N_43  and  CA_44 
REMARK   25  A    between atoms: CA_44  and  C_45 
REMARK   26  A    between atoms: CA_44  and  CB_47 
REMARK       I    between atoms: C_45  and  N_50 
REMARK   27  A    between atoms: CB_47  and  OG1_48 
REMARK   28  A    between atoms: CB_47  and  CG2_49 
REMARK   29  A    between atoms: N_50  and  CA_51 
REMARK   30  A    between atoms: CA_51  and  C_52 
REMARK   31  A    between atoms: CA_51  and  CB_54 
REMARK       I    between atoms: C_52  and  N_61 
REMARK   32  A    between atoms: CB_54  and  CG_55 
REMARK   33  A    between atoms: CG_55  and  CD_56 
REMARK   34  A    between atoms: CD_56  and  NE_57 
REMARK       I    between atoms: NE_57  and  CZ_58 
REMARK       I    between atoms: CZ_58  and  NH1_59 
REMARK       I    between atoms: CZ_58  and  NH2_60 
REMARK   35  A    between atoms: N_61  and  CA_62 
REMARK   36  A    between atoms: CA_62  and  C_63 
REMARK   37  A    between atoms: CA_62  and  CB_65 
REMARK       I    between atoms: C_63  and  N_72 
REMARK   38  A    between atoms: CB_65  and  CG_66 
REMARK   39  A    between atoms: CG_66  and  CD_67 
REMARK   40  A    between atoms: CD_67  and  NE_68 
REMARK       I    between atoms: NE_68  and  CZ_69 
REMARK       I    between atoms: CZ_69  and  NH1_70 
REMARK   41  A    between atoms: N_72  and  CA_73 
REMARK   42  A    between atoms: CA_73  and  C_74 
REMARK   43  A    between atoms: CA_73  and  CB_76 
REMARK       I    between atoms: C_74  and  N_80 
REMARK   44  A    between atoms: CB_76  and  CG_77 
REMARK   45  A    between atoms: CG_77  and  CD1_78 
REMARK   46  A    between atoms: CG_77  and  CD2_79 
REMARK   47  A    between atoms: N_80  and  CA_81 
REMARK   48  A    between atoms: CA_81  and  C_82 
REMARK   49  A    between atoms: CA_81  and  CB_84 
REMARK   50  A    between atoms: CB_84  and  CG_85 
REMARK   51  A    between atoms: CG_85  and  CD_86 
REMARK   52  A    between atoms: CD_86  and  CE_87 
REMARK   53  A    between atoms: CE_87  and  NZ_88 
ROOT
ATOM      1  CA  THR d   1      28.710 -35.111 -33.289  0.00  0.00     0.113 C 
ATOM      2  H41 THR d   1      29.715 -35.101 -33.737  0.00  0.00     0.091 H 
ENDROOT
BRANCH   1   3
ATOM      3  N   THR d   1      28.089 -36.387 -33.630  0.00  0.00    -0.344 N 
ATOM      4  C   SER d   1      28.804 -37.419 -34.067  0.00  0.00     0.243 C 
ATOM      5  O   SER d   1      30.033 -37.408 -34.120  0.00  0.00    -0.271 OA
ATOM      6  H40 THR d   1      27.099 -36.488 -33.532  0.00  0.00     0.163 HD
BRANCH   4   7
ATOM      7  CA  SER d   1      28.016 -38.651 -34.505  0.00  0.00     0.109 C 
ATOM      8  H36 SER d   1      28.727 -39.481 -34.631  0.00  0.00     0.090 H 
BRANCH   7   9
ATOM      9  N   SER d   1      27.028 -39.056 -33.512  0.00  0.00    -0.344 N 
ATOM     10  C   LEU d   1      27.388 -39.583 -32.347  0.00  0.00     0.241 C 
ATOM     11  O   LEU d   1      28.563 -39.715 -32.007  0.00  0.00    -0.271 OA
ATOM     12  H35 SER d   1      26.056 -38.934 -33.713  0.00  0.00     0.163 HD
BRANCH  10  13
ATOM     13  CA  LEU d   1      26.258 -40.037 -31.429  0.00  0.00     0.089 C 
ATOM     14  H25 LEU d   1      26.580 -39.880 -30.389  0.00  0.00     0.087 H 
BRANCH  13  15
ATOM     15  N   LEU d   1      25.022 -39.288 -31.633  0.00  0.00    -0.346 N 
ATOM     16  C   ASP d   1      24.944 -37.975 -31.441  0.00  0.00     0.241 C 
ATOM     17  O   ASP d   1      25.906 -37.283 -31.114  0.00  0.00    -0.271 OA
ATOM     18  H24 LEU d   1      24.203 -39.781 -31.928  0.00  0.00     0.163 HD
BRANCH  16  19
ATOM     19  CA  ASP d   1      23.571 -37.350 -31.654  0.00  0.00     0.098 C 
ATOM     20  H21 ASP d   1      22.865 -38.146 -31.932  0.00  0.00     0.088 H 
BRANCH  19  21
ATOM     21  N   ASP d   1      23.103 -36.731 -30.419  0.00  0.00    -0.345 N 
ATOM     22  C   PHE d   1      22.056 -37.209 -29.755  0.00  0.00     0.241 C 
ATOM     23  O   PHE d   1      21.370 -38.138 -30.171  0.00  0.00    -0.271 OA
ATOM     24  H20 ASP d   1      23.581 -35.928 -30.064  0.00  0.00     0.163 HD
BRANCH  22  25
ATOM     25  CA  PHE d   1      21.737 -36.538 -28.425  0.00  0.00     0.093 C 
ATOM     26  H12 PHE d   1      22.222 -35.551 -28.422  0.00  0.00     0.088 H 
BRANCH  25  27
ATOM     27  N   PHE d   1      20.309 -36.340 -28.201  0.00  0.00    -0.346 N 
ATOM     28  C   GLN d   1      19.534 -35.620 -29.005  0.00  0.00     0.249 C 
ATOM     29  O   GLN d   1      19.914 -35.159 -30.083  0.00  0.00    -0.271 OA
ATOM     30  H11 PHE d   1      19.891 -36.769 -27.400  0.00  0.00     0.163 HD
BRANCH  28  31
ATOM     31  CA  GLN d   1      18.107 -35.390 -28.505  0.00  0.00     0.176 C 
ATOM     32  H4  GLN d   1      18.099 -35.581 -27.422  0.00  0.00     0.099 H 
BRANCH  31  33
ATOM     33  N   GLN d   1      17.684 -34.009 -28.719  0.00  0.00    -0.066 N 
ATOM     34  H1  GLN d   1      16.742 -33.890 -28.380  0.00  0.00     0.275 HD
ATOM     35  H2  GLN d   1      17.716 -33.797 -29.704  0.00  0.00     0.275 HD
ATOM     36  H3  GLN d   1      18.302 -33.387 -28.221  0.00  0.00     0.275 HD
ENDBRANCH  31  33
BRANCH  31  37
ATOM     37  CB  GLN d   1      17.118 -36.362 -29.160  0.00  0.00    -0.022 C 
ATOM     38  H5  GLN d   1      17.002 -36.070 -30.214  0.00  0.00     0.037 H 
ATOM     39  H6  GLN d   1      16.152 -36.263 -28.643  0.00  0.00     0.037 H 
BRANCH  37  40
ATOM     40  CG  GLN d   1      17.524 -37.828 -29.121  0.00  0.00     0.011 C 
ATOM     41  H7  GLN d   1      18.035 -38.028 -28.168  0.00  0.00     0.047 H 
ATOM     42  H8  GLN d   1      18.213 -38.026 -29.955  0.00  0.00     0.047 H 
BRANCH  40  43
ATOM     43  CD  GLN d   1      16.331 -38.764 -29.241  0.00  0.00     0.215 C 
ATOM     44  OE1 GLN d   1      15.195 -38.380 -28.957  0.00  0.00    -0.274 OA
ATOM     45  NE2 GLN d   1      16.585 -40.001 -29.660  0.00  0.00    -0.370 N 
ATOM     46  H9  GLN d   1      15.838 -40.659 -29.758  0.00  0.00     0.159 HD
ATOM     47  H10 GLN d   1      17.523 -40.273 -29.877  0.00  0.00     0.159 HD
ENDBRANCH  40  43
ENDBRANCH  37  40
ENDBRANCH  31  37
ENDBRANCH  28  31
ENDBRANCH  25  27
BRANCH  25  48
ATOM     48  CB  PHE d   1      22.305 -37.368 -27.275  0.00  0.00    -0.014 C 
ATOM     49  H13 PHE d   1      21.864 -38.374 -27.325  0.00  0.00     0.043 H 
ATOM     50  H14 PHE d   1      22.017 -36.888 -26.328  0.00  0.00     0.043 H 
BRANCH  48  51
ATOM     51  CG  PHE d   1      23.797 -37.507 -27.296  0.00  0.00    -0.056 A 
ATOM     52  CD1 PHE d   1      24.609 -36.421 -27.024  0.00  0.00    -0.077 A 
ATOM     53  CE1 PHE d   1      25.981 -36.548 -27.029  0.00  0.00    -0.082 A 
ATOM     54  H15 PHE d   1      24.161 -35.459 -26.804  0.00  0.00     0.084 H 
ATOM     55  CZ  PHE d   1      26.560 -37.775 -27.296  0.00  0.00    -0.083 A 
ATOM     56  H17 PHE d   1      26.606 -35.687 -26.824  0.00  0.00     0.083 H 
ATOM     57  CE2 PHE d   1      25.761 -38.868 -27.560  0.00  0.00    -0.082 A 
ATOM     58  H19 PHE d   1      27.639 -37.878 -27.298  0.00  0.00     0.083 H 
ATOM     59  CD2 PHE d   1      24.387 -38.733 -27.555  0.00  0.00    -0.077 A 
ATOM     60  H18 PHE d   1      26.211 -39.831 -27.771  0.00  0.00     0.083 H 
ATOM     61  H16 PHE d   1      23.763 -39.596 -27.756  0.00  0.00     0.084 H 
ENDBRANCH  48  51
ENDBRANCH  25  48
ENDBRANCH  22  25
ENDBRANCH  19  21
BRANCH  19  62
ATOM     62  CB  ASP d   1      23.620 -36.330 -32.794  0.00  0.00     0.043 C 
ATOM     63  H22 ASP d   1      24.299 -35.513 -32.507  0.00  0.00     0.052 H 
ATOM     64  H23 ASP d   1      22.608 -35.928 -32.951  0.00  0.00     0.052 H 
BRANCH  62  65
ATOM     65  CG  ASP d   1      24.111 -36.936 -34.098  0.00  0.00     0.175 C 
ATOM     66  OD1 ASP d   1      23.962 -38.164 -34.280  0.00  0.00    -0.648 OA
ATOM     67  OD2 ASP d   1      24.642 -36.186 -34.943  0.00  0.00    -0.648 OA
ENDBRANCH  62  65
ENDBRANCH  19  62
ENDBRANCH  16  19
ENDBRANCH  13  15
BRANCH  13  68
ATOM     68  CB  LEU d   1      26.006 -41.529 -31.641  0.00  0.00    -0.035 C 
ATOM     69  H26 LEU d   1      26.971 -42.050 -31.551  0.00  0.00     0.037 H 
ATOM     70  H27 LEU d   1      25.610 -41.663 -32.659  0.00  0.00     0.037 H 
BRANCH  68  71
ATOM     71  CG  LEU d   1      25.028 -42.183 -30.669  0.00  0.00    -0.059 C 
ATOM     72  H28 LEU d   1      24.127 -41.556 -30.603  0.00  0.00     0.038 H 
BRANCH  71  73
ATOM     73  CD1 LEU d   1      24.622 -43.557 -31.170  0.00  0.00    -0.073 C 
ATOM     74  H29 LEU d   1      23.918 -44.013 -30.459  0.00  0.00     0.028 H 
ATOM     75  H30 LEU d   1      25.515 -44.193 -31.261  0.00  0.00     0.028 H 
ATOM     76  H31 LEU d   1      24.139 -43.461 -32.153  0.00  0.00     0.028 H 
ENDBRANCH  71  73
BRANCH  71  77
ATOM     77  CD2 LEU d   1      25.653 -42.276 -29.288  0.00  0.00    -0.073 C 
ATOM     78  H32 LEU d   1      25.939 -41.270 -28.946  0.00  0.00     0.028 H 
ATOM     79  H33 LEU d   1      26.547 -42.916 -29.332  0.00  0.00     0.028 H 
ATOM     80  H34 LEU d   1      24.926 -42.709 -28.585  0.00  0.00     0.028 H 
ENDBRANCH  71  77
ENDBRANCH  68  71
ENDBRANCH  13  68
ENDBRANCH  10  13
ENDBRANCH   7   9
BRANCH   7  81
ATOM     81  CB  SER d   1      27.342 -38.388 -35.854  0.00  0.00     0.044 C 
ATOM     82  H37 SER d   1      28.111 -38.117 -36.593  0.00  0.00     0.077 H 
ATOM     83  H38 SER d   1      26.630 -37.557 -35.744  0.00  0.00     0.077 H 
BRANCH  81  84
ATOM     84  OG  SER d   1      26.647 -39.535 -36.309  0.00  0.00    -0.398 OA
ATOM     85  H39 SER d   1      27.258 -40.255 -36.410  0.00  0.00     0.209 HD
ENDBRANCH  81  84
ENDBRANCH   7  81
ENDBRANCH   4   7
ENDBRANCH   1   3
BRANCH   1  86
ATOM     86  C   THR d   1      28.861 -34.899 -31.784  0.00  0.00     0.243 C 
ATOM     87  O   THR d   1      29.476 -33.923 -31.350  0.00  0.00    -0.271 OA
ATOM     88  N   ARG d   1      28.299 -35.815 -31.000  0.00  0.00    -0.346 N 
ATOM     89  H47 ARG d   1      27.910 -36.634 -31.422  0.00  0.00     0.163 HD
BRANCH  88  90
ATOM     90  CA  ARG d   1      28.227 -35.673 -29.545  0.00  0.00     0.089 C 
ATOM     91  H48 ARG d   1      27.629 -36.513 -29.163  0.00  0.00     0.087 H 
BRANCH  90  92
ATOM     92  C   ARG d   1      27.521 -34.382 -29.136  0.00  0.00     0.241 C 
ATOM     93  O   ARG d   1      27.784 -33.827 -28.070  0.00  0.00    -0.271 OA
ATOM     94  N   ARG d   1      26.622 -33.913 -29.995  0.00  0.00    -0.346 N 
ATOM     95  H60 ARG d   1      26.464 -34.409 -30.849  0.00  0.00     0.163 HD
BRANCH  94  96
ATOM     96  CA  ARG d   1      25.860 -32.701 -29.733  0.00  0.00     0.089 C 
ATOM     97  H61 ARG d   1      26.125 -32.328 -28.733  0.00  0.00     0.087 H 
BRANCH  96  98
ATOM     98  C   ARG d   1      24.367 -32.991 -29.769  0.00  0.00     0.241 C 
ATOM     99  O   ARG d   1      23.932 -33.984 -30.352  0.00  0.00    -0.271 OA
ATOM    100  N   LEU d   1      23.586 -32.117 -29.143  0.00  0.00    -0.346 N 
ATOM    101  H73 LEU d   1      24.007 -31.360 -28.644  0.00  0.00     0.163 HD
BRANCH 100 102
ATOM    102  CA  LEU d   1      22.135 -32.231 -29.163  0.00  0.00     0.089 C 
ATOM    103  H74 LEU d   1      21.862 -33.297 -29.169  0.00  0.00     0.087 H 
BRANCH 102 104
ATOM    104  C   LEU d   1      21.582 -31.573 -30.422  0.00  0.00     0.241 C 
ATOM    105  O   LEU d   1      21.997 -30.474 -30.788  0.00  0.00    -0.271 OA
ATOM    106  N   LYS d   1      20.650 -32.251 -31.084  0.00  0.00    -0.345 N 
ATOM    107  H84 LYS d   1      20.348 -33.136 -30.731  0.00  0.00     0.163 HD
BRANCH 106 108
ATOM    108  CA  LYS d   1      20.056 -31.736 -32.313  0.00  0.00     0.096 C 
ATOM    109  H85 LYS d   1      20.821 -31.143 -32.835  0.00  0.00     0.089 H 
BRANCH 108 110
ATOM    110  C   LYS d   1      18.868 -30.824 -32.026  0.00  0.00     0.196 C 
ATOM    111  O   LYS d   1      19.016 -29.604 -31.951  0.00  0.00    -0.646 OA
ATOM    112  OXT LYS d   1      17.741 -31.292 -31.864  0.00  0.00    -0.646 OA
ENDBRANCH 108 110
BRANCH 108 113
ATOM    113  CB  LYS d   1      19.633 -32.885 -33.232  0.00  0.00    -0.037 C 
ATOM    114  H86 LYS d   1      19.051 -32.466 -34.066  0.00  0.00     0.036 H 
ATOM    115  H87 LYS d   1      19.001 -33.576 -32.655  0.00  0.00     0.036 H 
BRANCH 113 116
ATOM    116  CG  LYS d   1      20.799 -33.671 -33.809  0.00  0.00    -0.061 C 
ATOM    117  H88 LYS d   1      21.355 -34.140 -32.984  0.00  0.00     0.033 H 
ATOM    118  H89 LYS d   1      21.461 -32.979 -34.351  0.00  0.00     0.033 H 
BRANCH 116 119
ATOM    119  CD  LYS d   1      20.332 -34.756 -34.766  0.00  0.00    -0.043 C 
ATOM    120  H90 LYS d   1      21.208 -35.186 -35.273  0.00  0.00     0.035 H 
ATOM    121  H91 LYS d   1      19.659 -34.309 -35.512  0.00  0.00     0.035 H 
BRANCH 119 122
ATOM    122  CE  LYS d   1      19.592 -35.863 -34.035  0.00  0.00     0.080 C 
ATOM    123  H92 LYS d   1      18.679 -35.446 -33.584  0.00  0.00     0.075 H 
ATOM    124  H93 LYS d   1      20.241 -36.265 -33.243  0.00  0.00     0.075 H 
BRANCH 122 125
ATOM    125  NZ  LYS d   1      19.214 -36.968 -34.958  0.00  0.00    -0.079 N 
ATOM    126  H94 LYS d   1      18.726 -37.684 -34.443  0.00  0.00     0.274 HD
ATOM    127  H95 LYS d   1      20.046 -37.359 -35.372  0.00  0.00     0.274 HD
ATOM    128  H96 LYS d   1      18.614 -36.609 -35.684  0.00  0.00     0.274 HD
ENDBRANCH 122 125
ENDBRANCH 119 122
ENDBRANCH 116 119
ENDBRANCH 113 116
ENDBRANCH 108 113
ENDBRANCH 106 108
ENDBRANCH 102 104
BRANCH 102 129
ATOM    129  CB  LEU d   1      21.533 -31.575 -27.920  0.00  0.00    -0.035 C 
ATOM    130  H75 LEU d   1      20.441 -31.702 -27.968  0.00  0.00     0.037 H 
ATOM    131  H76 LEU d   1      21.779 -30.503 -27.953  0.00  0.00     0.037 H 
BRANCH 129 132
ATOM    132  CG  LEU d   1      22.008 -32.123 -26.573  0.00  0.00    -0.059 C 
ATOM    133  H77 LEU d   1      23.108 -32.108 -26.566  0.00  0.00     0.038 H 
BRANCH 132 134
ATOM    134  CD1 LEU d   1      21.515 -31.249 -25.428  0.00  0.00    -0.073 C 
ATOM    135  H78 LEU d   1      21.869 -31.663 -24.472  0.00  0.00     0.028 H 
ATOM    136  H79 LEU d   1      20.415 -31.225 -25.432  0.00  0.00     0.028 H 
ATOM    137  H80 LEU d   1      21.905 -30.228 -25.552  0.00  0.00     0.028 H 
ENDBRANCH 132 134
BRANCH 132 138
ATOM    138  CD2 LEU d   1      21.553 -33.562 -26.385  0.00  0.00    -0.073 C 
ATOM    139  H81 LEU d   1      21.919 -34.175 -27.222  0.00  0.00     0.028 H 
ATOM    140  H82 LEU d   1      20.454 -33.599 -26.358  0.00  0.00     0.028 H 
ATOM    141  H83 LEU d   1      21.956 -33.954 -25.440  0.00  0.00     0.028 H 
ENDBRANCH 132 138
ENDBRANCH 129 132
ENDBRANCH 102 129
ENDBRANCH 100 102
ENDBRANCH  96  98
BRANCH  96 142
ATOM    142  CB  ARG d   1      26.196 -31.625 -30.766  0.00  0.00    -0.036 C 
ATOM    143  H62 ARG d   1      25.550 -30.754 -30.579  0.00  0.00     0.036 H 
ATOM    144  H63 ARG d   1      25.984 -32.030 -31.767  0.00  0.00     0.036 H 
BRANCH 142 145
ATOM    145  CG  ARG d   1      27.640 -31.160 -30.738  0.00  0.00    -0.048 C 
ATOM    146  H64 ARG d   1      27.816 -30.486 -31.589  0.00  0.00     0.035 H 
ATOM    147  H65 ARG d   1      28.300 -32.036 -30.821  0.00  0.00     0.035 H 
BRANCH 145 148
ATOM    148  CD  ARG d   1      27.957 -30.422 -29.449  0.00  0.00     0.009 C 
ATOM    149  H66 ARG d   1      28.957 -29.972 -29.533  0.00  0.00     0.064 H 
ATOM    150  H67 ARG d   1      27.946 -31.140 -28.616  0.00  0.00     0.064 H 
BRANCH 148 151
ATOM    151  NE  ARG d   1      26.986 -29.367 -29.176  0.00  0.00    -0.227 N 
ATOM    152  CZ  ARG d   1      27.005 -28.165 -29.744  0.00  0.00     0.665 C 
ATOM    153  NH1 ARG d   1      27.946 -27.857 -30.627  0.00  0.00    -0.235 N 
ATOM    154  NH2 ARG d   1      26.078 -27.270 -29.431  0.00  0.00    -0.235 N 
ATOM    155  H69 ARG d   1      27.956 -26.924 -31.064  0.00  0.00     0.174 HD
ATOM    156  H70 ARG d   1      28.666 -28.550 -30.875  0.00  0.00     0.174 HD
ATOM    157  H71 ARG d   1      25.346 -27.505 -28.746  0.00  0.00     0.174 HD
ATOM    158  H72 ARG d   1      26.090 -26.340 -29.873  0.00  0.00     0.174 HD
ATOM    159  H68 ARG d   1      26.236 -29.567 -28.498  0.00  0.00     0.177 HD
ENDBRANCH 148 151
ENDBRANCH 145 148
ENDBRANCH 142 145
ENDBRANCH  96 142
ENDBRANCH  94  96
ENDBRANCH  90  92
BRANCH  90 160
ATOM    160  CB  ARG d   1      29.613 -35.761 -28.899  0.00  0.00    -0.036 C 
ATOM    161  H49 ARG d   1      29.488 -35.736 -27.806  0.00  0.00     0.036 H 
ATOM    162  H50 ARG d   1      30.201 -34.889 -29.221  0.00  0.00     0.036 H 
BRANCH 160 163
ATOM    163  CG  ARG d   1      30.382 -37.015 -29.263  0.00  0.00    -0.048 C 
ATOM    164  H51 ARG d   1      30.794 -36.901 -30.276  0.00  0.00     0.035 H 
ATOM    165  H52 ARG d   1      29.697 -37.875 -29.240  0.00  0.00     0.035 H 
BRANCH 163 166
ATOM    166  CD  ARG d   1      31.520 -37.264 -28.292  0.00  0.00     0.009 C 
ATOM    167  H53 ARG d   1      31.111 -37.325 -27.273  0.00  0.00     0.064 H 
ATOM    168  H54 ARG d   1      32.230 -36.426 -28.353  0.00  0.00     0.064 H 
BRANCH 166 169
ATOM    169  NE  ARG d   1      32.228 -38.505 -28.592  0.00  0.00    -0.227 N 
ATOM    170  CZ  ARG d   1      33.217 -38.997 -27.855  0.00  0.00     0.665 C 
ATOM    171  NH1 ARG d   1      33.618 -38.353 -26.766  0.00  0.00    -0.235 N 
ATOM    172  NH2 ARG d   1      33.805 -40.133 -28.204  0.00  0.00    -0.235 N 
ATOM    173  H56 ARG d   1      34.385 -38.735 -26.195  0.00  0.00     0.174 HD
ATOM    174  H57 ARG d   1      33.162 -37.471 -26.492  0.00  0.00     0.174 HD
ATOM    175  H58 ARG d   1      33.496 -40.635 -29.049  0.00  0.00     0.174 HD
ATOM    176  H59 ARG d   1      34.571 -40.514 -27.630  0.00  0.00     0.174 HD
ATOM    177  H55 ARG d   1      31.942 -39.033 -29.429  0.00  0.00     0.177 HD
ENDBRANCH 166 169
ENDBRANCH 163 166
ENDBRANCH 160 163
ENDBRANCH  90 160
ENDBRANCH  88  90
ENDBRANCH   1  86
BRANCH   1 178
ATOM    178  CB  THR d   1      27.905 -33.934 -33.870  0.00  0.00     0.060 C 
ATOM    179  H42 THR d   1      28.313 -32.990 -33.479  0.00  0.00     0.086 H 
BRANCH 178 180
ATOM    180  OG1 THR d   1      26.530 -34.056 -33.481  0.00  0.00    -0.393 OA
ATOM    181  H43 THR d   1      26.035 -33.329 -33.840  0.00  0.00     0.210 HD
ENDBRANCH 178 180
BRANCH 178 182
ATOM    182  CG2 THR d   1      27.992 -33.926 -35.384  0.00  0.00    -0.050 C 
ATOM    183  H44 THR d   1      27.412 -33.080 -35.780  0.00  0.00     0.031 H 
ATOM    184  H45 THR d   1      27.584 -34.868 -35.780  0.00  0.00     0.031 H 
ATOM    185  H46 THR d   1      29.044 -33.825 -35.690  0.00  0.00     0.031 H 
ENDBRANCH 178 182
ENDBRANCH   1 178
TORSDOF 53
