REMARK  13 active torsions:
REMARK  status: ('A' for Active; 'I' for Inactive)
REMARK    1  A    between atoms: C_1  and  O2_3 
REMARK       I    between atoms: C_1  and  N_11 
REMARK    2  A    between atoms: O2_3  and  C1'_4 
REMARK    3  A    between atoms: C1'_4  and  C1_5 
REMARK    4  A    between atoms: N_11  and  CA_12 
REMARK    5  A    between atoms: CA_12  and  C_13 
REMARK    6  A    between atoms: CA_12  and  CB_15 
REMARK       I    between atoms: C_13  and  N_16 
REMARK    7  A    between atoms: N_16  and  CA_17 
REMARK    8  A    between atoms: CA_17  and  CB_18 
REMARK    9  A    between atoms: CA_17  and  B_22 
REMARK   10  A    between atoms: CB_18  and  CG1_19 
REMARK   11  A    between atoms: CB_18  and  CG2_20 
REMARK   12  A    between atoms: CG1_19  and  CD1_21 
REMARK   13  A    between atoms: B_22  and  O1_23 
ROOT
ATOM      1  CA  0P2 d   1     -11.245  18.962  39.274  0.00  0.00     0.088 C 
ATOM      2  H9  0P2 d   1     -11.414  19.638  40.126  0.00  0.00     0.087 H 
ENDROOT
BRANCH   1   3
ATOM      3  N   0P2 d   1     -12.469  18.300  38.944  0.00  0.00    -0.324 N 
ATOM      4  C   0P2 d   1     -13.627  18.873  38.629  0.00  0.00     0.361 C 
ATOM      5  O1  0P2 d   1     -13.827  20.088  38.598  0.00  0.00    -0.238 OA
ATOM      6  H8  0P2 d   1     -12.452  17.300  38.951  0.00  0.00     0.165 HD
BRANCH   4   7
ATOM      7  O2  0P2 d   1     -14.586  17.888  38.497  0.00  0.00    -0.299 OA
BRANCH   7   8
ATOM      8  C1' 0P2 d   1     -16.003  18.244  38.393  0.00  0.00     0.054 C 
ATOM      9  H1  0P2 d   1     -16.420  17.864  37.449  0.00  0.00     0.082 H 
ATOM     10  H2  0P2 d   1     -16.123  19.337  38.434  0.00  0.00     0.082 H 
BRANCH   8  11
ATOM     11  C1  0P2 d   1     -16.708  17.596  39.574  0.00  0.00    -0.034 A 
ATOM     12  C2  0P2 d   1     -17.361  18.392  40.533  0.00  0.00    -0.075 A 
ATOM     13  C3  0P2 d   1     -17.865  17.801  41.697  0.00  0.00    -0.082 A 
ATOM     14  H3  0P2 d   1     -17.473  19.458  40.371  0.00  0.00     0.084 H 
ATOM     15  C4  0P2 d   1     -17.693  16.427  41.941  0.00  0.00    -0.083 A 
ATOM     16  H4  0P2 d   1     -18.395  18.410  42.420  0.00  0.00     0.083 H 
ATOM     17  C5  0P2 d   1     -17.068  15.629  40.957  0.00  0.00    -0.082 A 
ATOM     18  H5  0P2 d   1     -18.035  15.986  42.871  0.00  0.00     0.083 H 
ATOM     19  C6  0P2 d   1     -16.581  16.212  39.776  0.00  0.00    -0.075 A 
ATOM     20  H6  0P2 d   1     -16.964  14.562  41.114  0.00  0.00     0.083 H 
ATOM     21  H7  0P2 d   1     -16.108  15.595  39.021  0.00  0.00     0.084 H 
ENDBRANCH   8  11
ENDBRANCH   7   8
ENDBRANCH   4   7
ENDBRANCH   1   3
BRANCH   1  22
ATOM     22  C   0P2 d   1     -10.737  19.763  38.091  0.00  0.00     0.239 C 
ATOM     23  O   0P2 d   1     -10.811  19.305  36.936  0.00  0.00    -0.271 OA
ATOM     24  N   0P2 d   1     -10.325  20.987  38.435  0.00  0.00    -0.361 N 
ATOM     25  H13 0P2 d   1     -10.367  21.264  39.395  0.00  0.00     0.162 HD
BRANCH  24  26
ATOM     26  CA  0P2 d   1      -9.807  21.946  37.427  0.00  0.00     0.015 C 
ATOM     27  H14 0P2 d   1      -9.882  21.431  36.458  0.00  0.00     0.060 H 
BRANCH  26  28
ATOM     28  CB  0P2 d   1     -10.629  23.197  37.316  0.00  0.00    -0.044 C 
ATOM     29  H15 0P2 d   1     -10.086  23.890  36.657  0.00  0.00     0.041 H 
BRANCH  28  30
ATOM     30  CG1 0P2 d   1     -10.869  23.967  38.677  0.00  0.00    -0.064 C 
ATOM     31  H16 0P2 d   1      -9.998  23.804  39.328  0.00  0.00     0.033 H 
ATOM     32  H17 0P2 d   1     -11.768  23.554  39.157  0.00  0.00     0.033 H 
BRANCH  30  33
ATOM     33  CD1 0P2 d   1     -11.066  25.486  38.497  0.00  0.00    -0.076 C 
ATOM     34  H21 0P2 d   1     -11.227  25.954  39.480  0.00  0.00     0.027 H 
ATOM     35  H22 0P2 d   1     -11.941  25.669  37.856  0.00  0.00     0.027 H 
ATOM     36  H23 0P2 d   1     -10.171  25.919  38.027  0.00  0.00     0.027 H 
ENDBRANCH  30  33
ENDBRANCH  28  30
BRANCH  28  37
ATOM     37  CG2 0P2 d   1     -11.928  22.827  36.637  0.00  0.00    -0.072 C 
ATOM     38  H18 0P2 d   1     -11.713  22.296  35.698  0.00  0.00     0.028 H 
ATOM     39  H19 0P2 d   1     -12.501  23.740  36.418  0.00  0.00     0.028 H 
ATOM     40  H20 0P2 d   1     -12.516  22.176  37.300  0.00  0.00     0.028 H 
ENDBRANCH  28  37
ENDBRANCH  26  28
BRANCH  26  41
ATOM     41  B   0P2 d   1      -8.161  22.365  37.631  0.00  0.00     0.330 B 
ATOM     42  H24 0P2 d   1      -7.890  22.997  38.368  0.00  0.00     0.009 HD
BRANCH  41  43
ATOM     43  O1  0P2 d   1      -7.219  21.847  36.802  0.00  0.00    -0.464 OA
ATOM     44  H25 0P2 d   1      -7.225  20.899  36.871  0.00  0.00     0.182 HD
ENDBRANCH  41  43
ENDBRANCH  26  41
ENDBRANCH  24  26
ENDBRANCH   1  22
BRANCH   1  45
ATOM     45  CB  0P2 d   1     -10.208  17.917  39.648  0.00  0.00    -0.049 C 
ATOM     46  H10 0P2 d   1      -9.261  18.415  39.904  0.00  0.00     0.030 H 
ATOM     47  H11 0P2 d   1     -10.047  17.239  38.797  0.00  0.00     0.030 H 
ATOM     48  H12 0P2 d   1     -10.565  17.340  40.514  0.00  0.00     0.030 H 
ENDBRANCH   1  45
TORSDOF 13
