REMARK WARNING: 32 MAX_TORS EXCEEDED!!!
REMARK  72 active torsions:
REMARK  status: ('A' for Active; 'I' for Inactive)
REMARK    1  A    between atoms: N_1  and  CA_2 
REMARK    2  A    between atoms: CA_2  and  C_3 
REMARK       I    between atoms: C_3  and  N_5 
REMARK    3  A    between atoms: N_5  and  CA_6 
REMARK    4  A    between atoms: CA_6  and  C_7 
REMARK    5  A    between atoms: CA_6  and  CB_9 
REMARK       I    between atoms: C_7  and  N_13 
REMARK    6  A    between atoms: CB_9  and  CG_10 
REMARK    7  A    between atoms: CG_10  and  CD1_11 
REMARK    8  A    between atoms: CG_10  and  CD2_12 
REMARK    9  A    between atoms: N_13  and  CA_14 
REMARK   10  A    between atoms: CA_14  and  C_15 
REMARK   11  A    between atoms: CA_14  and  CB_17 
REMARK       I    between atoms: C_15  and  N_21 
REMARK   12  A    between atoms: CB_17  and  CG_18 
REMARK   13  A    between atoms: CG_18  and  CD1_19 
REMARK   14  A    between atoms: CG_18  and  CD2_20 
REMARK   15  A    between atoms: N_21  and  CA_22 
REMARK   16  A    between atoms: CA_22  and  C_23 
REMARK   17  A    between atoms: CA_22  and  CB_25 
REMARK       I    between atoms: C_23  and  N_30 
REMARK   18  A    between atoms: CB_25  and  CG_26 
REMARK   19  A    between atoms: CG_26  and  CD_27 
REMARK   20  A    between atoms: N_30  and  CA_31 
REMARK   21  A    between atoms: CA_31  and  C_32 
REMARK   22  A    between atoms: CA_31  and  CB_34 
REMARK       I    between atoms: C_32  and  N_41 
REMARK   23  A    between atoms: CB_34  and  CG_35 
REMARK   24  A    between atoms: CG_35  and  CD_36 
REMARK   25  A    between atoms: CD_36  and  NE_37 
REMARK       I    between atoms: NE_37  and  CZ_38 
REMARK       I    between atoms: CZ_38  and  NH1_39 
REMARK       I    between atoms: CZ_38  and  NH2_40 
REMARK   26  A    between atoms: N_41  and  CA_42 
REMARK   27  A    between atoms: CA_42  and  C_43 
REMARK   28  A    between atoms: CA_42  and  CB_45 
REMARK       I    between atoms: C_43  and  N_52 
REMARK   29  A    between atoms: CB_45  and  CG_46 
REMARK   30  A    between atoms: CG_46  and  CD_47 
REMARK   31  A    between atoms: CD_47  and  NE_48 
REMARK       I    between atoms: NE_48  and  CZ_49 
REMARK       I    between atoms: CZ_49  and  NH1_50 
REMARK   32  A    between atoms: N_52  and  CA_53 
REMARK   33  A    between atoms: CA_53  and  C_54 
REMARK       I    between atoms: C_54  and  N_56 
REMARK   34  A    between atoms: N_56  and  CA_57 
REMARK   35  A    between atoms: CA_57  and  C_58 
REMARK   36  A    between atoms: CA_57  and  CB_60 
REMARK       I    between atoms: C_58  and  N_63 
REMARK   37  A    between atoms: CB_60  and  CG1_61 
REMARK   38  A    between atoms: CB_60  and  CG2_62 
REMARK   39  A    between atoms: N_63  and  CA_64 
REMARK   40  A    between atoms: CA_64  and  C_65 
REMARK   41  A    between atoms: CA_64  and  CB_67 
REMARK       I    between atoms: C_65  and  N_69 
REMARK   42  A    between atoms: CB_67  and  OG_68 
REMARK   43  A    between atoms: N_69  and  CA_70 
REMARK   44  A    between atoms: CA_70  and  C_71 
REMARK   45  A    between atoms: CA_70  and  CB_73 
REMARK       I    between atoms: C_71  and  N_78 
REMARK   46  A    between atoms: CB_73  and  CG_74 
REMARK   47  A    between atoms: CG_74  and  CD_75 
REMARK   48  A    between atoms: N_78  and  CA_79 
REMARK   49  A    between atoms: CA_79  and  C_80 
REMARK   50  A    between atoms: CA_79  and  CB_82 
REMARK       I    between atoms: C_80  and  N_86 
REMARK   51  A    between atoms: CB_82  and  CG_83 
REMARK   52  A    between atoms: CG_83  and  CD1_84 
REMARK   53  A    between atoms: CG_83  and  CD2_85 
REMARK   54  A    between atoms: CA_87  and  C_88 
REMARK       I    between atoms: C_88  and  N_93 
REMARK   55  A    between atoms: CA_94  and  C_95 
REMARK       I    between atoms: C_95  and  N_100 
REMARK   56  A    between atoms: N_100  and  CA_101 
REMARK   57  A    between atoms: CA_101  and  C_102 
REMARK   58  A    between atoms: CA_101  and  CB_104 
REMARK       I    between atoms: C_102  and  N_108 
REMARK   59  A    between atoms: CB_104  and  CG_105 
REMARK   60  A    between atoms: CG_105  and  CD1_106 
REMARK   61  A    between atoms: CG_105  and  CD2_107 
REMARK   62  A    between atoms: N_108  and  CA_109 
REMARK   63  A    between atoms: CA_109  and  C_110 
REMARK   64  A    between atoms: CA_109  and  CB_112 
REMARK       I    between atoms: C_110  and  N_120 
REMARK   65  A    between atoms: CB_112  and  CG_113 
REMARK   66  A    between atoms: CZ_118  and  OH_119 
REMARK   67  A    between atoms: N_120  and  CA_121 
REMARK   68  A    between atoms: CA_121  and  C_122 
REMARK   69  A    between atoms: CA_121  and  CB_124 
REMARK   70  A    between atoms: CB_124  and  CG1_125 
REMARK   71  A    between atoms: CB_124  and  CG2_126 
REMARK   72  A    between atoms: CG1_125  and  CD1_127 
ROOT
ATOM      1  C   VAL d   1     -26.470  14.358 -37.674  0.00  0.00     0.241 C 
ATOM      2  O   VAL d   1     -26.252  15.375 -37.005  0.00  0.00    -0.271 OA
ATOM      3  N   SER d   1     -27.180  13.325 -37.225  0.00  0.00    -0.344 N 
ATOM      4  H72 SER d   1     -27.375  12.558 -37.836  0.00  0.00     0.163 HD
ENDROOT
BRANCH   1   5
ATOM      5  CA  VAL d   1     -25.925  14.234 -39.089  0.00  0.00     0.092 C 
ATOM      6  H64 VAL d   1     -26.420  13.389 -39.590  0.00  0.00     0.088 H 
BRANCH   5   7
ATOM      7  N   VAL d   1     -26.238  15.460 -39.816  0.00  0.00    -0.346 N 
ATOM      8  C   GLY d   1     -26.941  15.473 -40.948  0.00  0.00     0.236 C 
ATOM      9  O   GLY d   1     -27.385  14.446 -41.468  0.00  0.00    -0.272 OA
ATOM     10  H63 VAL d   1     -25.910  16.330 -39.448  0.00  0.00     0.163 HD
BRANCH   8  11
ATOM     11  CA  GLY d   1     -27.190  16.825 -41.585  0.00  0.00     0.069 C 
ATOM     12  H61 GLY d   1     -27.692  16.671 -42.552  0.00  0.00     0.078 H 
ATOM     13  H62 GLY d   1     -27.843  17.411 -40.922  0.00  0.00     0.078 H 
BRANCH  11  14
ATOM     14  N   GLY d   1     -25.968  17.571 -41.810  0.00  0.00    -0.351 N 
ATOM     15  C   ARG d   1     -24.956  17.054 -42.501  0.00  0.00     0.240 C 
ATOM     16  O   ARG d   1     -25.017  15.940 -43.030  0.00  0.00    -0.271 OA
ATOM     17  H60 GLY d   1     -25.884  18.495 -41.437  0.00  0.00     0.163 HD
BRANCH  15  18
ATOM     18  CA  ARG d   1     -23.688  17.883 -42.645  0.00  0.00     0.089 C 
ATOM     19  H48 ARG d   1     -23.565  18.144 -43.707  0.00  0.00     0.087 H 
BRANCH  18  20
ATOM     20  N   ARG d   1     -23.744  19.122 -41.881  0.00  0.00    -0.346 N 
ATOM     21  C   ARG d   1     -24.122  20.280 -42.420  0.00  0.00     0.241 C 
ATOM     22  O   ARG d   1     -24.414  20.391 -43.616  0.00  0.00    -0.271 OA
ATOM     23  H47 ARG d   1     -23.489  19.102 -40.914  0.00  0.00     0.163 HD
BRANCH  21  24
ATOM     24  CA  ARG d   1     -24.192  21.507 -41.519  0.00  0.00     0.089 C 
ATOM     25  H35 ARG d   1     -25.089  22.082 -41.793  0.00  0.00     0.087 H 
BRANCH  24  26
ATOM     26  N   ARG d   1     -24.305  21.151 -40.108  0.00  0.00    -0.346 N 
ATOM     27  C   GLU d   1     -25.419  20.567 -39.657  0.00  0.00     0.241 C 
ATOM     28  O   GLU d   1     -26.343  20.250 -40.415  0.00  0.00    -0.271 OA
ATOM     29  H34 ARG d   1     -23.551  21.344 -39.480  0.00  0.00     0.163 HD
BRANCH  27  30
ATOM     30  CA  GLU d   1     -25.516  20.298 -38.158  0.00  0.00     0.090 C 
ATOM     31  H29 GLU d   1     -26.354  19.604 -37.998  0.00  0.00     0.087 H 
BRANCH  30  32
ATOM     32  N   GLU d   1     -24.301  19.670 -37.649  0.00  0.00    -0.346 N 
ATOM     33  C   LEU d   1     -23.818  18.551 -38.193  0.00  0.00     0.241 C 
ATOM     34  O   LEU d   1     -24.426  17.928 -39.071  0.00  0.00    -0.271 OA
ATOM     35  H28 GLU d   1     -23.821  20.087 -36.877  0.00  0.00     0.163 HD
BRANCH  33  36
ATOM     36  CA  LEU d   1     -22.481  18.049 -37.666  0.00  0.00     0.089 C 
ATOM     37  H18 LEU d   1     -22.071  17.331 -38.391  0.00  0.00     0.087 H 
BRANCH  36  38
ATOM     38  N   LEU d   1     -21.533  19.151 -37.525  0.00  0.00    -0.346 N 
ATOM     39  C   LEU d   1     -21.132  19.818 -38.612  0.00  0.00     0.241 C 
ATOM     40  O   LEU d   1     -21.451  19.459 -39.751  0.00  0.00    -0.271 OA
ATOM     41  H17 LEU d   1     -21.186  19.405 -36.622  0.00  0.00     0.163 HD
BRANCH  39  42
ATOM     42  CA  LEU d   1     -20.257  21.051 -38.410  0.00  0.00     0.089 C 
ATOM     43  H7  LEU d   1     -20.350  21.681 -39.307  0.00  0.00     0.087 H 
BRANCH  42  44
ATOM     44  N   LEU d   1     -20.688  21.835 -37.258  0.00  0.00    -0.346 N 
ATOM     45  C   GLY d   1     -21.893  22.408 -37.247  0.00  0.00     0.243 C 
ATOM     46  O   GLY d   1     -22.731  22.221 -38.126  0.00  0.00    -0.272 OA
ATOM     47  H6  LEU d   1     -20.078  21.944 -36.473  0.00  0.00     0.163 HD
BRANCH  45  48
ATOM     48  CA  GLY d   1     -22.193  23.309 -36.067  0.00  0.00     0.152 C 
ATOM     49  H4  GLY d   1     -23.258  23.584 -36.090  0.00  0.00     0.090 H 
ATOM     50  H5  GLY d   1     -21.976  22.763 -35.137  0.00  0.00     0.090 H 
BRANCH  48  51
ATOM     51  N   GLY d   1     -21.371  24.553 -36.101  0.00  0.00    -0.071 N 
ATOM     52  H1  GLY d   1     -21.596  25.127 -35.303  0.00  0.00     0.274 HD
ATOM     53  H2  GLY d   1     -21.568  25.063 -36.948  0.00  0.00     0.274 HD
ATOM     54  H3  GLY d   1     -20.393  24.310 -36.075  0.00  0.00     0.274 HD
ENDBRANCH  48  51
ENDBRANCH  45  48
ENDBRANCH  42  44
BRANCH  42  55
ATOM     55  CB  LEU d   1     -18.787  20.661 -38.250  0.00  0.00    -0.035 C 
ATOM     56  H8  LEU d   1     -18.703  20.047 -37.342  0.00  0.00     0.037 H 
ATOM     57  H9  LEU d   1     -18.209  21.588 -38.120  0.00  0.00     0.037 H 
BRANCH  55  58
ATOM     58  CG  LEU d   1     -18.152  19.877 -39.399  0.00  0.00    -0.059 C 
ATOM     59  H10 LEU d   1     -18.683  18.919 -39.501  0.00  0.00     0.038 H 
BRANCH  58  60
ATOM     60  CD1 LEU d   1     -18.271  20.633 -40.707  0.00  0.00    -0.073 C 
ATOM     61  H11 LEU d   1     -17.807  20.046 -41.513  0.00  0.00     0.028 H 
ATOM     62  H12 LEU d   1     -17.759  21.603 -40.618  0.00  0.00     0.028 H 
ATOM     63  H13 LEU d   1     -19.333  20.799 -40.939  0.00  0.00     0.028 H 
ENDBRANCH  58  60
BRANCH  58  64
ATOM     64  CD2 LEU d   1     -16.689  19.593 -39.096  0.00  0.00    -0.073 C 
ATOM     65  H14 LEU d   1     -16.611  19.044 -38.146  0.00  0.00     0.028 H 
ATOM     66  H15 LEU d   1     -16.140  20.543 -39.017  0.00  0.00     0.028 H 
ATOM     67  H16 LEU d   1     -16.258  18.986 -39.906  0.00  0.00     0.028 H 
ENDBRANCH  58  64
ENDBRANCH  55  58
ENDBRANCH  42  55
ENDBRANCH  39  42
ENDBRANCH  36  38
BRANCH  36  68
ATOM     68  CB  LEU d   1     -22.672  17.330 -36.328  0.00  0.00    -0.035 C 
ATOM     69  H19 LEU d   1     -23.552  16.678 -36.429  0.00  0.00     0.037 H 
ATOM     70  H20 LEU d   1     -22.871  18.100 -35.568  0.00  0.00     0.037 H 
BRANCH  68  71
ATOM     71  CG  LEU d   1     -21.521  16.464 -35.810  0.00  0.00    -0.059 C 
ATOM     72  H21 LEU d   1     -20.621  17.092 -35.736  0.00  0.00     0.038 H 
BRANCH  71  73
ATOM     73  CD1 LEU d   1     -21.848  15.925 -34.424  0.00  0.00    -0.073 C 
ATOM     74  H22 LEU d   1     -21.013  15.305 -34.065  0.00  0.00     0.028 H 
ATOM     75  H23 LEU d   1     -22.762  15.315 -34.474  0.00  0.00     0.028 H 
ATOM     76  H24 LEU d   1     -22.005  16.765 -33.731  0.00  0.00     0.028 H 
ENDBRANCH  71  73
BRANCH  71  77
ATOM     77  CD2 LEU d   1     -21.227  15.317 -36.768  0.00  0.00    -0.073 C 
ATOM     78  H25 LEU d   1     -20.993  15.722 -37.764  0.00  0.00     0.028 H 
ATOM     79  H26 LEU d   1     -22.108  14.662 -36.837  0.00  0.00     0.028 H 
ATOM     80  H27 LEU d   1     -20.368  14.739 -36.396  0.00  0.00     0.028 H 
ENDBRANCH  71  77
ENDBRANCH  68  71
ENDBRANCH  36  68
ENDBRANCH  33  36
ENDBRANCH  30  32
BRANCH  30  81
ATOM     81  CB  GLU d   1     -25.799  21.575 -37.360  0.00  0.00    -0.029 C 
ATOM     82  H30 GLU d   1     -24.892  22.196 -37.382  0.00  0.00     0.037 H 
ATOM     83  H31 GLU d   1     -26.019  21.284 -36.322  0.00  0.00     0.037 H 
BRANCH  81  84
ATOM     84  CG  GLU d   1     -26.962  22.424 -37.867  0.00  0.00     0.018 C 
ATOM     85  H32 GLU d   1     -27.433  22.923 -37.007  0.00  0.00     0.049 H 
ATOM     86  H33 GLU d   1     -27.694  21.762 -38.353  0.00  0.00     0.049 H 
BRANCH  84  87
ATOM     87  CD  GLU d   1     -26.529  23.484 -38.866  0.00  0.00     0.172 C 
ATOM     88  OE1 GLU d   1     -25.353  23.906 -38.816  0.00  0.00    -0.648 OA
ATOM     89  OE2 GLU d   1     -27.363  23.902 -39.695  0.00  0.00    -0.648 OA
ENDBRANCH  84  87
ENDBRANCH  81  84
ENDBRANCH  30  81
ENDBRANCH  27  30
ENDBRANCH  24  26
BRANCH  24  90
ATOM     90  CB  ARG d   1     -22.961  22.383 -41.770  0.00  0.00    -0.036 C 
ATOM     91  H36 ARG d   1     -22.924  22.623 -42.843  0.00  0.00     0.036 H 
ATOM     92  H37 ARG d   1     -22.067  21.805 -41.493  0.00  0.00     0.036 H 
BRANCH  90  93
ATOM     93  CG  ARG d   1     -22.940  23.689 -40.992  0.00  0.00    -0.048 C 
ATOM     94  H38 ARG d   1     -22.609  23.486 -39.963  0.00  0.00     0.035 H 
ATOM     95  H39 ARG d   1     -23.956  24.110 -40.974  0.00  0.00     0.035 H 
BRANCH  93  96
ATOM     96  CD  ARG d   1     -21.996  24.706 -41.623  0.00  0.00     0.009 C 
ATOM     97  H40 ARG d   1     -22.035  25.631 -41.029  0.00  0.00     0.064 H 
ATOM     98  H41 ARG d   1     -22.343  24.913 -42.646  0.00  0.00     0.064 H 
BRANCH  96  99
ATOM     99  NE  ARG d   1     -20.604  24.260 -41.690  0.00  0.00    -0.227 N 
ATOM    100  CZ  ARG d   1     -19.726  24.345 -40.694  0.00  0.00     0.665 C 
ATOM    101  NH1 ARG d   1     -20.079  24.851 -39.521  0.00  0.00    -0.235 N 
ATOM    102  NH2 ARG d   1     -18.485  23.916 -40.876  0.00  0.00    -0.235 N 
ATOM    103  H43 ARG d   1     -19.390  24.911 -38.758  0.00  0.00     0.174 HD
ATOM    104  H44 ARG d   1     -21.042  25.184 -39.373  0.00  0.00     0.174 HD
ATOM    105  H45 ARG d   1     -18.204  23.522 -41.785  0.00  0.00     0.174 HD
ATOM    106  H46 ARG d   1     -17.801  23.977 -40.108  0.00  0.00     0.174 HD
ATOM    107  H42 ARG d   1     -20.279  23.849 -42.577  0.00  0.00     0.177 HD
ENDBRANCH  96  99
ENDBRANCH  93  96
ENDBRANCH  90  93
ENDBRANCH  24  90
ENDBRANCH  21  24
ENDBRANCH  18  20
BRANCH  18 108
ATOM    108  CB  ARG d   1     -22.489  17.039 -42.206  0.00  0.00    -0.036 C 
ATOM    109  H49 ARG d   1     -22.465  16.133 -42.829  0.00  0.00     0.036 H 
ATOM    110  H50 ARG d   1     -22.639  16.757 -41.153  0.00  0.00     0.036 H 
BRANCH 108 111
ATOM    111  CG  ARG d   1     -21.140  17.724 -42.321  0.00  0.00    -0.048 C 
ATOM    112  H51 ARG d   1     -20.401  17.146 -41.747  0.00  0.00     0.035 H 
ATOM    113  H52 ARG d   1     -21.221  18.737 -41.899  0.00  0.00     0.035 H 
BRANCH 111 114
ATOM    114  CD  ARG d   1     -20.664  17.832 -43.756  0.00  0.00     0.009 C 
ATOM    115  H53 ARG d   1     -21.340  18.499 -44.312  0.00  0.00     0.064 H 
ATOM    116  H54 ARG d   1     -20.674  16.833 -44.217  0.00  0.00     0.064 H 
BRANCH 114 117
ATOM    117  NE  ARG d   1     -19.307  18.371 -43.808  0.00  0.00    -0.227 N 
ATOM    118  CZ  ARG d   1     -19.008  19.667 -43.854  0.00  0.00     0.665 C 
ATOM    119  NH1 ARG d   1     -19.972  20.579 -43.871  0.00  0.00    -0.235 N 
ATOM    120  NH2 ARG d   1     -17.737  20.049 -43.888  0.00  0.00    -0.235 N 
ATOM    121  H56 ARG d   1     -19.733  21.580 -43.907  0.00  0.00     0.174 HD
ATOM    122  H57 ARG d   1     -20.959  20.285 -43.849  0.00  0.00     0.174 HD
ATOM    123  H58 ARG d   1     -16.987  19.343 -43.875  0.00  0.00     0.174 HD
ATOM    124  H59 ARG d   1     -17.501  21.051 -43.928  0.00  0.00     0.174 HD
ATOM    125  H55 ARG d   1     -18.526  17.700 -43.809  0.00  0.00     0.177 HD
ENDBRANCH 114 117
ENDBRANCH 111 114
ENDBRANCH 108 111
ENDBRANCH  18 108
ENDBRANCH  15  18
ENDBRANCH  11  14
ENDBRANCH   8  11
ENDBRANCH   5   7
BRANCH   5 126
ATOM    126  CB  VAL d   1     -24.409  13.963 -39.065  0.00  0.00    -0.033 C 
ATOM    127  H65 VAL d   1     -23.915  14.815 -38.575  0.00  0.00     0.042 H 
BRANCH 126 128
ATOM    128  CG1 VAL d   1     -24.095  12.703 -38.264  0.00  0.00    -0.071 C 
ATOM    129  H66 VAL d   1     -23.009  12.531 -38.262  0.00  0.00     0.028 H 
ATOM    130  H67 VAL d   1     -24.601  11.841 -38.723  0.00  0.00     0.028 H 
ATOM    131  H68 VAL d   1     -24.449  12.828 -37.230  0.00  0.00     0.028 H 
ENDBRANCH 126 128
BRANCH 126 132
ATOM    132  CG2 VAL d   1     -23.865  13.844 -40.480  0.00  0.00    -0.071 C 
ATOM    133  H69 VAL d   1     -24.101  14.760 -41.042  0.00  0.00     0.028 H 
ATOM    134  H70 VAL d   1     -24.327  12.979 -40.979  0.00  0.00     0.028 H 
ATOM    135  H71 VAL d   1     -22.774  13.707 -40.443  0.00  0.00     0.028 H 
ENDBRANCH 126 132
ENDBRANCH   5 126
ENDBRANCH   1   5
BRANCH   3 136
ATOM    136  CA  SER d   1     -27.677  13.297 -35.857  0.00  0.00     0.109 C 
ATOM    137  H73 SER d   1     -28.250  14.218 -35.676  0.00  0.00     0.090 H 
BRANCH 136 138
ATOM    138  C   SER d   1     -26.515  13.254 -34.867  0.00  0.00     0.243 C 
ATOM    139  O   SER d   1     -25.410  12.811 -35.187  0.00  0.00    -0.271 OA
ATOM    140  N   GLU d   1     -26.785  13.713 -33.648  0.00  0.00    -0.346 N 
ATOM    141  H77 GLU d   1     -27.737  13.884 -33.392  0.00  0.00     0.163 HD
BRANCH 140 142
ATOM    142  CA  GLU d   1     -25.732  13.974 -32.675  0.00  0.00     0.090 C 
ATOM    143  H78 GLU d   1     -24.895  14.468 -33.191  0.00  0.00     0.087 H 
BRANCH 142 144
ATOM    144  C   GLU d   1     -25.204  12.679 -32.056  0.00  0.00     0.241 C 
ATOM    145  O   GLU d   1     -25.969  11.765 -31.736  0.00  0.00    -0.271 OA
ATOM    146  N   LEU d   1     -23.876  12.606 -31.905  0.00  0.00    -0.346 N 
ATOM    147  H83 LEU d   1     -23.325  13.405 -32.148  0.00  0.00     0.163 HD
BRANCH 146 148
ATOM    148  CA  LEU d   1     -23.191  11.416 -31.403  0.00  0.00     0.090 C 
ATOM    149  H84 LEU d   1     -23.614  10.532 -31.904  0.00  0.00     0.087 H 
BRANCH 148 150
ATOM    150  C   LEU d   1     -23.380  11.263 -29.896  0.00  0.00     0.243 C 
ATOM    151  O   LEU d   1     -23.869  12.169 -29.224  0.00  0.00    -0.271 OA
ATOM    152  N   PRO d   1     -23.007  10.118 -29.329  0.00  0.00    -0.337 N 
ATOM    153  CA  PRO d   1     -23.018   9.986 -27.865  0.00  0.00     0.092 C 
ATOM    154  CD  PRO d   1     -22.702   8.838 -29.992  0.00  0.00    -0.001 C 
ATOM    155  CB  PRO d   1     -22.526   8.549 -27.640  0.00  0.00    -0.036 C 
ATOM    156  H94 PRO d   1     -24.034  10.119 -27.465  0.00  0.00     0.087 H 
ATOM    157  CG  PRO d   1     -22.889   7.831 -28.897  0.00  0.00    -0.048 C 
ATOM    158  H95 PRO d   1     -23.030   8.096 -26.774  0.00  0.00     0.036 H 
ATOM    159  H96 PRO d   1     -21.438   8.530 -27.482  0.00  0.00     0.036 H 
ATOM    160  H97 PRO d   1     -23.935   7.492 -28.859  0.00  0.00     0.035 H 
ATOM    161  H98 PRO d   1     -22.228   6.965 -29.052  0.00  0.00     0.035 H 
ATOM    162  H99 PRO d   1     -21.668   8.825 -30.367  0.00  0.00     0.064 H 
ATOM    163 0H10 PRO d   1     -23.397   8.649 -30.824  0.00  0.00     0.064 H 
BRANCH 153 164
ATOM    164  C   PRO d   1     -22.088  11.003 -27.222  0.00  0.00     0.243 C 
ATOM    165  O   PRO d   1     -20.935  11.151 -27.653  0.00  0.00    -0.271 OA
ATOM    166  N   PRO d   1     -22.538  11.722 -26.187  0.00  0.00    -0.337 N 
ATOM    167  CA  PRO d   1     -21.693  12.777 -25.597  0.00  0.00     0.091 C 
ATOM    168  CD  PRO d   1     -23.916  11.775 -25.665  0.00  0.00    -0.001 C 
ATOM    169  CB  PRO d   1     -22.609  13.410 -24.544  0.00  0.00    -0.036 C 
ATOM    170 1H10 PRO d   1     -21.423  13.516 -26.365  0.00  0.00     0.087 H 
ATOM    171  CG  PRO d   1     -23.987  13.119 -25.020  0.00  0.00    -0.048 C 
ATOM    172 2H10 PRO d   1     -22.440  14.495 -24.485  0.00  0.00     0.036 H 
ATOM    173 3H10 PRO d   1     -22.436  12.957 -23.556  0.00  0.00     0.036 H 
ATOM    174 4H10 PRO d   1     -24.309  13.877 -25.749  0.00  0.00     0.035 H 
ATOM    175 5H10 PRO d   1     -24.689  13.102 -24.174  0.00  0.00     0.035 H 
ATOM    176 6H10 PRO d   1     -24.090  10.975 -24.930  0.00  0.00     0.064 H 
ATOM    177 7H10 PRO d   1     -24.650  11.690 -26.480  0.00  0.00     0.064 H 
BRANCH 167 178
ATOM    178  C   PRO d   1     -20.408  12.243 -24.968  0.00  0.00     0.241 C 
ATOM    179  O   PRO d   1     -20.380  11.156 -24.388  0.00  0.00    -0.271 OA
ATOM    180  N   LEU d   1     -19.336  13.032 -25.094  0.00  0.00    -0.346 N 
ATOM    181 8H10 LEU d   1     -19.416  13.851 -25.663  0.00  0.00     0.163 HD
BRANCH 180 182
ATOM    182  CA  LEU d   1     -18.053  12.764 -24.446  0.00  0.00     0.089 C 
ATOM    183 9H10 LEU d   1     -17.996  11.691 -24.212  0.00  0.00     0.087 H 
BRANCH 182 184
ATOM    184  C   LEU d   1     -17.904  13.562 -23.153  0.00  0.00     0.241 C 
ATOM    185  O   LEU d   1     -17.968  14.794 -23.178  0.00  0.00    -0.271 OA
ATOM    186  N   TYR d   1     -17.660  12.878 -22.040  0.00  0.00    -0.346 N 
ATOM    187 9H11 TYR d   1     -17.764  11.883 -22.037  0.00  0.00     0.163 HD
BRANCH 186 188
ATOM    188  CA  TYR d   1     -17.240  13.568 -20.819  0.00  0.00     0.093 C 
ATOM    189 0H12 TYR d   1     -17.669  14.581 -20.815  0.00  0.00     0.088 H 
BRANCH 188 190
ATOM    190  C   TYR d   1     -15.709  13.673 -20.861  0.00  0.00     0.241 C 
ATOM    191  O   TYR d   1     -15.058  12.692 -21.211  0.00  0.00    -0.271 OA
ATOM    192  N   ILE d   1     -15.100  14.811 -20.517  0.00  0.00    -0.344 N 
ATOM    193 8H12 ILE d   1     -14.149  14.925 -20.806  0.00  0.00     0.163 HD
BRANCH 192 194
ATOM    194  CA  ILE d   1     -15.701  15.903 -19.756  0.00  0.00     0.099 C 
ATOM    195 9H12 ILE d   1     -16.701  15.589 -19.423  0.00  0.00     0.090 H 
BRANCH 194 196
ATOM    196  C   ILE d   1     -15.853  17.136 -20.637  0.00  0.00     0.197 C 
ATOM    197  O   ILE d   1     -14.975  17.448 -21.440  0.00  0.00    -0.646 OA
ATOM    198  OXT ILE d   1     -16.857  17.843 -20.562  0.00  0.00    -0.646 OA
ENDBRANCH 194 196
BRANCH 194 199
ATOM    199  CB  ILE d   1     -14.844  16.212 -18.505  0.00  0.00    -0.029 C 
ATOM    200 0H13 ILE d   1     -14.746  15.285 -17.921  0.00  0.00     0.043 H 
BRANCH 199 201
ATOM    201  CG1 ILE d   1     -15.524  17.263 -17.623  0.00  0.00    -0.063 C 
ATOM    202 1H13 ILE d   1     -16.583  16.988 -17.507  0.00  0.00     0.033 H 
ATOM    203 2H13 ILE d   1     -15.452  18.239 -18.125  0.00  0.00     0.033 H 
BRANCH 201 204
ATOM    204  CD1 ILE d   1     -14.903  17.386 -16.239  0.00  0.00    -0.076 C 
ATOM    205 6H13 ILE d   1     -15.439  18.155 -15.664  0.00  0.00     0.027 H 
ATOM    206 7H13 ILE d   1     -13.845  17.671 -16.336  0.00  0.00     0.027 H 
ATOM    207 8H13 ILE d   1     -14.976  16.420 -15.717  0.00  0.00     0.027 H 
ENDBRANCH 201 204
ENDBRANCH 199 201
BRANCH 199 208
ATOM    208  CG2 ILE d   1     -13.442  16.675 -18.905  0.00  0.00    -0.070 C 
ATOM    209 3H13 ILE d   1     -12.969  15.909 -19.537  0.00  0.00     0.028 H 
ATOM    210 4H13 ILE d   1     -12.835  16.830 -18.001  0.00  0.00     0.028 H 
ATOM    211 5H13 ILE d   1     -13.513  17.619 -19.465  0.00  0.00     0.028 H 
ENDBRANCH 199 208
ENDBRANCH 194 199
ENDBRANCH 192 194
ENDBRANCH 188 190
BRANCH 188 212
ATOM    212  CB  TYR d   1     -17.721  12.843 -19.561  0.00  0.00    -0.014 C 
ATOM    213 1H12 TYR d   1     -17.298  13.349 -18.681  0.00  0.00     0.043 H 
ATOM    214 2H12 TYR d   1     -17.361  11.804 -19.595  0.00  0.00     0.043 H 
BRANCH 212 215
ATOM    215  CG  TYR d   1     -19.228  12.828 -19.432  0.00  0.00    -0.056 A 
ATOM    216  CD1 TYR d   1     -19.978  13.972 -19.679  0.00  0.00    -0.074 A 
ATOM    217  CE1 TYR d   1     -21.353  13.965 -19.565  0.00  0.00    -0.051 A 
ATOM    218 3H12 TYR d   1     -19.473  14.887 -19.967  0.00  0.00     0.084 H 
ATOM    219  CZ  TYR d   1     -21.998  12.807 -19.189  0.00  0.00     0.065 A 
ATOM    220 5H12 TYR d   1     -21.922  14.865 -19.770  0.00  0.00     0.087 H 
ATOM    221  CE2 TYR d   1     -21.278  11.660 -18.933  0.00  0.00    -0.051 A 
ATOM    222  CD2 TYR d   1     -19.901  11.676 -19.053  0.00  0.00    -0.074 A 
ATOM    223 6H12 TYR d   1     -21.789  10.750 -18.639  0.00  0.00     0.087 H 
ATOM    224 4H12 TYR d   1     -19.338  10.773 -18.847  0.00  0.00     0.084 H 
BRANCH 219 225
ATOM    225  OH  TYR d   1     -23.368  12.796 -19.070  0.00  0.00    -0.361 OA
ATOM    226 7H12 TYR d   1     -23.710  13.657 -19.279  0.00  0.00     0.217 HD
ENDBRANCH 219 225
ENDBRANCH 212 215
ENDBRANCH 188 212
ENDBRANCH 186 188
ENDBRANCH 182 184
BRANCH 182 227
ATOM    227  CB  LEU d   1     -16.903  13.136 -25.379  0.00  0.00    -0.035 C 
ATOM    228 0H11 LEU d   1     -15.977  13.029 -24.795  0.00  0.00     0.037 H 
ATOM    229 1H11 LEU d   1     -17.046  14.193 -25.648  0.00  0.00     0.037 H 
BRANCH 227 230
ATOM    230  CG  LEU d   1     -16.684  12.380 -26.684  0.00  0.00    -0.059 C 
ATOM    231 2H11 LEU d   1     -17.628  12.345 -27.247  0.00  0.00     0.038 H 
BRANCH 230 232
ATOM    232  CD1 LEU d   1     -15.648  13.140 -27.486  0.00  0.00    -0.073 C 
ATOM    233 3H11 LEU d   1     -15.466  12.619 -28.438  0.00  0.00     0.028 H 
ATOM    234 4H11 LEU d   1     -14.710  13.196 -26.914  0.00  0.00     0.028 H 
ATOM    235 5H11 LEU d   1     -16.015  14.157 -27.689  0.00  0.00     0.028 H 
ENDBRANCH 230 232
BRANCH 230 236
ATOM    236  CD2 LEU d   1     -16.224  10.961 -26.420  0.00  0.00    -0.073 C 
ATOM    237 6H11 LEU d   1     -16.991  10.429 -25.837  0.00  0.00     0.028 H 
ATOM    238 7H11 LEU d   1     -15.281  10.980 -25.854  0.00  0.00     0.028 H 
ATOM    239 8H11 LEU d   1     -16.066  10.443 -27.377  0.00  0.00     0.028 H 
ENDBRANCH 230 236
ENDBRANCH 227 230
ENDBRANCH 182 227
ENDBRANCH 180 182
ENDBRANCH 167 178
ENDBRANCH 153 164
ENDBRANCH 148 150
BRANCH 148 240
ATOM    240  CB  LEU d   1     -21.697  11.495 -31.715  0.00  0.00    -0.035 C 
ATOM    241  H85 LEU d   1     -21.227  10.611 -31.259  0.00  0.00     0.037 H 
ATOM    242  H86 LEU d   1     -21.316  12.405 -31.229  0.00  0.00     0.037 H 
BRANCH 240 243
ATOM    243  CG  LEU d   1     -21.236  11.542 -33.170  0.00  0.00    -0.059 C 
ATOM    244  H87 LEU d   1     -21.746  12.373 -33.680  0.00  0.00     0.038 H 
BRANCH 243 245
ATOM    245  CD1 LEU d   1     -19.734  11.781 -33.220  0.00  0.00    -0.073 C 
ATOM    246  H88 LEU d   1     -19.403  11.815 -34.268  0.00  0.00     0.028 H 
ATOM    247  H89 LEU d   1     -19.215  10.964 -32.698  0.00  0.00     0.028 H 
ATOM    248  H90 LEU d   1     -19.498  12.737 -32.730  0.00  0.00     0.028 H 
ENDBRANCH 243 245
BRANCH 243 249
ATOM    249  CD2 LEU d   1     -21.590  10.256 -33.866  0.00  0.00    -0.073 C 
ATOM    250  H91 LEU d   1     -22.678  10.101 -33.819  0.00  0.00     0.028 H 
ATOM    251  H92 LEU d   1     -21.079   9.418 -33.370  0.00  0.00     0.028 H 
ATOM    252  H93 LEU d   1     -21.272  10.309 -34.918  0.00  0.00     0.028 H 
ENDBRANCH 243 249
ENDBRANCH 240 243
ENDBRANCH 148 240
ENDBRANCH 146 148
ENDBRANCH 142 144
BRANCH 142 253
ATOM    253  CB  GLU d   1     -26.276  14.929 -31.607  0.00  0.00    -0.029 C 
ATOM    254  H79 GLU d   1     -27.095  14.413 -31.085  0.00  0.00     0.037 H 
ATOM    255  H80 GLU d   1     -26.672  15.816 -32.124  0.00  0.00     0.037 H 
BRANCH 253 256
ATOM    256  CG  GLU d   1     -25.288  15.413 -30.550  0.00  0.00     0.018 C 
ATOM    257  H81 GLU d   1     -25.620  16.397 -30.187  0.00  0.00     0.049 H 
ATOM    258  H82 GLU d   1     -24.297  15.510 -31.018  0.00  0.00     0.049 H 
BRANCH 256 259
ATOM    259  CD  GLU d   1     -25.168  14.482 -29.365  0.00  0.00     0.172 C 
ATOM    260  OE1 GLU d   1     -26.096  13.678 -29.135  0.00  0.00    -0.648 OA
ATOM    261  OE2 GLU d   1     -24.151  14.568 -28.646  0.00  0.00    -0.648 OA
ENDBRANCH 256 259
ENDBRANCH 253 256
ENDBRANCH 142 253
ENDBRANCH 140 142
ENDBRANCH 136 138
BRANCH 136 262
ATOM    262  CB  SER d   1     -28.611  12.102 -35.659  0.00  0.00     0.044 C 
ATOM    263  H74 SER d   1     -28.936  12.067 -34.609  0.00  0.00     0.077 H 
ATOM    264  H75 SER d   1     -28.071  11.176 -35.907  0.00  0.00     0.077 H 
BRANCH 262 265
ATOM    265  OG  SER d   1     -29.752  12.215 -36.497  0.00  0.00    -0.398 OA
ATOM    266  H76 SER d   1     -30.319  11.465 -36.360  0.00  0.00     0.209 HD
ENDBRANCH 262 265
ENDBRANCH 136 262
ENDBRANCH   3 136
TORSDOF 72
