REMARK  32 active torsions:
REMARK  status: ('A' for Active; 'I' for Inactive)
REMARK    1  A    between atoms: N_1  and  CA_2 
REMARK    2  A    between atoms: CA_2  and  C_3 
REMARK    3  A    between atoms: CA_2  and  CB_5 
REMARK       I    between atoms: C_3  and  N_12 
REMARK    4  A    between atoms: CB_5  and  CG_6 
REMARK    5  A    between atoms: CG_6  and  CD_7 
REMARK    6  A    between atoms: CD_7  and  NE_8 
REMARK       I    between atoms: NE_8  and  CZ_9 
REMARK       I    between atoms: CZ_9  and  NH1_10 
REMARK    7  A    between atoms: N_12  and  CA_13 
REMARK    8  A    between atoms: CA_13  and  C_14 
REMARK    9  A    between atoms: CA_13  and  CB_16 
REMARK       I    between atoms: C_14  and  N_17 
REMARK   10  A    between atoms: CA_18  and  C_19 
REMARK       I    between atoms: C_19  and  N_24 
REMARK   11  A    between atoms: N_24  and  CA_25 
REMARK   12  A    between atoms: CA_25  and  C_26 
REMARK       I    between atoms: C_26  and  N_28 
REMARK   13  A    between atoms: N_28  and  CA_29 
REMARK   14  A    between atoms: CA_29  and  C_30 
REMARK   15  A    between atoms: CA_29  and  CB_32 
REMARK       I    between atoms: C_30  and  N_36 
REMARK   16  A    between atoms: CB_32  and  CG_33 
REMARK   17  A    between atoms: CG_33  and  CD1_34 
REMARK   18  A    between atoms: CG_33  and  CD2_35 
REMARK   19  A    between atoms: N_36  and  CA_37 
REMARK   20  A    between atoms: CA_37  and  C_38 
REMARK   21  A    between atoms: CA_37  and  CB_40 
REMARK       I    between atoms: C_38  and  N_45 
REMARK   22  A    between atoms: CB_40  and  CG_41 
REMARK   23  A    between atoms: CG_41  and  CD_42 
REMARK   24  A    between atoms: CD_42  and  CE_43 
REMARK   25  A    between atoms: CE_43  and  NZ_44 
REMARK   26  A    between atoms: N_45  and  CA_46 
REMARK   27  A    between atoms: CA_46  and  C_47 
REMARK   28  A    between atoms: CA_46  and  CB_49 
REMARK       I    between atoms: C_47  and  N_53 
REMARK   29  A    between atoms: CB_49  and  CG1_50 
REMARK   30  A    between atoms: CB_49  and  CG2_51 
REMARK   31  A    between atoms: CG1_50  and  CD1_52 
REMARK   32  A    between atoms: CA_54  and  C_55 
ROOT
ATOM      1  CA  LEU d   1      29.264  -1.899  27.801  0.00  0.00     0.089 C 
ATOM      2  H32 LEU d   1      28.565  -2.332  28.531  0.00  0.00     0.087 H 
ENDROOT
BRANCH   1   3
ATOM      3  N   LEU d   1      28.551  -0.884  27.027  0.00  0.00    -0.346 N 
ATOM      4  C   GLY d   1      27.932   0.142  27.623  0.00  0.00     0.236 C 
ATOM      5  O   GLY d   1      27.786   0.220  28.846  0.00  0.00    -0.272 OA
ATOM      6  H31 LEU d   1      28.525  -0.958  26.030  0.00  0.00     0.163 HD
BRANCH   4   7
ATOM      7  CA  GLY d   1      27.403   1.245  26.726  0.00  0.00     0.069 C 
ATOM      8  H29 GLY d   1      27.919   2.176  27.002  0.00  0.00     0.078 H 
ATOM      9  H30 GLY d   1      27.654   0.981  25.688  0.00  0.00     0.078 H 
BRANCH   7  10
ATOM     10  N   GLY d   1      25.973   1.499  26.783  0.00  0.00    -0.351 N 
ATOM     11  C   PRO d   1      25.105   0.697  26.166  0.00  0.00     0.241 C 
ATOM     12  O   PRO d   1      25.412  -0.418  25.732  0.00  0.00    -0.271 OA
ATOM     13  H28 GLY d   1      25.634   2.289  27.294  0.00  0.00     0.163 HD
BRANCH  11  14
ATOM     14  CA  PRO d   1      23.683   1.238  26.059  0.00  0.00     0.091 C 
ATOM     15  N   PRO d   1      23.001   0.741  24.849  0.00  0.00    -0.337 N 
ATOM     16  C   ASN d   1      23.355   1.225  23.654  0.00  0.00     0.243 C 
ATOM     17  CD  PRO d   1      22.064  -0.352  25.172  0.00  0.00    -0.001 C 
ATOM     18  O   ASN d   1      24.321   1.993  23.550  0.00  0.00    -0.271 OA
ATOM     19  CG  PRO d   1      21.611   0.014  26.563  0.00  0.00    -0.048 C 
ATOM     20  H26 PRO d   1      22.572  -1.328  25.162  0.00  0.00     0.064 H 
ATOM     21  H27 PRO d   1      21.218  -0.372  24.470  0.00  0.00     0.064 H 
ATOM     22  CB  PRO d   1      22.808   0.728  27.218  0.00  0.00    -0.036 C 
ATOM     23  H24 PRO d   1      20.741   0.686  26.518  0.00  0.00     0.035 H 
ATOM     24  H25 PRO d   1      21.347  -0.890  27.131  0.00  0.00     0.035 H 
ATOM     25  H22 PRO d   1      22.460   1.570  27.834  0.00  0.00     0.036 H 
ATOM     26  H23 PRO d   1      23.376   0.025  27.845  0.00  0.00     0.036 H 
ATOM     27  H21 PRO d   1      23.717   2.337  26.056  0.00  0.00     0.087 H 
BRANCH  16  28
ATOM     28  CA  ASN d   1      22.570   0.853  22.392  0.00  0.00     0.086 C 
ATOM     29  H17 ASN d   1      23.046   1.379  21.552  0.00  0.00     0.086 H 
BRANCH  28  30
ATOM     30  N   ASN d   1      22.593  -0.575  22.072  0.00  0.00    -0.346 N 
ATOM     31  C   ARG d   1      23.613  -1.081  21.371  0.00  0.00     0.248 C 
ATOM     32  O   ARG d   1      24.668  -0.466  21.190  0.00  0.00    -0.271 OA
ATOM     33  H16 ASN d   1      21.849  -1.170  22.376  0.00  0.00     0.163 HD
BRANCH  31  34
ATOM     34  CA  ARG d   1      23.450  -2.493  20.818  0.00  0.00     0.176 C 
ATOM     35  H4  ARG d   1      22.456  -2.875  21.092  0.00  0.00     0.099 H 
BRANCH  34  36
ATOM     36  N   ARG d   1      23.553  -2.438  19.357  0.00  0.00    -0.067 N 
ATOM     37  H1  ARG d   1      23.447  -3.366  18.978  0.00  0.00     0.275 HD
ATOM     38  H2  ARG d   1      24.455  -2.070  19.097  0.00  0.00     0.275 HD
ATOM     39  H3  ARG d   1      22.828  -1.841  18.991  0.00  0.00     0.275 HD
ENDBRANCH  34  36
BRANCH  34  40
ATOM     40  CB  ARG d   1      24.511  -3.421  21.413  0.00  0.00    -0.029 C 
ATOM     41  H5  ARG d   1      25.504  -2.990  21.217  0.00  0.00     0.036 H 
ATOM     42  H6  ARG d   1      24.434  -4.403  20.923  0.00  0.00     0.036 H 
BRANCH  40  43
ATOM     43  CG  ARG d   1      24.354  -3.612  22.898  0.00  0.00    -0.047 C 
ATOM     44  H7  ARG d   1      24.382  -2.634  23.401  0.00  0.00     0.035 H 
ATOM     45  H8  ARG d   1      25.171  -4.243  23.278  0.00  0.00     0.035 H 
BRANCH  43  46
ATOM     46  CD  ARG d   1      23.030  -4.282  23.167  0.00  0.00     0.009 C 
ATOM     47  H9  ARG d   1      22.288  -3.904  22.448  0.00  0.00     0.064 H 
ATOM     48  H10 ARG d   1      22.708  -4.035  24.189  0.00  0.00     0.064 H 
BRANCH  46  49
ATOM     49  NE  ARG d   1      23.115  -5.731  23.038  0.00  0.00    -0.227 N 
ATOM     50  CZ  ARG d   1      22.910  -6.403  21.915  0.00  0.00     0.665 C 
ATOM     51  NH1 ARG d   1      22.601  -5.775  20.791  0.00  0.00    -0.235 N 
ATOM     52  NH2 ARG d   1      23.003  -7.722  21.936  0.00  0.00    -0.235 N 
ATOM     53  H12 ARG d   1      22.445  -6.313  19.927  0.00  0.00     0.174 HD
ATOM     54  H13 ARG d   1      22.517  -4.748  20.781  0.00  0.00     0.174 HD
ATOM     55  H14 ARG d   1      23.244  -8.207  22.812  0.00  0.00     0.174 HD
ATOM     56  H15 ARG d   1      22.835  -8.264  21.076  0.00  0.00     0.174 HD
ATOM     57  H11 ARG d   1      23.352  -6.272  23.882  0.00  0.00     0.177 HD
ENDBRANCH  46  49
ENDBRANCH  43  46
ENDBRANCH  40  43
ENDBRANCH  34  40
ENDBRANCH  31  34
ENDBRANCH  28  30
BRANCH  28  58
ATOM     58  CB  ASN d   1      21.122   1.348  22.493  0.00  0.00    -0.049 C 
ATOM     59  H18 ASN d   1      21.117   2.421  22.734  0.00  0.00     0.030 H 
ATOM     60  H19 ASN d   1      20.599   0.792  23.285  0.00  0.00     0.030 H 
ATOM     61  H20 ASN d   1      20.611   1.185  21.533  0.00  0.00     0.030 H 
ENDBRANCH  28  58
ENDBRANCH  16  28
ENDBRANCH  11  14
ENDBRANCH   7  10
ENDBRANCH   4   7
ENDBRANCH   1   3
BRANCH   1  62
ATOM     62  C   LEU d   1      30.447  -1.297  28.556  0.00  0.00     0.241 C 
ATOM     63  O   LEU d   1      31.161  -0.432  28.042  0.00  0.00    -0.271 OA
ATOM     64  N   LYS d   1      30.671  -1.786  29.777  0.00  0.00    -0.346 N 
ATOM     65  H42 LYS d   1      30.083  -2.517  30.123  0.00  0.00     0.163 HD
BRANCH  64  66
ATOM     66  CA  LYS d   1      31.749  -1.285  30.621  0.00  0.00     0.089 C 
ATOM     67  H43 LYS d   1      31.806  -0.195  30.488  0.00  0.00     0.087 H 
BRANCH  66  68
ATOM     68  C   LYS d   1      33.094  -1.886  30.230  0.00  0.00     0.241 C 
ATOM     69  O   LYS d   1      33.204  -3.083  29.945  0.00  0.00    -0.271 OA
ATOM     70  N   ILE d   1      34.128  -1.051  30.247  0.00  0.00    -0.346 N 
ATOM     71  H55 ILE d   1      33.974  -0.107  30.538  0.00  0.00     0.163 HD
BRANCH  70  72
ATOM     72  CA  ILE d   1      35.477  -1.450  29.861  0.00  0.00     0.092 C 
ATOM     73  H56 ILE d   1      35.476  -2.519  29.600  0.00  0.00     0.088 H 
BRANCH  72  74
ATOM     74  C   ILE d   1      36.403  -1.233  31.048  0.00  0.00     0.243 C 
ATOM     75  O   ILE d   1      36.216  -0.282  31.824  0.00  0.00    -0.271 OA
ATOM     76  N   PRO d   1      37.398  -2.117  31.253  0.00  0.00    -0.336 N 
ATOM     77  CA  PRO d   1      38.382  -1.928  32.338  0.00  0.00     0.098 C 
ATOM     78  CD  PRO d   1      37.400  -3.450  30.700  0.00  0.00    -0.001 C 
ATOM     79  CB  PRO d   1      38.848  -3.346  32.673  0.00  0.00    -0.035 C 
ATOM     80  H66 PRO d   1      37.892  -1.470  33.210  0.00  0.00     0.089 H 
ATOM     81  CG  PRO d   1      38.395  -4.203  31.515  0.00  0.00    -0.048 C 
ATOM     82  H67 PRO d   1      38.387  -3.691  33.610  0.00  0.00     0.036 H 
ATOM     83  H68 PRO d   1      39.943  -3.378  32.770  0.00  0.00     0.036 H 
ATOM     84  H69 PRO d   1      37.932  -5.124  31.899  0.00  0.00     0.035 H 
ATOM     85  H70 PRO d   1      39.262  -4.461  30.889  0.00  0.00     0.035 H 
ATOM     86  H71 PRO d   1      37.702  -3.430  29.642  0.00  0.00     0.064 H 
ATOM     87  H72 PRO d   1      36.403  -3.907  30.788  0.00  0.00     0.064 H 
BRANCH  77  88
ATOM     88  C   PRO d   1      39.570  -1.053  31.933  0.00  0.00     0.196 C 
ATOM     89  O   PRO d   1      39.400  -0.078  31.183  0.00  0.00    -0.646 OA
ATOM     90  OXT PRO d   1      40.709  -1.314  32.353  0.00  0.00    -0.646 OA
ENDBRANCH  77  88
ENDBRANCH  72  74
BRANCH  72  91
ATOM     91  CB  ILE d   1      35.940  -0.646  28.632  0.00  0.00    -0.030 C 
ATOM     92  H57 ILE d   1      36.041   0.405  28.939  0.00  0.00     0.043 H 
BRANCH  91  93
ATOM     93  CG1 ILE d   1      34.881  -0.701  27.510  0.00  0.00    -0.063 C 
ATOM     94  H58 ILE d   1      35.256  -0.120  26.654  0.00  0.00     0.033 H 
ATOM     95  H59 ILE d   1      33.955  -0.242  27.887  0.00  0.00     0.033 H 
BRANCH  93  96
ATOM     96  CD1 ILE d   1      34.556  -2.094  27.030  0.00  0.00    -0.076 C 
ATOM     97  H63 ILE d   1      33.797  -2.040  26.235  0.00  0.00     0.027 H 
ATOM     98  H64 ILE d   1      34.167  -2.689  27.869  0.00  0.00     0.027 H 
ATOM     99  H65 ILE d   1      35.467  -2.568  26.636  0.00  0.00     0.027 H 
ENDBRANCH  93  96
ENDBRANCH  91  93
BRANCH  91 100
ATOM    100  CG2 ILE d   1      37.304  -1.112  28.155  0.00  0.00    -0.071 C 
ATOM    101  H60 ILE d   1      38.022  -1.055  28.986  0.00  0.00     0.028 H 
ATOM    102  H61 ILE d   1      37.645  -0.467  27.331  0.00  0.00     0.028 H 
ATOM    103  H62 ILE d   1      37.234  -2.151  27.802  0.00  0.00     0.028 H 
ENDBRANCH  91 100
ENDBRANCH  72  91
ENDBRANCH  70  72
ENDBRANCH  66  68
BRANCH  66 104
ATOM    104  CB  LYS d   1      31.472  -1.580  32.098  0.00  0.00    -0.038 C 
ATOM    105  H44 LYS d   1      32.235  -1.068  32.703  0.00  0.00     0.036 H 
ATOM    106  H45 LYS d   1      31.548  -2.666  32.255  0.00  0.00     0.036 H 
BRANCH 104 107
ATOM    107  CG  LYS d   1      30.124  -1.131  32.562  0.00  0.00    -0.061 C 
ATOM    108  H46 LYS d   1      29.353  -1.640  31.965  0.00  0.00     0.033 H 
ATOM    109  H47 LYS d   1      30.041  -0.044  32.417  0.00  0.00     0.033 H 
BRANCH 107 110
ATOM    110  CD  LYS d   1      29.903  -1.447  34.012  0.00  0.00    -0.043 C 
ATOM    111  H48 LYS d   1      30.725  -1.022  34.607  0.00  0.00     0.035 H 
ATOM    112  H49 LYS d   1      29.880  -2.538  34.147  0.00  0.00     0.035 H 
BRANCH 110 113
ATOM    113  CE  LYS d   1      28.578  -0.851  34.482  0.00  0.00     0.080 C 
ATOM    114  H50 LYS d   1      27.767  -1.232  33.845  0.00  0.00     0.075 H 
ATOM    115  H51 LYS d   1      28.627   0.245  34.397  0.00  0.00     0.075 H 
BRANCH 113 116
ATOM    116  NZ  LYS d   1      28.302  -1.211  35.874  0.00  0.00    -0.079 N 
ATOM    117  H52 LYS d   1      27.424  -0.806  36.158  0.00  0.00     0.274 HD
ATOM    118  H53 LYS d   1      29.040  -0.861  36.464  0.00  0.00     0.274 HD
ATOM    119  H54 LYS d   1      28.252  -2.214  35.958  0.00  0.00     0.274 HD
ENDBRANCH 113 116
ENDBRANCH 110 113
ENDBRANCH 107 110
ENDBRANCH 104 107
ENDBRANCH  66 104
ENDBRANCH  64  66
ENDBRANCH   1  62
BRANCH   1 120
ATOM    120  CB  LEU d   1      29.770  -3.010  26.884  0.00  0.00    -0.035 C 
ATOM    121  H33 LEU d   1      30.800  -3.241  27.193  0.00  0.00     0.037 H 
ATOM    122  H34 LEU d   1      29.776  -2.607  25.860  0.00  0.00     0.037 H 
BRANCH 120 123
ATOM    123  CG  LEU d   1      29.006  -4.335  26.841  0.00  0.00    -0.059 C 
ATOM    124  H35 LEU d   1      29.203  -4.883  27.774  0.00  0.00     0.038 H 
BRANCH 123 125
ATOM    125  CD1 LEU d   1      27.490  -4.099  26.744  0.00  0.00    -0.073 C 
ATOM    126  H36 LEU d   1      26.969  -5.067  26.715  0.00  0.00     0.028 H 
ATOM    127  H37 LEU d   1      27.265  -3.534  25.828  0.00  0.00     0.028 H 
ATOM    128  H38 LEU d   1      27.151  -3.527  27.620  0.00  0.00     0.028 H 
ENDBRANCH 123 125
BRANCH 123 129
ATOM    129  CD2 LEU d   1      29.537  -5.168  25.673  0.00  0.00    -0.073 C 
ATOM    130  H39 LEU d   1      30.622  -5.309  25.787  0.00  0.00     0.028 H 
ATOM    131  H40 LEU d   1      29.332  -4.645  24.727  0.00  0.00     0.028 H 
ATOM    132  H41 LEU d   1      29.038  -6.149  25.665  0.00  0.00     0.028 H 
ENDBRANCH 123 129
ENDBRANCH 120 123
ENDBRANCH   1 120
TORSDOF 32
