REMARK  7 active torsions:
REMARK  status: ('A' for Active; 'I' for Inactive)
REMARK    1  A    between atoms: N_18  and  C10_1 
REMARK    2  A    between atoms: C10_1  and  C11_19 
REMARK    3  A    between atoms: S2_23  and  C12_2 
REMARK    4  A    between atoms: N3_25  and  C16_5 
REMARK    5  A    between atoms: C1_7  and  C2_8 
REMARK       I    between atoms: N1_13  and  C1_7 
REMARK    6  A    between atoms: N_18  and  CA_17 
REMARK    7  A    between atoms: N_18  and  S2_23 
ROOT
ATOM      1  OH  5RT d   1     -48.861   4.817  16.223  0.00  0.00    -0.267 OA
ATOM      2  C1  5RT d   1     -48.248   4.223  15.348  0.00  0.00     0.265 C 
ATOM      3  N1  5RT d   1     -48.557   4.331  14.010  0.00  0.00    -0.313 N 
ATOM      4  CD1 5RT d   1     -47.674   4.056  12.946  0.00  0.00     0.043 A 
ATOM      5  CE1 5RT d   1     -46.329   4.371  12.970  0.00  0.00    -0.054 A 
ATOM      6  C8  5RT d   1     -45.534   4.052  11.891  0.00  0.00    -0.054 A 
ATOM      7  CA  5RT d   1     -46.092   3.435  10.791  0.00  0.00     0.046 A 
ATOM      8  CB  5RT d   1     -47.434   3.129  10.754  0.00  0.00    -0.048 A 
ATOM      9  CG  5RT d   1     -48.211   3.440  11.838  0.00  0.00    -0.029 A 
ATOM     10  CD2 5RT d   1     -49.660   3.141  11.832  0.00  0.00    -0.037 C 
ATOM     11  CE2 5RT d   1     -50.279   4.457  12.242  0.00  0.00    -0.046 C 
ATOM     12  C25 5RT d   1     -49.871   4.826  13.656  0.00  0.00     0.004 C 
ATOM     13  H10 5RT d   1     -45.901   4.867  13.834  0.00  0.00     0.087 H 
ATOM     14  H11 5RT d   1     -44.475   4.285  11.906  0.00  0.00     0.087 H 
ATOM     15  H16 5RT d   1     -47.867   2.651   9.883  0.00  0.00     0.087 H 
ATOM     16  H17 5RT d   1     -49.903   2.348  12.554  0.00  0.00     0.040 H 
ATOM     17  H18 5RT d   1     -49.998   2.840  10.829  0.00  0.00     0.040 H 
ATOM     18  H19 5RT d   1     -51.375   4.371  12.194  0.00  0.00     0.035 H 
ATOM     19  H20 5RT d   1     -49.942   5.245  11.552  0.00  0.00     0.035 H 
ATOM     20  H21 5RT d   1     -49.869   5.922  13.746  0.00  0.00     0.065 H 
ATOM     21  H22 5RT d   1     -50.606   4.402  14.356  0.00  0.00     0.065 H 
ENDROOT
BRANCH   7  22
ATOM     22  N   5RT d   1     -45.268   3.148   9.566  0.00  0.00    -0.263 N 
BRANCH  22  23
ATOM     23  C10 5RT d   1     -44.981   1.705   9.411  0.00  0.00     0.101 C 
ATOM     24  H1  5RT d   1     -45.258   1.402   8.390  0.00  0.00     0.079 H 
ATOM     25  H2  5RT d   1     -45.591   1.148  10.137  0.00  0.00     0.079 H 
BRANCH  23  26
ATOM     26  C11 5RT d   1     -43.522   1.353   9.638  0.00  0.00     0.404 C 
ATOM     27  F1  5RT d   1     -42.799   2.388  10.129  0.00  0.00    -0.169 F 
ATOM     28  F2  5RT d   1     -43.417   0.386  10.570  0.00  0.00    -0.169 F 
ATOM     29  F3  5RT d   1     -42.945   0.903   8.488  0.00  0.00    -0.169 F 
ENDBRANCH  23  26
ENDBRANCH  22  23
BRANCH  22  30
ATOM     30  S2  5RT d   1     -45.721   4.208   8.183  0.00  0.00     0.266 S 
ATOM     31  O   5RT d   1     -47.040   3.860   7.694  0.00  0.00    -0.200 OA
ATOM     32  O3  5RT d   1     -44.604   4.421   7.274  0.00  0.00    -0.200 OA
BRANCH  30  33
ATOM     33  C12 5RT d   1     -45.967   5.685   9.121  0.00  0.00     0.092 A 
ATOM     34  C13 5RT d   1     -44.858   6.410   9.439  0.00  0.00     0.015 A 
ATOM     35  C14 5RT d   1     -43.486   6.267   9.119  0.00  0.00    -0.054 A 
ATOM     36  C17 5RT d   1     -45.068   7.519  10.230  0.00  0.00     0.045 A 
ATOM     37  C15 5RT d   1     -42.873   7.319   9.731  0.00  0.00    -0.020 A 
ATOM     38  H12 5RT d   1     -43.023   5.487   8.516  0.00  0.00     0.087 H 
ATOM     39  N3  5RT d   1     -43.830   8.053  10.380  0.00  0.00    -0.360 N 
ATOM     40  H3  5RT d   1     -41.806   7.538   9.708  0.00  0.00     0.111 H 
ATOM     41  C18 5RT d   1     -46.277   7.947  10.732  0.00  0.00    -0.056 A 
ATOM     42  C19 5RT d   1     -47.351   7.167  10.397  0.00  0.00    -0.079 A 
ATOM     43  H13 5RT d   1     -46.371   8.835  11.346  0.00  0.00     0.087 H 
ATOM     44  C20 5RT d   1     -47.203   6.049   9.609  0.00  0.00    -0.059 A 
ATOM     45  H14 5RT d   1     -48.337   7.435  10.759  0.00  0.00     0.083 H 
ATOM     46  H15 5RT d   1     -48.071   5.446   9.369  0.00  0.00     0.085 H 
BRANCH  39  47
ATOM     47  C16 5RT d   1     -43.615   9.257  11.151  0.00  0.00    -0.014 C 
ATOM     48  H4  5RT d   1     -42.545   9.512  11.142  0.00  0.00     0.057 H 
ATOM     49  H5  5RT d   1     -43.944   9.092  12.188  0.00  0.00     0.057 H 
ATOM     50  H6  5RT d   1     -44.192  10.083  10.710  0.00  0.00     0.057 H 
ENDBRANCH  39  47
ENDBRANCH  30  33
ENDBRANCH  22  30
ENDBRANCH   7  22
BRANCH   2  51
ATOM     51  C2  5RT d   1     -47.349   3.189  15.714  0.00  0.00     0.073 A 
ATOM     52  S1  5RT d   1     -46.715   3.320  17.286  0.00  0.00    -0.097 SA
ATOM     53  C3  5RT d   1     -45.811   1.884  17.064  0.00  0.00    -0.044 A 
ATOM     54  C4  5RT d   1     -46.001   1.317  15.829  0.00  0.00    -0.075 A 
ATOM     55  H7  5RT d   1     -45.154   1.464  17.824  0.00  0.00     0.095 H 
ATOM     56  C5  5RT d   1     -46.899   2.071  15.051  0.00  0.00    -0.060 A 
ATOM     57  H8  5RT d   1     -45.518   0.400  15.494  0.00  0.00     0.084 H 
ATOM     58  H9  5RT d   1     -47.203   1.801  14.041  0.00  0.00     0.085 H 
ENDBRANCH   2  51
TORSDOF 7
