REMARK  4 active torsions:
REMARK  status: ('A' for Active; 'I' for Inactive)
REMARK    1  A    between atoms: C8_12  and  C9_5 
REMARK    2  A    between atoms: C18_10  and  N19_17 
REMARK    3  A    between atoms: S7_20  and  C6_11 
REMARK    4  A    between atoms: C8_12  and  S7_20 
ROOT
ATOM      1  C3  5RU d   1      -9.427  20.537 -19.520  0.00  0.00     0.150 A 
ATOM      2  C4  5RU d   1      -9.956  21.416 -20.445  0.00  0.00     0.178 A 
ATOM      3  C2  5RU d   1      -9.945  19.288 -19.446  0.00  0.00     0.290 A 
ATOM      4  C18 5RU d   1     -11.492  19.959 -21.160  0.00  0.00     0.680 A 
ATOM      5  C6  5RU d   1      -8.376  22.428 -19.328  0.00  0.00     0.169 A 
ATOM      6  N17 5RU d   1     -10.995  21.181 -21.281  0.00  0.00    -0.172 N 
ATOM      7  N5  5RU d   1      -9.280  22.580 -20.318  0.00  0.00    -0.204 NA
ATOM      8  N20 5RU d   1     -11.013  19.034 -20.285  0.00  0.00    -0.154 N 
ATOM      9  N16 5RU d   1      -8.419  21.175 -18.837  0.00  0.00    -0.328 N 
ATOM     10  O1  5RU d   1      -9.580  18.324 -18.656  0.00  0.00    -0.265 OA
ATOM     11  H7  5RU d   1     -11.361  21.880 -21.943  0.00  0.00     0.186 HD
ATOM     12  H8  5RU d   1     -11.451  18.136 -20.248  0.00  0.00     0.187 HD
ATOM     13  H9  5RU d   1      -7.819  20.776 -18.101  0.00  0.00     0.168 HD
ENDROOT
BRANCH   5  14
ATOM     14  S7  5RU d   1      -7.313  23.657 -18.768  0.00  0.00    -0.087 SA
BRANCH  14  15
ATOM     15  C8  5RU d   1      -8.519  24.297 -17.364  0.00  0.00     0.011 C 
ATOM     16  H5  5RU d   1      -9.020  23.415 -16.938  0.00  0.00     0.057 H 
ATOM     17  H6  5RU d   1      -7.897  24.774 -16.592  0.00  0.00     0.057 H 
BRANCH  15  18
ATOM     18  C9  5RU d   1      -9.644  25.328 -17.759  0.00  0.00    -0.010 A 
ATOM     19  C10 5RU d   1      -9.431  26.651 -18.134  0.00  0.00    -0.073 A 
ATOM     20  C11 5RU d   1     -10.425  27.509 -18.550  0.00  0.00    -0.082 A 
ATOM     21  H3  5RU d   1      -8.417  27.031 -18.096  0.00  0.00     0.084 H 
ATOM     22  C12 5RU d   1     -11.722  27.062 -18.605  0.00  0.00    -0.080 A 
ATOM     23  H1  5RU d   1     -10.185  28.528 -18.831  0.00  0.00     0.083 H 
ATOM     24  C13 5RU d   1     -11.984  25.771 -18.223  0.00  0.00    -0.045 A 
ATOM     25  H2  5RU d   1     -12.520  27.714 -18.942  0.00  0.00     0.083 H 
ATOM     26  C14 5RU d   1     -10.955  24.936 -17.816  0.00  0.00     0.123 A 
ATOM     27  H4  5RU d   1     -13.003  25.401 -18.239  0.00  0.00     0.088 H 
ATOM     28  F15 5RU d   1     -11.289  23.696 -17.485  0.00  0.00    -0.206 F 
ENDBRANCH  15  18
ENDBRANCH  14  15
ENDBRANCH   5  14
BRANCH   4  29
ATOM     29  N19 5RU d   1     -12.533  19.587 -21.914  0.00  0.00    -0.234 N 
ATOM     30  H10 5RU d   1     -12.938  20.246 -22.594  0.00  0.00     0.174 HD
ATOM     31  H11 5RU d   1     -12.930  18.642 -21.814  0.00  0.00     0.174 HD
ENDBRANCH   4  29
TORSDOF 4
