REMARK  4 active torsions:
REMARK  status: ('A' for Active; 'I' for Inactive)
REMARK    1  A    between atoms: C13_13  and  C7_7 
REMARK    2  A    between atoms: C11_11  and  N19_19 
REMARK    3  A    between atoms: S21_21  and  C12_12 
REMARK    4  A    between atoms: C13_13  and  S21_21 
ROOT
ATOM      1  C1  5RV d   1      -8.754   9.713 -11.031  0.00  0.00     0.100 C 
ATOM      2  C2  5RV d   1     -10.292   6.410 -11.363  0.00  0.00    -0.082 A 
ATOM      3  C3  5RV d   1     -11.632   6.736 -11.404  0.00  0.00    -0.082 A 
ATOM      4  C4  5RV d   1      -9.364   7.423 -11.238  0.00  0.00    -0.062 A 
ATOM      5  C5  5RV d   1     -12.042   8.054 -11.321  0.00  0.00    -0.075 A 
ATOM      6  C6  5RV d   1      -9.783   8.739 -11.159  0.00  0.00     0.051 A 
ATOM      7  C7  5RV d   1     -11.133   9.089 -11.190  0.00  0.00    -0.028 A 
ATOM      8  N14 5RV d   1      -7.888  10.483 -10.953  0.00  0.00    -0.191 NA
ATOM      9  H1  5RV d   1      -9.974   5.376 -11.428  0.00  0.00     0.083 H 
ATOM     10  H2  5RV d   1     -12.372   5.950 -11.502  0.00  0.00     0.083 H 
ATOM     11  H3  5RV d   1      -8.306   7.188 -11.202  0.00  0.00     0.085 H 
ATOM     12  H4  5RV d   1     -13.101   8.282 -11.360  0.00  0.00     0.084 H 
ENDROOT
BRANCH   7  13
ATOM     13  C13 5RV d   1     -11.661  10.521 -11.108  0.00  0.00     0.009 C 
ATOM     14  H5  5RV d   1     -12.675  10.497 -11.534  0.00  0.00     0.056 H 
ATOM     15  H6  5RV d   1     -11.006  11.125 -11.754  0.00  0.00     0.056 H 
BRANCH  13  16
ATOM     16  S21 5RV d   1     -11.798  11.445  -9.507  0.00  0.00    -0.087 SA
BRANCH  16  17
ATOM     17  C12 5RV d   1     -12.420  10.195  -8.473  0.00  0.00     0.169 A 
ATOM     18  N16 5RV d   1     -11.678   9.309  -7.845  0.00  0.00    -0.317 N 
ATOM     19  C9  5RV d   1     -12.568   8.536  -7.158  0.00  0.00     0.182 A 
ATOM     20  H7  5RV d   1     -10.652   9.219  -7.867  0.00  0.00     0.169 HD
ATOM     21  C8  5RV d   1     -13.855   8.958  -7.393  0.00  0.00     0.160 A 
ATOM     22  N15 5RV d   1     -12.266   7.507  -6.347  0.00  0.00    -0.044 NA
ATOM     23  C10 5RV d   1     -14.886   8.293  -6.787  0.00  0.00     0.226 A 
ATOM     24  N18 5RV d   1     -13.756  10.038  -8.241  0.00  0.00    -0.216 NA
ATOM     25  N17 5RV d   1     -14.621   7.257  -5.983  0.00  0.00    -0.164 N 
ATOM     26  O20 5RV d   1     -16.186   8.647  -6.955  0.00  0.00    -0.169 OA
ATOM     27  C11 5RV d   1     -13.337   6.914  -5.802  0.00  0.00     0.702 A 
ATOM     28  H8  5RV d   1     -15.357   6.754  -5.531  0.00  0.00     0.186 HD
BRANCH  27  29
ATOM     29  N19 5RV d   1     -13.133   5.815  -4.958  0.00  0.00    -0.233 N 
ATOM     30  H9  5RV d   1     -12.177   5.485  -4.765  0.00  0.00     0.174 HD
ATOM     31  H10 5RV d   1     -13.939   5.337  -4.531  0.00  0.00     0.174 HD
ENDBRANCH  27  29
ENDBRANCH  16  17
ENDBRANCH  13  16
ENDBRANCH   7  13
TORSDOF 4
