REMARK  4 active torsions:
REMARK  status: ('A' for Active; 'I' for Inactive)
REMARK    1  A    between atoms: C12_12  and  C5_5 
REMARK    2  A    between atoms: S20_20  and  C9_9 
REMARK    3  A    between atoms: C11_11  and  N17_17 
REMARK    4  A    between atoms: C12_12  and  S20_20 
ROOT
ATOM      1  C7  5RW d   1      -0.167  -8.343   2.353  0.00  0.00     0.150 A 
ATOM      2  C8  5RW d   1       0.392  -7.486   3.283  0.00  0.00     0.178 A 
ATOM      3  C9  5RW d   1      -1.268  -6.516   2.180  0.00  0.00     0.169 A 
ATOM      4  C10 5RW d   1       0.333  -9.662   2.196  0.00  0.00     0.290 A 
ATOM      5  C11 5RW d   1       1.910  -8.859   4.024  0.00  0.00     0.680 A 
ATOM      6  N13 5RW d   1      -1.219  -7.731   1.688  0.00  0.00    -0.328 N 
ATOM      7  N14 5RW d   1       1.443  -7.666   4.162  0.00  0.00    -0.172 N 
ATOM      8  N15 5RW d   1      -0.317  -6.326   3.155  0.00  0.00    -0.204 NA
ATOM      9  N16 5RW d   1       1.433  -9.795   3.109  0.00  0.00    -0.154 N 
ATOM     10  O18 5RW d   1      -0.086 -10.539   1.397  0.00  0.00    -0.265 OA
ATOM     11  H7  5RW d   1      -1.828  -8.141   0.966  0.00  0.00     0.168 HD
ATOM     12  H8  5RW d   1       1.797  -6.959   4.822  0.00  0.00     0.186 HD
ATOM     13  H9  5RW d   1       1.918 -10.669   3.085  0.00  0.00     0.187 HD
ENDROOT
BRANCH   3  14
ATOM     14  S20 5RW d   1      -2.395  -5.263   1.667  0.00  0.00    -0.087 SA
BRANCH  14  15
ATOM     15  C12 5RW d   1      -1.326  -4.547   0.365  0.00  0.00     0.008 C 
ATOM     16  H5  5RW d   1      -0.993  -5.408  -0.233  0.00  0.00     0.056 H 
ATOM     17  H6  5RW d   1      -1.998  -3.919  -0.239  0.00  0.00     0.056 H 
BRANCH  15  18
ATOM     18  C5  5RW d   1      -0.059  -3.692   0.568  0.00  0.00    -0.048 A 
ATOM     19  C1  5RW d   1      -0.103  -2.349   0.842  0.00  0.00    -0.073 A 
ATOM     20  C3  5RW d   1       1.027  -1.570   0.984  0.00  0.00    -0.045 A 
ATOM     21  H1  5RW d   1      -1.072  -1.877   0.952  0.00  0.00     0.084 H 
ATOM     22  C6  5RW d   1       2.255  -2.150   0.832  0.00  0.00     0.116 A 
ATOM     23  H3  5RW d   1       0.942  -0.514   1.213  0.00  0.00     0.088 H 
ATOM     24  C4  5RW d   1       2.332  -3.483   0.544  0.00  0.00    -0.045 A 
ATOM     25  F19 5RW d   1       3.355  -1.385   0.978  0.00  0.00    -0.206 F 
ATOM     26  C2  5RW d   1       1.195  -4.267   0.417  0.00  0.00    -0.073 A 
ATOM     27  H4  5RW d   1       3.306  -3.939   0.411  0.00  0.00     0.088 H 
ATOM     28  H2  5RW d   1       1.286  -5.325   0.201  0.00  0.00     0.084 H 
ENDBRANCH  15  18
ENDBRANCH  14  15
ENDBRANCH   3  14
BRANCH   5  29
ATOM     29  N17 5RW d   1       2.975  -9.266   4.799  0.00  0.00    -0.234 N 
ATOM     30  H10 5RW d   1       3.379  -8.625   5.497  0.00  0.00     0.174 HD
ATOM     31  H11 5RW d   1       3.367 -10.211   4.680  0.00  0.00     0.174 HD
ENDBRANCH   5  29
TORSDOF 4
