REMARK  4 active torsions:
REMARK  status: ('A' for Active; 'I' for Inactive)
REMARK    1  A    between atoms: C13_13  and  C6_6 
REMARK    2  A    between atoms: C11_11  and  N19_19 
REMARK    3  A    between atoms: S22_22  and  C12_12 
REMARK    4  A    between atoms: C13_13  and  S22_22 
ROOT
ATOM      1  C1  5RY d   1     -12.751  27.772 -19.313  0.00  0.00     0.099 C 
ATOM      2  C2  5RY d   1     -10.456  27.492 -18.619  0.00  0.00    -0.062 A 
ATOM      3  C3  5RY d   1      -9.476  26.694 -18.111  0.00  0.00    -0.072 A 
ATOM      4  C4  5RY d   1     -12.025  25.756 -18.270  0.00  0.00    -0.025 A 
ATOM      5  C5  5RY d   1     -11.741  27.026 -18.713  0.00  0.00     0.047 A 
ATOM      6  C6  5RY d   1      -9.692  25.391 -17.688  0.00  0.00    -0.010 A 
ATOM      7  C8  5RY d   1     -11.004  24.965 -17.788  0.00  0.00     0.124 A 
ATOM      8  N14 5RY d   1     -13.595  28.385 -19.831  0.00  0.00    -0.191 NA
ATOM      9  F21 5RY d   1     -11.337  23.746 -17.417  0.00  0.00    -0.205 F 
ATOM     10  H1  5RY d   1     -10.219  28.497 -18.949  0.00  0.00     0.085 H 
ATOM     11  H2  5RY d   1      -8.473  27.099 -18.033  0.00  0.00     0.084 H 
ATOM     12  H3  5RY d   1     -13.041  25.380 -18.299  0.00  0.00     0.090 H 
ENDROOT
BRANCH   6  13
ATOM     13  C13 5RY d   1      -8.539  24.438 -17.252  0.00  0.00     0.011 C 
ATOM     14  H4  5RY d   1      -8.996  23.586 -16.727  0.00  0.00     0.057 H 
ATOM     15  H5  5RY d   1      -7.896  24.996 -16.555  0.00  0.00     0.057 H 
BRANCH  13  16
ATOM     16  S22 5RY d   1      -7.360  23.694 -18.690  0.00  0.00    -0.087 SA
BRANCH  16  17
ATOM     17  C12 5RY d   1      -8.395  22.462 -19.263  0.00  0.00     0.169 A 
ATOM     18  N16 5RY d   1      -9.300  22.598 -20.236  0.00  0.00    -0.204 NA
ATOM     19  C9  5RY d   1      -9.972  21.445 -20.394  0.00  0.00     0.176 A 
ATOM     20  C7  5RY d   1      -9.465  20.577 -19.447  0.00  0.00     0.136 A 
ATOM     21  N15 5RY d   1     -10.998  21.214 -21.227  0.00  0.00    -0.172 N 
ATOM     22  C10 5RY d   1      -9.975  19.305 -19.403  0.00  0.00     0.224 A 
ATOM     23  N18 5RY d   1      -8.464  21.204 -18.771  0.00  0.00    -0.329 N 
ATOM     24  N17 5RY d   1     -11.038  19.061 -20.226  0.00  0.00    -0.166 N 
ATOM     25  O20 5RY d   1      -9.608  18.354 -18.596  0.00  0.00    -0.169 OA
ATOM     26  C11 5RY d   1     -11.477  19.987 -21.100  0.00  0.00     0.679 A 
ATOM     27  H7  5RY d   1     -11.500  18.175 -20.178  0.00  0.00     0.186 HD
ATOM     28  H8  5RY d   1      -7.874  20.800 -18.030  0.00  0.00     0.168 HD
ATOM     29  H6  5RY d   1     -11.370  21.911 -21.888  0.00  0.00     0.186 HD
BRANCH  26  30
ATOM     30  N19 5RY d   1     -12.513  19.629 -21.868  0.00  0.00    -0.234 N 
ATOM     31  H9  5RY d   1     -12.896  20.292 -22.557  0.00  0.00     0.174 HD
ATOM     32  H10 5RY d   1     -12.927  18.691 -21.770  0.00  0.00     0.174 HD
ENDBRANCH  26  30
ENDBRANCH  16  17
ENDBRANCH  13  16
ENDBRANCH   6  13
TORSDOF 4
