REMARK  5 active torsions:
REMARK  status: ('A' for Active; 'I' for Inactive)
REMARK    1  A    between atoms: C12_12  and  C5_5 
REMARK    2  A    between atoms: C10_10  and  N18_18 
REMARK    3  A    between atoms: S21_21  and  C11_11 
REMARK    4  A    between atoms: C13_13  and  C12_12 
REMARK    5  A    between atoms: C13_13  and  S21_21 
ROOT
ATOM      1  S21 5RZ d   1      -7.035  23.722 -18.651  0.00  0.00    -0.084 SA
ENDROOT
BRANCH   1   2
ATOM      2  C11 5RZ d   1      -8.085  22.447 -19.175  0.00  0.00     0.169 A 
ATOM      3  N15 5RZ d   1      -9.002  22.603 -20.137  0.00  0.00    -0.204 NA
ATOM      4  C8  5RZ d   1      -9.681  21.423 -20.260  0.00  0.00     0.178 A 
ATOM      5  C6  5RZ d   1      -9.107  20.551 -19.352  0.00  0.00     0.150 A 
ATOM      6  N14 5RZ d   1     -10.739  21.205 -21.047  0.00  0.00    -0.172 N 
ATOM      7  C9  5RZ d   1      -9.648  19.269 -19.234  0.00  0.00     0.290 A 
ATOM      8  N17 5RZ d   1      -8.040  21.181 -18.715  0.00  0.00    -0.328 N 
ATOM      9  N16 5RZ d   1     -10.736  19.055 -20.056  0.00  0.00    -0.154 N 
ATOM     10  O20 5RZ d   1      -9.261  18.356 -18.462  0.00  0.00    -0.265 OA
ATOM     11  C10 5RZ d   1     -11.243  19.978 -20.909  0.00  0.00     0.680 A 
ATOM     12  H8  5RZ d   1     -11.180  18.160 -20.020  0.00  0.00     0.187 HD
ATOM     13  H9  5RZ d   1      -7.371  20.773 -18.047  0.00  0.00     0.168 HD
ATOM     14  H7  5RZ d   1     -11.124  21.910 -21.692  0.00  0.00     0.186 HD
BRANCH  11  15
ATOM     15  N18 5RZ d   1     -12.297  19.619 -21.640  0.00  0.00    -0.234 N 
ATOM     16  H10 5RZ d   1     -12.716  20.287 -22.302  0.00  0.00     0.174 HD
ATOM     17  H11 5RZ d   1     -12.693  18.673 -21.543  0.00  0.00     0.174 HD
ENDBRANCH  11  15
ENDBRANCH   1   2
BRANCH   1  18
ATOM     18  C13 5RZ d   1      -7.920  24.144 -17.039  0.00  0.00     0.043 C 
ATOM     19  H5  5RZ d   1      -7.612  23.426 -16.265  0.00  0.00     0.061 H 
ATOM     20  H6  5RZ d   1      -7.635  25.161 -16.731  0.00  0.00     0.061 H 
BRANCH  18  21
ATOM     21  C12 5RZ d   1      -9.404  24.083 -17.192  0.00  0.00     0.169 C 
ATOM     22  O19 5RZ d   1     -10.052  23.062 -16.899  0.00  0.00    -0.291 OA
BRANCH  21  23
ATOM     23  C5  5RZ d   1     -10.215  25.416 -17.522  0.00  0.00     0.011 A 
ATOM     24  C1  5RZ d   1      -9.743  26.686 -17.921  0.00  0.00    -0.068 A 
ATOM     25  C3  5RZ d   1     -10.624  27.749 -18.061  0.00  0.00    -0.065 A 
ATOM     26  H1  5RZ d   1      -8.687  26.831 -18.119  0.00  0.00     0.085 H 
ATOM     27  C7  5RZ d   1     -11.967  27.596 -17.724  0.00  0.00     0.011 A 
ATOM     28  H3  5RZ d   1     -10.266  28.702 -18.434  0.00  0.00     0.085 H 
ATOM     29  C4  5RZ d   1     -12.403  26.328 -17.335  0.00  0.00    -0.065 A 
ATOM     30 BR1  5RZ d   1     -13.206  28.981 -17.829  0.00  0.00    -0.051 Br
ATOM     31  C2  5RZ d   1     -11.557  25.291 -17.238  0.00  0.00    -0.068 A 
ATOM     32  H4  5RZ d   1     -13.452  26.177 -17.105  0.00  0.00     0.085 H 
ATOM     33  H2  5RZ d   1     -11.941  24.326 -16.927  0.00  0.00     0.085 H 
ENDBRANCH  21  23
ENDBRANCH  18  21
ENDBRANCH   1  18
TORSDOF 5
