REMARK  4 active torsions:
REMARK  status: ('A' for Active; 'I' for Inactive)
REMARK    1  A    between atoms: C03_3  and  N08_8 
REMARK    2  A    between atoms: C10_10  and  S12_12 
REMARK    3  A    between atoms: S12_12  and  C13_13 
REMARK    4  A    between atoms: C13_13  and  C14_14 
ROOT
ATOM      1  C14 YH2 d   1     -17.568  -7.801 -29.645  0.00  0.00    -0.048 A 
ATOM      2  C15 YH2 d   1     -18.415  -8.177 -28.615  0.00  0.00    -0.075 A 
ATOM      3  C16 YH2 d   1     -18.816  -7.259 -27.660  0.00  0.00    -0.062 A 
ATOM      4  C17 YH2 d   1     -18.377  -5.952 -27.725  0.00  0.00     0.044 A 
ATOM      5  C18 YH2 d   1     -17.537  -5.558 -28.738  0.00  0.00    -0.062 A 
ATOM      6  C19 YH2 d   1     -17.157  -6.485 -29.688  0.00  0.00    -0.075 A 
ATOM      7  C20 YH2 d   1     -18.714  -5.000 -26.737  0.00  0.00     0.099 C 
ATOM      8  N21 YH2 d   1     -18.958  -4.211 -25.920  0.00  0.00    -0.191 NA
ATOM      9  H7  YH2 d   1     -18.767  -9.200 -28.556  0.00  0.00     0.084 H 
ATOM     10  H8  YH2 d   1     -19.477  -7.567 -26.858  0.00  0.00     0.085 H 
ATOM     11  H9  YH2 d   1     -17.178  -4.536 -28.791  0.00  0.00     0.085 H 
ATOM     12  H10 YH2 d   1     -16.511  -6.167 -30.498  0.00  0.00     0.084 H 
ENDROOT
BRANCH   1  13
ATOM     13  C13 YH2 d   1     -17.061  -8.795 -30.672  0.00  0.00     0.008 C 
ATOM     14  H5  YH2 d   1     -17.860  -9.523 -30.879  0.00  0.00     0.056 H 
ATOM     15  H6  YH2 d   1     -16.814  -8.250 -31.595  0.00  0.00     0.056 H 
BRANCH  13  16
ATOM     16  S12 YH2 d   1     -15.518  -9.739 -30.096  0.00  0.00    -0.087 SA
BRANCH  16  17
ATOM     17  C10 YH2 d   1     -14.315  -8.535 -29.670  0.00  0.00     0.169 A 
ATOM     18  N09 YH2 d   1     -14.085  -7.413 -30.322  0.00  0.00    -0.317 N 
ATOM     19  C05 YH2 d   1     -13.070  -6.802 -29.643  0.00  0.00     0.182 A 
ATOM     20  H4  YH2 d   1     -14.568  -7.070 -31.165  0.00  0.00     0.169 HD
ATOM     21  N04 YH2 d   1     -12.502  -5.623 -29.947  0.00  0.00    -0.044 NA
ATOM     22  C06 YH2 d   1     -12.674  -7.556 -28.566  0.00  0.00     0.160 A 
ATOM     23  C03 YH2 d   1     -11.507  -5.245 -29.132  0.00  0.00     0.702 A 
ATOM     24  N02 YH2 d   1     -11.056  -5.929 -28.069  0.00  0.00    -0.164 N 
ATOM     25  C01 YH2 d   1     -11.646  -7.092 -27.775  0.00  0.00     0.226 A 
ATOM     26  H1  YH2 d   1     -10.302  -5.579 -27.514  0.00  0.00     0.186 HD
ATOM     27  O07 YH2 d   1     -11.169  -7.750 -26.696  0.00  0.00    -0.169 OA
ATOM     28  N11 YH2 d   1     -13.479  -8.663 -28.587  0.00  0.00    -0.216 NA
BRANCH  23  29
ATOM     29  N08 YH2 d   1     -10.884  -4.018 -29.422  0.00  0.00    -0.233 N 
ATOM     30  H2  YH2 d   1     -11.197  -3.459 -30.228  0.00  0.00     0.174 HD
ATOM     31  H3  YH2 d   1     -10.114  -3.678 -28.828  0.00  0.00     0.174 HD
ENDBRANCH  23  29
ENDBRANCH  16  17
ENDBRANCH  13  16
ENDBRANCH   1  13
TORSDOF 4
