REMARK  4 active torsions:
REMARK  status: ('A' for Active; 'I' for Inactive)
REMARK    1  A    between atoms: C12_12  and  C5_5 
REMARK    2  A    between atoms: S20_20  and  C9_9 
REMARK    3  A    between atoms: C11_11  and  N17_17 
REMARK    4  A    between atoms: C12_12  and  S20_20 
ROOT
ATOM      1  C7  5RW d   1      27.486   2.953 -22.358  0.00  0.00     0.150 A 
ATOM      2  C8  5RW d   1      27.778   3.807 -21.344  0.00  0.00     0.178 A 
ATOM      3  C9  5RW d   1      29.142   2.092 -21.364  0.00  0.00     0.169 A 
ATOM      4  C10 5RW d   1      26.362   3.254 -23.204  0.00  0.00     0.290 A 
ATOM      5  C11 5RW d   1      26.150   5.247 -21.818  0.00  0.00     0.680 A 
ATOM      6  N13 5RW d   1      28.346   1.876 -22.390  0.00  0.00    -0.328 N 
ATOM      7  N14 5RW d   1      27.198   4.959 -21.054  0.00  0.00    -0.172 N 
ATOM      8  N15 5RW d   1      28.855   3.273 -20.724  0.00  0.00    -0.204 NA
ATOM      9  N16 5RW d   1      25.759   4.439 -22.861  0.00  0.00    -0.154 N 
ATOM     10  O18 5RW d   1      25.908   2.573 -24.163  0.00  0.00    -0.265 OA
ATOM     11  H7  5RW d   1      28.362   1.091 -23.057  0.00  0.00     0.168 HD
ATOM     12  H8  5RW d   1      27.530   5.579 -20.301  0.00  0.00     0.186 HD
ATOM     13  H9  5RW d   1      24.978   4.737 -23.410  0.00  0.00     0.187 HD
ENDROOT
BRANCH   3  14
ATOM     14  S20 5RW d   1      30.472   1.052 -20.895  0.00  0.00    -0.087 SA
BRANCH  14  15
ATOM     15  C12 5RW d   1      31.923   2.401 -20.525  0.00  0.00     0.008 C 
ATOM     16  H5  5RW d   1      31.596   3.010 -19.669  0.00  0.00     0.056 H 
ATOM     17  H6  5RW d   1      32.830   1.842 -20.252  0.00  0.00     0.056 H 
BRANCH  15  18
ATOM     18  C5  5RW d   1      32.301   3.367 -21.660  0.00  0.00    -0.048 A 
ATOM     19  C1  5RW d   1      32.987   2.939 -22.763  0.00  0.00    -0.073 A 
ATOM     20  C3  5RW d   1      33.312   3.752 -23.838  0.00  0.00    -0.045 A 
ATOM     21  H1  5RW d   1      33.295   1.901 -22.799  0.00  0.00     0.084 H 
ATOM     22  C6  5RW d   1      32.875   5.049 -23.773  0.00  0.00     0.116 A 
ATOM     23  H3  5RW d   1      33.881   3.382 -24.683  0.00  0.00     0.088 H 
ATOM     24  C4  5RW d   1      32.179   5.521 -22.716  0.00  0.00    -0.045 A 
ATOM     25  F19 5RW d   1      33.158   5.857 -24.818  0.00  0.00    -0.206 F 
ATOM     26  C2  5RW d   1      31.902   4.698 -21.644  0.00  0.00    -0.073 A 
ATOM     27  H4  5RW d   1      31.837   6.550 -22.710  0.00  0.00     0.088 H 
ATOM     28  H2  5RW d   1      31.370   5.091 -20.785  0.00  0.00     0.084 H 
ENDBRANCH  15  18
ENDBRANCH  14  15
ENDBRANCH   3  14
BRANCH   5  29
ATOM     29  N17 5RW d   1      25.412   6.344 -21.636  0.00  0.00    -0.234 N 
ATOM     30  H10 5RW d   1      25.642   6.999 -20.875  0.00  0.00     0.174 HD
ATOM     31  H11 5RW d   1      24.613   6.536 -22.256  0.00  0.00     0.174 HD
ENDBRANCH   5  29
TORSDOF 4
