REMARK  4 active torsions:
REMARK  status: ('A' for Active; 'I' for Inactive)
REMARK    1  A    between atoms: C12_12  and  C5_5 
REMARK    2  A    between atoms: C10_10  and  N17_17 
REMARK    3  A    between atoms: S19_19  and  C11_11 
REMARK    4  A    between atoms: C12_12  and  S19_19 
ROOT
ATOM      1  C6  5RX d   1      27.507   3.922 -22.122  0.00  0.00     0.150 A 
ATOM      2  C8  5RX d   1      27.848   4.765 -21.108  0.00  0.00     0.178 A 
ATOM      3  C9  5RX d   1      26.402   4.274 -22.970  0.00  0.00     0.290 A 
ATOM      4  C10 5RX d   1      26.298   6.261 -21.509  0.00  0.00     0.680 A 
ATOM      5  C11 5RX d   1      29.171   3.000 -21.153  0.00  0.00     0.169 A 
ATOM      6  N13 5RX d   1      27.302   5.938 -20.751  0.00  0.00    -0.172 N 
ATOM      7  N14 5RX d   1      28.911   4.173 -20.498  0.00  0.00    -0.204 NA
ATOM      8  N15 5RX d   1      25.848   5.479 -22.576  0.00  0.00    -0.154 N 
ATOM      9  N16 5RX d   1      28.325   2.816 -22.151  0.00  0.00    -0.328 N 
ATOM     10  O18 5RX d   1      25.982   3.599 -23.905  0.00  0.00    -0.265 OA
ATOM     11  H7  5RX d   1      27.640   6.515 -19.967  0.00  0.00     0.186 HD
ATOM     12  H8  5RX d   1      25.064   5.817 -23.096  0.00  0.00     0.187 HD
ATOM     13  H9  5RX d   1      28.286   2.021 -22.805  0.00  0.00     0.168 HD
ENDROOT
BRANCH   5  14
ATOM     14  S19 5RX d   1      30.488   1.949 -20.649  0.00  0.00    -0.087 SA
BRANCH  14  15
ATOM     15  C12 5RX d   1      31.914   3.103 -20.250  0.00  0.00     0.008 C 
ATOM     16  H5  5RX d   1      31.627   3.681 -19.359  0.00  0.00     0.056 H 
ATOM     17  H6  5RX d   1      32.786   2.475 -20.015  0.00  0.00     0.056 H 
BRANCH  15  18
ATOM     18  C5  5RX d   1      32.348   4.099 -21.313  0.00  0.00    -0.048 A 
ATOM     19  C1  5RX d   1      31.958   5.431 -21.292  0.00  0.00    -0.074 A 
ATOM     20  C3  5RX d   1      32.337   6.325 -22.279  0.00  0.00    -0.061 A 
ATOM     21  H1  5RX d   1      31.337   5.783 -20.476  0.00  0.00     0.084 H 
ATOM     22  C7  5RX d   1      33.138   5.907 -23.320  0.00  0.00     0.034 A 
ATOM     23  H3  5RX d   1      32.003   7.355 -22.233  0.00  0.00     0.086 H 
ATOM     24  C4  5RX d   1      33.549   4.591 -23.352  0.00  0.00    -0.061 A 
ATOM     25 CL1  5RX d   1      33.628   7.007 -24.586  0.00  0.00    -0.084 Cl
ATOM     26  C2  5RX d   1      33.158   3.701 -22.364  0.00  0.00    -0.074 A 
ATOM     27  H4  5RX d   1      34.186   4.248 -24.160  0.00  0.00     0.086 H 
ATOM     28  H2  5RX d   1      33.493   2.671 -22.415  0.00  0.00     0.084 H 
ENDBRANCH  15  18
ENDBRANCH  14  15
ENDBRANCH   5  14
BRANCH   4  29
ATOM     29  N17 5RX d   1      25.583   7.416 -21.330  0.00  0.00    -0.234 N 
ATOM     30  H10 5RX d   1      25.834   8.064 -20.570  0.00  0.00     0.174 HD
ATOM     31  H11 5RX d   1      24.795   7.636 -21.956  0.00  0.00     0.174 HD
ENDBRANCH   4  29
TORSDOF 4
