REMARK  4 active torsions:
REMARK  status: ('A' for Active; 'I' for Inactive)
REMARK    1  A    between atoms: C13_13  and  C6_6 
REMARK    2  A    between atoms: C11_11  and  N19_19 
REMARK    3  A    between atoms: S22_22  and  C12_12 
REMARK    4  A    between atoms: C13_13  and  S22_22 
ROOT
ATOM      1  C1  5RY d   1      33.132   7.301 -24.376  0.00  0.00     0.099 C 
ATOM      2  C2  5RY d   1      32.073   6.812 -22.299  0.00  0.00    -0.062 A 
ATOM      3  C3  5RY d   1      31.732   5.926 -21.298  0.00  0.00    -0.072 A 
ATOM      4  C4  5RY d   1      33.332   5.124 -23.360  0.00  0.00    -0.025 A 
ATOM      5  C5  5RY d   1      32.851   6.395 -23.349  0.00  0.00     0.047 A 
ATOM      6  C6  5RY d   1      32.176   4.603 -21.254  0.00  0.00    -0.010 A 
ATOM      7  C8  5RY d   1      33.005   4.283 -22.310  0.00  0.00     0.124 A 
ATOM      8  N14 5RY d   1      33.357   7.975 -25.286  0.00  0.00    -0.191 NA
ATOM      9  F21 5RY d   1      33.544   3.040 -22.447  0.00  0.00    -0.205 F 
ATOM     10  H1  5RY d   1      31.726   7.838 -22.256  0.00  0.00     0.085 H 
ATOM     11  H2  5RY d   1      31.084   6.276 -20.503  0.00  0.00     0.084 H 
ATOM     12  H3  5RY d   1      33.958   4.776 -24.174  0.00  0.00     0.090 H 
ENDROOT
BRANCH   6  13
ATOM     13  C13 5RY d   1      31.679   3.537 -20.233  0.00  0.00     0.011 C 
ATOM     14  H4  5RY d   1      31.412   4.059 -19.302  0.00  0.00     0.057 H 
ATOM     15  H5  5RY d   1      32.509   2.842 -20.039  0.00  0.00     0.057 H 
BRANCH  13  16
ATOM     16  S22 5RY d   1      30.032   2.416 -20.833  0.00  0.00    -0.087 SA
BRANCH  16  17
ATOM     17  C12 5RY d   1      28.804   3.545 -21.415  0.00  0.00     0.169 A 
ATOM     18  N16 5RY d   1      28.582   4.677 -20.660  0.00  0.00    -0.204 NA
ATOM     19  C9  5RY d   1      27.568   5.334 -21.307  0.00  0.00     0.178 A 
ATOM     20  C7  5RY d   1      27.213   4.570 -22.388  0.00  0.00     0.150 A 
ATOM     21  N15 5RY d   1      27.030   6.501 -20.963  0.00  0.00    -0.172 N 
ATOM     22  C10 5RY d   1      26.135   4.936 -23.252  0.00  0.00     0.290 A 
ATOM     23  N18 5RY d   1      27.983   3.424 -22.428  0.00  0.00    -0.328 N 
ATOM     24  N17 5RY d   1      25.597   6.137 -22.842  0.00  0.00    -0.154 N 
ATOM     25  O20 5RY d   1      25.687   4.322 -24.262  0.00  0.00    -0.265 OA
ATOM     26  C11 5RY d   1      26.045   6.871 -21.723  0.00  0.00     0.680 A 
ATOM     27  H7  5RY d   1      24.838   6.514 -23.373  0.00  0.00     0.187 HD
ATOM     28  H8  5RY d   1      27.925   2.648 -23.103  0.00  0.00     0.168 HD
ATOM     29  H6  5RY d   1      27.365   7.060 -20.166  0.00  0.00     0.186 HD
BRANCH  26  30
ATOM     30  N19 5RY d   1      25.311   7.979 -21.544  0.00  0.00    -0.234 N 
ATOM     31  H9  5RY d   1      25.522   8.616 -20.763  0.00  0.00     0.174 HD
ATOM     32  H10 5RY d   1      24.536   8.193 -22.188  0.00  0.00     0.174 HD
ENDBRANCH  26  30
ENDBRANCH  16  17
ENDBRANCH  13  16
ENDBRANCH   6  13
TORSDOF 4
