REMARK WARNING: 32 MAX_TORS EXCEEDED!!!
REMARK  34 active torsions:
REMARK  status: ('A' for Active; 'I' for Inactive)
REMARK    1  A    between atoms: N_1  and  CA_2 
REMARK    2  A    between atoms: CA_8  and  CB_11 
REMARK    3  A    between atoms: CB_11  and  CG_12 
REMARK    4  A    between atoms: CG_12  and  CD_13 
REMARK       I    between atoms: CD_13  and  NE2_15 
REMARK    5  A    between atoms: CA_17  and  CB_20 
REMARK    6  A    between atoms: CB_20  and  CG_21 
REMARK    7  A    between atoms: CA_28  and  CB_31 
REMARK    8  A    between atoms: CB_31  and  CG_32 
REMARK    9  A    between atoms: CA_36  and  CB_39 
REMARK   10  A    between atoms: CB_39  and  CG_40 
REMARK   11  A    between atoms: CG_40  and  CD_41 
REMARK   12  A    between atoms: CA_45  and  CB_48 
REMARK   13  A    between atoms: CB_48  and  OG_49 
REMARK   14  A    between atoms: CA_51  and  CB_54 
REMARK   15  A    between atoms: CB_54  and  OG1_55 
REMARK   16  A    between atoms: CB_54  and  CG2_56 
REMARK   17  A    between atoms: CA_58  and  CB_61 
REMARK   18  A    between atoms: CB_61  and  CG_62 
REMARK   19  A    between atoms: CG_62  and  CD_63 
REMARK   20  A    between atoms: CD_63  and  NE_64 
REMARK       I    between atoms: NE_64  and  CZ_65 
REMARK       I    between atoms: CZ_65  and  NH1_66 
REMARK       I    between atoms: CZ_65  and  NH2_67 
REMARK   21  A    between atoms: CA_69  and  CB_72 
REMARK   22  A    between atoms: CB_72  and  CG_73 
REMARK   23  A    between atoms: CG_73  and  CD_74 
REMARK   24  A    between atoms: CD_74  and  NE_75 
REMARK       I    between atoms: NE_75  and  CZ_76 
REMARK       I    between atoms: CZ_76  and  NH1_77 
REMARK   25  A    between atoms: CA_80  and  CB_83 
REMARK   26  A    between atoms: CB_83  and  CG_84 
REMARK   27  A    between atoms: CG_84  and  CD1_85 
REMARK   28  A    between atoms: CG_84  and  CD2_86 
REMARK   29  A    between atoms: CA_88  and  CB_91 
REMARK   30  A    between atoms: CB_91  and  CG_92 
REMARK   31  A    between atoms: CG_92  and  CD_93 
REMARK   32  A    between atoms: CD_93  and  CE_94 
REMARK   33  A    between atoms: CE_94  and  NZ_95 
REMARK   34  A    between atoms: CA_97  and  C_98 
ROOT
ATOM      1  CA  CYS d   1      16.323 -32.662 -28.661  0.00  0.00     0.184 C 
ATOM      2  C   CYS d   1      16.816 -34.077 -28.373  0.00  0.00     0.249 C 
ATOM      3  O   CYS d   1      16.522 -34.641 -27.322  0.00  0.00    -0.271 OA
ATOM      4  CB  CYS d   1      17.251 -31.637 -28.004  0.00  0.00     0.021 C 
ATOM      5  SG  CYS d   1      16.814 -29.902 -28.279  0.00  0.00    -0.095 SA
ATOM      6  N   CYS d   1      18.365 -30.825 -32.443  0.00  0.00    -0.344 N 
ATOM      7  CA  CYS d   1      16.975 -30.479 -32.187  0.00  0.00     0.105 C 
ATOM      8  CB  CYS d   1      16.883 -29.262 -31.268  0.00  0.00     0.015 C 
ATOM      9  SG  CYS d   1      17.988 -29.316 -29.830  0.00  0.00    -0.095 SA
ATOM     10  H4  CYS d   1      16.338 -32.501 -29.749  0.00  0.00     0.100 H 
ATOM     11  H5  CYS d   1      18.266 -31.797 -28.397  0.00  0.00     0.054 H 
ATOM     12  H6  CYS d   1      17.245 -31.820 -26.919  0.00  0.00     0.054 H 
ATOM     13  H96 CYS d   1      18.998 -30.116 -32.752  0.00  0.00     0.163 HD
ATOM     14  H97 CYS d   1      16.493 -31.331 -31.686  0.00  0.00     0.090 H 
ATOM     15  H98 CYS d   1      15.848 -29.185 -30.903  0.00  0.00     0.054 H 
ATOM     16  H99 CYS d   1      17.131 -28.367 -31.858  0.00  0.00     0.054 H 
ATOM     17  N   GLN d   1      17.563 -34.654 -29.312  0.00  0.00    -0.346 N 
ATOM     18  CA  GLN d   1      18.162 -35.972 -29.144  0.00  0.00     0.090 C 
ATOM     19  C   GLN d   1      19.674 -35.881 -29.299  0.00  0.00     0.241 C 
ATOM     20  O   GLN d   1      20.182 -35.134 -30.142  0.00  0.00    -0.271 OA
ATOM     21  H7  GLN d   1      17.720 -34.162 -30.169  0.00  0.00     0.163 HD
ATOM     22  H8  GLN d   1      17.933 -36.328 -28.129  0.00  0.00     0.087 H 
ATOM     23  N   PHE d   1      20.388 -36.644 -28.474  0.00  0.00    -0.346 N 
ATOM     24  CA  PHE d   1      21.838 -36.703 -28.567  0.00  0.00     0.093 C 
ATOM     25  C   PHE d   1      22.248 -37.475 -29.813  0.00  0.00     0.241 C 
ATOM     26  O   PHE d   1      21.618 -38.472 -30.179  0.00  0.00    -0.271 OA
ATOM     27  H15 PHE d   1      19.918 -37.187 -27.777  0.00  0.00     0.163 HD
ATOM     28  H16 PHE d   1      22.231 -35.678 -28.641  0.00  0.00     0.088 H 
ATOM     29  N   ASP d   1      23.311 -37.008 -30.465  0.00  0.00    -0.345 N 
ATOM     30  CA  ASP d   1      23.793 -37.589 -31.712  0.00  0.00     0.098 C 
ATOM     31  C   ASP d   1      25.211 -38.109 -31.503  0.00  0.00     0.241 C 
ATOM     32  O   ASP d   1      26.120 -37.332 -31.193  0.00  0.00    -0.271 OA
ATOM     33  H24 ASP d   1      23.800 -36.224 -30.082  0.00  0.00     0.163 HD
ATOM     34  H25 ASP d   1      23.145 -38.435 -31.985  0.00  0.00     0.088 H 
ATOM     35  N   GLU d   1      25.400 -39.420 -31.690  0.00  0.00    -0.346 N 
ATOM     36  CA  GLU d   1      26.688 -40.053 -31.416  0.00  0.00     0.090 C 
ATOM     37  C   GLU d   1      27.770 -39.635 -32.395  0.00  0.00     0.241 C 
ATOM     38  O   GLU d   1      28.956 -39.684 -32.046  0.00  0.00    -0.271 OA
ATOM     39  H28 GLU d   1      24.642 -39.980 -32.025  0.00  0.00     0.163 HD
ATOM     40  H29 GLU d   1      27.005 -39.752 -30.407  0.00  0.00     0.087 H 
ATOM     41  N   SER d   1      27.388 -39.266 -33.618  0.00  0.00    -0.344 N 
ATOM     42  CA  SER d   1      28.371 -38.861 -34.616  0.00  0.00     0.109 C 
ATOM     43  C   SER d   1      29.076 -37.579 -34.203  0.00  0.00     0.243 C 
ATOM     44  O   SER d   1      30.310 -37.498 -34.225  0.00  0.00    -0.271 OA
ATOM     45  H34 SER d   1      26.416 -39.267 -33.854  0.00  0.00     0.163 HD
ATOM     46  H35 SER d   1      29.123 -39.658 -34.708  0.00  0.00     0.090 H 
ATOM     47  N   THR d   1      28.304 -36.558 -33.835  0.00  0.00    -0.344 N 
ATOM     48  CA  THR d   1      28.842 -35.252 -33.485  0.00  0.00     0.113 C 
ATOM     49  C   THR d   1      28.977 -35.043 -31.985  0.00  0.00     0.243 C 
ATOM     50  O   THR d   1      29.611 -34.067 -31.570  0.00  0.00    -0.271 OA
ATOM     51  H39 THR d   1      27.314 -36.694 -33.798  0.00  0.00     0.163 HD
ATOM     52  H40 THR d   1      29.843 -35.171 -33.933  0.00  0.00     0.091 H 
ATOM     53  N   ARG d   1      28.394 -35.923 -31.171  0.00  0.00    -0.346 N 
ATOM     54  CA  ARG d   1      28.355 -35.757 -29.718  0.00  0.00     0.089 C 
ATOM     55  C   ARG d   1      27.689 -34.444 -29.325  0.00  0.00     0.241 C 
ATOM     56  O   ARG d   1      28.002 -33.860 -28.285  0.00  0.00    -0.271 OA
ATOM     57  N   ARG d   1      26.769 -33.975 -30.161  0.00  0.00    -0.346 N 
ATOM     58  CA  ARG d   1      26.001 -32.771 -29.912  0.00  0.00     0.089 C 
ATOM     59  C   ARG d   1      24.519 -33.109 -29.938  0.00  0.00     0.241 C 
ATOM     60  O   ARG d   1      24.094 -34.100 -30.541  0.00  0.00    -0.271 OA
ATOM     61  H46 ARG d   1      27.964 -36.732 -31.571  0.00  0.00     0.163 HD
ATOM     62  H47 ARG d   1      27.746 -36.576 -29.308  0.00  0.00     0.087 H 
ATOM     63  H59 ARG d   1      26.597 -34.480 -31.007  0.00  0.00     0.163 HD
ATOM     64  H60 ARG d   1      26.264 -32.383 -28.917  0.00  0.00     0.087 H 
ATOM     65  N   LEU d   1      23.734 -32.274 -29.269  0.00  0.00    -0.346 N 
ATOM     66  CA  LEU d   1      22.290 -32.422 -29.327  0.00  0.00     0.089 C 
ATOM     67  C   LEU d   1      21.790 -31.923 -30.674  0.00  0.00     0.241 C 
ATOM     68  O   LEU d   1      22.203 -30.858 -31.144  0.00  0.00    -0.271 OA
ATOM     69  H72 LEU d   1      24.138 -31.540 -28.723  0.00  0.00     0.163 HD
ATOM     70  H73 LEU d   1      22.035 -33.487 -29.223  0.00  0.00     0.087 H 
ATOM     71  N   LYS d   1      20.915 -32.695 -31.303  0.00  0.00    -0.346 N 
ATOM     72  CA  LYS d   1      20.284 -32.300 -32.551  0.00  0.00     0.089 C 
ATOM     73  C   LYS d   1      18.807 -32.064 -32.274  0.00  0.00     0.241 C 
ATOM     74  O   LYS d   1      18.091 -32.993 -31.884  0.00  0.00    -0.271 OA
ATOM     75  H83 LYS d   1      20.681 -33.581 -30.904  0.00  0.00     0.163 HD
ATOM     76  H84 LYS d   1      20.738 -31.362 -32.902  0.00  0.00     0.087 H 
ENDROOT
BRANCH  54  77
ATOM     77  CB  ARG d   1      29.750 -35.862 -29.100  0.00  0.00    -0.036 C 
ATOM     78  H48 ARG d   1      29.669 -35.668 -28.020  0.00  0.00     0.036 H 
ATOM     79  H49 ARG d   1      30.395 -35.100 -29.562  0.00  0.00     0.036 H 
BRANCH  77  80
ATOM     80  CG  ARG d   1      30.392 -37.218 -29.297  0.00  0.00    -0.048 C 
ATOM     81  H50 ARG d   1      30.699 -37.323 -30.348  0.00  0.00     0.035 H 
ATOM     82  H51 ARG d   1      29.663 -38.003 -29.048  0.00  0.00     0.035 H 
BRANCH  80  83
ATOM     83  CD  ARG d   1      31.599 -37.367 -28.413  0.00  0.00     0.009 C 
ATOM     84  H52 ARG d   1      31.267 -37.451 -27.368  0.00  0.00     0.064 H 
ATOM     85  H53 ARG d   1      32.235 -36.477 -28.525  0.00  0.00     0.064 H 
BRANCH  83  86
ATOM     86  NE  ARG d   1      32.376 -38.550 -28.759  0.00  0.00    -0.227 N 
ATOM     87  CZ  ARG d   1      33.458 -38.940 -28.099  0.00  0.00     0.665 C 
ATOM     88  NH1 ARG d   1      33.883 -38.240 -27.057  0.00  0.00    -0.235 N 
ATOM     89  NH2 ARG d   1      34.112 -40.028 -28.479  0.00  0.00    -0.235 N 
ATOM     90  H55 ARG d   1      34.723 -38.541 -26.543  0.00  0.00     0.174 HD
ATOM     91  H56 ARG d   1      33.373 -37.395 -26.762  0.00  0.00     0.174 HD
ATOM     92  H57 ARG d   1      33.781 -40.571 -29.289  0.00  0.00     0.174 HD
ATOM     93  H58 ARG d   1      34.952 -40.330 -27.964  0.00  0.00     0.174 HD
ATOM     94  H54 ARG d   1      32.067 -39.116 -29.562  0.00  0.00     0.177 HD
ENDBRANCH  83  86
ENDBRANCH  80  83
ENDBRANCH  77  80
ENDBRANCH  54  77
BRANCH  48  95
ATOM     95  CB  THR d   1      27.958 -34.137 -34.057  0.00  0.00     0.060 C 
ATOM     96  H41 THR d   1      28.475 -33.173 -33.945  0.00  0.00     0.086 H 
BRANCH  95  97
ATOM     97  OG1 THR d   1      26.714 -34.097 -33.345  0.00  0.00    -0.393 OA
ATOM     98  H42 THR d   1      26.270 -34.932 -33.438  0.00  0.00     0.210 HD
ENDBRANCH  95  97
BRANCH  95  99
ATOM     99  CG2 THR d   1      27.677 -34.387 -35.525  0.00  0.00    -0.050 C 
ATOM    100  H43 THR d   1      27.043 -33.580 -35.920  0.00  0.00     0.031 H 
ATOM    101  H44 THR d   1      27.158 -35.350 -35.640  0.00  0.00     0.031 H 
ATOM    102  H45 THR d   1      28.626 -34.413 -36.081  0.00  0.00     0.031 H 
ENDBRANCH  95  99
ENDBRANCH  48  95
BRANCH  58 103
ATOM    103  CB  ARG d   1      26.303 -31.690 -30.957  0.00  0.00    -0.036 C 
ATOM    104  H61 ARG d   1      25.645 -30.830 -30.764  0.00  0.00     0.036 H 
ATOM    105  H62 ARG d   1      26.084 -32.103 -31.953  0.00  0.00     0.036 H 
BRANCH 103 106
ATOM    106  CG  ARG d   1      27.735 -31.201 -30.951  0.00  0.00    -0.048 C 
ATOM    107  H63 ARG d   1      27.880 -30.506 -31.792  0.00  0.00     0.035 H 
ATOM    108  H64 ARG d   1      28.408 -32.063 -31.068  0.00  0.00     0.035 H 
BRANCH 106 109
ATOM    109  CD  ARG d   1      28.071 -30.483 -29.652  0.00  0.00     0.009 C 
ATOM    110  H65 ARG d   1      29.043 -29.981 -29.764  0.00  0.00     0.064 H 
ATOM    111  H66 ARG d   1      28.133 -31.224 -28.841  0.00  0.00     0.064 H 
BRANCH 109 112
ATOM    112  NE  ARG d   1      27.063 -29.487 -29.305  0.00  0.00    -0.227 N 
ATOM    113  CZ  ARG d   1      26.952 -28.295 -29.882  0.00  0.00     0.665 C 
ATOM    114  NH1 ARG d   1      27.787 -27.939 -30.850  0.00  0.00    -0.235 N 
ATOM    115  NH2 ARG d   1      25.999 -27.460 -29.491  0.00  0.00    -0.235 N 
ATOM    116  H68 ARG d   1      27.697 -27.014 -31.294  0.00  0.00     0.174 HD
ATOM    117  H69 ARG d   1      28.526 -28.588 -31.157  0.00  0.00     0.174 HD
ATOM    118  H70 ARG d   1      25.350 -27.735 -28.740  0.00  0.00     0.174 HD
ATOM    119  H71 ARG d   1      25.908 -26.537 -29.939  0.00  0.00     0.174 HD
ATOM    120  H67 ARG d   1      26.391 -29.724 -28.561  0.00  0.00     0.177 HD
ENDBRANCH 109 112
ENDBRANCH 106 109
ENDBRANCH 103 106
ENDBRANCH  58 103
BRANCH  42 121
ATOM    121  CB  SER d   1      27.692 -38.669 -35.972  0.00  0.00     0.044 C 
ATOM    122  H36 SER d   1      28.440 -38.325 -36.701  0.00  0.00     0.077 H 
ATOM    123  H37 SER d   1      26.902 -37.910 -35.872  0.00  0.00     0.077 H 
BRANCH 121 124
ATOM    124  OG  SER d   1      27.116 -39.874 -36.438  0.00  0.00    -0.398 OA
ATOM    125  H38 SER d   1      27.794 -40.533 -36.531  0.00  0.00     0.209 HD
ENDBRANCH 121 124
ENDBRANCH  42 121
BRANCH  66 126
ATOM    126  CB  LEU d   1      21.629 -31.647 -28.191  0.00  0.00    -0.035 C 
ATOM    127  H74 LEU d   1      20.540 -31.763 -28.298  0.00  0.00     0.037 H 
ATOM    128  H75 LEU d   1      21.898 -30.587 -28.311  0.00  0.00     0.037 H 
BRANCH 126 129
ATOM    129  CG  LEU d   1      22.001 -32.061 -26.767  0.00  0.00    -0.059 C 
ATOM    130  H76 LEU d   1      23.087 -31.938 -26.643  0.00  0.00     0.038 H 
BRANCH 129 131
ATOM    131  CD1 LEU d   1      21.300 -31.170 -25.755  0.00  0.00    -0.073 C 
ATOM    132  H77 LEU d   1      21.578 -31.481 -24.737  0.00  0.00     0.028 H 
ATOM    133  H78 LEU d   1      20.211 -31.259 -25.881  0.00  0.00     0.028 H 
ATOM    134  H79 LEU d   1      21.603 -30.125 -25.915  0.00  0.00     0.028 H 
ENDBRANCH 129 131
BRANCH 129 135
ATOM    135  CD2 LEU d   1      21.656 -33.522 -26.529  0.00  0.00    -0.073 C 
ATOM    136  H80 LEU d   1      22.174 -34.147 -27.272  0.00  0.00     0.028 H 
ATOM    137  H81 LEU d   1      20.569 -33.663 -26.625  0.00  0.00     0.028 H 
ATOM    138  H82 LEU d   1      21.975 -33.814 -25.518  0.00  0.00     0.028 H 
ENDBRANCH 129 135
ENDBRANCH 126 129
ENDBRANCH  66 126
BRANCH  36 139
ATOM    139  CB  GLU d   1      26.543 -41.570 -31.450  0.00  0.00    -0.029 C 
ATOM    140  H30 GLU d   1      27.523 -42.021 -31.235  0.00  0.00     0.037 H 
ATOM    141  H31 GLU d   1      26.214 -41.869 -32.456  0.00  0.00     0.037 H 
BRANCH 139 142
ATOM    142  CG  GLU d   1      25.550 -42.085 -30.450  0.00  0.00     0.018 C 
ATOM    143  H32 GLU d   1      24.670 -41.425 -30.450  0.00  0.00     0.049 H 
ATOM    144  H33 GLU d   1      26.013 -42.078 -29.452  0.00  0.00     0.049 H 
BRANCH 142 145
ATOM    145  CD  GLU d   1      25.109 -43.484 -30.771  0.00  0.00     0.172 C 
ATOM    146  OE1 GLU d   1      25.106 -43.841 -31.969  0.00  0.00    -0.648 OA
ATOM    147  OE2 GLU d   1      24.774 -44.224 -29.828  0.00  0.00    -0.648 OA
ENDBRANCH 142 145
ENDBRANCH 139 142
ENDBRANCH  36 139
BRANCH  72 148
ATOM    148  CB  LYS d   1      20.480 -33.364 -33.629  0.00  0.00    -0.038 C 
ATOM    149  H85 LYS d   1      19.603 -34.029 -33.624  0.00  0.00     0.036 H 
ATOM    150  H86 LYS d   1      21.382 -33.945 -33.384  0.00  0.00     0.036 H 
BRANCH 148 151
ATOM    151  CG  LYS d   1      20.642 -32.795 -35.025  0.00  0.00    -0.061 C 
ATOM    152  H87 LYS d   1      21.361 -31.963 -34.992  0.00  0.00     0.033 H 
ATOM    153  H88 LYS d   1      19.668 -32.424 -35.377  0.00  0.00     0.033 H 
BRANCH 151 154
ATOM    154  CD  LYS d   1      21.147 -33.847 -35.988  0.00  0.00    -0.043 C 
ATOM    155  H89 LYS d   1      20.315 -34.513 -36.260  0.00  0.00     0.035 H 
ATOM    156  H90 LYS d   1      21.939 -34.431 -35.497  0.00  0.00     0.035 H 
BRANCH 154 157
ATOM    157  CE  LYS d   1      21.707 -33.216 -37.249  0.00  0.00     0.080 C 
ATOM    158  H91 LYS d   1      22.092 -34.011 -37.904  0.00  0.00     0.075 H 
ATOM    159  H92 LYS d   1      22.528 -32.538 -36.973  0.00  0.00     0.075 H 
BRANCH 157 160
ATOM    160  NZ  LYS d   1      20.669 -32.441 -37.989  0.00  0.00    -0.079 N 
ATOM    161  H93 LYS d   1      21.078 -32.038 -38.818  0.00  0.00     0.274 HD
ATOM    162  H94 LYS d   1      20.314 -31.706 -37.398  0.00  0.00     0.274 HD
ATOM    163  H95 LYS d   1      19.914 -33.055 -38.251  0.00  0.00     0.274 HD
ENDBRANCH 157 160
ENDBRANCH 154 157
ENDBRANCH 151 154
ENDBRANCH 148 151
ENDBRANCH  72 148
BRANCH  30 164
ATOM    164  CB  ASP d   1      23.735 -36.552 -32.836  0.00  0.00     0.043 C 
ATOM    165  H26 ASP d   1      24.307 -35.665 -32.524  0.00  0.00     0.052 H 
ATOM    166  H27 ASP d   1      22.684 -36.272 -33.000  0.00  0.00     0.052 H 
BRANCH 164 167
ATOM    167  CG  ASP d   1      24.307 -37.059 -34.141  0.00  0.00     0.175 C 
ATOM    168  OD1 ASP d   1      24.428 -38.290 -34.322  0.00  0.00    -0.648 OA
ATOM    169  OD2 ASP d   1      24.631 -36.210 -34.995  0.00  0.00    -0.648 OA
ENDBRANCH 164 167
ENDBRANCH  30 164
BRANCH   7 170
ATOM    170  C   CYS d   1      16.236 -30.205 -33.492  0.00  0.00     0.197 C 
ATOM    171  O   CYS d   1      16.830 -29.809 -34.495  0.00  0.00    -0.646 OA
ATOM    172  OXT CYS d   1      15.021 -30.375 -33.576  0.00  0.00    -0.646 OA
ENDBRANCH   7 170
BRANCH  24 173
ATOM    173  CB  PHE d   1      22.418 -37.361 -27.316  0.00  0.00    -0.014 C 
ATOM    174  H17 PHE d   1      21.911 -38.325 -27.165  0.00  0.00     0.043 H 
ATOM    175  H18 PHE d   1      22.220 -36.704 -26.456  0.00  0.00     0.043 H 
BRANCH 173 176
ATOM    176  CG  PHE d   1      23.893 -37.611 -27.388  0.00  0.00    -0.056 A 
ATOM    177  CD1 PHE d   1      24.790 -36.562 -27.301  0.00  0.00    -0.077 A 
ATOM    178  CE1 PHE d   1      26.152 -36.790 -27.361  0.00  0.00    -0.082 A 
ATOM    179  H19 PHE d   1      24.421 -35.550 -27.184  0.00  0.00     0.084 H 
ATOM    180  CZ  PHE d   1      26.633 -38.078 -27.506  0.00  0.00    -0.083 A 
ATOM    181  H21 PHE d   1      26.844 -35.958 -27.294  0.00  0.00     0.083 H 
ATOM    182  CE2 PHE d   1      25.750 -39.133 -27.588  0.00  0.00    -0.082 A 
ATOM    183  H23 PHE d   1      27.701 -38.258 -27.555  0.00  0.00     0.083 H 
ATOM    184  CD2 PHE d   1      24.387 -38.899 -27.528  0.00  0.00    -0.077 A 
ATOM    185  H22 PHE d   1      26.122 -40.145 -27.699  0.00  0.00     0.083 H 
ATOM    186  H20 PHE d   1      23.697 -39.733 -27.591  0.00  0.00     0.084 H 
ENDBRANCH 173 176
ENDBRANCH  24 173
BRANCH   1 187
ATOM    187  N   CYS d   1      14.954 -32.492 -28.188  0.00  0.00    -0.066 N 
ATOM    188  H1  CYS d   1      14.644 -31.553 -28.386  0.00  0.00     0.275 HD
ATOM    189  H2  CYS d   1      14.919 -32.655 -27.194  0.00  0.00     0.275 HD
ATOM    190  H3  CYS d   1      14.352 -33.150 -28.657  0.00  0.00     0.275 HD
ENDBRANCH   1 187
BRANCH  18 191
ATOM    191  CB  GLN d   1      17.596 -36.988 -30.151  0.00  0.00    -0.030 C 
ATOM    192  H9  GLN d   1      18.385 -37.719 -30.383  0.00  0.00     0.037 H 
ATOM    193  H10 GLN d   1      17.317 -36.446 -31.067  0.00  0.00     0.037 H 
BRANCH 191 194
ATOM    194  CG  GLN d   1      16.372 -37.749 -29.655  0.00  0.00     0.011 C 
ATOM    195  H11 GLN d   1      15.470 -37.205 -29.972  0.00  0.00     0.047 H 
ATOM    196  H12 GLN d   1      16.408 -37.791 -28.556  0.00  0.00     0.047 H 
BRANCH 194 197
ATOM    197  CD  GLN d   1      16.293 -39.173 -30.192  0.00  0.00     0.215 C 
ATOM    198  OE1 GLN d   1      16.976 -39.529 -31.151  0.00  0.00    -0.274 OA
ATOM    199  NE2 GLN d   1      15.460 -39.996 -29.564  0.00  0.00    -0.370 N 
ATOM    200  H13 GLN d   1      15.366 -40.943 -29.872  0.00  0.00     0.159 HD
ATOM    201  H14 GLN d   1      14.927 -39.669 -28.784  0.00  0.00     0.159 HD
ENDBRANCH 194 197
ENDBRANCH 191 194
ENDBRANCH  18 191
TORSDOF 34
