REMARK  5 active torsions:
REMARK  status: ('A' for Active; 'I' for Inactive)
REMARK    1  A    between atoms: C12_12  and  C5_5 
REMARK    2  A    between atoms: C10_10  and  N18_18 
REMARK    3  A    between atoms: S21_21  and  C11_11 
REMARK    4  A    between atoms: C13_13  and  C12_12 
REMARK    5  A    between atoms: C13_13  and  S21_21 
ROOT
ATOM      1  S21 5RZ d   1     -11.194  41.370  22.878  0.00  0.00    -0.084 SA
ENDROOT
BRANCH   1   2
ATOM      2  C11 5RZ d   1     -12.087  40.271  21.852  0.00  0.00     0.169 A 
ATOM      3  N15 5RZ d   1     -12.001  38.921  21.972  0.00  0.00    -0.204 NA
ATOM      4  C8  5RZ d   1     -12.810  38.422  20.978  0.00  0.00     0.178 A 
ATOM      5  C6  5RZ d   1     -13.357  39.502  20.335  0.00  0.00     0.150 A 
ATOM      6  N14 5RZ d   1     -12.998  37.122  20.734  0.00  0.00    -0.172 N 
ATOM      7  C9  5RZ d   1     -14.258  39.264  19.232  0.00  0.00     0.290 A 
ATOM      8  N17 5RZ d   1     -12.890  40.669  20.897  0.00  0.00    -0.328 N 
ATOM      9  N16 5RZ d   1     -14.399  37.916  19.004  0.00  0.00    -0.154 N 
ATOM     10  O20 5RZ d   1     -14.834  40.102  18.567  0.00  0.00    -0.265 OA
ATOM     11  C10 5RZ d   1     -13.795  36.901  19.729  0.00  0.00     0.680 A 
ATOM     12  H8  5RZ d   1     -14.991  37.643  18.246  0.00  0.00     0.187 HD
ATOM     13  H9  5RZ d   1     -13.120  41.636  20.627  0.00  0.00     0.168 HD
ATOM     14  H7  5RZ d   1     -12.557  36.371  21.285  0.00  0.00     0.186 HD
BRANCH  11  15
ATOM     15  N18 5RZ d   1     -14.124  35.633  19.301  0.00  0.00    -0.234 N 
ATOM     16  H10 5RZ d   1     -13.726  34.810  19.776  0.00  0.00     0.174 HD
ATOM     17  H11 5RZ d   1     -14.768  35.508  18.506  0.00  0.00     0.174 HD
ENDBRANCH  11  15
ENDBRANCH   1   2
BRANCH   1  18
ATOM     18  C13 5RZ d   1      -9.934  41.667  21.576  0.00  0.00     0.043 C 
ATOM     19  H5  5RZ d   1     -10.454  42.005  20.667  0.00  0.00     0.061 H 
ATOM     20  H6  5RZ d   1      -9.258  42.460  21.928  0.00  0.00     0.061 H 
BRANCH  18  21
ATOM     21  C12 5RZ d   1      -9.088  40.446  21.215  0.00  0.00     0.169 C 
ATOM     22  O19 5RZ d   1      -9.411  39.755  20.265  0.00  0.00    -0.291 OA
BRANCH  21  23
ATOM     23  C5  5RZ d   1      -7.893  40.033  21.988  0.00  0.00     0.011 A 
ATOM     24  C1  5RZ d   1      -7.529  40.702  23.138  0.00  0.00    -0.068 A 
ATOM     25  C3  5RZ d   1      -6.419  40.289  23.848  0.00  0.00    -0.065 A 
ATOM     26  H1  5RZ d   1      -8.112  41.548  23.483  0.00  0.00     0.085 H 
ATOM     27  C7  5RZ d   1      -5.670  39.216  23.443  0.00  0.00     0.011 A 
ATOM     28  H3  5RZ d   1      -6.134  40.826  24.746  0.00  0.00     0.085 H 
ATOM     29  C4  5RZ d   1      -6.031  38.528  22.298  0.00  0.00    -0.065 A 
ATOM     30 BR1  5RZ d   1      -4.166  38.739  24.508  0.00  0.00    -0.051 Br
ATOM     31  C2  5RZ d   1      -7.134  38.944  21.577  0.00  0.00    -0.068 A 
ATOM     32  H4  5RZ d   1      -5.454  37.671  21.970  0.00  0.00     0.085 H 
ATOM     33  H2  5RZ d   1      -7.412  38.411  20.675  0.00  0.00     0.085 H 
ENDBRANCH  21  23
ENDBRANCH  18  21
ENDBRANCH   1  18
TORSDOF 5
