REMARK  24 active torsions:
REMARK  status: ('A' for Active; 'I' for Inactive)
REMARK       I    between atoms: N13_14  and  C14_1 
REMARK    1  A    between atoms: C14_1  and  C16_16 
REMARK    2  A    between atoms: C11_2  and  O29_29 
REMARK    3  A    between atoms: C02_6  and  C01_5 
REMARK    4  A    between atoms: C03_7  and  C02_6 
REMARK    5  A    between atoms: N06_10  and  C05_9 
REMARK    6  A    between atoms: C05_9  and  C44_44 
REMARK       I    between atoms: C07_11  and  N06_10 
REMARK    7  A    between atoms: C07_11  and  C09_13 
REMARK    8  A    between atoms: C16_16  and  N17_17 
REMARK    9  A    between atoms: C16_16  and  C25_25 
REMARK       I    between atoms: N17_17  and  C18_18 
REMARK   10  A    between atoms: C18_18  and  O20_20 
REMARK   11  A    between atoms: O20_20  and  C21_21 
REMARK   12  A    between atoms: C21_21  and  C22_22 
REMARK   13  A    between atoms: C21_21  and  C23_23 
REMARK   14  A    between atoms: C21_21  and  C24_24 
REMARK   15  A    between atoms: C25_25  and  C26_26 
REMARK   16  A    between atoms: C25_25  and  C27_27 
REMARK   17  A    between atoms: C25_25  and  C28_28 
REMARK   18  A    between atoms: O29_29  and  C30_30 
REMARK   19  A    between atoms: C31_31  and  C32_32 
REMARK   20  A    between atoms: C32_32  and  C33_33 
REMARK   21  A    between atoms: C38_38  and  O42_42 
REMARK   22  A    between atoms: O42_42  and  C43_43 
REMARK       I    between atoms: C44_44  and  N46_46 
REMARK   23  A    between atoms: N46_46  and  S47_47 
REMARK   24  A    between atoms: S47_47  and  C50_50 
ROOT
ATOM      1  C14 5RS d   1     -20.350 -20.987   2.322  0.00  0.00     0.244 C 
ATOM      2  C11 5RS d   1     -19.049 -20.484  -1.063  0.00  0.00     0.064 C 
ATOM      3  C10 5RS d   1     -20.524 -20.147  -1.240  0.00  0.00    -0.011 C 
ATOM      4  C12 5RS d   1     -19.046 -21.338   0.184  0.00  0.00     0.023 C 
ATOM      5  C09 5RS d   1     -21.087 -20.066   0.179  0.00  0.00     0.094 C 
ATOM      6  N13 5RS d   1     -20.144 -20.826   1.017  0.00  0.00    -0.334 N 
ATOM      7  O15 5RS d   1     -21.301 -20.508   2.904  0.00  0.00    -0.271 OA
ATOM      8  H1  5RS d   1     -18.667 -21.027  -1.940  0.00  0.00     0.086 H 
ATOM      9  H2  5RS d   1     -21.034 -20.935  -1.813  0.00  0.00     0.040 H 
ATOM     10  H3  5RS d   1     -20.641 -19.183  -1.757  0.00  0.00     0.040 H 
ATOM     11  H4  5RS d   1     -18.086 -21.242   0.713  0.00  0.00     0.068 H 
ATOM     12  H5  5RS d   1     -19.219 -22.393  -0.073  0.00  0.00     0.068 H 
ATOM     13  H15 5RS d   1     -21.116 -19.012   0.494  0.00  0.00     0.088 H 
ENDROOT
BRANCH   1  14
ATOM     14  C16 5RS d   1     -19.313 -21.787   3.080  0.00  0.00     0.098 C 
ATOM     15  H16 5RS d   1     -18.377 -21.789   2.502  0.00  0.00     0.088 H 
BRANCH  14  16
ATOM     16  N17 5RS d   1     -19.093 -21.099   4.349  0.00  0.00    -0.323 N 
ATOM     17  C18 5RS d   1     -18.108 -20.251   4.542  0.00  0.00     0.362 C 
ATOM     18  O19 5RS d   1     -17.342 -20.024   3.633  0.00  0.00    -0.238 OA
ATOM     19  H17 5RS d   1     -19.721 -21.282   5.106  0.00  0.00     0.165 HD
BRANCH  17  20
ATOM     20  O20 5RS d   1     -17.978 -19.653   5.736  0.00  0.00    -0.294 OA
BRANCH  20  21
ATOM     21  C21 5RS d   1     -16.830 -18.853   6.021  0.00  0.00     0.061 C 
BRANCH  21  22
ATOM     22  C22 5RS d   1     -15.537 -19.647   5.914  0.00  0.00    -0.048 C 
ATOM     23  H18 5RS d   1     -14.684 -18.991   6.141  0.00  0.00     0.031 H 
ATOM     24  H19 5RS d   1     -15.433 -20.043   4.893  0.00  0.00     0.031 H 
ATOM     25  H20 5RS d   1     -15.559 -20.482   6.630  0.00  0.00     0.031 H 
ENDBRANCH  21  22
BRANCH  21  26
ATOM     26  C23 5RS d   1     -16.962 -18.358   7.446  0.00  0.00    -0.048 C 
ATOM     27  H21 5RS d   1     -16.091 -17.736   7.700  0.00  0.00     0.031 H 
ATOM     28  H22 5RS d   1     -17.010 -19.218   8.130  0.00  0.00     0.031 H 
ATOM     29  H23 5RS d   1     -17.880 -17.760   7.543  0.00  0.00     0.031 H 
ENDBRANCH  21  26
BRANCH  21  30
ATOM     30  C24 5RS d   1     -16.775 -17.645   5.103  0.00  0.00    -0.048 C 
ATOM     31  H24 5RS d   1     -15.884 -17.044   5.340  0.00  0.00     0.031 H 
ATOM     32  H25 5RS d   1     -17.678 -17.034   5.247  0.00  0.00     0.031 H 
ATOM     33  H26 5RS d   1     -16.723 -17.981   4.057  0.00  0.00     0.031 H 
ENDBRANCH  21  30
ENDBRANCH  20  21
ENDBRANCH  17  20
ENDBRANCH  14  16
BRANCH  14  34
ATOM     34  C25 5RS d   1     -19.732 -23.268   3.321  0.00  0.00    -0.022 C 
BRANCH  34  35
ATOM     35  C26 5RS d   1     -21.129 -23.351   3.930  0.00  0.00    -0.067 C 
ATOM     36  H27 5RS d   1     -21.398 -24.406   4.089  0.00  0.00     0.028 H 
ATOM     37  H28 5RS d   1     -21.855 -22.887   3.247  0.00  0.00     0.028 H 
ATOM     38  H29 5RS d   1     -21.141 -22.821   4.894  0.00  0.00     0.028 H 
ENDBRANCH  34  35
BRANCH  34  39
ATOM     39  C27 5RS d   1     -19.710 -24.058   2.006  0.00  0.00    -0.067 C 
ATOM     40  H30 5RS d   1     -18.705 -24.002   1.562  0.00  0.00     0.028 H 
ATOM     41  H31 5RS d   1     -20.444 -23.629   1.308  0.00  0.00     0.028 H 
ATOM     42  H32 5RS d   1     -19.965 -25.109   2.205  0.00  0.00     0.028 H 
ENDBRANCH  34  39
BRANCH  34  43
ATOM     43  C28 5RS d   1     -18.740 -23.911   4.276  0.00  0.00    -0.067 C 
ATOM     44  H33 5RS d   1     -18.738 -23.360   5.228  0.00  0.00     0.028 H 
ATOM     45  H34 5RS d   1     -17.733 -23.882   3.834  0.00  0.00     0.028 H 
ATOM     46  H35 5RS d   1     -19.030 -24.956   4.457  0.00  0.00     0.028 H 
ENDBRANCH  34  43
ENDBRANCH  14  34
ENDBRANCH   1  14
BRANCH   5  47
ATOM     47  C07 5RS d   1     -22.371 -20.613   0.342  0.00  0.00     0.241 C 
ATOM     48  N06 5RS d   1     -23.300 -19.737   0.765  0.00  0.00    -0.341 N 
ATOM     49  H14 5RS d   1     -23.022 -18.785   0.889  0.00  0.00     0.163 HD
ATOM     50  O08 5RS d   1     -22.592 -21.802   0.133  0.00  0.00    -0.271 OA
BRANCH  48  51
ATOM     51  C05 5RS d   1     -24.696 -20.088   1.056  0.00  0.00     0.119 A 
ATOM     52  C03 5RS d   1     -24.779 -20.881   2.366  0.00  0.00    -0.018 A 
ATOM     53  C04 5RS d   1     -25.388 -19.506   2.269  0.00  0.00    -0.027 A 
ATOM     54  H11 5RS d   1     -23.886 -21.075   2.978  0.00  0.00     0.044 H 
ATOM     55  H12 5RS d   1     -24.929 -18.665   2.810  0.00  0.00     0.038 H 
ATOM     56  H13 5RS d   1     -26.482 -19.391   2.272  0.00  0.00     0.038 H 
BRANCH  52  57
ATOM     57  C02 5RS d   1     -25.749 -22.061   2.406  0.00  0.00    -0.062 C 
ATOM     58  H9  5RS d   1     -26.671 -21.722   2.901  0.00  0.00     0.033 H 
ATOM     59  H10 5RS d   1     -25.974 -22.348   1.368  0.00  0.00     0.033 H 
BRANCH  57  60
ATOM     60  C01 5RS d   1     -25.261 -23.291   3.130  0.00  0.00    -0.076 C 
ATOM     61  H6  5RS d   1     -26.037 -24.070   3.094  0.00  0.00     0.027 H 
ATOM     62  H7  5RS d   1     -25.044 -23.038   4.178  0.00  0.00     0.027 H 
ATOM     63  H8  5RS d   1     -24.346 -23.663   2.646  0.00  0.00     0.027 H 
ENDBRANCH  57  60
ENDBRANCH  52  57
BRANCH  51  64
ATOM     64  C44 5RS d   1     -25.577 -20.546  -0.120  0.00  0.00     0.259 C 
ATOM     65  O45 5RS d   1     -26.681 -21.019   0.093  0.00  0.00    -0.270 OA
ATOM     66  N46 5RS d   1     -25.058 -20.390  -1.337  0.00  0.00    -0.252 N 
ATOM     67  H47 5RS d   1     -24.157 -19.971  -1.448  0.00  0.00     0.181 HD
BRANCH  66  68
ATOM     68  S47 5RS d   1     -25.842 -20.852  -2.561  0.00  0.00     0.237 S 
ATOM     69  O48 5RS d   1     -25.904 -22.353  -2.524  0.00  0.00    -0.205 OA
ATOM     70  O49 5RS d   1     -27.248 -20.356  -2.612  0.00  0.00    -0.205 OA
BRANCH  68  71
ATOM     71  C50 5RS d   1     -24.892 -20.383  -4.194  0.00  0.00     0.063 A 
ATOM     72  C51 5RS d   1     -25.729 -20.485  -5.439  0.00  0.00    -0.046 A 
ATOM     73  C52 5RS d   1     -25.319 -19.129  -4.897  0.00  0.00    -0.046 A 
ATOM     74  H49 5RS d   1     -26.778 -20.811  -5.373  0.00  0.00     0.035 H 
ATOM     75  H50 5RS d   1     -25.285 -20.863  -6.372  0.00  0.00     0.035 H 
ATOM     76  H51 5RS d   1     -24.578 -18.521  -5.437  0.00  0.00     0.035 H 
ATOM     77  H52 5RS d   1     -26.070 -18.469  -4.438  0.00  0.00     0.035 H 
ATOM     78  H48 5RS d   1     -23.837 -20.694  -4.163  0.00  0.00     0.066 H 
ENDBRANCH  68  71
ENDBRANCH  66  68
ENDBRANCH  51  64
ENDBRANCH  48  51
ENDBRANCH   5  47
BRANCH   2  79
ATOM     79  O29 5RS d   1     -18.214 -19.348  -0.789  0.00  0.00    -0.326 OA
BRANCH  79  80
ATOM     80  C30 5RS d   1     -17.841 -18.501  -1.770  0.00  0.00     0.190 A 
ATOM     81  C31 5RS d   1     -17.479 -17.227  -1.359  0.00  0.00     0.087 A 
ATOM     82  N34 5RS d   1     -17.115 -16.333  -2.264  0.00  0.00    -0.247 NA
ATOM     83  C35 5RS d   1     -17.082 -16.650  -3.552  0.00  0.00     0.086 A 
ATOM     84  C36 5RS d   1     -16.686 -15.705  -4.487  0.00  0.00    -0.050 A 
ATOM     85  C40 5RS d   1     -17.431 -17.934  -3.952  0.00  0.00     0.091 A 
ATOM     86  C37 5RS d   1     -16.655 -16.049  -5.823  0.00  0.00    -0.048 A 
ATOM     87  H41 5RS d   1     -16.404 -14.707  -4.172  0.00  0.00     0.087 H 
ATOM     88  C38 5RS d   1     -17.016 -17.323  -6.235  0.00  0.00     0.070 A 
ATOM     89  H42 5RS d   1     -16.345 -15.315  -6.558  0.00  0.00     0.087 H 
ATOM     90  C39 5RS d   1     -17.395 -18.268  -5.286  0.00  0.00    -0.021 A 
ATOM     91  H43 5RS d   1     -17.663 -19.271  -5.599  0.00  0.00     0.091 H 
ATOM     92  N41 5RS d   1     -17.803 -18.834  -3.051  0.00  0.00    -0.221 NA
BRANCH  81  93
ATOM     93  C32 5RS d   1     -17.523 -16.855  -0.017  0.00  0.00    -0.024 C 
ATOM     94  H36 5RS d   1     -18.029 -17.645   0.557  0.00  0.00     0.042 H 
ATOM     95  H37 5RS d   1     -18.088 -15.916   0.075  0.00  0.00     0.042 H 
BRANCH  93  96
ATOM     96  C33 5RS d   1     -16.129 -16.650   0.549  0.00  0.00    -0.071 C 
ATOM     97  H38 5RS d   1     -16.202 -16.358   1.607  0.00  0.00     0.028 H 
ATOM     98  H39 5RS d   1     -15.617 -15.857  -0.016  0.00  0.00     0.028 H 
ATOM     99  H40 5RS d   1     -15.558 -17.587   0.466  0.00  0.00     0.028 H 
ENDBRANCH  93  96
ENDBRANCH  81  93
BRANCH  88 100
ATOM    100  O42 5RS d   1     -16.961 -17.618  -7.563  0.00  0.00    -0.356 OA
BRANCH 100 101
ATOM    101  C43 5RS d   1     -17.911 -18.545  -8.074  0.00  0.00     0.010 C 
ATOM    102  H44 5RS d   1     -17.745 -18.683  -9.153  0.00  0.00     0.066 H 
ATOM    103  H45 5RS d   1     -18.927 -18.159  -7.906  0.00  0.00     0.066 H 
ATOM    104  H46 5RS d   1     -17.796 -19.510  -7.559  0.00  0.00     0.066 H 
ENDBRANCH 100 101
ENDBRANCH  88 100
ENDBRANCH  79  80
ENDBRANCH   2  79
TORSDOF 24
