REMARK  7 active torsions:
REMARK  status: ('A' for Active; 'I' for Inactive)
REMARK    1  A    between atoms: N4_11  and  C16_12 
REMARK    2  A    between atoms: C16_12  and  C14_13 
REMARK    3  A    between atoms: N1_18  and  C2_19 
REMARK    4  A    between atoms: C10_26  and  O2_27 
REMARK    5  A    between atoms: O2_27  and  C15_28 
REMARK    6  A    between atoms: C6_29  and  O1_31 
REMARK    7  A    between atoms: O1_31  and  C13_32 
ROOT
ATOM      1  C14 K56 d   1     -31.314  23.580 -23.552  0.00  0.00    -0.035 C 
ATOM      2  C11 K56 d   1     -30.261  22.687 -24.192  0.00  0.00    -0.045 C 
ATOM      3  C7  K56 d   1     -30.775  21.311 -24.705  0.00  0.00    -0.003 C 
ATOM      4  C12 K56 d   1     -32.392  23.681 -24.647  0.00  0.00    -0.045 C 
ATOM      5  C8  K56 d   1     -32.951  22.341 -25.163  0.00  0.00    -0.003 C 
ATOM      6  N1  K56 d   1     -31.913  21.406 -25.607  0.00  0.00    -0.365 N 
ATOM      7  H10 K56 d   1     -31.737  23.041 -22.691  0.00  0.00     0.042 H 
ATOM      8  H11 K56 d   1     -29.476  22.499 -23.445  0.00  0.00     0.036 H 
ATOM      9  H12 K56 d   1     -29.831  23.229 -25.047  0.00  0.00     0.036 H 
ATOM     10  H13 K56 d   1     -31.072  20.706 -23.836  0.00  0.00     0.064 H 
ATOM     11  H14 K56 d   1     -29.953  20.810 -25.237  0.00  0.00     0.064 H 
ATOM     12  H15 K56 d   1     -31.955  24.216 -25.503  0.00  0.00     0.036 H 
ATOM     13  H16 K56 d   1     -33.232  24.263 -24.241  0.00  0.00     0.036 H 
ATOM     14  H17 K56 d   1     -33.620  22.547 -26.012  0.00  0.00     0.064 H 
ATOM     15  H18 K56 d   1     -33.523  21.867 -24.352  0.00  0.00     0.064 H 
ENDROOT
BRANCH   6  16
ATOM     16  C2  K56 d   1     -32.130  20.504 -26.615  0.00  0.00     0.139 A 
ATOM     17  N2  K56 d   1     -31.936  19.206 -26.343  0.00  0.00    -0.224 NA
ATOM     18  C9  K56 d   1     -32.164  18.333 -27.317  0.00  0.00     0.089 A 
ATOM     19  N3  K56 d   1     -32.562  18.571 -28.554  0.00  0.00    -0.241 NA
ATOM     20  H19 K56 d   1     -32.003  17.291 -27.065  0.00  0.00     0.146 H 
ATOM     21  C3  K56 d   1     -32.771  19.854 -28.867  0.00  0.00     0.075 A 
ATOM     22  C1  K56 d   1     -32.566  20.876 -27.912  0.00  0.00     0.041 A 
ATOM     23  C5  K56 d   1     -33.203  20.192 -30.177  0.00  0.00    -0.019 A 
ATOM     24  C4  K56 d   1     -32.816  22.198 -28.334  0.00  0.00    -0.032 A 
ATOM     25  C6  K56 d   1     -33.233  22.548 -29.630  0.00  0.00     0.102 A 
ATOM     26  H24 K56 d   1     -32.678  22.995 -27.613  0.00  0.00     0.089 H 
ATOM     27  C10 K56 d   1     -33.437  21.532 -30.572  0.00  0.00     0.103 A 
ATOM     28  H20 K56 d   1     -33.359  19.398 -30.898  0.00  0.00     0.091 H 
BRANCH  25  29
ATOM     29  O1  K56 d   1     -33.461  23.839 -30.062  0.00  0.00    -0.353 OA
BRANCH  29  30
ATOM     30  C13 K56 d   1     -32.731  24.921 -29.490  0.00  0.00     0.010 C 
ATOM     31  H25 K56 d   1     -33.048  25.865 -29.958  0.00  0.00     0.066 H 
ATOM     32  H26 K56 d   1     -31.655  24.769 -29.662  0.00  0.00     0.066 H 
ATOM     33  H27 K56 d   1     -32.927  24.964 -28.408  0.00  0.00     0.066 H 
ENDBRANCH  29  30
ENDBRANCH  25  29
BRANCH  27  34
ATOM     34  O2  K56 d   1     -33.798  22.051 -31.795  0.00  0.00    -0.353 OA
BRANCH  34  35
ATOM     35  C15 K56 d   1     -34.725  21.454 -32.684  0.00  0.00     0.010 C 
ATOM     36  H21 K56 d   1     -34.825  22.079 -33.584  0.00  0.00     0.066 H 
ATOM     37  H22 K56 d   1     -35.703  21.366 -32.189  0.00  0.00     0.066 H 
ATOM     38  H23 K56 d   1     -34.367  20.454 -32.970  0.00  0.00     0.066 H 
ENDBRANCH  34  35
ENDBRANCH  27  34
ENDBRANCH   6  16
BRANCH   1  39
ATOM     39  C16 K56 d   1     -30.838  24.973 -22.996  0.00  0.00     0.003 C 
ATOM     40  H8  K56 d   1     -30.151  24.834 -22.148  0.00  0.00     0.065 H 
ATOM     41  H9  K56 d   1     -30.334  25.550 -23.785  0.00  0.00     0.065 H 
BRANCH  39  42
ATOM     42  N4  K56 d   1     -32.052  25.653 -22.563  0.00  0.00    -0.329 N 
ATOM     43  C18 K56 d   1     -32.702  25.213 -21.450  0.00  0.00     0.323 A 
ATOM     44  O3  K56 d   1     -32.282  24.322 -20.704  0.00  0.00    -0.247 OA
ATOM     45  N5  K56 d   1     -33.855  25.778 -21.092  0.00  0.00    -0.308 N 
ATOM     46  C20 K56 d   1     -34.473  26.796 -21.806  0.00  0.00     0.044 A 
ATOM     47  H1  K56 d   1     -34.301  25.449 -20.260  0.00  0.00     0.170 HD
ATOM     48  C22 K56 d   1     -35.692  27.318 -21.361  0.00  0.00    -0.057 A 
ATOM     49  C19 K56 d   1     -33.871  27.273 -22.981  0.00  0.00    -0.013 A 
ATOM     50  C24 K56 d   1     -36.311  28.341 -22.105  0.00  0.00    -0.081 A 
ATOM     51  H2  K56 d   1     -36.154  26.940 -20.456  0.00  0.00     0.086 H 
ATOM     52  C23 K56 d   1     -35.727  28.822 -23.284  0.00  0.00    -0.082 A 
ATOM     53  H3  K56 d   1     -37.250  28.761 -21.762  0.00  0.00     0.083 H 
ATOM     54  C21 K56 d   1     -34.526  28.283 -23.719  0.00  0.00    -0.073 A 
ATOM     55  H4  K56 d   1     -36.210  29.609 -23.852  0.00  0.00     0.083 H 
ATOM     56  H5  K56 d   1     -34.083  28.643 -24.640  0.00  0.00     0.084 H 
ATOM     57  C17 K56 d   1     -32.542  26.698 -23.425  0.00  0.00     0.025 A 
ATOM     58  H6  K56 d   1     -31.800  27.510 -23.444  0.00  0.00     0.071 H 
ATOM     59  H7  K56 d   1     -32.662  26.286 -24.438  0.00  0.00     0.071 H 
ENDBRANCH  39  42
ENDBRANCH   1  39
TORSDOF 7
