REMARK  15 active torsions:
REMARK  status: ('A' for Active; 'I' for Inactive)
REMARK    1  A    between atoms: C19_10  and  C8_1 
REMARK    2  A    between atoms: C9_2  and  C27_23 
REMARK    3  A    between atoms: C16_26  and  C18_11 
REMARK    4  A    between atoms: C26_24  and  C12_12 
REMARK    5  A    between atoms: C14_13  and  C32_19 
REMARK    6  A    between atoms: C15_14  and  C30_20 
REMARK    7  A    between atoms: C10_15  and  O25_33 
REMARK    8  A    between atoms: C3_18  and  C1_16 
REMARK    9  A    between atoms: C7_17  and  C31_21 
REMARK       I    between atoms: N5_28  and  C3_18 
REMARK   10  A    between atoms: O25_33  and  C33_22 
REMARK   11  A    between atoms: C27_23  and  O29_32 
REMARK   12  A    between atoms: N22_29  and  C26_24 
REMARK   13  A    between atoms: C16_26  and  C28_25 
REMARK   14  A    between atoms: C28_25  and  N22_29 
REMARK   15  A    between atoms: C16_26  and  N5_28 
ROOT
ATOM      1  C16 5S6 d   1       6.556  -5.248  11.751  0.00  0.00     0.061 C 
ATOM      2  H26 5S6 d   1       6.329  -4.412  12.429  0.00  0.00     0.082 H 
ENDROOT
BRANCH   1   3
ATOM      3  C18 5S6 d   1       5.224  -5.817  11.351  0.00  0.00    -0.034 A 
ATOM      4  C21 5S6 d   1       4.266  -6.129  12.294  0.00  0.00    -0.073 A 
ATOM      5  C23 5S6 d   1       3.038  -6.632  11.904  0.00  0.00    -0.064 A 
ATOM      6  H3  5S6 d   1       4.477  -5.979  13.347  0.00  0.00     0.084 H 
ATOM      7  C19 5S6 d   1       2.783  -6.804  10.559  0.00  0.00     0.017 A 
ATOM      8  H1  5S6 d   1       2.288  -6.887  12.643  0.00  0.00     0.085 H 
ATOM      9  C24 5S6 d   1       3.725  -6.497   9.608  0.00  0.00    -0.064 A 
ATOM     10  C20 5S6 d   1       4.944  -6.010  10.014  0.00  0.00    -0.073 A 
ATOM     11  H2  5S6 d   1       3.510  -6.636   8.555  0.00  0.00     0.085 H 
ATOM     12  H4  5S6 d   1       5.698  -5.774   9.272  0.00  0.00     0.084 H 
BRANCH   7  13
ATOM     13  C8  5S6 d   1       1.542  -7.284  10.095  0.00  0.00    -0.065 C 
ATOM     14  C9  5S6 d   1       0.497  -7.648   9.640  0.00  0.00    -0.075 C 
BRANCH  14  15
ATOM     15  C27 5S6 d   1      -0.746  -8.067   9.031  0.00  0.00     0.071 C 
ATOM     16  H20 5S6 d   1      -1.578  -7.935   9.739  0.00  0.00     0.093 H 
ATOM     17  H21 5S6 d   1      -0.684  -9.123   8.731  0.00  0.00     0.093 H 
BRANCH  15  18
ATOM     18  O29 5S6 d   1      -0.939  -7.251   7.897  0.00  0.00    -0.389 OA
ATOM     19  H30 5S6 d   1      -0.985  -6.341   8.167  0.00  0.00     0.210 HD
ENDBRANCH  15  18
ENDBRANCH  14  15
ENDBRANCH   7  13
ENDBRANCH   1   3
BRANCH   1  20
ATOM     20  C28 5S6 d   1       7.438  -6.202  12.537  0.00  0.00     0.104 C 
ATOM     21  H24 5S6 d   1       8.208  -6.640  11.886  0.00  0.00     0.079 H 
ATOM     22  H25 5S6 d   1       6.834  -7.006  12.983  0.00  0.00     0.079 H 
BRANCH  20  23
ATOM     23  N22 5S6 d   1       8.061  -5.375  13.592  0.00  0.00    -0.069 N 
ATOM     24  H28 5S6 d   1       7.564  -4.500  13.648  0.00  0.00     0.277 HD
ATOM     25  H29 5S6 d   1       7.982  -5.863  14.470  0.00  0.00     0.277 HD
BRANCH  23  26
ATOM     26  C26 5S6 d   1       9.487  -5.090  13.340  0.00  0.00     0.106 C 
ATOM     27  H22 5S6 d   1      10.073  -6.015  13.443  0.00  0.00     0.083 H 
ATOM     28  H23 5S6 d   1       9.610  -4.689  12.323  0.00  0.00     0.083 H 
BRANCH  26  29
ATOM     29  C12 5S6 d   1       9.954  -4.089  14.333  0.00  0.00    -0.026 A 
ATOM     30  C13 5S6 d   1      10.438  -4.568  15.535  0.00  0.00    -0.066 A 
ATOM     31  C14 5S6 d   1      10.894  -3.701  16.506  0.00  0.00    -0.028 A 
ATOM     32  H5  5S6 d   1      10.460  -5.636  15.717  0.00  0.00     0.085 H 
ATOM     33  C10 5S6 d   1      10.848  -2.334  16.259  0.00  0.00     0.074 A 
ATOM     34  C11 5S6 d   1      10.357  -1.854  15.056  0.00  0.00    -0.044 A 
ATOM     35  C15 5S6 d   1       9.918  -2.725  14.084  0.00  0.00    -0.051 A 
ATOM     36  H6  5S6 d   1      10.318  -0.785  14.879  0.00  0.00     0.088 H 
BRANCH  31  37
ATOM     37  C32 5S6 d   1      11.410  -4.282  17.782  0.00  0.00    -0.049 C 
ATOM     38  H8  5S6 d   1      11.344  -5.379  17.738  0.00  0.00     0.033 H 
ATOM     39  H9  5S6 d   1      10.806  -3.912  18.624  0.00  0.00     0.033 H 
ATOM     40  H10 5S6 d   1      12.459  -3.983  17.923  0.00  0.00     0.033 H 
ENDBRANCH  31  37
BRANCH  33  41
ATOM     41  O25 5S6 d   1      11.273  -1.407  17.210  0.00  0.00    -0.355 OA
BRANCH  41  42
ATOM     42  C33 5S6 d   1      12.497  -0.887  16.706  0.00  0.00     0.010 C 
ATOM     43  H17 5S6 d   1      12.896  -0.142  17.410  0.00  0.00     0.066 H 
ATOM     44  H18 5S6 d   1      12.319  -0.411  15.730  0.00  0.00     0.066 H 
ATOM     45  H19 5S6 d   1      13.222  -1.706  16.588  0.00  0.00     0.066 H 
ENDBRANCH  41  42
ENDBRANCH  33  41
BRANCH  35  46
ATOM     46  C30 5S6 d   1       9.416  -2.128  12.816  0.00  0.00    -0.051 C 
ATOM     47  H11 5S6 d   1       9.494  -1.032  12.871  0.00  0.00     0.033 H 
ATOM     48  H12 5S6 d   1       8.364  -2.414  12.667  0.00  0.00     0.033 H 
ATOM     49  H13 5S6 d   1      10.019  -2.497  11.973  0.00  0.00     0.033 H 
ENDBRANCH  35  46
ENDBRANCH  26  29
ENDBRANCH  23  26
ENDBRANCH  20  23
ENDBRANCH   1  20
BRANCH   1  50
ATOM     50  N5  5S6 d   1       7.295  -4.686  10.642  0.00  0.00    -0.345 N 
ATOM     51  C3  5S6 d   1       7.206  -3.364  10.282  0.00  0.00     0.273 C 
ATOM     52  O17 5S6 d   1       6.507  -2.513  10.810  0.00  0.00    -0.266 OA
ATOM     53  H27 5S6 d   1       7.897  -5.286  10.115  0.00  0.00     0.163 HD
BRANCH  51  54
ATOM     54  C1  5S6 d   1       8.047  -3.067   9.160  0.00  0.00     0.154 A 
ATOM     55  C4  5S6 d   1       7.801  -2.157   8.103  0.00  0.00    -0.017 A 
ATOM     56  C7  5S6 d   1       8.905  -2.265   7.293  0.00  0.00     0.077 A 
ATOM     57  H7  5S6 d   1       6.932  -1.516   7.964  0.00  0.00     0.091 H 
ATOM     58  O6  5S6 d   1       9.756  -3.177   7.831  0.00  0.00    -0.218 OA
ATOM     59  N2  5S6 d   1       9.218  -3.690   9.003  0.00  0.00    -0.123 NA
BRANCH  56  60
ATOM     60  C31 5S6 d   1       9.312  -1.629   6.029  0.00  0.00    -0.029 C 
ATOM     61  H14 5S6 d   1      10.295  -2.016   5.724  0.00  0.00     0.036 H 
ATOM     62  H15 5S6 d   1       9.375  -0.540   6.170  0.00  0.00     0.036 H 
ATOM     63  H16 5S6 d   1       8.570  -1.856   5.249  0.00  0.00     0.036 H 
ENDBRANCH  56  60
ENDBRANCH  51  54
ENDBRANCH   1  50
TORSDOF 15
