REMARK  12 active torsions:
REMARK  status: ('A' for Active; 'I' for Inactive)
REMARK    1  A    between atoms: C7_4  and  C6_3 
REMARK    2  A    between atoms: C8_5  and  C7_4 
REMARK    3  A    between atoms: C7_4  and  N9_25 
REMARK    4  A    between atoms: N18_26  and  C8_5 
REMARK    5  A    between atoms: C10_6  and  C11_20 
REMARK       I    between atoms: N9_25  and  C10_6 
REMARK    6  A    between atoms: C15_7  and  C17_8 
REMARK    7  A    between atoms: C19_23  and  C20_9 
REMARK    8  A    between atoms: C21_10  and  C26_13 
REMARK    9  A    between atoms: C24_12  and  C27_21 
REMARK   10  A    between atoms: C23_19  and  O28_29 
REMARK   11  A    between atoms: O28_29  and  C29_22 
REMARK   12  A    between atoms: C19_23  and  N18_26 
ROOT
ATOM      1  C8  5S5 d   1      10.173 -18.515 -11.292  0.00  0.00     0.104 C 
ATOM      2  H4  5S5 d   1       9.233 -19.085 -11.328  0.00  0.00     0.079 H 
ATOM      3  H5  5S5 d   1      10.910 -19.060 -10.684  0.00  0.00     0.079 H 
ENDROOT
BRANCH   1   4
ATOM      4  C7  5S5 d   1       9.921 -17.148 -10.689  0.00  0.00     0.061 C 
ATOM      5  H3  5S5 d   1      10.504 -16.448 -11.306  0.00  0.00     0.082 H 
BRANCH   4   6
ATOM      6  C6  5S5 d   1      10.456 -16.990  -9.303  0.00  0.00    -0.034 A 
ATOM      7  C5  5S5 d   1       9.906 -17.668  -8.226  0.00  0.00    -0.075 A 
ATOM      8  C4  5S5 d   1      10.419 -17.485  -6.956  0.00  0.00    -0.082 A 
ATOM      9  H2  5S5 d   1       9.072 -18.343  -8.380  0.00  0.00     0.084 H 
ATOM     10  C3  5S5 d   1      11.469 -16.609  -6.762  0.00  0.00    -0.083 A 
ATOM     11  H1  5S5 d   1       9.999 -18.026  -6.116  0.00  0.00     0.083 H 
ATOM     12  C2  5S5 d   1      12.018 -15.924  -7.826  0.00  0.00    -0.082 A 
ATOM     13  H13 5S5 d   1      11.865 -16.458  -5.764  0.00  0.00     0.083 H 
ATOM     14  C1  5S5 d   1      11.511 -16.120  -9.095  0.00  0.00    -0.075 A 
ATOM     15  H14 5S5 d   1      12.841 -15.237  -7.667  0.00  0.00     0.083 H 
ATOM     16  H15 5S5 d   1      11.943 -15.588  -9.935  0.00  0.00     0.084 H 
ENDBRANCH   4   6
BRANCH   4  17
ATOM     17  N9  5S5 d   1       8.545 -16.719 -10.815  0.00  0.00    -0.345 N 
ATOM     18  C10 5S5 d   1       8.227 -15.537 -11.458  0.00  0.00     0.273 C 
ATOM     19  O12 5S5 d   1       9.018 -14.731 -11.934  0.00  0.00    -0.266 OA
ATOM     20  H26 5S5 d   1       7.815 -17.285 -10.432  0.00  0.00     0.163 HD
BRANCH  18  21
ATOM     21  C11 5S5 d   1       6.811 -15.313 -11.552  0.00  0.00     0.154 A 
ATOM     22  C16 5S5 d   1       6.064 -14.218 -11.050  0.00  0.00    -0.017 A 
ATOM     23  C15 5S5 d   1       4.767 -14.472 -11.438  0.00  0.00     0.077 A 
ATOM     24  H17 5S5 d   1       6.434 -13.365 -10.483  0.00  0.00     0.091 H 
ATOM     25  O14 5S5 d   1       4.729 -15.645 -12.124  0.00  0.00    -0.218 OA
ATOM     26  N13 5S5 d   1       6.019 -16.175 -12.200  0.00  0.00    -0.123 NA
BRANCH  23  27
ATOM     27  C17 5S5 d   1       3.490 -13.760 -11.260  0.00  0.00    -0.029 C 
ATOM     28  H6  5S5 d   1       3.663 -12.834 -10.692  0.00  0.00     0.036 H 
ATOM     29  H7  5S5 d   1       2.786 -14.402 -10.710  0.00  0.00     0.036 H 
ATOM     30  H8  5S5 d   1       3.068 -13.513 -12.245  0.00  0.00     0.036 H 
ENDBRANCH  23  27
ENDBRANCH  18  21
ENDBRANCH   4  17
ENDBRANCH   1   4
BRANCH   1  31
ATOM     31  N18 5S5 d   1      10.700 -18.325 -12.671  0.00  0.00    -0.069 N 
ATOM     32  H27 5S5 d   1      11.579 -18.811 -12.756  0.00  0.00     0.277 HD
ATOM     33  H28 5S5 d   1      10.844 -17.341 -12.835  0.00  0.00     0.277 HD
BRANCH  31  34
ATOM     34  C19 5S5 d   1       9.758 -18.850 -13.687  0.00  0.00     0.106 C 
ATOM     35  H24 5S5 d   1       9.703 -19.942 -13.571  0.00  0.00     0.083 H 
ATOM     36  H25 5S5 d   1       8.768 -18.411 -13.495  0.00  0.00     0.083 H 
BRANCH  34  37
ATOM     37  C20 5S5 d   1      10.133 -18.551 -15.103  0.00  0.00    -0.026 A 
ATOM     38  C21 5S5 d   1       9.717 -17.404 -15.770  0.00  0.00    -0.051 A 
ATOM     39  C22 5S5 d   1      10.075 -17.212 -17.091  0.00  0.00    -0.044 A 
ATOM     40  C23 5S5 d   1      10.867 -18.142 -17.749  0.00  0.00     0.074 A 
ATOM     41  H9  5S5 d   1       9.734 -16.328 -17.617  0.00  0.00     0.088 H 
ATOM     42  C24 5S5 d   1      11.275 -19.299 -17.092  0.00  0.00    -0.028 A 
ATOM     43  C25 5S5 d   1      10.897 -19.488 -15.776  0.00  0.00    -0.066 A 
ATOM     44  H16 5S5 d   1      11.206 -20.390 -15.260  0.00  0.00     0.085 H 
BRANCH  38  45
ATOM     45  C26 5S5 d   1       8.889 -16.351 -15.120  0.00  0.00    -0.051 C 
ATOM     46  H10 5S5 d   1       8.683 -16.637 -14.078  0.00  0.00     0.033 H 
ATOM     47  H11 5S5 d   1       7.939 -16.243 -15.665  0.00  0.00     0.033 H 
ATOM     48  H12 5S5 d   1       9.432 -15.395 -15.137  0.00  0.00     0.033 H 
ENDBRANCH  38  45
BRANCH  40  49
ATOM     49  O28 5S5 d   1      11.192 -17.932 -19.093  0.00  0.00    -0.355 OA
BRANCH  49  50
ATOM     50  C29 5S5 d   1      12.091 -16.831 -19.210  0.00  0.00     0.010 C 
ATOM     51  H21 5S5 d   1      12.341 -16.673 -20.269  0.00  0.00     0.066 H 
ATOM     52  H22 5S5 d   1      13.010 -17.046 -18.645  0.00  0.00     0.066 H 
ATOM     53  H23 5S5 d   1      11.616 -15.925 -18.806  0.00  0.00     0.066 H 
ENDBRANCH  49  50
ENDBRANCH  40  49
BRANCH  42  54
ATOM     54  C27 5S5 d   1      12.091 -20.368 -17.740  0.00  0.00    -0.049 C 
ATOM     55  H18 5S5 d   1      12.282 -21.174 -17.016  0.00  0.00     0.033 H 
ATOM     56  H19 5S5 d   1      13.048 -19.945 -18.078  0.00  0.00     0.033 H 
ATOM     57  H20 5S5 d   1      11.544 -20.774 -18.604  0.00  0.00     0.033 H 
ENDBRANCH  42  54
ENDBRANCH  34  37
ENDBRANCH  31  34
ENDBRANCH   1  31
TORSDOF 12
