REMARK WARNING: 32 MAX_TORS EXCEEDED!!!
REMARK  35 active torsions:
REMARK  status: ('A' for Active; 'I' for Inactive)
REMARK    1  A    between atoms: N_1  and  CA_2 
REMARK    2  A    between atoms: CA_8  and  CB_11 
REMARK    3  A    between atoms: CB_11  and  CG_12 
REMARK    4  A    between atoms: CG_12  and  CD_13 
REMARK       I    between atoms: CD_13  and  NE2_15 
REMARK    5  A    between atoms: CA_17  and  CB_20 
REMARK    6  A    between atoms: CB_20  and  CG_21 
REMARK    7  A    between atoms: CA_27  and  CB_30 
REMARK    8  A    between atoms: CB_30  and  CG_31 
REMARK    9  A    between atoms: CA_35  and  CB_38 
REMARK   10  A    between atoms: CB_38  and  CG_39 
REMARK   11  A    between atoms: CG_39  and  CD1_40 
REMARK   12  A    between atoms: CG_39  and  CD2_41 
REMARK   13  A    between atoms: CA_43  and  CB_46 
REMARK   14  A    between atoms: CB_46  and  OG_47 
REMARK   15  A    between atoms: CA_49  and  CB_52 
REMARK   16  A    between atoms: CB_52  and  OG1_53 
REMARK   17  A    between atoms: CB_52  and  CG2_54 
REMARK   18  A    between atoms: CA_56  and  CB_59 
REMARK   19  A    between atoms: CB_59  and  CG_60 
REMARK   20  A    between atoms: CG_60  and  CD_61 
REMARK   21  A    between atoms: CD_61  and  NE_62 
REMARK       I    between atoms: NE_62  and  CZ_63 
REMARK       I    between atoms: CZ_63  and  NH1_64 
REMARK       I    between atoms: CZ_63  and  NH2_65 
REMARK   22  A    between atoms: CA_67  and  CB_70 
REMARK   23  A    between atoms: CB_70  and  CG_71 
REMARK   24  A    between atoms: CG_71  and  CD_72 
REMARK   25  A    between atoms: CD_72  and  NE_73 
REMARK       I    between atoms: NE_73  and  CZ_74 
REMARK       I    between atoms: CZ_74  and  NH1_75 
REMARK   26  A    between atoms: CA_78  and  CB_81 
REMARK   27  A    between atoms: CB_81  and  CG_82 
REMARK   28  A    between atoms: CG_82  and  CD1_83 
REMARK   29  A    between atoms: CG_82  and  CD2_84 
REMARK   30  A    between atoms: CA_86  and  CB_89 
REMARK   31  A    between atoms: CB_89  and  CG_90 
REMARK   32  A    between atoms: CG_90  and  CD_91 
REMARK   33  A    between atoms: CD_91  and  CE_92 
REMARK   34  A    between atoms: CE_92  and  NZ_93 
REMARK   35  A    between atoms: CA_95  and  C_96 
ROOT
ATOM      1  CA  CYS d   1     -15.902 -32.797  27.935  0.00  0.00     0.184 C 
ATOM      2  C   CYS d   1     -16.370 -34.228  28.206  0.00  0.00     0.249 C 
ATOM      3  O   CYS d   1     -15.836 -35.195  27.651  0.00  0.00    -0.271 OA
ATOM      4  CB  CYS d   1     -17.121 -31.864  27.889  0.00  0.00     0.021 C 
ATOM      5  SG  CYS d   1     -16.892 -30.189  28.597  0.00  0.00    -0.095 SA
ATOM      6  N   CYS d   1     -18.002 -30.700  32.832  0.00  0.00    -0.344 N 
ATOM      7  CA  CYS d   1     -16.568 -30.457  32.734  0.00  0.00     0.105 C 
ATOM      8  CB  CYS d   1     -16.290 -29.162  31.955  0.00  0.00     0.015 C 
ATOM      9  SG  CYS d   1     -17.082 -29.069  30.280  0.00  0.00    -0.095 SA
ATOM     10  H4  CYS d   1     -15.257 -32.485  28.769  0.00  0.00     0.100 H 
ATOM     11  H5  CYS d   1     -17.937 -32.352  28.442  0.00  0.00     0.054 H 
ATOM     12  H6  CYS d   1     -17.412 -31.745  26.835  0.00  0.00     0.054 H 
ATOM     13  H99 CYS d   1     -18.581 -30.041  33.313  0.00  0.00     0.163 HD
ATOM     14 0H10 CYS d   1     -16.118 -31.291  32.175  0.00  0.00     0.090 H 
ATOM     15 1H10 CYS d   1     -15.202 -29.070  31.823  0.00  0.00     0.054 H 
ATOM     16 2H10 CYS d   1     -16.660 -28.317  32.554  0.00  0.00     0.054 H 
ATOM     17  N   GLN d   1     -17.373 -34.349  29.072  0.00  0.00    -0.346 N 
ATOM     18  CA  GLN d   1     -17.978 -35.635  29.403  0.00  0.00     0.090 C 
ATOM     19  C   GLN d   1     -19.495 -35.531  29.356  0.00  0.00     0.241 C 
ATOM     20  O   GLN d   1     -20.066 -34.530  29.773  0.00  0.00    -0.271 OA
ATOM     21  H7  GLN d   1     -17.727 -33.525  29.514  0.00  0.00     0.163 HD
ATOM     22  H8  GLN d   1     -17.653 -36.379  28.661  0.00  0.00     0.087 H 
ATOM     23  N   HIS d   1     -20.149 -36.562  28.838  0.00  0.00    -0.346 N 
ATOM     24  CA  HIS d   1     -21.603 -36.538  28.703  0.00  0.00     0.094 C 
ATOM     25  C   HIS d   1     -22.275 -37.275  29.861  0.00  0.00     0.241 C 
ATOM     26  O   HIS d   1     -22.128 -38.488  30.002  0.00  0.00    -0.271 OA
ATOM     27  H15 HIS d   1     -19.639 -37.367  28.535  0.00  0.00     0.163 HD
ATOM     28  H16 HIS d   1     -21.929 -35.488  28.740  0.00  0.00     0.088 H 
ATOM     29  N   ASP d   1     -23.003 -36.521  30.685  0.00  0.00    -0.345 N 
ATOM     30  CA  ASP d   1     -23.611 -37.018  31.918  0.00  0.00     0.098 C 
ATOM     31  C   ASP d   1     -25.002 -37.579  31.628  0.00  0.00     0.241 C 
ATOM     32  O   ASP d   1     -25.886 -36.845  31.198  0.00  0.00    -0.271 OA
ATOM     33  H22 ASP d   1     -23.141 -35.560  30.446  0.00  0.00     0.163 HD
ATOM     34  H23 ASP d   1     -22.985 -37.822  32.331  0.00  0.00     0.088 H 
ATOM     35  N   LEU d   1     -25.190 -38.877  31.867  0.00  0.00    -0.346 N 
ATOM     36  CA  LEU d   1     -26.429 -39.563  31.508  0.00  0.00     0.089 C 
ATOM     37  C   LEU d   1     -27.579 -39.247  32.448  0.00  0.00     0.241 C 
ATOM     38  O   LEU d   1     -28.738 -39.502  32.112  0.00  0.00    -0.271 OA
ATOM     39  N   LEU d   1     -23.555 -31.725  29.232  0.00  0.00    -0.346 N 
ATOM     40  CA  LEU d   1     -22.109 -31.811  29.290  0.00  0.00     0.089 C 
ATOM     41  C   LEU d   1     -21.653 -31.458  30.687  0.00  0.00     0.241 C 
ATOM     42  O   LEU d   1     -22.236 -30.606  31.354  0.00  0.00    -0.271 OA
ATOM     43  H26 LEU d   1     -24.459 -39.398  32.307  0.00  0.00     0.163 HD
ATOM     44  H27 LEU d   1     -26.714 -39.220  30.502  0.00  0.00     0.087 H 
ATOM     45  H75 LEU d   1     -23.987 -31.026  28.662  0.00  0.00     0.163 HD
ATOM     46  H76 LEU d   1     -21.806 -32.843  29.062  0.00  0.00     0.087 H 
ATOM     47  N   SER d   1     -27.263 -38.710  33.626  0.00  0.00    -0.344 N 
ATOM     48  CA  SER d   1     -28.292 -38.296  34.577  0.00  0.00     0.109 C 
ATOM     49  C   SER d   1     -28.976 -37.009  34.121  0.00  0.00     0.243 C 
ATOM     50  O   SER d   1     -30.198 -36.937  34.078  0.00  0.00    -0.271 OA
ATOM     51  H37 SER d   1     -26.300 -38.588  33.864  0.00  0.00     0.163 HD
ATOM     52  H38 SER d   1     -29.048 -39.093  34.634  0.00  0.00     0.090 H 
ATOM     53  N   THR d   1     -28.182 -35.992  33.798  0.00  0.00    -0.344 N 
ATOM     54  CA  THR d   1     -28.727 -34.682  33.439  0.00  0.00     0.113 C 
ATOM     55  C   THR d   1     -28.860 -34.499  31.934  0.00  0.00     0.243 C 
ATOM     56  O   THR d   1     -29.532 -33.571  31.477  0.00  0.00    -0.271 OA
ATOM     57  H42 THR d   1     -27.191 -36.125  33.800  0.00  0.00     0.163 HD
ATOM     58  H43 THR d   1     -29.730 -34.609  33.884  0.00  0.00     0.091 H 
ATOM     59  N   ARG d   1     -28.227 -35.387  31.175  0.00  0.00    -0.346 N 
ATOM     60  CA  ARG d   1     -28.160 -35.251  29.728  0.00  0.00     0.089 C 
ATOM     61  C   ARG d   1     -27.469 -33.953  29.339  0.00  0.00     0.241 C 
ATOM     62  O   ARG d   1     -27.777 -33.358  28.319  0.00  0.00    -0.271 OA
ATOM     63  N   ARG d   1     -26.530 -33.518  30.164  0.00  0.00    -0.346 N 
ATOM     64  CA  ARG d   1     -25.803 -32.300  29.895  0.00  0.00     0.089 C 
ATOM     65  C   ARG d   1     -24.311 -32.563  29.927  0.00  0.00     0.241 C 
ATOM     66  O   ARG d   1     -23.850 -33.514  30.563  0.00  0.00    -0.271 OA
ATOM     67  H49 ARG d   1     -27.784 -36.171  31.610  0.00  0.00     0.163 HD
ATOM     68  H50 ARG d   1     -27.559 -36.086  29.338  0.00  0.00     0.087 H 
ATOM     69  H62 ARG d   1     -26.320 -34.043  30.989  0.00  0.00     0.163 HD
ATOM     70  H63 ARG d   1     -26.079 -31.933  28.895  0.00  0.00     0.087 H 
ATOM     71  N   LYS d   1     -20.603 -32.127  31.124  0.00  0.00    -0.346 N 
ATOM     72  CA  LYS d   1     -20.057 -31.921  32.447  0.00  0.00     0.089 C 
ATOM     73  C   LYS d   1     -18.552 -31.781  32.293  0.00  0.00     0.241 C 
ATOM     74  O   LYS d   1     -17.901 -32.624  31.674  0.00  0.00    -0.271 OA
ATOM     75  H86 LYS d   1     -20.171 -32.798  30.521  0.00  0.00     0.163 HD
ATOM     76  H87 LYS d   1     -20.477 -31.008  32.894  0.00  0.00     0.087 H 
ENDROOT
BRANCH  60  77
ATOM     77  CB  ARG d   1     -29.554 -35.336  29.092  0.00  0.00    -0.036 C 
ATOM     78  H51 ARG d   1     -29.444 -35.252  28.001  0.00  0.00     0.036 H 
ATOM     79  H52 ARG d   1     -30.158 -34.496  29.465  0.00  0.00     0.036 H 
BRANCH  77  80
ATOM     80  CG  ARG d   1     -30.278 -36.616  29.400  0.00  0.00    -0.048 C 
ATOM     81  H53 ARG d   1     -30.657 -36.583  30.432  0.00  0.00     0.035 H 
ATOM     82  H54 ARG d   1     -29.585 -37.464  29.291  0.00  0.00     0.035 H 
BRANCH  80  83
ATOM     83  CD  ARG d   1     -31.417 -36.784  28.460  0.00  0.00     0.009 C 
ATOM     84  H55 ARG d   1     -31.023 -36.902  27.440  0.00  0.00     0.064 H 
ATOM     85  H56 ARG d   1     -32.052 -35.887  28.506  0.00  0.00     0.064 H 
BRANCH  83  86
ATOM     86  NE  ARG d   1     -32.223 -37.950  28.791  0.00  0.00    -0.227 N 
ATOM     87  CZ  ARG d   1     -33.256 -38.377  28.071  0.00  0.00     0.665 C 
ATOM     88  NH1 ARG d   1     -33.602 -37.737  26.957  0.00  0.00    -0.235 N 
ATOM     89  NH2 ARG d   1     -33.929 -39.453  28.464  0.00  0.00    -0.235 N 
ATOM     90  H58 ARG d   1     -34.402 -38.069  26.400  0.00  0.00     0.174 HD
ATOM     91  H59 ARG d   1     -33.069 -36.910  26.652  0.00  0.00     0.174 HD
ATOM     92  H60 ARG d   1     -33.656 -39.944  29.327  0.00  0.00     0.174 HD
ATOM     93  H61 ARG d   1     -34.723 -39.796  27.905  0.00  0.00     0.174 HD
ATOM     94  H57 ARG d   1     -31.977 -38.480  29.639  0.00  0.00     0.177 HD
ENDBRANCH  83  86
ENDBRANCH  80  83
ENDBRANCH  77  80
ENDBRANCH  60  77
BRANCH  54  95
ATOM     95  CB  THR d   1     -27.865 -33.520  33.991  0.00  0.00     0.060 C 
ATOM     96  H44 THR d   1     -28.392 -32.573  33.804  0.00  0.00     0.086 H 
BRANCH  95  97
ATOM     97  OG1 THR d   1     -26.595 -33.481  33.315  0.00  0.00    -0.393 OA
ATOM     98  H45 THR d   1     -26.075 -32.765  33.661  0.00  0.00     0.210 HD
ENDBRANCH  95  97
BRANCH  95  99
ATOM     99  CG2 THR d   1     -27.660 -33.674  35.500  0.00  0.00    -0.050 C 
ATOM    100  H46 THR d   1     -27.047 -32.841  35.874  0.00  0.00     0.031 H 
ATOM    101  H47 THR d   1     -27.149 -34.626  35.705  0.00  0.00     0.031 H 
ATOM    102  H48 THR d   1     -28.637 -33.665  36.005  0.00  0.00     0.031 H 
ENDBRANCH  95  99
ENDBRANCH  54  95
BRANCH  64 103
ATOM    103  CB  ARG d   1     -26.166 -31.241  30.929  0.00  0.00    -0.036 C 
ATOM    104  H64 ARG d   1     -25.488 -30.385  30.801  0.00  0.00     0.036 H 
ATOM    105  H65 ARG d   1     -26.026 -31.673  31.931  0.00  0.00     0.036 H 
BRANCH 103 106
ATOM    106  CG  ARG d   1     -27.580 -30.744  30.822  0.00  0.00    -0.048 C 
ATOM    107  H66 ARG d   1     -27.791 -30.080  31.674  0.00  0.00     0.035 H 
ATOM    108  H67 ARG d   1     -28.264 -31.605  30.850  0.00  0.00     0.035 H 
BRANCH 106 109
ATOM    109  CD  ARG d   1     -27.805 -29.978  29.534  0.00  0.00     0.009 C 
ATOM    110  H68 ARG d   1     -28.809 -29.529  29.564  0.00  0.00     0.064 H 
ATOM    111  H69 ARG d   1     -27.744 -30.683  28.692  0.00  0.00     0.064 H 
BRANCH 109 112
ATOM    112  NE  ARG d   1     -26.824 -28.913  29.323  0.00  0.00    -0.227 N 
ATOM    113  CZ  ARG d   1     -26.783 -27.776  30.016  0.00  0.00     0.665 C 
ATOM    114  NH1 ARG d   1     -27.651 -27.538  31.005  0.00  0.00    -0.235 N 
ATOM    115  NH2 ARG d   1     -25.859 -26.874  29.726  0.00  0.00    -0.235 N 
ATOM    116  H71 ARG d   1     -27.604 -26.653  31.530  0.00  0.00     0.174 HD
ATOM    117  H72 ARG d   1     -28.367 -28.240  31.242  0.00  0.00     0.174 HD
ATOM    118  H73 ARG d   1     -25.187 -27.051  28.965  0.00  0.00     0.174 HD
ATOM    119  H74 ARG d   1     -25.811 -25.995  30.261  0.00  0.00     0.174 HD
ATOM    120  H70 ARG d   1     -26.116 -29.052  28.588  0.00  0.00     0.177 HD
ENDBRANCH 109 112
ENDBRANCH 106 109
ENDBRANCH 103 106
ENDBRANCH  64 103
BRANCH  48 121
ATOM    121  CB  SER d   1     -27.696 -38.085  35.978  0.00  0.00     0.044 C 
ATOM    122  H39 SER d   1     -28.464 -37.641  36.628  0.00  0.00     0.077 H 
ATOM    123  H40 SER d   1     -26.840 -37.399  35.901  0.00  0.00     0.077 H 
BRANCH 121 124
ATOM    124  OG  SER d   1     -27.259 -39.298  36.551  0.00  0.00    -0.398 OA
ATOM    125  H41 SER d   1     -27.995 -39.894  36.626  0.00  0.00     0.209 HD
ENDBRANCH 121 124
ENDBRANCH  48 121
BRANCH  40 126
ATOM    126  CB  LEU d   1     -21.452 -30.874  28.278  0.00  0.00    -0.035 C 
ATOM    127  H77 LEU d   1     -20.380 -30.841  28.523  0.00  0.00     0.037 H 
ATOM    128  H78 LEU d   1     -21.894 -29.878  28.432  0.00  0.00     0.037 H 
BRANCH 126 129
ATOM    129  CG  LEU d   1     -21.555 -31.178  26.785  0.00  0.00    -0.059 C 
ATOM    130  H79 LEU d   1     -22.613 -31.140  26.488  0.00  0.00     0.038 H 
BRANCH 129 131
ATOM    131  CD1 LEU d   1     -20.792 -30.121  26.013  0.00  0.00    -0.073 C 
ATOM    132  H80 LEU d   1     -20.861 -30.332  24.936  0.00  0.00     0.028 H 
ATOM    133  H81 LEU d   1     -19.736 -30.132  26.322  0.00  0.00     0.028 H 
ATOM    134  H82 LEU d   1     -21.225 -29.131  26.221  0.00  0.00     0.028 H 
ENDBRANCH 129 131
BRANCH 129 135
ATOM    135  CD2 LEU d   1     -21.021 -32.557  26.475  0.00  0.00    -0.073 C 
ATOM    136  H83 LEU d   1     -21.589 -33.307  27.046  0.00  0.00     0.028 H 
ATOM    137  H84 LEU d   1     -19.959 -32.610  26.755  0.00  0.00     0.028 H 
ATOM    138  H85 LEU d   1     -21.127 -32.758  25.399  0.00  0.00     0.028 H 
ENDBRANCH 129 135
ENDBRANCH 126 129
ENDBRANCH  40 126
BRANCH  36 139
ATOM    139  CB  LEU d   1     -26.231 -41.074  31.456  0.00  0.00    -0.035 C 
ATOM    140  H28 LEU d   1     -27.185 -41.523  31.142  0.00  0.00     0.037 H 
ATOM    141  H29 LEU d   1     -25.985 -41.412  32.474  0.00  0.00     0.037 H 
BRANCH 139 142
ATOM    142  CG  LEU d   1     -25.148 -41.597  30.524  0.00  0.00    -0.059 C 
ATOM    143  H30 LEU d   1     -24.168 -41.318  30.939  0.00  0.00     0.038 H 
BRANCH 142 144
ATOM    144  CD1 LEU d   1     -25.225 -43.105  30.450  0.00  0.00    -0.073 C 
ATOM    145  H31 LEU d   1     -24.441 -43.480  29.776  0.00  0.00     0.028 H 
ATOM    146  H32 LEU d   1     -26.212 -43.403  30.066  0.00  0.00     0.028 H 
ATOM    147  H33 LEU d   1     -25.078 -43.529  31.454  0.00  0.00     0.028 H 
ENDBRANCH 142 144
BRANCH 142 148
ATOM    148  CD2 LEU d   1     -25.270 -40.982  29.143  0.00  0.00    -0.073 C 
ATOM    149  H34 LEU d   1     -25.211 -39.886  29.223  0.00  0.00     0.028 H 
ATOM    150  H35 LEU d   1     -26.236 -41.266  28.699  0.00  0.00     0.028 H 
ATOM    151  H36 LEU d   1     -24.452 -41.347  28.505  0.00  0.00     0.028 H 
ENDBRANCH 142 148
ENDBRANCH 139 142
ENDBRANCH  36 139
BRANCH  72 152
ATOM    152  CB  LYS d   1     -20.393 -33.123  33.327  0.00  0.00    -0.038 C 
ATOM    153  H88 LYS d   1     -19.787 -33.973  32.980  0.00  0.00     0.036 H 
ATOM    154  H89 LYS d   1     -21.460 -33.353  33.189  0.00  0.00     0.036 H 
BRANCH 152 155
ATOM    155  CG  LYS d   1     -20.144 -32.952  34.816  0.00  0.00    -0.061 C 
ATOM    156  H90 LYS d   1     -20.735 -32.104  35.192  0.00  0.00     0.033 H 
ATOM    157  H91 LYS d   1     -19.075 -32.760  34.990  0.00  0.00     0.033 H 
BRANCH 155 158
ATOM    158  CD  LYS d   1     -20.558 -34.226  35.548  0.00  0.00    -0.043 C 
ATOM    159  H92 LYS d   1     -19.843 -35.025  35.300  0.00  0.00     0.035 H 
ATOM    160  H93 LYS d   1     -21.564 -34.517  35.211  0.00  0.00     0.035 H 
BRANCH 158 161
ATOM    161  CE  LYS d   1     -20.582 -34.043  37.058  0.00  0.00     0.080 C 
ATOM    162  H94 LYS d   1     -19.603 -33.662  37.384  0.00  0.00     0.075 H 
ATOM    163  H95 LYS d   1     -20.771 -35.019  37.530  0.00  0.00     0.075 H 
BRANCH 161 164
ATOM    164  NZ  LYS d   1     -21.637 -33.088  37.493  0.00  0.00    -0.079 N 
ATOM    165  H96 LYS d   1     -21.616 -32.998  38.497  0.00  0.00     0.274 HD
ATOM    166  H97 LYS d   1     -22.540 -33.431  37.205  0.00  0.00     0.274 HD
ATOM    167  H98 LYS d   1     -21.470 -32.188  37.072  0.00  0.00     0.274 HD
ENDBRANCH 161 164
ENDBRANCH 158 161
ENDBRANCH 155 158
ENDBRANCH 152 155
ENDBRANCH  72 152
BRANCH  30 168
ATOM    168  CB  ASP d   1     -23.680 -35.867  32.932  0.00  0.00     0.043 C 
ATOM    169  H24 ASP d   1     -24.346 -35.089  32.531  0.00  0.00     0.052 H 
ATOM    170  H25 ASP d   1     -22.669 -35.454  33.059  0.00  0.00     0.052 H 
BRANCH 168 171
ATOM    171  CG  ASP d   1     -24.202 -36.290  34.298  0.00  0.00     0.175 C 
ATOM    172  OD1 ASP d   1     -24.462 -37.487  34.514  0.00  0.00    -0.648 OA
ATOM    173  OD2 ASP d   1     -24.343 -35.401  35.164  0.00  0.00    -0.648 OA
ENDBRANCH 168 171
ENDBRANCH  30 168
BRANCH   7 174
ATOM    174  C   CYS d   1     -15.930 -30.424  34.124  0.00  0.00     0.197 C 
ATOM    175  O   CYS d   1     -16.615 -30.271  35.143  0.00  0.00    -0.646 OA
ATOM    176  OXT CYS d   1     -14.713 -30.571  34.261  0.00  0.00    -0.646 OA
ENDBRANCH   7 174
BRANCH  24 177
ATOM    177  CB  HIS d   1     -22.025 -37.112  27.348  0.00  0.00     0.004 C 
ATOM    178  H17 HIS d   1     -23.096 -36.907  27.201  0.00  0.00     0.046 H 
ATOM    179  H18 HIS d   1     -21.859 -38.199  27.364  0.00  0.00     0.046 H 
BRANCH 177 180
ATOM    180  CG  HIS d   1     -21.269 -36.534  26.192  0.00  0.00     0.053 A 
ATOM    181  ND1 HIS d   1     -19.967 -36.882  25.905  0.00  0.00    -0.247 NA
ATOM    182  CE1 HIS d   1     -19.558 -36.213  24.843  0.00  0.00     0.064 A 
ATOM    183  NE2 HIS d   1     -20.547 -35.441  24.431  0.00  0.00    -0.359 N 
ATOM    184  H20 HIS d   1     -18.573 -36.285  24.385  0.00  0.00     0.143 H 
ATOM    185  CD2 HIS d   1     -21.628 -35.622  25.259  0.00  0.00     0.002 A 
ATOM    186  H21 HIS d   1     -20.513 -34.806  23.620  0.00  0.00     0.166 HD
ATOM    187  H19 HIS d   1     -22.593 -35.124  25.179  0.00  0.00     0.114 H 
ENDBRANCH 177 180
ENDBRANCH  24 177
BRANCH   1 188
ATOM    188  N   CYS d   1     -15.123 -32.687  26.701  0.00  0.00    -0.066 N 
ATOM    189  H1  CYS d   1     -14.839 -31.729  26.567  0.00  0.00     0.275 HD
ATOM    190  H2  CYS d   1     -15.688 -32.982  25.920  0.00  0.00     0.275 HD
ATOM    191  H3  CYS d   1     -14.306 -33.274  26.766  0.00  0.00     0.275 HD
ENDBRANCH   1 188
BRANCH  18 192
ATOM    192  CB  GLN d   1     -17.520 -36.089  30.783  0.00  0.00    -0.030 C 
ATOM    193  H9  GLN d   1     -18.220 -36.855  31.149  0.00  0.00     0.037 H 
ATOM    194  H10 GLN d   1     -17.538 -35.222  31.460  0.00  0.00     0.037 H 
BRANCH 192 195
ATOM    195  CG  GLN d   1     -16.122 -36.673  30.786  0.00  0.00     0.011 C 
ATOM    196  H11 GLN d   1     -15.780 -36.767  31.827  0.00  0.00     0.047 H 
ATOM    197  H12 GLN d   1     -15.453 -35.991  30.241  0.00  0.00     0.047 H 
BRANCH 195 198
ATOM    198  CD  GLN d   1     -16.067 -38.045  30.126  0.00  0.00     0.215 C 
ATOM    199  OE1 GLN d   1     -16.760 -38.977  30.551  0.00  0.00    -0.274 OA
ATOM    200  NE2 GLN d   1     -15.246 -38.174  29.077  0.00  0.00    -0.370 N 
ATOM    201  H13 GLN d   1     -15.171 -39.053  28.606  0.00  0.00     0.159 HD
ATOM    202  H14 GLN d   1     -14.708 -37.392  28.764  0.00  0.00     0.159 HD
ENDBRANCH 195 198
ENDBRANCH 192 195
ENDBRANCH  18 192
TORSDOF 35
