REMARK  3 active torsions:
REMARK  status: ('A' for Active; 'I' for Inactive)
REMARK    1  A    between atoms: CAO_8  and  NAK_9 
REMARK       I    between atoms: NAK_9  and  CAL_10 
REMARK    2  A    between atoms: CAL_10  and  CAP_12 
REMARK    3  A    between atoms: NAQ_16  and  CAA_17 
ROOT
ATOM      1  NAK 5S9 d   1       8.033 -10.497   5.843  0.00  0.00    -0.319 N 
ATOM      2  CAL 5S9 d   1       7.170 -10.676   4.809  0.00  0.00     0.274 C 
ATOM      3  OAB 5S9 d   1       6.066 -10.130   4.749  0.00  0.00    -0.266 OA
ATOM      4  H4  5S9 d   1       8.914 -10.970   5.834  0.00  0.00     0.169 HD
ENDROOT
BRANCH   1   5
ATOM      5  CAO 5S9 d   1       7.723  -9.688   6.889  0.00  0.00     0.074 A 
ATOM      6  CAN 5S9 d   1       8.140 -10.115   8.150  0.00  0.00     0.146 A 
ATOM      7  FAD 5S9 d   1       8.798 -11.281   8.303  0.00  0.00    -0.204 F 
ATOM      8  CAI 5S9 d   1       7.874  -9.344   9.277  0.00  0.00    -0.006 A 
ATOM      9  CAM 5S9 d   1       7.200  -8.136   9.155  0.00  0.00     0.119 A 
ATOM     10  H1  5S9 d   1       8.194  -9.688  10.254  0.00  0.00     0.093 H 
ATOM     11  FAC 5S9 d   1       6.946  -7.379  10.279  0.00  0.00    -0.206 F 
ATOM     12  CAG 5S9 d   1       6.789  -7.697   7.901  0.00  0.00    -0.043 A 
ATOM     13  CAH 5S9 d   1       7.058  -8.466   6.772  0.00  0.00    -0.051 A 
ATOM     14  H2  5S9 d   1       6.259  -6.756   7.803  0.00  0.00     0.088 H 
ATOM     15  H3  5S9 d   1       6.749  -8.113   5.795  0.00  0.00     0.087 H 
ENDBRANCH   1   5
BRANCH   2  16
ATOM     16  CAP 5S9 d   1       7.605 -11.486   3.814  0.00  0.00     0.121 A 
ATOM     17  CAF 5S9 d   1       8.854 -11.915   3.673  0.00  0.00    -0.032 A 
ATOM     18  CAE 5S9 d   1       8.857 -12.668   2.578  0.00  0.00     0.024 A 
ATOM     19  H5  5S9 d   1       9.701 -11.695   4.321  0.00  0.00     0.089 H 
ATOM     20  NAJ 5S9 d   1       7.617 -12.676   2.083  0.00  0.00    -0.185 NA
ATOM     21  H6  5S9 d   1       9.718 -13.187   2.159  0.00  0.00     0.117 H 
ATOM     22  NAQ 5S9 d   1       6.891 -11.983   2.798  0.00  0.00    -0.269 N 
BRANCH  22  23
ATOM     23  CAA 5S9 d   1       5.460 -11.838   2.461  0.00  0.00     0.003 C 
ATOM     24  H7  5S9 d   1       5.241 -12.399   1.541  0.00  0.00     0.059 H 
ATOM     25  H8  5S9 d   1       5.226 -10.774   2.306  0.00  0.00     0.059 H 
ATOM     26  H9  5S9 d   1       4.847 -12.232   3.285  0.00  0.00     0.059 H 
ENDBRANCH  22  23
ENDBRANCH   2  16
TORSDOF 3
