REMARK  6 active torsions:
REMARK  status: ('A' for Active; 'I' for Inactive)
REMARK    1  A    between atoms: N9_22  and  C11_4 
REMARK    2  A    between atoms: C13_6  and  C24_16 
REMARK    3  A    between atoms: C17_10  and  C18_11 
REMARK    4  A    between atoms: N8_21  and  C17_10 
REMARK    5  A    between atoms: C4_17  and  N8_21 
REMARK    6  A    between atoms: C7_20  and  C5_18 
REMARK       I    between atoms: C7_20  and  N9_22 
ROOT
ATOM      1  C1  5T2 d   1      17.199  12.278  12.829  0.00  0.00    -0.082 A 
ATOM      2  C2  5T2 d   1      16.061  11.721  13.434  0.00  0.00    -0.081 A 
ATOM      3  C3  5T2 d   1      16.060  10.373  13.816  0.00  0.00    -0.057 A 
ATOM      4  C4  5T2 d   1      17.191   9.542  13.608  0.00  0.00     0.044 A 
ATOM      5  C5  5T2 d   1      18.339  10.104  12.962  0.00  0.00     0.058 A 
ATOM      6  C6  5T2 d   1      18.321  11.469  12.599  0.00  0.00    -0.066 A 
ATOM      7  H1  5T2 d   1      17.210  13.323  12.543  0.00  0.00     0.083 H 
ATOM      8  H2  5T2 d   1      15.183  12.334  13.605  0.00  0.00     0.083 H 
ATOM      9  H3  5T2 d   1      15.175   9.955  14.281  0.00  0.00     0.086 H 
ATOM     10  H14 5T2 d   1      19.197  11.902  12.130  0.00  0.00     0.085 H 
ENDROOT
BRANCH   5  11
ATOM     11  C7  5T2 d   1      19.622   9.321  12.693  0.00  0.00     0.258 C 
ATOM     12  N9  5T2 d   1      20.790   9.984  12.473  0.00  0.00    -0.323 N 
ATOM     13  H16 5T2 d   1      20.748  10.983  12.476  0.00  0.00     0.169 HD
ATOM     14  O10 5T2 d   1      19.557   8.104  12.654  0.00  0.00    -0.267 OA
BRANCH  12  15
ATOM     15  C11 5T2 d   1      22.062   9.398  12.239  0.00  0.00     0.035 A 
ATOM     16  C12 5T2 d   1      22.267   8.281  11.404  0.00  0.00    -0.043 A 
ATOM     17  C13 5T2 d   1      23.568   7.772  11.218  0.00  0.00     0.050 A 
ATOM     18  H4  5T2 d   1      21.425   7.814  10.906  0.00  0.00     0.088 H 
ATOM     19  C14 5T2 d   1      24.662   8.370  11.872  0.00  0.00    -0.068 A 
ATOM     20  C15 5T2 d   1      24.472   9.486  12.693  0.00  0.00    -0.080 A 
ATOM     21  H5  5T2 d   1      25.658   7.963  11.738  0.00  0.00     0.084 H 
ATOM     22  C16 5T2 d   1      23.171   9.977  12.875  0.00  0.00    -0.057 A 
ATOM     23  H6  5T2 d   1      25.315   9.963  13.180  0.00  0.00     0.083 H 
ATOM     24  H7  5T2 d   1      23.017  10.829  13.527  0.00  0.00     0.086 H 
BRANCH  17  25
ATOM     25  C24 5T2 d   1      23.746   6.527  10.360  0.00  0.00     0.417 C 
ATOM     26  F25 5T2 d   1      24.996   6.378   9.870  0.00  0.00    -0.166 F 
ATOM     27  F26 5T2 d   1      23.508   5.450  11.132  0.00  0.00    -0.166 F 
ATOM     28  F27 5T2 d   1      22.860   6.539   9.348  0.00  0.00    -0.166 F 
ENDBRANCH  17  25
ENDBRANCH  12  15
ENDBRANCH   5  11
BRANCH   4  29
ATOM     29  N8  5T2 d   1      17.154   8.221  13.979  0.00  0.00    -0.385 N 
ATOM     30  H15 5T2 d   1      18.011   7.669  13.830  0.00  0.00     0.160 HD
BRANCH  29  31
ATOM     31  C17 5T2 d   1      16.004   7.522  14.569  0.00  0.00     0.017 C 
ATOM     32  H8  5T2 d   1      16.370   6.589  15.024  0.00  0.00     0.071 H 
ATOM     33  H9  5T2 d   1      15.578   8.168  15.350  0.00  0.00     0.071 H 
BRANCH  31  34
ATOM     34  C18 5T2 d   1      14.874   7.160  13.579  0.00  0.00    -0.038 A 
ATOM     35  C19 5T2 d   1      15.032   7.282  12.176  0.00  0.00    -0.058 A 
ATOM     36  C20 5T2 d   1      13.976   6.935  11.320  0.00  0.00     0.002 A 
ATOM     37  H10 5T2 d   1      15.968   7.643  11.765  0.00  0.00     0.086 H 
ATOM     38  N21 5T2 d   1      12.807   6.471  11.850  0.00  0.00    -0.273 NA
ATOM     39  H11 5T2 d   1      14.088   7.035  10.246  0.00  0.00     0.114 H 
ATOM     40  C22 5T2 d   1      12.615   6.328  13.194  0.00  0.00     0.002 A 
ATOM     41  C23 5T2 d   1      13.647   6.671  14.089  0.00  0.00    -0.058 A 
ATOM     42  H12 5T2 d   1      11.671   5.952  13.571  0.00  0.00     0.114 H 
ATOM     43  H13 5T2 d   1      13.503   6.562  15.158  0.00  0.00     0.086 H 
ENDBRANCH  31  34
ENDBRANCH  29  31
ENDBRANCH   4  29
TORSDOF 6
