REMARK  7 active torsions:
REMARK  status: ('A' for Active; 'I' for Inactive)
REMARK    1  A    between atoms: C13_1  and  N17_16 
REMARK    2  A    between atoms: C10_17  and  C11_5 
REMARK    3  A    between atoms: O23_8  and  C24_9 
REMARK    4  A    between atoms: C4_24  and  O23_8 
REMARK    5  A    between atoms: N17_16  and  C18_12 
REMARK    6  A    between atoms: C1_18  and  C10_17 
REMARK    7  A    between atoms: C1_18  and  C7_19 
ROOT
ATOM      1  C1  5VC d   1     -12.243   9.106  19.242  0.00  0.00     0.054 C 
ATOM      2  C2  5VC d   1     -10.785   8.981  19.692  0.00  0.00    -0.046 C 
ATOM      3  C3  5VC d   1      -9.943  10.090  19.071  0.00  0.00    -0.039 C 
ATOM      4  C4  5VC d   1     -10.015   9.990  17.539  0.00  0.00     0.045 C 
ATOM      5  C5  5VC d   1     -11.476  10.156  17.107  0.00  0.00    -0.039 C 
ATOM      6  C6  5VC d   1     -12.326   9.045  17.716  0.00  0.00    -0.046 C 
ATOM      7  H10 5VC d   1     -10.390   8.005  19.375  0.00  0.00     0.035 H 
ATOM      8  H11 5VC d   1     -10.736   9.058  20.788  0.00  0.00     0.035 H 
ATOM      9  H12 5VC d   1      -8.898   9.983  19.397  0.00  0.00     0.036 H 
ATOM     10  H13 5VC d   1     -10.329  11.068  19.393  0.00  0.00     0.036 H 
ATOM     11  H14 5VC d   1      -9.596   9.038  17.180  0.00  0.00     0.084 H 
ATOM     12  H17 5VC d   1     -11.540  10.105  16.010  0.00  0.00     0.036 H 
ATOM     13  H18 5VC d   1     -11.850  11.132  17.451  0.00  0.00     0.036 H 
ATOM     14  H19 5VC d   1     -13.373   9.172  17.402  0.00  0.00     0.035 H 
ATOM     15  H20 5VC d   1     -11.955   8.069  17.369  0.00  0.00     0.035 H 
ENDROOT
BRANCH   1  16
ATOM     16  C10 5VC d   1     -12.851  10.432  19.746  0.00  0.00    -0.008 C 
ATOM     17  H8  5VC d   1     -12.864  10.427  20.846  0.00  0.00     0.044 H 
ATOM     18  H9  5VC d   1     -12.232  11.269  19.391  0.00  0.00     0.044 H 
BRANCH  16  19
ATOM     19  C11 5VC d   1     -14.258  10.609  19.238  0.00  0.00     0.038 A 
ATOM     20  C16 5VC d   1     -15.282   9.880  19.836  0.00  0.00    -0.059 A 
ATOM     21  C15 5VC d   1     -16.592  10.012  19.385  0.00  0.00    -0.077 A 
ATOM     22  H3  5VC d   1     -15.058   9.207  20.656  0.00  0.00     0.086 H 
ATOM     23  C14 5VC d   1     -16.825  10.886  18.344  0.00  0.00    -0.038 A 
ATOM     24  H2  5VC d   1     -17.400   9.448  19.836  0.00  0.00     0.083 H 
ATOM     25  C13 5VC d   1     -15.745  11.585  17.790  0.00  0.00     0.129 A 
ATOM     26  H1  5VC d   1     -17.829  11.030  17.960  0.00  0.00     0.089 H 
ATOM     27  N12 5VC d   1     -14.491  11.450  18.225  0.00  0.00    -0.236 NA
BRANCH  25  28
ATOM     28  N17 5VC d   1     -16.063  12.468  16.708  0.00  0.00    -0.320 N 
ATOM     29  H7  5VC d   1     -17.041  12.521  16.390  0.00  0.00     0.169 HD
BRANCH  28  30
ATOM     30  C18 5VC d   1     -15.086  13.282  16.047  0.00  0.00     0.171 A 
ATOM     31  N22 5VC d   1     -15.404  14.094  15.074  0.00  0.00    -0.236 NA
ATOM     32  C21 5VC d   1     -14.282  14.740  14.616  0.00  0.00     0.011 A 
ATOM     33  C20 5VC d   1     -13.113  14.403  15.249  0.00  0.00    -0.025 A 
ATOM     34  H4  5VC d   1     -14.318  15.468  13.807  0.00  0.00     0.115 H 
ATOM     35  S19 5VC d   1     -13.414  13.226  16.499  0.00  0.00    -0.062 SA
ATOM     36  H6  5VC d   1     -12.134  14.813  15.005  0.00  0.00     0.097 H 
ENDBRANCH  28  30
ENDBRANCH  25  28
ENDBRANCH  16  19
ENDBRANCH   1  16
BRANCH   1  37
ATOM     37  C7  5VC d   1     -12.962   7.907  19.781  0.00  0.00     0.182 C 
ATOM     38  O8  5VC d   1     -12.725   7.574  20.984  0.00  0.00    -0.647 OA
ATOM     39  O9  5VC d   1     -13.766   7.286  19.006  0.00  0.00    -0.647 OA
ENDBRANCH   1  37
BRANCH   4  40
ATOM     40  O23 5VC d   1      -9.312  11.101  17.019  0.00  0.00    -0.343 OA
BRANCH  40  41
ATOM     41  C24 5VC d   1      -9.210  11.150  15.654  0.00  0.00     0.109 A 
ATOM     42  C25 5VC d   1      -9.428  12.364  15.044  0.00  0.00     0.171 A 
ATOM     43  C26 5VC d   1      -9.329  12.528  13.684  0.00  0.00     0.075 A 
ATOM     44  F30 5VC d   1      -9.757  13.434  15.781  0.00  0.00    -0.201 F 
ATOM     45  C27 5VC d   1      -8.997  11.440  12.878  0.00  0.00    -0.059 A 
ATOM     46 CL3  5VC d   1      -9.649  14.117  13.062  0.00  0.00    -0.081 Cl
ATOM     47  C28 5VC d   1      -8.781  10.205  13.506  0.00  0.00    -0.079 A 
ATOM     48  H5  5VC d   1      -8.909  11.545  11.803  0.00  0.00     0.086 H 
ATOM     49  C29 5VC d   1      -8.877  10.031  14.891  0.00  0.00    -0.048 A 
ATOM     50  H15 5VC d   1      -8.529   9.348  12.892  0.00  0.00     0.083 H 
ATOM     51  H16 5VC d   1      -8.700   9.066  15.352  0.00  0.00     0.087 H 
ENDBRANCH  40  41
ENDBRANCH   4  40
TORSDOF 7
