REMARK  1 active torsions:
REMARK  status: ('A' for Active; 'I' for Inactive)
REMARK    1  A    between atoms: CAK_6  and  CAL_7 
ROOT
ATOM      1  CAF 5SH d   1       8.863 -10.159   6.451  0.00  0.00    -0.072 A 
ATOM      2  CAB 5SH d   1       8.917  -9.325   7.564  0.00  0.00    -0.082 A 
ATOM      3  CAA 5SH d   1       8.052  -8.240   7.661  0.00  0.00    -0.083 A 
ATOM      4  CAC 5SH d   1       7.132  -7.990   6.649  0.00  0.00    -0.082 A 
ATOM      5  CAG 5SH d   1       7.077  -8.827   5.539  0.00  0.00    -0.072 A 
ATOM      6  CAK 5SH d   1       7.941  -9.914   5.438  0.00  0.00    -0.026 A 
ATOM      7  H1  5SH d   1       9.541 -11.001   6.373  0.00  0.00     0.084 H 
ATOM      8  H2  5SH d   1       9.633  -9.521   8.354  0.00  0.00     0.083 H 
ATOM      9  H3  5SH d   1       8.095  -7.589   8.527  0.00  0.00     0.083 H 
ATOM     10  H4  5SH d   1       6.458  -7.144   6.725  0.00  0.00     0.083 H 
ATOM     11  H5  5SH d   1       6.359  -8.632   4.750  0.00  0.00     0.084 H 
ENDROOT
BRANCH   6  12
ATOM     12  CAL 5SH d   1       7.886 -10.748   4.322  0.00  0.00    -0.023 A 
ATOM     13  CAH 5SH d   1       9.053 -11.328   3.835  0.00  0.00    -0.055 A 
ATOM     14  CAD 5SH d   1       9.013 -12.150   2.720  0.00  0.00     0.003 A 
ATOM     15  H6  5SH d   1       9.998 -11.136   4.330  0.00  0.00     0.087 H 
ATOM     16  NAJ 5SH d   1       7.792 -12.410   2.080  0.00  0.00    -0.273 NA
ATOM     17  H7  5SH d   1       9.927 -12.593   2.342  0.00  0.00     0.114 H 
ATOM     18  CAE 5SH d   1       6.619 -11.824   2.570  0.00  0.00     0.003 A 
ATOM     19  CAI 5SH d   1       6.672 -10.994   3.686  0.00  0.00    -0.055 A 
ATOM     20  H8  5SH d   1       5.671 -12.016   2.081  0.00  0.00     0.114 H 
ATOM     21  H9  5SH d   1       5.764 -10.537   4.062  0.00  0.00     0.087 H 
ENDBRANCH   6  12
TORSDOF 1
