REMARK  1 active torsions:
REMARK  status: ('A' for Active; 'I' for Inactive)
REMARK    1  A    between atoms: CAI_10  and  OAA_11 
ROOT
ATOM      1  CAD 5SG d   1       8.944 -10.926   6.341  0.00  0.00    -0.050 A 
ATOM      2  CAB 5SG d   1       9.903 -11.828   5.887  0.00  0.00    -0.079 A 
ATOM      3  CAE 5SG d   1       9.733 -12.466   4.660  0.00  0.00    -0.071 A 
ATOM      4  CAJ 5SG d   1       8.609 -12.200   3.889  0.00  0.00    -0.006 A 
ATOM      5  CAG 5SG d   1       8.447 -12.838   2.669  0.00  0.00     0.013 A 
ATOM      6  NAH 5SG d   1       7.318 -12.583   1.891  0.00  0.00    -0.272 NA
ATOM      7  CAC 5SG d   1       6.355 -11.673   2.349  0.00  0.00     0.003 A 
ATOM      8  CAF 5SG d   1       6.523 -11.034   3.570  0.00  0.00    -0.053 A 
ATOM      9  CAK 5SG d   1       7.648 -11.300   4.338  0.00  0.00     0.010 A 
ATOM     10  CAI 5SG d   1       7.822 -10.669   5.561  0.00  0.00     0.076 A 
ATOM     11  H1  5SG d   1       9.071 -10.428   7.295  0.00  0.00     0.087 H 
ATOM     12  H2  5SG d   1      10.781 -12.034   6.488  0.00  0.00     0.083 H 
ATOM     13  H3  5SG d   1      10.478 -13.170   4.307  0.00  0.00     0.084 H 
ATOM     14  H4  5SG d   1       9.199 -13.536   2.319  0.00  0.00     0.116 H 
ATOM     15  H5  5SG d   1       5.476 -11.468   1.748  0.00  0.00     0.114 H 
ATOM     16  H6  5SG d   1       5.778 -10.330   3.922  0.00  0.00     0.087 H 
ENDROOT
BRANCH  10  17
ATOM     17  OAA 5SG d   1       6.845  -9.799   5.943  0.00  0.00    -0.360 OA
ATOM     18  H7  5SG d   1       7.066  -9.428   6.789  0.00  0.00     0.217 HD
ENDBRANCH  10  17
TORSDOF 1
