REMARK  8 active torsions:
REMARK  status: ('A' for Active; 'I' for Inactive)
REMARK    1  A    between atoms: C13_18  and  N1_2 
REMARK    2  A    between atoms: C14_19  and  O1_3 
REMARK    3  A    between atoms: C18_22  and  O2_5 
REMARK    4  A    between atoms: C7_10  and  C4_7 
REMARK    5  A    between atoms: C8_11  and  C7_10 
REMARK    6  A    between atoms: C14_19  and  C13_18 
REMARK    7  A    between atoms: C13_18  and  C24_24 
REMARK    8  A    between atoms: C15_20  and  C14_19 
ROOT
ATOM      1  N1  QEL d   1      85.888   6.516 -32.049  0.00  0.00    -0.064 N 
ATOM      2  C8  QEL d   1      84.383   4.083 -31.259  0.00  0.00    -0.047 C 
ATOM      3  C9  QEL d   1      83.848   5.083 -32.293  0.00  0.00    -0.039 C 
ATOM      4  C10 QEL d   1      84.972   5.851 -33.008  0.00  0.00     0.084 C 
ATOM      5  C11 QEL d   1      86.467   5.534 -31.121  0.00  0.00     0.084 C 
ATOM      6  C12 QEL d   1      85.389   4.781 -30.347  0.00  0.00    -0.039 C 
ATOM      7  H2  QEL d   1      85.274   7.092 -31.495  0.00  0.00     0.280 HD
ATOM      8  H11 QEL d   1      84.908   3.283 -31.801  0.00  0.00     0.040 H 
ATOM      9  H12 QEL d   1      83.198   5.807 -31.780  0.00  0.00     0.035 H 
ATOM     10  H13 QEL d   1      83.263   4.533 -33.045  0.00  0.00     0.035 H 
ATOM     11  H16 QEL d   1      85.551   5.144 -33.620  0.00  0.00     0.076 H 
ATOM     12  H17 QEL d   1      84.522   6.616 -33.658  0.00  0.00     0.076 H 
ATOM     13  H18 QEL d   1      87.117   6.060 -30.406  0.00  0.00     0.076 H 
ATOM     14  H19 QEL d   1      87.064   4.810 -31.695  0.00  0.00     0.076 H 
ATOM     15  H20 QEL d   1      85.875   4.023 -29.715  0.00  0.00     0.035 H 
ATOM     16  H21 QEL d   1      84.848   5.497 -29.711  0.00  0.00     0.035 H 
ENDROOT
BRANCH   1  17
ATOM     17  C13 QEL d   1      86.936   7.454 -32.501  0.00  0.00     0.129 C 
ATOM     18  H22 QEL d   1      87.870   7.135 -32.016  0.00  0.00     0.088 H 
BRANCH  17  19
ATOM     19  C14 QEL d   1      86.648   8.888 -32.011  0.00  0.00     0.088 C 
ATOM     20  H23 QEL d   1      86.237   8.812 -30.994  0.00  0.00     0.093 H 
BRANCH  19  21
ATOM     21  O1  QEL d   1      85.636   9.485 -32.833  0.00  0.00    -0.389 OA
ATOM     22  H3  QEL d   1      85.937   9.514 -33.733  0.00  0.00     0.210 HD
ENDBRANCH  19  21
BRANCH  19  23
ATOM     23  C15 QEL d   1      87.913   9.726 -31.909  0.00  0.00    -0.028 A 
ATOM     24  C16 QEL d   1      88.821   9.529 -30.872  0.00  0.00    -0.072 A 
ATOM     25  C2  QEL d   1      90.025  10.215 -30.836  0.00  0.00    -0.050 A 
ATOM     26  H24 QEL d   1      88.583   8.828 -30.080  0.00  0.00     0.084 H 
ATOM     27  C18 QEL d   1      90.342  11.115 -31.849  0.00  0.00     0.065 A 
ATOM     28  H4  QEL d   1      90.719  10.051 -30.020  0.00  0.00     0.087 H 
ATOM     29  C3  QEL d   1      89.434  11.341 -32.873  0.00  0.00    -0.050 A 
ATOM     30  C19 QEL d   1      88.236  10.652 -32.897  0.00  0.00    -0.072 A 
ATOM     31  H6  QEL d   1      89.664  12.057 -33.654  0.00  0.00     0.087 H 
ATOM     32  H25 QEL d   1      87.534  10.836 -33.702  0.00  0.00     0.084 H 
BRANCH  27  33
ATOM     33  O2  QEL d   1      91.558  11.741 -31.895  0.00  0.00    -0.361 OA
ATOM     34  H5  QEL d   1      91.680  12.253 -31.104  0.00  0.00     0.217 HD
ENDBRANCH  27  33
ENDBRANCH  19  23
ENDBRANCH  17  19
BRANCH  17  35
ATOM     35  C24 QEL d   1      87.194   7.402 -33.999  0.00  0.00    -0.047 C 
ATOM     36  H26 QEL d   1      87.982   8.123 -34.261  0.00  0.00     0.030 H 
ATOM     37  H27 QEL d   1      86.270   7.656 -34.539  0.00  0.00     0.030 H 
ATOM     38  H28 QEL d   1      87.516   6.389 -34.281  0.00  0.00     0.030 H 
ENDBRANCH  17  35
ENDBRANCH   1  17
BRANCH   2  39
ATOM     39  C7  QEL d   1      83.260   3.432 -30.440  0.00  0.00    -0.038 C 
ATOM     40  H9  QEL d   1      83.724   2.780 -29.686  0.00  0.00     0.040 H 
ATOM     41  H10 QEL d   1      82.698   4.233 -29.937  0.00  0.00     0.040 H 
BRANCH  39  42
ATOM     42  C4  QEL d   1      82.279   2.602 -31.235  0.00  0.00    -0.058 A 
ATOM     43  C5  QEL d   1      81.089   3.162 -31.704  0.00  0.00    -0.077 A 
ATOM     44  C6  QEL d   1      80.095   2.369 -32.259  0.00  0.00    -0.082 A 
ATOM     45  H7  QEL d   1      80.939   4.233 -31.633  0.00  0.00     0.084 H 
ATOM     46  C1  QEL d   1      80.279   1.007 -32.367  0.00  0.00    -0.083 A 
ATOM     47  H8  QEL d   1      79.173   2.821 -32.608  0.00  0.00     0.083 H 
ATOM     48  C01 QEL d   1      81.477   0.438 -31.942  0.00  0.00    -0.082 A 
ATOM     49  H1  QEL d   1      79.496   0.382 -32.781  0.00  0.00     0.083 H 
ATOM     50  C02 QEL d   1      82.467   1.231 -31.380  0.00  0.00    -0.077 A 
ATOM     51  H14 QEL d   1      81.637  -0.629 -32.051  0.00  0.00     0.083 H 
ATOM     52  H15 QEL d   1      83.395   0.778 -31.051  0.00  0.00     0.084 H 
ENDBRANCH  39  42
ENDBRANCH   2  39
TORSDOF 8
