REMARK  5 active torsions:
REMARK  status: ('A' for Active; 'I' for Inactive)
REMARK    1  A    between atoms: C5_14  and  N2_3 
REMARK    2  A    between atoms: C6_5  and  C5_14 
REMARK    3  A    between atoms: C10_16  and  C8_8 
REMARK    4  A    between atoms: C14_19  and  C16_9 
REMARK    5  A    between atoms: C2_11  and  C1_10 
ROOT
ATOM      1  N3  5SM d   1      78.800   6.888 -32.832  0.00  0.00    -0.162 NA
ATOM      2  C7  5SM d   1      81.501   6.521 -32.914  0.00  0.00    -0.044 A 
ATOM      3  C6  5SM d   1      80.911   7.716 -33.280  0.00  0.00     0.075 A 
ATOM      4  C9  5SM d   1      79.331   5.709 -32.494  0.00  0.00     0.034 A 
ATOM      5  C8  5SM d   1      80.702   5.454 -32.529  0.00  0.00    -0.005 A 
ATOM      6  N4  5SM d   1      79.598   7.890 -33.233  0.00  0.00    -0.153 NA
ATOM      7  H2  5SM d   1      82.580   6.418 -32.928  0.00  0.00     0.088 H 
ATOM      8  H3  5SM d   1      78.665   4.914 -32.178  0.00  0.00     0.118 H 
ENDROOT
BRANCH   3   9
ATOM      9  C5  5SM d   1      81.773   8.835 -33.818  0.00  0.00     0.042 C 
ATOM     10  H9  5SM d   1      82.776   8.742 -33.377  0.00  0.00     0.074 H 
ATOM     11  H10 5SM d   1      81.841   8.725 -34.910  0.00  0.00     0.074 H 
BRANCH   9  12
ATOM     12  N2  5SM d   1      81.260  10.178 -33.519  0.00  0.00    -0.338 N 
ATOM     13  C4  5SM d   1      80.279  10.818 -34.251  0.00  0.00    -0.002 A 
ATOM     14  C3  5SM d   1      80.074  12.009 -33.643  0.00  0.00     0.019 A 
ATOM     15  H1  5SM d   1      79.773  10.440 -35.138  0.00  0.00     0.113 H 
ATOM     16  N1  5SM d   1      80.902  12.147 -32.537  0.00  0.00    -0.246 NA
ATOM     17  H8  5SM d   1      79.357  12.758 -33.976  0.00  0.00     0.117 H 
ATOM     18  C2  5SM d   1      81.610  11.031 -32.496  0.00  0.00     0.102 A 
BRANCH  18  19
ATOM     19  C1  5SM d   1      82.684  10.737 -31.525  0.00  0.00    -0.021 C 
ATOM     20  H5  5SM d   1      82.770  11.569 -30.810  0.00  0.00     0.037 H 
ATOM     21  H6  5SM d   1      83.637  10.613 -32.059  0.00  0.00     0.037 H 
ATOM     22  H7  5SM d   1      82.444   9.811 -30.982  0.00  0.00     0.037 H 
ENDBRANCH  18  19
ENDBRANCH   9  12
ENDBRANCH   3   9
BRANCH   5  23
ATOM     23  C10 5SM d   1      81.293   4.180 -32.044  0.00  0.00    -0.024 A 
ATOM     24  C11 5SM d   1      82.597   4.123 -31.557  0.00  0.00    -0.069 A 
ATOM     25  C12 5SM d   1      83.157   2.927 -31.147  0.00  0.00    -0.044 A 
ATOM     26  H11 5SM d   1      83.183   5.033 -31.498  0.00  0.00     0.085 H 
ATOM     27  C13 5SM d   1      82.426   1.777 -31.291  0.00  0.00     0.128 A 
ATOM     28  H12 5SM d   1      84.153   2.900 -30.721  0.00  0.00     0.088 H 
ATOM     29  C14 5SM d   1      81.146   1.750 -31.820  0.00  0.00     0.045 A 
ATOM     30  F3  5SM d   1      82.976   0.613 -30.867  0.00  0.00    -0.205 F 
ATOM     31  C15 5SM d   1      80.591   2.980 -32.173  0.00  0.00    -0.058 A 
ATOM     32  H13 5SM d   1      79.579   3.005 -32.561  0.00  0.00     0.086 H 
BRANCH  29  33
ATOM     33  C16 5SM d   1      80.347   0.480 -32.001  0.00  0.00     0.236 C 
ATOM     34  F1  5SM d   1      79.702   0.248 -30.831  0.00  0.00    -0.209 F 
ATOM     35  F2  5SM d   1      79.341   0.644 -32.901  0.00  0.00    -0.209 F 
ATOM     36  H4  5SM d   1      81.005  -0.354 -32.286  0.00  0.00     0.153 H 
ENDBRANCH  29  33
ENDBRANCH   5  23
TORSDOF 5
