REMARK WARNING: 32 MAX_TORS EXCEEDED!!!
REMARK  39 active torsions:
REMARK  status: ('A' for Active; 'I' for Inactive)
REMARK    1  A    between atoms: CA_2  and  C_3 
REMARK       I    between atoms: C_3  and  N_8 
REMARK    2  A    between atoms: N_8  and  CA_9 
REMARK    3  A    between atoms: CA_9  and  C_10 
REMARK    4  A    between atoms: CA_9  and  CB_12 
REMARK       I    between atoms: C_10  and  N_19 
REMARK    5  A    between atoms: CB_12  and  CG_13 
REMARK    6  A    between atoms: CG_13  and  CD_14 
REMARK    7  A    between atoms: CD_14  and  NE_15 
REMARK       I    between atoms: NE_15  and  CZ_16 
REMARK       I    between atoms: CZ_16  and  NH1_17 
REMARK       I    between atoms: CZ_16  and  NH2_18 
REMARK    8  A    between atoms: N_19  and  CA_20 
REMARK    9  A    between atoms: CA_20  and  C_21 
REMARK   10  A    between atoms: CA_20  and  CB_23 
REMARK       I    between atoms: C_21  and  N_30 
REMARK   11  A    between atoms: CB_23  and  CG_24 
REMARK   12  A    between atoms: CG_24  and  CD_25 
REMARK   13  A    between atoms: CD_25  and  NE_26 
REMARK       I    between atoms: NE_26  and  CZ_27 
REMARK       I    between atoms: CZ_27  and  NH1_28 
REMARK   14  A    between atoms: N_30  and  CA_31 
REMARK   15  A    between atoms: CA_31  and  C_32 
REMARK   16  A    between atoms: CA_31  and  CB_34 
REMARK       I    between atoms: C_32  and  N_38 
REMARK   17  A    between atoms: CB_34  and  CG_35 
REMARK       I    between atoms: CG_35  and  ND2_37 
REMARK   18  A    between atoms: N_38  and  CA_39 
REMARK   19  A    between atoms: CA_39  and  CB_40 
REMARK   20  A    between atoms: CA_39  and  C_47 
REMARK   21  A    between atoms: CB_40  and  CG2_41 
REMARK   22  A    between atoms: CB_40  and  OG1_42 
REMARK   23  A    between atoms: OG1_42  and  P_43 
REMARK       I    between atoms: C_47  and  N_49 
REMARK   24  A    between atoms: N_49  and  CA_50 
REMARK   25  A    between atoms: CA_50  and  C_51 
REMARK   26  A    between atoms: CA_50  and  CB_53 
REMARK       I    between atoms: C_51  and  N_57 
REMARK   27  A    between atoms: CB_53  and  CG_54 
REMARK   28  A    between atoms: CG_54  and  CD1_55 
REMARK   29  A    between atoms: CG_54  and  CD2_56 
REMARK   30  A    between atoms: CA_58  and  C_59 
REMARK       I    between atoms: C_59  and  N_64 
REMARK   31  A    between atoms: N_64  and  CA_65 
REMARK   32  A    between atoms: CA_65  and  C_66 
REMARK   33  A    between atoms: CA_65  and  CB_68 
REMARK       I    between atoms: C_66  and  N_69 
REMARK   34  A    between atoms: N_69  and  CA_70 
REMARK   35  A    between atoms: CA_70  and  C_71 
REMARK   36  A    between atoms: CA_70  and  CB_73 
REMARK   37  A    between atoms: CB_73  and  CG_74 
REMARK   38  A    between atoms: CG_74  and  SD_75 
REMARK   39  A    between atoms: SD_75  and  CE_76 
ROOT
ATOM      1  C   ASN d   1       4.792  14.265   5.528  0.00  0.00     0.241 C 
ATOM      2  O   ASN d   1       3.625  14.463   5.846  0.00  0.00    -0.271 OA
ATOM      3  N   TPO d   1       5.486  13.169   5.867  0.00  0.00    -0.344 N 
ATOM      4  H42 TPO d   1       6.279  12.918   5.312  0.00  0.00     0.163 HD
ENDROOT
BRANCH   1   5
ATOM      5  CA  ASN d   1       5.568  15.320   4.718  0.00  0.00     0.097 C 
ATOM      6  H37 ASN d   1       6.466  14.807   4.343  0.00  0.00     0.088 H 
BRANCH   5   7
ATOM      7  N   ASN d   1       4.899  15.854   3.490  0.00  0.00    -0.346 N 
ATOM      8  C   ARG d   1       5.037  15.218   2.315  0.00  0.00     0.241 C 
ATOM      9  O   ARG d   1       5.726  14.190   2.186  0.00  0.00    -0.271 OA
ATOM     10  H36 ASN d   1       4.348  16.687   3.545  0.00  0.00     0.163 HD
BRANCH   8  11
ATOM     11  CA  ARG d   1       4.329  15.806   1.062  0.00  0.00     0.089 C 
ATOM     12  H24 ARG d   1       4.355  16.900   1.176  0.00  0.00     0.087 H 
BRANCH  11  13
ATOM     13  N   ARG d   1       5.038  15.502  -0.222  0.00  0.00    -0.346 N 
ATOM     14  C   ARG d   1       6.335  15.804  -0.416  0.00  0.00     0.241 C 
ATOM     15  O   ARG d   1       6.993  16.468   0.396  0.00  0.00    -0.271 OA
ATOM     16  H23 ARG d   1       4.530  15.059  -0.961  0.00  0.00     0.163 HD
BRANCH  14  17
ATOM     17  CA  ARG d   1       7.015  15.302  -1.720  0.00  0.00     0.089 C 
ATOM     18  H11 ARG d   1       6.196  15.038  -2.405  0.00  0.00     0.087 H 
BRANCH  17  19
ATOM     19  N   ARG d   1       7.833  16.331  -2.443  0.00  0.00    -0.346 N 
ATOM     20  C   PRO d   1       7.276  17.445  -2.955  0.00  0.00     0.249 C 
ATOM     21  O   PRO d   1       6.106  17.754  -2.745  0.00  0.00    -0.271 OA
ATOM     22  H10 ARG d   1       8.817  16.186  -2.547  0.00  0.00     0.163 HD
BRANCH  20  23
ATOM     23  CA  PRO d   1       8.108  18.378  -3.886  0.00  0.00     0.178 C 
ATOM     24  N   PRO d   1       9.538  18.531  -3.605  0.00  0.00    -0.062 N 
ATOM     25  CD  PRO d   1      10.300  18.844  -4.834  0.00  0.00     0.083 C 
ATOM     26  H1  PRO d   1       9.889  17.672  -3.212  0.00  0.00     0.278 HD
ATOM     27  H2  PRO d   1       9.664  19.280  -2.942  0.00  0.00     0.278 HD
ATOM     28  CG  PRO d   1       9.291  18.539  -5.984  0.00  0.00    -0.040 C 
ATOM     29  H8  PRO d   1      11.192  18.206  -4.915  0.00  0.00     0.075 H 
ATOM     30  H9  PRO d   1      10.603  19.901  -4.849  0.00  0.00     0.075 H 
ATOM     31  CB  PRO d   1       8.091  17.865  -5.349  0.00  0.00    -0.028 C 
ATOM     32  H6  PRO d   1       8.984  19.474  -6.476  0.00  0.00     0.035 H 
ATOM     33  H7  PRO d   1       9.753  17.870  -6.725  0.00  0.00     0.035 H 
ATOM     34  H4  PRO d   1       7.161  18.161  -5.857  0.00  0.00     0.036 H 
ATOM     35  H5  PRO d   1       8.194  16.770  -5.381  0.00  0.00     0.036 H 
ATOM     36  H3  PRO d   1       7.640  19.372  -3.837  0.00  0.00     0.099 H 
ENDBRANCH  20  23
ENDBRANCH  17  19
BRANCH  17  37
ATOM     37  CB  ARG d   1       7.813  13.996  -1.466  0.00  0.00    -0.036 C 
ATOM     38  H12 ARG d   1       7.698  13.721  -0.407  0.00  0.00     0.036 H 
ATOM     39  H13 ARG d   1       8.874  14.192  -1.681  0.00  0.00     0.036 H 
BRANCH  37  40
ATOM     40  CG  ARG d   1       7.352  12.790  -2.337  0.00  0.00    -0.048 C 
ATOM     41  H14 ARG d   1       7.484  13.066  -3.394  0.00  0.00     0.035 H 
ATOM     42  H15 ARG d   1       6.285  12.615  -2.134  0.00  0.00     0.035 H 
BRANCH  40  43
ATOM     43  CD  ARG d   1       8.127  11.426  -2.088  0.00  0.00     0.009 C 
ATOM     44  H16 ARG d   1       9.182  11.668  -1.891  0.00  0.00     0.064 H 
ATOM     45  H17 ARG d   1       8.054  10.823  -3.005  0.00  0.00     0.064 H 
BRANCH  43  46
ATOM     46  NE  ARG d   1       7.631  10.601  -0.960  0.00  0.00    -0.227 N 
ATOM     47  CZ  ARG d   1       6.491   9.889  -0.962  0.00  0.00     0.665 C 
ATOM     48  NH1 ARG d   1       6.150   9.182   0.109  0.00  0.00    -0.235 N 
ATOM     49  NH2 ARG d   1       5.670   9.904  -2.017  0.00  0.00    -0.235 N 
ATOM     50  H19 ARG d   1       5.277   8.636   0.109  0.00  0.00     0.174 HD
ATOM     51  H20 ARG d   1       6.759   9.180   0.940  0.00  0.00     0.174 HD
ATOM     52  H21 ARG d   1       5.919  10.447  -2.856  0.00  0.00     0.174 HD
ATOM     53  H22 ARG d   1       4.788   9.372  -1.991  0.00  0.00     0.174 HD
ATOM     54  H18 ARG d   1       8.206  10.571  -0.106  0.00  0.00     0.177 HD
ENDBRANCH  43  46
ENDBRANCH  40  43
ENDBRANCH  37  40
ENDBRANCH  17  37
ENDBRANCH  14  17
ENDBRANCH  11  13
BRANCH  11  55
ATOM     55  CB  ARG d   1       2.838  15.401   1.011  0.00  0.00    -0.036 C 
ATOM     56  H25 ARG d   1       2.461  15.658   0.010  0.00  0.00     0.036 H 
ATOM     57  H26 ARG d   1       2.308  15.999   1.767  0.00  0.00     0.036 H 
BRANCH  55  58
ATOM     58  CG  ARG d   1       2.495  13.929   1.267  0.00  0.00    -0.048 C 
ATOM     59  H27 ARG d   1       1.435  13.775   1.018  0.00  0.00     0.035 H 
ATOM     60  H28 ARG d   1       2.655  13.720   2.335  0.00  0.00     0.035 H 
BRANCH  58  61
ATOM     61  CD  ARG d   1       3.332  12.923   0.449  0.00  0.00     0.009 C 
ATOM     62  H29 ARG d   1       4.396  13.141   0.624  0.00  0.00     0.064 H 
ATOM     63  H30 ARG d   1       3.098  13.069  -0.616  0.00  0.00     0.064 H 
BRANCH  61  64
ATOM     64  NE  ARG d   1       3.095  11.510   0.780  0.00  0.00    -0.227 N 
ATOM     65  CZ  ARG d   1       3.778  10.737   1.640  0.00  0.00     0.665 C 
ATOM     66  NH1 ARG d   1       3.421   9.468   1.789  0.00  0.00    -0.235 N 
ATOM     67  NH2 ARG d   1       4.768  11.198   2.373  0.00  0.00    -0.235 N 
ATOM     68  H32 ARG d   1       3.935   8.862   2.445  0.00  0.00     0.174 HD
ATOM     69  H33 ARG d   1       2.630   9.089   1.249  0.00  0.00     0.174 HD
ATOM     70  H34 ARG d   1       5.066  12.179   2.278  0.00  0.00     0.174 HD
ATOM     71  H35 ARG d   1       5.245  10.578   3.042  0.00  0.00     0.174 HD
ATOM     72  H31 ARG d   1       2.309  11.057   0.292  0.00  0.00     0.177 HD
ENDBRANCH  61  64
ENDBRANCH  58  61
ENDBRANCH  55  58
ENDBRANCH  11  55
ENDBRANCH   8  11
ENDBRANCH   5   7
BRANCH   5  73
ATOM     73  CB  ASN d   1       6.072  16.414   5.698  0.00  0.00     0.036 C 
ATOM     74  H38 ASN d   1       6.873  15.986   6.318  0.00  0.00     0.051 H 
ATOM     75  H39 ASN d   1       5.234  16.720   6.342  0.00  0.00     0.051 H 
BRANCH  73  76
ATOM     76  CG  ASN d   1       6.614  17.647   4.993  0.00  0.00     0.217 C 
ATOM     77  OD1 ASN d   1       6.007  18.738   5.054  0.00  0.00    -0.274 OA
ATOM     78  ND2 ASN d   1       7.754  17.490   4.303  0.00  0.00    -0.370 N 
ATOM     79  H40 ASN d   1       8.157  18.267   3.819  0.00  0.00     0.159 HD
ATOM     80  H41 ASN d   1       8.201  16.596   4.272  0.00  0.00     0.159 HD
ENDBRANCH  73  76
ENDBRANCH   5  73
ENDBRANCH   1   5
BRANCH   3  81
ATOM     81  CA  TPO d   1       5.133  12.304   7.033  0.00  0.00     0.114 C 
ATOM     82  H43 TPO d   1       4.296  12.787   7.559  0.00  0.00     0.091 H 
BRANCH  81  83
ATOM     83  CB  TPO d   1       4.674  10.907   6.627  0.00  0.00     0.076 C 
ATOM     84  H44 TPO d   1       4.436  10.345   7.542  0.00  0.00     0.087 H 
BRANCH  83  85
ATOM     85  CG2 TPO d   1       3.371  11.008   5.811  0.00  0.00    -0.049 C 
ATOM     86  H45 TPO d   1       3.042  10.000   5.519  0.00  0.00     0.031 H 
ATOM     87  H46 TPO d   1       3.549  11.611   4.908  0.00  0.00     0.031 H 
ATOM     88  H47 TPO d   1       2.591  11.486   6.423  0.00  0.00     0.031 H 
ENDBRANCH  83  85
BRANCH  83  89
ATOM     89  OG1 TPO d   1       5.762  10.217   5.981  0.00  0.00    -0.275 OA
BRANCH  89  90
ATOM     90  P   TPO d   1       5.792   8.648   5.586  0.00  0.00     0.422 P 
ATOM     91  O1P TPO d   1       4.852   8.545   4.402  0.00  0.00    -0.617 OA
ATOM     92  O2P TPO d   1       7.221   8.374   5.189  0.00  0.00    -0.617 OA
ATOM     93  O3P TPO d   1       5.347   7.773   6.765  0.00  0.00    -0.617 OA
ENDBRANCH  89  90
ENDBRANCH  83  89
ENDBRANCH  81  83
BRANCH  81  94
ATOM     94  C   TPO d   1       6.312  12.209   8.007  0.00  0.00     0.243 C 
ATOM     95  O   TPO d   1       7.443  12.603   7.655  0.00  0.00    -0.271 OA
ATOM     96  N   LEU d   1       6.062  11.665   9.206  0.00  0.00    -0.346 N 
ATOM     97  H48 LEU d   1       5.150  11.284   9.359  0.00  0.00     0.163 HD
BRANCH  96  98
ATOM     98  CA  LEU d   1       7.027  11.585  10.314  0.00  0.00     0.090 C 
ATOM     99  H49 LEU d   1       8.053  11.622   9.919  0.00  0.00     0.087 H 
BRANCH  98 100
ATOM    100  C   LEU d   1       6.838  10.324  11.184  0.00  0.00     0.243 C 
ATOM    101  O   LEU d   1       5.719  10.084  11.655  0.00  0.00    -0.271 OA
ATOM    102  N   PRO d   1       7.921   9.575  11.508  0.00  0.00    -0.337 N 
ATOM    103  CA  PRO d   1       9.344   9.939  11.429  0.00  0.00     0.091 C 
ATOM    104  CD  PRO d   1       7.738   8.176  11.961  0.00  0.00    -0.001 C 
ATOM    105  CB  PRO d   1      10.033   8.790  12.175  0.00  0.00    -0.036 C 
ATOM    106  H59 PRO d   1       9.518  10.896  11.942  0.00  0.00     0.087 H 
ATOM    107  CG  PRO d   1       9.119   7.614  11.961  0.00  0.00    -0.048 C 
ATOM    108  H60 PRO d   1      10.128   9.021  13.246  0.00  0.00     0.036 H 
ATOM    109  H61 PRO d   1      11.029   8.592  11.753  0.00  0.00     0.036 H 
ATOM    110  H62 PRO d   1       9.236   6.883  12.775  0.00  0.00     0.035 H 
ATOM    111  H63 PRO d   1       9.336   7.129  10.998  0.00  0.00     0.035 H 
ATOM    112  H64 PRO d   1       7.090   7.622  11.266  0.00  0.00     0.064 H 
ATOM    113  H65 PRO d   1       7.303   8.146  12.971  0.00  0.00     0.064 H 
BRANCH 103 114
ATOM    114  C   PRO d   1       9.876  10.049   9.992  0.00  0.00     0.241 C 
ATOM    115  O   PRO d   1       9.386   9.345   9.096  0.00  0.00    -0.271 OA
ATOM    116  N   ALA d   1      10.852  10.938   9.786  0.00  0.00    -0.346 N 
ATOM    117  H66 ALA d   1      11.090  11.579  10.515  0.00  0.00     0.163 HD
BRANCH 116 118
ATOM    118  CA  ALA d   1      11.584  10.995   8.512  0.00  0.00     0.086 C 
ATOM    119  H67 ALA d   1      10.880  10.687   7.725  0.00  0.00     0.086 H 
BRANCH 118 120
ATOM    120  C   ALA d   1      12.788  10.006   8.449  0.00  0.00     0.240 C 
ATOM    121  O   ALA d   1      13.307   9.541   9.477  0.00  0.00    -0.271 OA
ATOM    122  N   MET d   1      13.207   9.690   7.228  0.00  0.00    -0.345 N 
ATOM    123  H71 MET d   1      12.744  10.109   6.447  0.00  0.00     0.163 HD
BRANCH 122 124
ATOM    124  CA  MET d   1      14.320   8.753   6.960  0.00  0.00     0.097 C 
ATOM    125  H72 MET d   1      14.540   8.198   7.884  0.00  0.00     0.089 H 
BRANCH 124 126
ATOM    126  C   MET d   1      15.591   9.517   6.543  0.00  0.00     0.196 C 
ATOM    127  O   MET d   1      16.644   9.391   7.176  0.00  0.00    -0.646 OA
ATOM    128  OXT MET d   1      15.586  10.273   5.566  0.00  0.00    -0.646 OA
ENDBRANCH 124 126
BRANCH 124 129
ATOM    129  CB  MET d   1      13.894   7.743   5.871  0.00  0.00    -0.029 C 
ATOM    130  H73 MET d   1      13.549   8.322   5.001  0.00  0.00     0.037 H 
ATOM    131  H74 MET d   1      13.057   7.155   6.276  0.00  0.00     0.037 H 
BRANCH 129 132
ATOM    132  CG  MET d   1      14.941   6.763   5.379  0.00  0.00    -0.021 C 
ATOM    133  H75 MET d   1      15.062   5.965   6.127  0.00  0.00     0.049 H 
ATOM    134  H76 MET d   1      15.896   7.295   5.252  0.00  0.00     0.049 H 
BRANCH 132 135
ATOM    135  SD  MET d   1      14.464   6.011   3.782  0.00  0.00    -0.173 SA
BRANCH 135 136
ATOM    136  CE  MET d   1      15.735   4.722   3.577  0.00  0.00    -0.035 C 
ATOM    137  H77 MET d   1      15.561   4.182   2.635  0.00  0.00     0.041 H 
ATOM    138  H78 MET d   1      15.681   4.016   4.419  0.00  0.00     0.041 H 
ATOM    139  H79 MET d   1      16.731   5.189   3.553  0.00  0.00     0.041 H 
ENDBRANCH 135 136
ENDBRANCH 132 135
ENDBRANCH 129 132
ENDBRANCH 124 129
ENDBRANCH 122 124
ENDBRANCH 118 120
BRANCH 118 140
ATOM    140  CB  ALA d   1      12.020  12.442   8.195  0.00  0.00    -0.049 C 
ATOM    141  H68 ALA d   1      12.565  12.460   7.239  0.00  0.00     0.030 H 
ATOM    142  H69 ALA d   1      12.675  12.812   8.997  0.00  0.00     0.030 H 
ATOM    143  H70 ALA d   1      11.131  13.085   8.122  0.00  0.00     0.030 H 
ENDBRANCH 118 140
ENDBRANCH 116 118
ENDBRANCH 103 114
ENDBRANCH  98 100
BRANCH  98 144
ATOM    144  CB  LEU d   1       6.746  12.757  11.229  0.00  0.00    -0.035 C 
ATOM    145  H50 LEU d   1       6.021  12.408  11.979  0.00  0.00     0.037 H 
ATOM    146  H51 LEU d   1       6.285  13.541  10.610  0.00  0.00     0.037 H 
BRANCH 144 147
ATOM    147  CG  LEU d   1       7.882  13.411  11.989  0.00  0.00    -0.059 C 
ATOM    148  H52 LEU d   1       8.435  12.646  12.555  0.00  0.00     0.038 H 
BRANCH 147 149
ATOM    149  CD1 LEU d   1       8.874  14.074  10.985  0.00  0.00    -0.073 C 
ATOM    150  H53 LEU d   1       9.697  14.547  11.541  0.00  0.00     0.028 H 
ATOM    151  H54 LEU d   1       8.344  14.836  10.395  0.00  0.00     0.028 H 
ATOM    152  H55 LEU d   1       9.281  13.306  10.311  0.00  0.00     0.028 H 
ENDBRANCH 147 149
BRANCH 147 153
ATOM    153  CD2 LEU d   1       7.252  14.353  12.957  0.00  0.00    -0.073 C 
ATOM    154  H56 LEU d   1       6.573  13.797  13.620  0.00  0.00     0.028 H 
ATOM    155  H57 LEU d   1       6.684  15.118  12.407  0.00  0.00     0.028 H 
ATOM    156  H58 LEU d   1       8.035  14.839  13.558  0.00  0.00     0.028 H 
ENDBRANCH 147 153
ENDBRANCH 144 147
ENDBRANCH  98 144
ENDBRANCH  96  98
ENDBRANCH  81  94
ENDBRANCH   3  81
TORSDOF 39
