REMARK  6 active torsions:
REMARK  status: ('A' for Active; 'I' for Inactive)
REMARK    1  A    between atoms: C2'_10  and  O2'_11 
REMARK    2  A    between atoms: C1'_12  and  N9_13 
REMARK    3  A    between atoms: C2_20  and  N2_21 
REMARK    4  A    between atoms: C2A_33  and  O2A_34 
REMARK    5  A    between atoms: C1A_35  and  N91_36 
REMARK    6  A    between atoms: C21_43  and  N21_44 
ROOT
ATOM      1  P1  C2E d   1      64.768  43.927  56.618  0.00  0.00     0.408 P 
ATOM      2  O2P C2E d   1      65.054  42.505  56.705  0.00  0.00    -0.624 OA
ATOM      3  O1P C2E d   1      63.981  44.521  57.675  0.00  0.00    -0.624 OA
ATOM      4  O5' C2E d   1      64.230  44.273  55.201  0.00  0.00    -0.287 OA
ATOM      5  C5' C2E d   1      65.171  44.172  54.179  0.00  0.00     0.058 C 
ATOM      6  C4' C2E d   1      64.633  44.554  52.829  0.00  0.00     0.090 C 
ATOM      7  O4' C2E d   1      63.294  44.211  52.827  0.00  0.00    -0.353 OA
ATOM      8  C3' C2E d   1      64.573  46.031  52.685  0.00  0.00     0.106 C 
ATOM      9  O3' C2E d   1      65.718  46.609  52.142  0.00  0.00    -0.279 OA
ATOM     10  C2' C2E d   1      63.415  46.239  51.778  0.00  0.00     0.106 C 
ATOM     11  C1' C2E d   1      62.501  45.168  52.177  0.00  0.00     0.139 C 
ATOM     12  P11 C2E d   1      65.882  48.040  52.647  0.00  0.00     0.408 P 
ATOM     13  O21 C2E d   1      64.676  48.699  52.248  0.00  0.00    -0.624 OA
ATOM     14  O11 C2E d   1      67.175  48.586  52.327  0.00  0.00    -0.624 OA
ATOM     15  O5A C2E d   1      65.907  47.852  54.169  0.00  0.00    -0.287 OA
ATOM     16  C5A C2E d   1      66.888  46.954  54.556  0.00  0.00     0.058 C 
ATOM     17  C4A C2E d   1      67.076  46.792  56.050  0.00  0.00     0.090 C 
ATOM     18  O4A C2E d   1      67.240  48.005  56.736  0.00  0.00    -0.353 OA
ATOM     19  C3A C2E d   1      65.929  46.128  56.713  0.00  0.00     0.106 C 
ATOM     20  O3A C2E d   1      66.091  44.742  56.686  0.00  0.00    -0.279 OA
ATOM     21  C2A C2E d   1      66.103  46.596  58.101  0.00  0.00     0.106 C 
ATOM     22  C1A C2E d   1      66.563  48.005  57.967  0.00  0.00     0.139 C 
ATOM     23  H1  C2E d   1      65.523  43.131  54.132  0.00  0.00     0.079 H 
ATOM     24  H2  C2E d   1      66.016  44.834  54.417  0.00  0.00     0.079 H 
ATOM     25  H3  C2E d   1      65.204  44.078  52.019  0.00  0.00     0.090 H 
ATOM     26  H4  C2E d   1      64.384  46.492  53.666  0.00  0.00     0.092 H 
ATOM     27  H5  C2E d   1      63.004  47.259  51.773  0.00  0.00     0.093 H 
ATOM     28  H7  C2E d   1      62.032  44.730  51.283  0.00  0.00     0.122 H 
ATOM     29  H13 C2E d   1      67.844  47.293  54.130  0.00  0.00     0.079 H 
ATOM     30  H14 C2E d   1      66.629  45.970  54.139  0.00  0.00     0.079 H 
ATOM     31  H15 C2E d   1      67.977  46.178  56.199  0.00  0.00     0.090 H 
ATOM     32  H16 C2E d   1      64.962  46.422  56.279  0.00  0.00     0.092 H 
ATOM     33  H17 C2E d   1      65.200  46.493  58.721  0.00  0.00     0.093 H 
ATOM     34  H19 C2E d   1      67.234  48.269  58.797  0.00  0.00     0.122 H 
ENDROOT
BRANCH  11  35
ATOM     35  N9  C2E d   1      61.459  45.632  53.073  0.00  0.00    -0.295 N 
ATOM     36  C8  C2E d   1      61.328  45.292  54.332  0.00  0.00     0.071 A 
ATOM     37  N7  C2E d   1      60.240  45.840  54.878  0.00  0.00    -0.234 NA
ATOM     38  H8  C2E d   1      62.020  44.643  54.866  0.00  0.00     0.144 H 
ATOM     39  C5  C2E d   1      59.650  46.550  53.939  0.00  0.00     0.171 A 
ATOM     40  C6  C2E d   1      58.451  47.376  53.842  0.00  0.00     0.292 A 
ATOM     41  C4  C2E d   1      60.458  46.405  52.760  0.00  0.00     0.161 A 
ATOM     42  O6  C2E d   1      57.716  47.536  54.820  0.00  0.00    -0.265 OA
ATOM     43  N1  C2E d   1      58.192  47.943  52.693  0.00  0.00    -0.154 N 
ATOM     44  C2  C2E d   1      58.952  47.759  51.654  0.00  0.00     0.680 A 
ATOM     45  H9  C2E d   1      57.389  48.533  52.611  0.00  0.00     0.187 HD
ATOM     46  N3  C2E d   1      60.050  47.030  51.664  0.00  0.00    -0.174 N 
ATOM     47  H12 C2E d   1      60.604  46.944  50.800  0.00  0.00     0.186 HD
BRANCH  44  48
ATOM     48  N2  C2E d   1      58.631  48.345  50.524  0.00  0.00    -0.234 N 
ATOM     49  H10 C2E d   1      59.220  48.212  49.690  0.00  0.00     0.174 HD
ATOM     50  H11 C2E d   1      57.790  48.938  50.472  0.00  0.00     0.174 HD
ENDBRANCH  44  48
ENDBRANCH  11  35
BRANCH  10  51
ATOM     51  O2' C2E d   1      63.806  45.738  50.544  0.00  0.00    -0.388 OA
ATOM     52  H6  C2E d   1      64.572  46.211  50.240  0.00  0.00     0.210 HD
ENDBRANCH  10  51
BRANCH  21  53
ATOM     53  O2A C2E d   1      67.189  45.850  58.577  0.00  0.00    -0.388 OA
ATOM     54  H18 C2E d   1      66.979  44.925  58.535  0.00  0.00     0.210 HD
ENDBRANCH  21  53
BRANCH  22  55
ATOM     55  N91 C2E d   1      65.459  48.997  57.892  0.00  0.00    -0.295 N 
ATOM     56  C81 C2E d   1      65.078  49.619  56.793  0.00  0.00     0.071 A 
ATOM     57  N71 C2E d   1      64.098  50.486  56.996  0.00  0.00    -0.234 NA
ATOM     58  H20 C2E d   1      65.525  49.438  55.816  0.00  0.00     0.144 H 
ATOM     59  C51 C2E d   1      63.806  50.447  58.274  0.00  0.00     0.171 A 
ATOM     60  C61 C2E d   1      62.830  51.122  59.126  0.00  0.00     0.292 A 
ATOM     61  C41 C2E d   1      64.702  49.482  58.857  0.00  0.00     0.161 A 
ATOM     62  O61 C2E d   1      62.041  51.955  58.680  0.00  0.00    -0.265 OA
ATOM     63  N11 C2E d   1      62.832  50.814  60.391  0.00  0.00    -0.154 N 
ATOM     64  C21 C2E d   1      63.681  49.928  60.872  0.00  0.00     0.680 A 
ATOM     65  H21 C2E d   1      62.180  51.256  61.007  0.00  0.00     0.187 HD
ATOM     66  N31 C2E d   1      64.584  49.278  60.155  0.00  0.00    -0.174 N 
ATOM     67  H24 C2E d   1      65.206  48.601  60.619  0.00  0.00     0.186 HD
BRANCH  64  68
ATOM     68  N21 C2E d   1      63.642  49.653  62.171  0.00  0.00    -0.234 N 
ATOM     69  H22 C2E d   1      64.295  48.964  62.572  0.00  0.00     0.174 HD
ATOM     70  H23 C2E d   1      62.959  50.128  62.778  0.00  0.00     0.174 HD
ENDBRANCH  64  68
ENDBRANCH  22  55
TORSDOF 6
