REMARK  21 active torsions:
REMARK  status: ('A' for Active; 'I' for Inactive)
REMARK    1  A    between atoms: C6_3  and  N6_29 
REMARK    2  A    between atoms: C9_8  and  C10_9 
REMARK    3  A    between atoms: O3P_30  and  C9_8 
REMARK    4  A    between atoms: C10_9  and  C11_10 
REMARK    5  A    between atoms: C11_10  and  C12_11 
REMARK    6  A    between atoms: C12_11  and  C13_12 
REMARK    7  A    between atoms: C13_12  and  C14_13 
REMARK    8  A    between atoms: C14_13  and  C15_14 
REMARK    9  A    between atoms: C15_14  and  C16_31 
REMARK   10  A    between atoms: O5'_18  and  P_16 
REMARK   11  A    between atoms: P_16  and  O3P_30 
REMARK   12  A    between atoms: C5'_19  and  O5'_18 
REMARK   13  A    between atoms: C4'_20  and  C5'_19 
REMARK   14  A    between atoms: C3'_22  and  O3'_23 
REMARK   15  A    between atoms: C2'_24  and  O2'_25 
REMARK   16  A    between atoms: C1'_26  and  N9_27 
REMARK   17  A    between atoms: C16_31  and  C17_32 
REMARK   18  A    between atoms: C17_32  and  C18_33 
REMARK   19  A    between atoms: C18_33  and  C19_34 
REMARK   20  A    between atoms: C19_34  and  C20_35 
REMARK   21  A    between atoms: C20_35  and  C21_36 
ROOT
ATOM      1  C9  5SV d   1      39.955  11.469 310.318  0.00  0.00     0.032 C 
ATOM      2  H3  5SV d   1      39.580  10.435 310.298  0.00  0.00     0.075 H 
ATOM      3  H4  5SV d   1      40.998  11.474 310.668  0.00  0.00     0.075 H 
ENDROOT
BRANCH   1   4
ATOM      4  C10 5SV d   1      39.083  12.317 311.278  0.00  0.00    -0.045 C 
ATOM      5  H5  5SV d   1      38.053  11.931 311.258  0.00  0.00     0.036 H 
ATOM      6  H6  5SV d   1      39.090  13.362 310.935  0.00  0.00     0.036 H 
BRANCH   4   7
ATOM      7  C11 5SV d   1      39.602  12.265 312.714  0.00  0.00    -0.063 C 
ATOM      8  H7  5SV d   1      40.602  12.723 312.745  0.00  0.00     0.033 H 
ATOM      9  H8  5SV d   1      39.671  11.213 313.026  0.00  0.00     0.033 H 
BRANCH   7  10
ATOM     10  C12 5SV d   1      38.691  13.009 313.694  0.00  0.00    -0.065 C 
ATOM     11  H9  5SV d   1      37.647  12.724 313.498  0.00  0.00     0.033 H 
ATOM     12  H10 5SV d   1      38.810  14.092 313.542  0.00  0.00     0.033 H 
BRANCH  10  13
ATOM     13  C13 5SV d   1      39.037  12.668 315.154  0.00  0.00    -0.065 C 
ATOM     14  H11 5SV d   1      38.617  13.448 315.806  0.00  0.00     0.033 H 
ATOM     15  H12 5SV d   1      40.132  12.650 315.261  0.00  0.00     0.033 H 
BRANCH  13  16
ATOM     16  C14 5SV d   1      38.475  11.299 315.597  0.00  0.00    -0.065 C 
ATOM     17  H13 5SV d   1      38.792  10.529 314.878  0.00  0.00     0.033 H 
ATOM     18  H14 5SV d   1      37.376  11.350 315.618  0.00  0.00     0.033 H 
BRANCH  16  19
ATOM     19  C15 5SV d   1      38.991  10.922 317.002  0.00  0.00    -0.065 C 
ATOM     20  H15 5SV d   1      39.606  11.751 317.382  0.00  0.00     0.033 H 
ATOM     21  H16 5SV d   1      39.609  10.016 316.916  0.00  0.00     0.033 H 
BRANCH  19  22
ATOM     22  C16 5SV d   1      37.867  10.650 318.006  0.00  0.00    -0.065 C 
ATOM     23  H27 5SV d   1      36.970  11.177 317.648  0.00  0.00     0.033 H 
ATOM     24  H28 5SV d   1      38.179  11.072 318.973  0.00  0.00     0.033 H 
BRANCH  22  25
ATOM     25  C17 5SV d   1      37.474   9.188 318.249  0.00  0.00    -0.065 C 
ATOM     26  H29 5SV d   1      38.353   8.628 318.600  0.00  0.00     0.033 H 
ATOM     27  H30 5SV d   1      37.110   8.748 317.309  0.00  0.00     0.033 H 
BRANCH  25  28
ATOM     28  C18 5SV d   1      36.363   9.112 319.312  0.00  0.00    -0.065 C 
ATOM     29  H31 5SV d   1      35.450   9.573 318.908  0.00  0.00     0.033 H 
ATOM     30  H32 5SV d   1      36.687   9.662 320.208  0.00  0.00     0.033 H 
BRANCH  28  31
ATOM     31  C19 5SV d   1      36.060   7.670 319.699  0.00  0.00    -0.065 C 
ATOM     32  H33 5SV d   1      36.972   7.210 320.106  0.00  0.00     0.033 H 
ATOM     33  H34 5SV d   1      35.740   7.119 318.802  0.00  0.00     0.033 H 
BRANCH  31  34
ATOM     34  C20 5SV d   1      34.950   7.592 320.753  0.00  0.00    -0.069 C 
ATOM     35  H35 5SV d   1      33.990   7.827 320.270  0.00  0.00     0.032 H 
ATOM     36  H36 5SV d   1      35.157   8.335 321.538  0.00  0.00     0.032 H 
BRANCH  34  37
ATOM     37  C21 5SV d   1      34.845   6.203 321.406  0.00  0.00    -0.077 C 
ATOM     38  H37 5SV d   1      34.035   6.208 322.150  0.00  0.00     0.027 H 
ATOM     39  H38 5SV d   1      35.796   5.958 321.901  0.00  0.00     0.027 H 
ATOM     40  H39 5SV d   1      34.629   5.450 320.634  0.00  0.00     0.027 H 
ENDBRANCH  34  37
ENDBRANCH  31  34
ENDBRANCH  28  31
ENDBRANCH  25  28
ENDBRANCH  22  25
ENDBRANCH  19  22
ENDBRANCH  16  19
ENDBRANCH  13  16
ENDBRANCH  10  13
ENDBRANCH   7  10
ENDBRANCH   4   7
ENDBRANCH   1   4
BRANCH   1  41
ATOM     41  O3P 5SV d   1      39.891  12.019 309.018  0.00  0.00    -0.290 OA
BRANCH  41  42
ATOM     42  P   5SV d   1      40.042  11.298 307.600  0.00  0.00     0.408 P 
ATOM     43  O2P 5SV d   1      38.925  10.448 307.220  0.00  0.00    -0.624 OA
ATOM     44  O1P 5SV d   1      41.461  10.635 307.820  0.00  0.00    -0.624 OA
BRANCH  42  45
ATOM     45  O5' 5SV d   1      40.400  12.454 306.558  0.00  0.00    -0.287 OA
BRANCH  45  46
ATOM     46  C5' 5SV d   1      41.284  13.534 306.708  0.00  0.00     0.058 C 
ATOM     47  H17 5SV d   1      42.285  13.232 306.364  0.00  0.00     0.079 H 
ATOM     48  H18 5SV d   1      41.331  13.818 307.770  0.00  0.00     0.079 H 
BRANCH  46  49
ATOM     49  C4' 5SV d   1      40.805  14.754 305.875  0.00  0.00     0.089 C 
ATOM     50  O4' 5SV d   1      39.482  15.127 306.256  0.00  0.00    -0.353 OA
ATOM     51  C1' 5SV d   1      39.333  16.532 306.369  0.00  0.00     0.139 C 
ATOM     52  C2' 5SV d   1      40.719  17.189 306.090  0.00  0.00     0.105 C 
ATOM     53  H24 5SV d   1      38.597  16.898 305.638  0.00  0.00     0.122 H 
ATOM     54  C3' 5SV d   1      41.718  15.985 306.065  0.00  0.00     0.091 C 
ATOM     55  H22 5SV d   1      40.985  17.933 306.855  0.00  0.00     0.093 H 
ATOM     56  H20 5SV d   1      42.292  15.944 307.002  0.00  0.00     0.091 H 
ATOM     57  H19 5SV d   1      40.809  14.470 304.812  0.00  0.00     0.090 H 
BRANCH  51  58
ATOM     58  N9  5SV d   1      38.862  16.827 307.739  0.00  0.00    -0.294 N 
ATOM     59  C4  5SV d   1      38.345  18.056 308.147  0.00  0.00     0.167 A 
ATOM     60  C5  5SV d   1      38.063  17.920 309.537  0.00  0.00     0.149 A 
ATOM     61  N3  5SV d   1      38.128  19.198 307.414  0.00  0.00    -0.222 NA
ATOM     62  C6  5SV d   1      37.534  19.064 310.208  0.00  0.00     0.155 A 
ATOM     63  N7  5SV d   1      38.386  16.622 309.985  0.00  0.00    -0.236 NA
ATOM     64  N1  5SV d   1      37.303  20.232 309.510  0.00  0.00    -0.222 NA
ATOM     65  C2  5SV d   1      37.613  20.203 308.179  0.00  0.00     0.091 A 
ATOM     66  H1  5SV d   1      37.418  21.127 307.646  0.00  0.00     0.146 H 
ATOM     67  C8  5SV d   1      38.856  15.998 308.896  0.00  0.00     0.071 A 
ATOM     68  H2  5SV d   1      39.198  14.964 308.896  0.00  0.00     0.144 H 
BRANCH  62  69
ATOM     69  N6  5SV d   1      37.260  19.046 311.536  0.00  0.00    -0.382 N 
ATOM     70  H25 5SV d   1      36.879  19.886 311.995  0.00  0.00     0.157 HD
ATOM     71  H26 5SV d   1      37.433  18.192 312.086  0.00  0.00     0.157 HD
ENDBRANCH  62  69
ENDBRANCH  51  58
BRANCH  52  72
ATOM     72  O2' 5SV d   1      40.692  17.755 304.823  0.00  0.00    -0.388 OA
ATOM     73  H23 5SV d   1      41.563  18.057 304.594  0.00  0.00     0.210 HD
ENDBRANCH  52  72
BRANCH  54  74
ATOM     74  O3' 5SV d   1      42.582  15.955 304.969  0.00  0.00    -0.390 OA
ATOM     75  H21 5SV d   1      43.180  16.691 305.019  0.00  0.00     0.210 HD
ENDBRANCH  54  74
ENDBRANCH  46  49
ENDBRANCH  45  46
ENDBRANCH  42  45
ENDBRANCH  41  42
ENDBRANCH   1  41
TORSDOF 21
