REMARK  20 active torsions:
REMARK  status: ('A' for Active; 'I' for Inactive)
REMARK    1  A    between atoms: C6_3  and  N6_29 
REMARK    2  A    between atoms: C9_8  and  C10_9 
REMARK    3  A    between atoms: O3P_30  and  C9_8 
REMARK    4  A    between atoms: C10_9  and  C11_10 
REMARK    5  A    between atoms: C11_10  and  C12_11 
REMARK    6  A    between atoms: C12_11  and  C13_12 
REMARK    7  A    between atoms: C13_12  and  C14_13 
REMARK    8  A    between atoms: C14_13  and  C15_14 
REMARK    9  A    between atoms: C15_14  and  C16_31 
REMARK   10  A    between atoms: O5'_18  and  P_16 
REMARK   11  A    between atoms: P_16  and  O3P_30 
REMARK   12  A    between atoms: C5'_19  and  O5'_18 
REMARK   13  A    between atoms: C4'_20  and  C5'_19 
REMARK   14  A    between atoms: C3'_22  and  O3'_23 
REMARK   15  A    between atoms: C2'_24  and  O2'_25 
REMARK   16  A    between atoms: C1'_26  and  N9_27 
REMARK   17  A    between atoms: C16_31  and  C17_32 
REMARK   18  A    between atoms: C17_32  and  C18_33 
REMARK   19  A    between atoms: C18_33  and  C19_34 
REMARK   20  A    between atoms: C19_34  and  C20_35 
ROOT
ATOM      1  C9  5SV d   1       7.708  -2.222  16.075  0.00  0.00     0.032 C 
ATOM      2  H3  5SV d   1       7.534  -1.894  17.111  0.00  0.00     0.075 H 
ATOM      3  H4  5SV d   1       6.926  -1.806  15.423  0.00  0.00     0.075 H 
ENDROOT
BRANCH   1   4
ATOM      4  C10 5SV d   1       7.657  -3.767  16.013  0.00  0.00    -0.045 C 
ATOM      5  H5  5SV d   1       8.534  -4.173  16.538  0.00  0.00     0.036 H 
ATOM      6  H6  5SV d   1       7.682  -4.082  14.959  0.00  0.00     0.036 H 
BRANCH   4   7
ATOM      7  C11 5SV d   1       6.385  -4.325  16.668  0.00  0.00    -0.063 C 
ATOM      8  H7  5SV d   1       5.530  -3.731  16.314  0.00  0.00     0.033 H 
ATOM      9  H8  5SV d   1       6.484  -4.211  17.758  0.00  0.00     0.033 H 
BRANCH   7  10
ATOM     10  C12 5SV d   1       6.096  -5.800  16.368  0.00  0.00    -0.065 C 
ATOM     11  H9  5SV d   1       6.886  -6.421  16.815  0.00  0.00     0.033 H 
ATOM     12  H10 5SV d   1       6.083  -5.951  15.278  0.00  0.00     0.033 H 
BRANCH  10  13
ATOM     13  C13 5SV d   1       4.736  -6.217  16.951  0.00  0.00    -0.065 C 
ATOM     14  H11 5SV d   1       4.457  -7.202  16.548  0.00  0.00     0.033 H 
ATOM     15  H12 5SV d   1       3.977  -5.474  16.664  0.00  0.00     0.033 H 
BRANCH  13  16
ATOM     16  C14 5SV d   1       4.806  -6.301  18.485  0.00  0.00    -0.065 C 
ATOM     17  H13 5SV d   1       5.753  -5.850  18.815  0.00  0.00     0.033 H 
ATOM     18  H14 5SV d   1       4.784  -7.361  18.777  0.00  0.00     0.033 H 
BRANCH  16  19
ATOM     19  C15 5SV d   1       3.651  -5.578  19.193  0.00  0.00    -0.065 C 
ATOM     20  H15 5SV d   1       3.723  -4.503  18.973  0.00  0.00     0.033 H 
ATOM     21  H16 5SV d   1       3.748  -5.738  20.277  0.00  0.00     0.033 H 
BRANCH  19  22
ATOM     22  C16 5SV d   1       2.276  -6.076  18.748  0.00  0.00    -0.065 C 
ATOM     23  H27 5SV d   1       2.307  -7.172  18.656  0.00  0.00     0.033 H 
ATOM     24  H28 5SV d   1       2.036  -5.632  17.771  0.00  0.00     0.033 H 
BRANCH  22  25
ATOM     25  C17 5SV d   1       1.180  -5.693  19.750  0.00  0.00    -0.065 C 
ATOM     26  H29 5SV d   1       0.196  -5.915  19.311  0.00  0.00     0.033 H 
ATOM     27  H30 5SV d   1       1.250  -4.617  19.967  0.00  0.00     0.033 H 
BRANCH  25  28
ATOM     28  C18 5SV d   1       1.337  -6.480  21.055  0.00  0.00    -0.065 C 
ATOM     29  H31 5SV d   1       2.297  -6.216  21.523  0.00  0.00     0.033 H 
ATOM     30  H32 5SV d   1       1.323  -7.557  20.831  0.00  0.00     0.033 H 
BRANCH  28  31
ATOM     31  C19 5SV d   1       0.196  -6.152  22.026  0.00  0.00    -0.069 C 
ATOM     32  H33 5SV d   1      -0.766  -6.379  21.543  0.00  0.00     0.032 H 
ATOM     33  H34 5SV d   1       0.235  -5.083  22.282  0.00  0.00     0.032 H 
BRANCH  31  34
ATOM     34  C20 5SV d   1       0.323  -6.977  23.302  0.00  0.00    -0.077 C 
ATOM     35  H35 5SV d   1      -0.503  -6.727  23.984  0.00  0.00     0.027 H 
ATOM     36  H36 5SV d   1       1.282  -6.751  23.791  0.00  0.00     0.027 H 
ATOM     37  H37 5SV d   1       0.281  -8.047  23.052  0.00  0.00     0.027 H 
ENDBRANCH  31  34
ENDBRANCH  28  31
ENDBRANCH  25  28
ENDBRANCH  22  25
ENDBRANCH  19  22
ENDBRANCH  16  19
ENDBRANCH  13  16
ENDBRANCH  10  13
ENDBRANCH   7  10
ENDBRANCH   4   7
ENDBRANCH   1   4
BRANCH   1  38
ATOM     38  O3P 5SV d   1       8.970  -1.756  15.644  0.00  0.00    -0.290 OA
BRANCH  38  39
ATOM     39  P   5SV d   1       9.418  -0.269  15.263  0.00  0.00     0.408 P 
ATOM     40  O2P 5SV d   1       8.256   0.185  14.299  0.00  0.00    -0.624 OA
ATOM     41  O1P 5SV d   1       9.793   0.649  16.352  0.00  0.00    -0.624 OA
BRANCH  39  42
ATOM     42  O5' 5SV d   1      10.547  -0.457  14.164  0.00  0.00    -0.287 OA
BRANCH  42  43
ATOM     43  C5' 5SV d   1      10.496  -1.126  12.959  0.00  0.00     0.058 C 
ATOM     44  H17 5SV d   1      10.230  -0.419  12.159  0.00  0.00     0.079 H 
ATOM     45  H18 5SV d   1       9.736  -1.920  13.014  0.00  0.00     0.079 H 
BRANCH  43  46
ATOM     46  C4' 5SV d   1      11.878  -1.757  12.650  0.00  0.00     0.089 C 
ATOM     47  O4' 5SV d   1      12.293  -2.522  13.765  0.00  0.00    -0.353 OA
ATOM     48  C1' 5SV d   1      13.075  -3.615  13.334  0.00  0.00     0.139 C 
ATOM     49  C2' 5SV d   1      13.050  -3.643  11.773  0.00  0.00     0.105 C 
ATOM     50  H24 5SV d   1      14.109  -3.514  13.694  0.00  0.00     0.122 H 
ATOM     51  C3' 5SV d   1      11.814  -2.746  11.473  0.00  0.00     0.091 C 
ATOM     52  H22 5SV d   1      12.956  -4.661  11.367  0.00  0.00     0.093 H 
ATOM     53  H20 5SV d   1      10.884  -3.332  11.442  0.00  0.00     0.091 H 
ATOM     54  H19 5SV d   1      12.604  -0.959  12.433  0.00  0.00     0.090 H 
BRANCH  48  55
ATOM     55  N9  5SV d   1      12.474  -4.847  13.864  0.00  0.00    -0.294 N 
ATOM     56  C4  5SV d   1      13.169  -6.045  14.013  0.00  0.00     0.167 A 
ATOM     57  C5  5SV d   1      12.232  -6.973  14.543  0.00  0.00     0.149 A 
ATOM     58  N3  5SV d   1      14.483  -6.326  13.713  0.00  0.00    -0.222 NA
ATOM     59  C6  5SV d   1      12.704  -8.294  14.786  0.00  0.00     0.155 A 
ATOM     60  N7  5SV d   1      10.977  -6.359  14.715  0.00  0.00    -0.236 NA
ATOM     61  N1  5SV d   1      14.013  -8.613  14.491  0.00  0.00    -0.222 NA
ATOM     62  C2  5SV d   1      14.789  -7.615  13.981  0.00  0.00     0.091 A 
ATOM     63  H1  5SV d   1      15.810  -7.899  13.755  0.00  0.00     0.146 H 
ATOM     64  C8  5SV d   1      11.151  -5.096  14.303  0.00  0.00     0.071 A 
ATOM     65  H2  5SV d   1      10.363  -4.345  14.306  0.00  0.00     0.144 H 
BRANCH  59  66
ATOM     66  N6  5SV d   1      11.913  -9.267  15.321  0.00  0.00    -0.382 N 
ATOM     67  H25 5SV d   1      12.294 -10.210  15.481  0.00  0.00     0.157 HD
ATOM     68  H26 5SV d   1      10.934  -9.059  15.565  0.00  0.00     0.157 HD
ENDBRANCH  59  66
ENDBRANCH  48  55
BRANCH  49  69
ATOM     69  O2' 5SV d   1      14.168  -3.002  11.276  0.00  0.00    -0.388 OA
ATOM     70  H23 5SV d   1      14.070  -2.878  10.339  0.00  0.00     0.210 HD
ENDBRANCH  49  69
BRANCH  51  71
ATOM     71  O3' 5SV d   1      11.947  -1.968  10.331  0.00  0.00    -0.390 OA
ATOM     72  H21 5SV d   1      11.915  -2.526   9.563  0.00  0.00     0.210 HD
ENDBRANCH  51  71
ENDBRANCH  43  46
ENDBRANCH  42  43
ENDBRANCH  39  42
ENDBRANCH  38  39
ENDBRANCH   1  38
TORSDOF 20
