REMARK  5 active torsions:
REMARK  status: ('A' for Active; 'I' for Inactive)
REMARK    1  A    between atoms: C20_1  and  C18_2 
REMARK    2  A    between atoms: C7_6  and  C1_7 
REMARK    3  A    between atoms: C6_16  and  C8_17 
REMARK    4  A    between atoms: C8_17  and  C9_18 
REMARK    5  A    between atoms: C8_17  and  N4_19 
ROOT
ATOM      1  C1  5SZ d   1      24.267  30.201  58.431  0.00  0.00     0.019 A 
ATOM      2  C2  5SZ d   1      24.139  28.887  58.903  0.00  0.00    -0.028 A 
ATOM      3  C3  5SZ d   1      23.144  28.035  58.424  0.00  0.00     0.165 A 
ATOM      4  F1  5SZ d   1      22.996  26.764  58.874  0.00  0.00    -0.202 F 
ATOM      5  C4  5SZ d   1      23.392  30.654  57.439  0.00  0.00     0.001 A 
ATOM      6  N1  5SZ d   1      22.404  29.785  56.976  0.00  0.00    -0.286 N 
ATOM      7  C5  5SZ d   1      22.274  28.489  57.442  0.00  0.00     0.196 A 
ATOM      8  N2  5SZ d   1      21.248  27.931  56.794  0.00  0.00    -0.127 NA
ATOM      9  N3  5SZ d   1      20.737  28.738  55.983  0.00  0.00    -0.132 NA
ATOM     10  C6  5SZ d   1      21.403  29.891  56.041  0.00  0.00     0.157 A 
ATOM     11  H5  5SZ d   1      24.832  28.523  59.660  0.00  0.00     0.089 H 
ATOM     12  H6  5SZ d   1      23.480  31.662  57.037  0.00  0.00     0.113 H 
ENDROOT
BRANCH  10  13
ATOM     13  C8  5SZ d   1      21.137  31.154  55.243  0.00  0.00     0.075 C 
ATOM     14  H7  5SZ d   1      22.079  31.604  54.895  0.00  0.00     0.085 H 
BRANCH  13  15
ATOM     15  C9  5SZ d   1      20.255  30.773  54.029  0.00  0.00    -0.050 C 
ATOM     16  H8  5SZ d   1      20.808  30.082  53.376  0.00  0.00     0.030 H 
ATOM     17  H9  5SZ d   1      19.995  31.681  53.465  0.00  0.00     0.030 H 
ATOM     18  H10 5SZ d   1      19.335  30.285  54.383  0.00  0.00     0.030 H 
ENDBRANCH  13  15
BRANCH  13  19
ATOM     19  N4  5SZ d   1      20.433  32.085  56.152  0.00  0.00    -0.312 N 
ATOM     20  C10 5SZ d   1      19.117  31.769  56.561  0.00  0.00    -0.014 A 
ATOM     21  C11 5SZ d   1      18.413  32.605  57.416  0.00  0.00    -0.039 A 
ATOM     22  H11 5SZ d   1      18.648  30.855  56.199  0.00  0.00     0.111 H 
ATOM     23  C14 5SZ d   1      19.002  33.768  57.879  0.00  0.00     0.073 A 
ATOM     24  H12 5SZ d   1      17.400  32.346  57.721  0.00  0.00     0.089 H 
ATOM     25  N5  5SZ d   1      18.309  34.560  58.708  0.00  0.00    -0.260 NA
ATOM     26  C13 5SZ d   1      20.312  34.093  57.492  0.00  0.00     0.061 A 
ATOM     27  C15 5SZ d   1      18.839  35.684  59.175  0.00  0.00     0.003 A 
ATOM     28  C16 5SZ d   1      20.129  36.066  58.825  0.00  0.00    -0.065 A 
ATOM     29  H13 5SZ d   1      18.257  36.313  59.839  0.00  0.00     0.114 H 
ATOM     30  C17 5SZ d   1      20.879  35.260  57.972  0.00  0.00    -0.064 A 
ATOM     31  H14 5SZ d   1      20.549  36.986  59.214  0.00  0.00     0.085 H 
ATOM     32  H15 5SZ d   1      21.887  35.541  57.690  0.00  0.00     0.085 H 
ATOM     33  C12 5SZ d   1      21.032  33.255  56.632  0.00  0.00     0.260 A 
ATOM     34  O1  5SZ d   1      22.183  33.545  56.307  0.00  0.00    -0.267 OA
ENDBRANCH  13  19
ENDBRANCH  10  13
BRANCH   1  35
ATOM     35  C7  5SZ d   1      25.288  31.041  58.872  0.00  0.00     0.115 A 
ATOM     36  C19 5SZ d   1      26.284  30.779  59.733  0.00  0.00    -0.022 A 
ATOM     37  C18 5SZ d   1      27.050  31.874  59.801  0.00  0.00     0.061 A 
ATOM     38  H4  5SZ d   1      26.440  29.848  60.276  0.00  0.00     0.091 H 
ATOM     39  N6  5SZ d   1      26.609  32.829  58.983  0.00  0.00    -0.133 NA
ATOM     40  O2  5SZ d   1      25.459  32.311  58.352  0.00  0.00    -0.212 OA
BRANCH  37  41
ATOM     41  C20 5SZ d   1      28.289  32.028  60.682  0.00  0.00    -0.033 C 
ATOM     42  H1  5SZ d   1      28.443  31.106  61.262  0.00  0.00     0.035 H 
ATOM     43  H2  5SZ d   1      28.147  32.874  61.370  0.00  0.00     0.035 H 
ATOM     44  H3  5SZ d   1      29.169  32.214  60.048  0.00  0.00     0.035 H 
ENDBRANCH  37  41
ENDBRANCH   1  35
TORSDOF 5
