REMARK  10 active torsions:
REMARK  status: ('A' for Active; 'I' for Inactive)
REMARK    1  A    between atoms: C23_1  and  O3_2 
REMARK    2  A    between atoms: O3_2  and  C22_3 
REMARK    3  A    between atoms: C22_3  and  C21_4 
REMARK    4  A    between atoms: C21_4  and  O2_5 
REMARK    5  A    between atoms: O2_5  and  C19_6 
REMARK    6  A    between atoms: N6_16  and  C11_17 
REMARK    7  A    between atoms: C11_17  and  C17_18 
REMARK    8  A    between atoms: C11_17  and  C10_19 
REMARK    9  A    between atoms: C1_28  and  C6_29 
REMARK   10  A    between atoms: N3_33  and  C9_34 
ROOT
ATOM      1  C11 5T1 d   1      20.980  31.153  55.348  0.00  0.00     0.075 C 
ATOM      2  H12 5T1 d   1      21.918  31.628  55.023  0.00  0.00     0.085 H 
ENDROOT
BRANCH   1   3
ATOM      3  N6  5T1 d   1      20.244  32.038  56.274  0.00  0.00    -0.312 N 
ATOM      4  C16 5T1 d   1      20.817  33.188  56.791  0.00  0.00     0.260 A 
ATOM      5  C15 5T1 d   1      20.072  33.988  57.672  0.00  0.00     0.064 A 
ATOM      6  O1  5T1 d   1      21.974  33.485  56.488  0.00  0.00    -0.267 OA
ATOM      7  C20 5T1 d   1      20.618  35.143  58.212  0.00  0.00    -0.032 A 
ATOM      8  C14 5T1 d   1      18.759  33.643  58.018  0.00  0.00     0.073 A 
ATOM      9  C19 5T1 d   1      19.851  35.911  59.086  0.00  0.00     0.087 A 
ATOM     10  H8  5T1 d   1      21.628  35.444  57.958  0.00  0.00     0.089 H 
ATOM     11  C18 5T1 d   1      18.553  35.518  59.388  0.00  0.00     0.035 A 
ATOM     12  N7  5T1 d   1      18.043  34.410  58.859  0.00  0.00    -0.257 NA
ATOM     13  H9  5T1 d   1      17.951  36.119  60.060  0.00  0.00     0.119 H 
ATOM     14  C13 5T1 d   1      18.183  32.497  57.496  0.00  0.00    -0.039 A 
ATOM     15  C12 5T1 d   1      18.915  31.693  56.629  0.00  0.00    -0.014 A 
ATOM     16  H10 5T1 d   1      17.162  32.227  57.763  0.00  0.00     0.089 H 
ATOM     17  H11 5T1 d   1      18.464  30.791  56.219  0.00  0.00     0.111 H 
BRANCH   9  18
ATOM     18  O2  5T1 d   1      20.384  37.042  59.614  0.00  0.00    -0.348 OA
BRANCH  18  19
ATOM     19  C21 5T1 d   1      19.862  37.400  60.903  0.00  0.00     0.046 C 
ATOM     20  H6  5T1 d   1      19.012  38.088  60.785  0.00  0.00     0.078 H 
ATOM     21  H7  5T1 d   1      19.532  36.497  61.438  0.00  0.00     0.078 H 
BRANCH  19  22
ATOM     22  C22 5T1 d   1      20.975  38.081  61.676  0.00  0.00     0.039 C 
ATOM     23  H4  5T1 d   1      21.657  38.584  60.975  0.00  0.00     0.077 H 
ATOM     24  H5  5T1 d   1      20.545  38.822  62.366  0.00  0.00     0.077 H 
BRANCH  22  25
ATOM     25  O3  5T1 d   1      21.702  37.082  62.428  0.00  0.00    -0.394 OA
BRANCH  25  26
ATOM     26  C23 5T1 d   1      22.503  37.713  63.453  0.00  0.00     0.004 C 
ATOM     27  H1  5T1 d   1      23.050  36.943  64.017  0.00  0.00     0.066 H 
ATOM     28  H2  5T1 d   1      21.848  38.273  64.137  0.00  0.00     0.066 H 
ATOM     29  H3  5T1 d   1      23.220  38.403  62.985  0.00  0.00     0.066 H 
ENDBRANCH  25  26
ENDBRANCH  22  25
ENDBRANCH  19  22
ENDBRANCH  18  19
ENDBRANCH   9  18
ENDBRANCH   1   3
BRANCH   1  30
ATOM     30  C17 5T1 d   1      20.115  30.817  54.119  0.00  0.00    -0.050 C 
ATOM     31  H13 5T1 d   1      20.679  30.158  53.443  0.00  0.00     0.030 H 
ATOM     32  H14 5T1 d   1      19.851  31.745  53.591  0.00  0.00     0.030 H 
ATOM     33  H15 5T1 d   1      19.197  30.307  54.445  0.00  0.00     0.030 H 
ENDBRANCH   1  30
BRANCH   1  34
ATOM     34  C10 5T1 d   1      21.265  29.885  56.141  0.00  0.00     0.157 A 
ATOM     35  N1  5T1 d   1      22.247  29.791  57.097  0.00  0.00    -0.286 N 
ATOM     36  C5  5T1 d   1      23.214  30.667  57.574  0.00  0.00    -0.001 A 
ATOM     37  C4  5T1 d   1      22.136  28.500  57.554  0.00  0.00     0.196 A 
ATOM     38  C1  5T1 d   1      24.093  30.236  58.570  0.00  0.00    -0.004 A 
ATOM     39  H16 5T1 d   1      23.286  31.678  57.176  0.00  0.00     0.113 H 
ATOM     40  C2  5T1 d   1      23.978  28.924  59.053  0.00  0.00    -0.030 A 
ATOM     41  C3  5T1 d   1      23.008  28.063  58.546  0.00  0.00     0.165 A 
ATOM     42  H17 5T1 d   1      24.654  28.575  59.832  0.00  0.00     0.089 H 
ATOM     43  F1  5T1 d   1      22.878  26.805  58.995  0.00  0.00    -0.202 F 
ATOM     44  N4  5T1 d   1      21.131  27.927  56.892  0.00  0.00    -0.127 NA
ATOM     45  N5  5T1 d   1      20.622  28.726  56.079  0.00  0.00    -0.132 NA
BRANCH  38  46
ATOM     46  C6  5T1 d   1      25.069  31.122  59.026  0.00  0.00     0.012 A 
ATOM     47  C8  5T1 d   1      26.133  30.841  59.774  0.00  0.00     0.010 A 
ATOM     48  N3  5T1 d   1      26.787  31.997  59.922  0.00  0.00    -0.285 N 
ATOM     49  H18 5T1 d   1      26.413  29.870  60.181  0.00  0.00     0.115 H 
ATOM     50  N2  5T1 d   1      26.231  32.926  59.322  0.00  0.00    -0.185 NA
ATOM     51  C7  5T1 d   1      25.147  32.428  58.728  0.00  0.00     0.034 A 
ATOM     52  H19 5T1 d   1      24.446  32.985  58.108  0.00  0.00     0.118 H 
BRANCH  48  53
ATOM     53  C9  5T1 d   1      28.032  32.165  60.706  0.00  0.00     0.002 C 
ATOM     54  H20 5T1 d   1      28.355  33.215  60.661  0.00  0.00     0.059 H 
ATOM     55  H21 5T1 d   1      28.819  31.521  60.287  0.00  0.00     0.059 H 
ATOM     56  H22 5T1 d   1      27.847  31.883  61.753  0.00  0.00     0.059 H 
ENDBRANCH  48  53
ENDBRANCH  38  46
ENDBRANCH   1  34
TORSDOF 10
