REMARK  13 active torsions:
REMARK  status: ('A' for Active; 'I' for Inactive)
REMARK    1  A    between atoms: C11_26  and  N12_5 
REMARK    2  A    between atoms: N12_5  and  C19_30 
REMARK    3  A    between atoms: C11_26  and  C13_6 
REMARK    4  A    between atoms: C22_11  and  C30_32 
REMARK    5  A    between atoms: C26_13  and  C27_15 
REMARK    6  A    between atoms: C25_19  and  C26_13 
REMARK       I    between atoms: C27_15  and  N29_16 
REMARK    7  A    between atoms: N29_16  and  C35_17 
REMARK    8  A    between atoms: C35_17  and  C34_18 
REMARK    9  A    between atoms: C2_20  and  C25_19 
REMARK   10  A    between atoms: C9_24  and  C11_26 
REMARK   11  A    between atoms: C30_32  and  N31_33 
REMARK   12  A    between atoms: N31_33  and  C33_34 
REMARK   13  A    between atoms: N31_33  and  C32_35 
ROOT
ATOM      1  C11 5U5 d   1      10.497   0.789   4.382  0.00  0.00     0.059 C 
ENDROOT
BRANCH   1   2
ATOM      2  N12 5U5 d   1      11.765   0.272   4.428  0.00  0.00    -0.355 N 
ATOM      3  H2  5U5 d   1      12.393   0.748   5.091  0.00  0.00     0.166 HD
BRANCH   2   4
ATOM      4  C19 5U5 d   1      12.356  -0.783   3.737  0.00  0.00     0.032 A 
ATOM      5  C20 5U5 d   1      13.639  -1.083   4.173  0.00  0.00    -0.057 A 
ATOM      6  C21 5U5 d   1      14.347  -2.110   3.597  0.00  0.00    -0.073 A 
ATOM      7  H5  5U5 d   1      14.085  -0.503   4.973  0.00  0.00     0.086 H 
ATOM      8  C22 5U5 d   1      13.788  -2.781   2.500  0.00  0.00    -0.033 A 
ATOM      9  H6  5U5 d   1      15.319  -2.396   3.983  0.00  0.00     0.084 H 
ATOM     10  C23 5U5 d   1      12.509  -2.466   2.025  0.00  0.00    -0.073 A 
ATOM     11  C24 5U5 d   1      11.783  -1.455   2.625  0.00  0.00    -0.057 A 
ATOM     12  H20 5U5 d   1      12.090  -3.014   1.189  0.00  0.00     0.084 H 
ATOM     13  H7  5U5 d   1      10.801  -1.182   2.256  0.00  0.00     0.086 H 
BRANCH   8  14
ATOM     14  C30 5U5 d   1      14.591  -3.871   1.820  0.00  0.00     0.106 C 
ATOM     15  H21 5U5 d   1      15.647  -3.563   1.795  0.00  0.00     0.083 H 
ATOM     16  H22 5U5 d   1      14.219  -3.989   0.791  0.00  0.00     0.083 H 
BRANCH  14  17
ATOM     17  N31 5U5 d   1      14.500  -5.165   2.498  0.00  0.00    -0.075 N 
ATOM     18  H23 5U5 d   1      13.563  -5.285   2.849  0.00  0.00     0.279 HD
BRANCH  17  19
ATOM     19  C33 5U5 d   1      14.785  -6.231   1.509  0.00  0.00     0.066 C 
ATOM     20  H24 5U5 d   1      14.721  -7.213   2.000  0.00  0.00     0.068 H 
ATOM     21  H25 5U5 d   1      15.796  -6.091   1.100  0.00  0.00     0.068 H 
ATOM     22  H26 5U5 d   1      14.049  -6.181   0.693  0.00  0.00     0.068 H 
ENDBRANCH  17  19
BRANCH  17  23
ATOM     23  C32 5U5 d   1      15.445  -5.237   3.645  0.00  0.00     0.066 C 
ATOM     24  H27 5U5 d   1      15.212  -4.437   4.363  0.00  0.00     0.068 H 
ATOM     25  H28 5U5 d   1      16.475  -5.114   3.280  0.00  0.00     0.068 H 
ATOM     26  H29 5U5 d   1      15.346  -6.214   4.141  0.00  0.00     0.068 H 
ENDBRANCH  17  23
ENDBRANCH  14  17
ENDBRANCH   8  14
ENDBRANCH   2   4
ENDBRANCH   1   2
BRANCH   1  27
ATOM     27  C13 5U5 d   1       9.355   0.171   3.685  0.00  0.00    -0.008 A 
ATOM     28  C18 5U5 d   1       8.865   0.898   2.530  0.00  0.00    -0.071 A 
ATOM     29  C17 5U5 d   1       7.797   0.442   1.788  0.00  0.00    -0.082 A 
ATOM     30  H17 5U5 d   1       9.351   1.823   2.243  0.00  0.00     0.084 H 
ATOM     31  C16 5U5 d   1       7.173  -0.777   2.135  0.00  0.00    -0.083 A 
ATOM     32  H4  5U5 d   1       7.437   1.016   0.942  0.00  0.00     0.083 H 
ATOM     33  C15 5U5 d   1       7.659  -1.518   3.222  0.00  0.00    -0.082 A 
ATOM     34  H18 5U5 d   1       6.324  -1.137   1.565  0.00  0.00     0.083 H 
ATOM     35  C14 5U5 d   1       8.741  -1.091   4.017  0.00  0.00    -0.071 A 
ATOM     36  H3  5U5 d   1       7.181  -2.461   3.461  0.00  0.00     0.083 H 
ATOM     37  H19 5U5 d   1       9.099  -1.689   4.847  0.00  0.00     0.084 H 
ENDBRANCH   1  27
BRANCH   1  38
ATOM     38  C9  5U5 d   1      10.349   1.989   5.091  0.00  0.00     0.072 A 
ATOM     39  C5  5U5 d   1       9.138   2.782   5.311  0.00  0.00     0.009 A 
ATOM     40  C4  5U5 d   1       7.760   2.563   5.042  0.00  0.00    -0.068 A 
ATOM     41  C6  5U5 d   1       9.540   3.901   6.072  0.00  0.00     0.047 A 
ATOM     42  C1  5U5 d   1       6.828   3.507   5.408  0.00  0.00    -0.064 A 
ATOM     43  H1  5U5 d   1       7.443   1.652   4.548  0.00  0.00     0.085 H 
ATOM     44  C2  5U5 d   1       7.219   4.650   6.169  0.00  0.00     0.020 A 
ATOM     45  H16 5U5 d   1       5.791   3.382   5.117  0.00  0.00     0.085 H 
ATOM     46  C3  5U5 d   1       8.581   4.855   6.467  0.00  0.00    -0.038 A 
ATOM     47  H14 5U5 d   1       8.891   5.747   7.000  0.00  0.00     0.089 H 
ATOM     48  N7  5U5 d   1      10.904   3.841   6.286  0.00  0.00    -0.322 N 
ATOM     49  C8  5U5 d   1      11.377   2.717   5.761  0.00  0.00     0.259 A 
ATOM     50  H15 5U5 d   1      11.448   4.533   6.760  0.00  0.00     0.169 HD
ATOM     51  O10 5U5 d   1      12.549   2.424   5.754  0.00  0.00    -0.267 OA
BRANCH  44  52
ATOM     52  C25 5U5 d   1       6.206   5.579   6.523  0.00  0.00    -0.057 C 
BRANCH  52  53
ATOM     53  C26 5U5 d   1       5.367   6.348   6.813  0.00  0.00    -0.000 C 
BRANCH  53  54
ATOM     54  C27 5U5 d   1       4.274   7.267   7.007  0.00  0.00     0.296 C 
ATOM     55  O28 5U5 d   1       3.373   7.290   6.171  0.00  0.00    -0.258 OA
ATOM     56  N29 5U5 d   1       4.184   8.094   8.048  0.00  0.00    -0.351 N 
ATOM     57  H8  5U5 d   1       4.896   8.110   8.751  0.00  0.00     0.163 HD
BRANCH  56  58
ATOM     58  C35 5U5 d   1       3.003   8.993   8.143  0.00  0.00    -0.007 C 
ATOM     59  H9  5U5 d   1       2.099   8.432   7.862  0.00  0.00     0.063 H 
ATOM     60  H10 5U5 d   1       3.138   9.839   7.454  0.00  0.00     0.063 H 
BRANCH  58  61
ATOM     61  C34 5U5 d   1       2.841   9.521   9.550  0.00  0.00    -0.061 C 
ATOM     62  H11 5U5 d   1       1.963  10.182   9.595  0.00  0.00     0.029 H 
ATOM     63  H12 5U5 d   1       3.740  10.086   9.835  0.00  0.00     0.029 H 
ATOM     64  H13 5U5 d   1       2.702   8.679  10.244  0.00  0.00     0.029 H 
ENDBRANCH  58  61
ENDBRANCH  56  58
ENDBRANCH  53  54
ENDBRANCH  52  53
ENDBRANCH  44  52
ENDBRANCH   1  38
TORSDOF 13
