REMARK  12 active torsions:
REMARK  status: ('A' for Active; 'I' for Inactive)
REMARK    1  A    between atoms: C11_26  and  N12_5 
REMARK    2  A    between atoms: N12_5  and  C19_30 
REMARK    3  A    between atoms: C11_26  and  C13_6 
REMARK    4  A    between atoms: C22_11  and  C30_32 
REMARK    5  A    between atoms: C26_13  and  C27_15 
REMARK       I    between atoms: C27_15  and  N29_16 
REMARK    6  A    between atoms: N29_16  and  C35_17 
REMARK    7  A    between atoms: C35_17  and  C34_18 
REMARK    8  A    between atoms: C2_20  and  C25_19 
REMARK    9  A    between atoms: C9_24  and  C11_26 
REMARK   10  A    between atoms: C30_32  and  N31_33 
REMARK   11  A    between atoms: N31_33  and  C33_34 
REMARK   12  A    between atoms: N31_33  and  C32_35 
ROOT
ATOM      1  C11 5U5 d   1     -66.081 -31.449  77.075  0.00  0.00     0.063 C 
ENDROOT
BRANCH   1   2
ATOM      2  N12 5U5 d   1     -67.260 -32.193  77.148  0.00  0.00    -0.252 NA
BRANCH   2   3
ATOM      3  C19 5U5 d   1     -68.646 -31.890  77.197  0.00  0.00     0.057 A 
ATOM      4  C20 5U5 d   1     -69.545 -32.951  77.247  0.00  0.00    -0.055 A 
ATOM      5  C21 5U5 d   1     -70.910 -32.739  77.281  0.00  0.00    -0.073 A 
ATOM      6  H4  5U5 d   1     -69.166 -33.967  77.260  0.00  0.00     0.087 H 
ATOM      7  C22 5U5 d   1     -71.407 -31.454  77.252  0.00  0.00    -0.033 A 
ATOM      8  H5  5U5 d   1     -71.589 -33.583  77.330  0.00  0.00     0.084 H 
ATOM      9  C23 5U5 d   1     -70.521 -30.381  77.189  0.00  0.00    -0.073 A 
ATOM     10  C24 5U5 d   1     -69.149 -30.594  77.154  0.00  0.00    -0.055 A 
ATOM     11  H20 5U5 d   1     -70.907 -29.368  77.167  0.00  0.00     0.084 H 
ATOM     12  H6  5U5 d   1     -68.471 -29.751  77.093  0.00  0.00     0.087 H 
BRANCH   7  13
ATOM     13  C30 5U5 d   1     -72.907 -31.285  77.298  0.00  0.00     0.106 C 
ATOM     14  H21 5U5 d   1     -73.300 -31.848  78.158  0.00  0.00     0.083 H 
ATOM     15  H22 5U5 d   1     -73.337 -31.688  76.369  0.00  0.00     0.083 H 
BRANCH  13  16
ATOM     16  N31 5U5 d   1     -73.308 -29.877  77.432  0.00  0.00    -0.075 N 
ATOM     17  H23 5U5 d   1     -72.598 -29.398  77.963  0.00  0.00     0.279 HD
BRANCH  16  18
ATOM     18  C33 5U5 d   1     -74.577 -29.800  78.173  0.00  0.00     0.066 C 
ATOM     19  H24 5U5 d   1     -74.879 -28.747  78.275  0.00  0.00     0.068 H 
ATOM     20  H25 5U5 d   1     -74.446 -30.242  79.172  0.00  0.00     0.068 H 
ATOM     21  H26 5U5 d   1     -75.355 -30.354  77.627  0.00  0.00     0.068 H 
ENDBRANCH  16  18
BRANCH  16  22
ATOM     22  C32 5U5 d   1     -73.432 -29.199  76.124  0.00  0.00     0.066 C 
ATOM     23  H27 5U5 d   1     -72.476 -29.266  75.584  0.00  0.00     0.068 H 
ATOM     24  H28 5U5 d   1     -73.690 -28.142  76.282  0.00  0.00     0.068 H 
ATOM     25  H29 5U5 d   1     -74.222 -29.685  75.532  0.00  0.00     0.068 H 
ENDBRANCH  16  22
ENDBRANCH  13  16
ENDBRANCH   7  13
ENDBRANCH   2   3
ENDBRANCH   1   2
BRANCH   1  26
ATOM     26  C13 5U5 d   1     -66.060 -29.972  77.078  0.00  0.00    -0.010 A 
ATOM     27  C18 5U5 d   1     -66.025 -29.275  75.885  0.00  0.00    -0.071 A 
ATOM     28  C17 5U5 d   1     -66.022 -27.889  75.887  0.00  0.00    -0.082 A 
ATOM     29  H17 5U5 d   1     -66.000 -29.814  74.945  0.00  0.00     0.084 H 
ATOM     30  C16 5U5 d   1     -66.058 -27.197  77.086  0.00  0.00    -0.083 A 
ATOM     31  H3  5U5 d   1     -65.991 -27.346  74.949  0.00  0.00     0.083 H 
ATOM     32  C15 5U5 d   1     -66.098 -27.891  78.281  0.00  0.00    -0.082 A 
ATOM     33  H18 5U5 d   1     -66.055 -26.113  77.088  0.00  0.00     0.083 H 
ATOM     34  C14 5U5 d   1     -66.098 -29.277  78.276  0.00  0.00    -0.071 A 
ATOM     35  H2  5U5 d   1     -66.129 -27.352  79.221  0.00  0.00     0.083 H 
ATOM     36  H19 5U5 d   1     -66.128 -29.820  79.214  0.00  0.00     0.084 H 
ENDBRANCH   1  26
BRANCH   1  37
ATOM     37  C9  5U5 d   1     -64.940 -32.177  77.014  0.00  0.00     0.094 A 
ATOM     38  C5  5U5 d   1     -63.540 -31.792  76.940  0.00  0.00    -0.012 A 
ATOM     39  C4  5U5 d   1     -62.933 -30.545  76.907  0.00  0.00    -0.072 A 
ATOM     40  C6  5U5 d   1     -62.780 -32.945  76.902  0.00  0.00     0.043 A 
ATOM     41  C1  5U5 d   1     -61.546 -30.496  76.831  0.00  0.00    -0.064 A 
ATOM     42  H1  5U5 d   1     -63.523 -29.636  76.939  0.00  0.00     0.084 H 
ATOM     43  C2  5U5 d   1     -60.774 -31.663  76.784  0.00  0.00     0.020 A 
ATOM     44  H16 5U5 d   1     -61.051 -29.532  76.808  0.00  0.00     0.085 H 
ATOM     45  C3  5U5 d   1     -61.393 -32.913  76.826  0.00  0.00    -0.038 A 
ATOM     46  H13 5U5 d   1     -60.812 -33.828  76.800  0.00  0.00     0.089 H 
ATOM     47  N7  5U5 d   1     -63.593 -34.097  76.943  0.00  0.00    -0.326 N 
ATOM     48  C8  5U5 d   1     -64.898 -33.636  77.007  0.00  0.00     0.236 A 
ATOM     49  H14 5U5 d   1     -63.290 -35.050  76.929  0.00  0.00     0.169 HD
ATOM     50  O10 5U5 d   1     -65.877 -34.348  77.060  0.00  0.00    -0.272 OA
ATOM     51  H15 5U5 d   1     -64.916 -32.128  78.113  0.00  0.00     0.072 H 
BRANCH  43  52
ATOM     52  C25 5U5 d   1     -59.354 -31.483  76.715  0.00  0.00    -0.057 C 
ATOM     53  C26 5U5 d   1     -58.158 -31.293  76.649  0.00  0.00    -0.000 C 
BRANCH  53  54
ATOM     54  C27 5U5 d   1     -56.752 -31.032  76.581  0.00  0.00     0.296 C 
ATOM     55  O28 5U5 d   1     -56.374 -29.931  76.232  0.00  0.00    -0.258 OA
ATOM     56  N29 5U5 d   1     -55.823 -31.995  76.918  0.00  0.00    -0.351 N 
ATOM     57  H7  5U5 d   1     -56.165 -32.887  77.213  0.00  0.00     0.163 HD
BRANCH  56  58
ATOM     58  C35 5U5 d   1     -54.366 -31.803  76.875  0.00  0.00    -0.007 C 
ATOM     59  H8  5U5 d   1     -53.878 -32.667  77.350  0.00  0.00     0.063 H 
ATOM     60  H9  5U5 d   1     -54.110 -30.887  77.428  0.00  0.00     0.063 H 
BRANCH  58  61
ATOM     61  C34 5U5 d   1     -53.862 -31.675  75.456  0.00  0.00    -0.061 C 
ATOM     62  H10 5U5 d   1     -52.771 -31.533  75.466  0.00  0.00     0.029 H 
ATOM     63  H11 5U5 d   1     -54.340 -30.810  74.974  0.00  0.00     0.029 H 
ATOM     64  H12 5U5 d   1     -54.108 -32.589  74.896  0.00  0.00     0.029 H 
ENDBRANCH  58  61
ENDBRANCH  56  58
ENDBRANCH  53  54
ENDBRANCH  43  52
ENDBRANCH   1  37
TORSDOF 12
