REMARK  28 active torsions:
REMARK  status: ('A' for Active; 'I' for Inactive)
REMARK    1  A    between atoms: N_1  and  CA_2 
REMARK    2  A    between atoms: CA_2  and  C_3 
REMARK       I    between atoms: C_3  and  N_5 
REMARK    3  A    between atoms: N_5  and  CA_6 
REMARK    4  A    between atoms: CA_6  and  C_7 
REMARK    5  A    between atoms: CA_6  and  CB_9 
REMARK       I    between atoms: C_7  and  N_16 
REMARK    6  A    between atoms: CB_9  and  CG_10 
REMARK    7  A    between atoms: CG_10  and  CD_11 
REMARK    8  A    between atoms: CD_11  and  NE_12 
REMARK       I    between atoms: NE_12  and  CZ_13 
REMARK       I    between atoms: CZ_13  and  NH1_14 
REMARK    9  A    between atoms: N_16  and  CA_17 
REMARK   10  A    between atoms: CA_17  and  C_18 
REMARK   11  A    between atoms: CA_17  and  CB_20 
REMARK       I    between atoms: C_18  and  N_25 
REMARK   12  A    between atoms: CB_20  and  CG_21 
REMARK   13  A    between atoms: CG_21  and  CD_22 
REMARK   14  A    between atoms: N_25  and  CA_26 
REMARK   15  A    between atoms: CA_26  and  C_27 
REMARK   16  A    between atoms: CA_26  and  CB_29 
REMARK       I    between atoms: C_27  and  N_32 
REMARK   17  A    between atoms: CB_29  and  OG1_30 
REMARK   18  A    between atoms: CB_29  and  CG2_31 
REMARK   19  A    between atoms: N_32  and  CA_33 
REMARK   20  A    between atoms: CA_33  and  C_34 
REMARK   21  A    between atoms: CA_33  and  CB_36 
REMARK       I    between atoms: C_34  and  N_41 
REMARK   22  A    between atoms: CB_36  and  CG_37 
REMARK   23  A    between atoms: CG_37  and  CD_38 
REMARK   24  A    between atoms: N_41  and  CA_42 
REMARK   25  A    between atoms: CA_42  and  C_43 
REMARK   26  A    between atoms: CA_42  and  CB_45 
REMARK   27  A    between atoms: CB_45  and  CG1_46 
REMARK   28  A    between atoms: CB_45  and  CG2_47 
ROOT
ATOM      1  C   GLU d   1      35.366 -33.674  -7.972  0.00  0.00     0.241 C 
ATOM      2  O   GLU d   1      35.915 -34.746  -7.706  0.00  0.00    -0.271 OA
ATOM      3  N   THR d   1      34.654 -33.470  -9.095  0.00  0.00    -0.344 N 
ATOM      4  H25 THR d   1      34.245 -32.570  -9.243  0.00  0.00     0.163 HD
ENDROOT
BRANCH   1   5
ATOM      5  CA  GLU d   1      35.471 -32.499  -6.995  0.00  0.00     0.090 C 
ATOM      6  H20 GLU d   1      34.766 -31.717  -7.313  0.00  0.00     0.087 H 
BRANCH   5   7
ATOM      7  N   GLU d   1      35.099 -32.945  -5.653  0.00  0.00    -0.346 N 
ATOM      8  C   ARG d   1      34.271 -32.281  -4.831  0.00  0.00     0.241 C 
ATOM      9  O   ARG d   1      33.744 -31.205  -5.121  0.00  0.00    -0.271 OA
ATOM     10  H19 GLU d   1      35.489 -33.805  -5.324  0.00  0.00     0.163 HD
BRANCH   8  11
ATOM     11  CA  ARG d   1      33.995 -32.932  -3.475  0.00  0.00     0.089 C 
ATOM     12  H7  ARG d   1      34.749 -33.718  -3.322  0.00  0.00     0.087 H 
BRANCH  11  13
ATOM     13  N   ARG d   1      34.110 -31.986  -2.361  0.00  0.00    -0.346 N 
ATOM     14  C   GLY d   1      35.257 -31.393  -1.973  0.00  0.00     0.243 C 
ATOM     15  O   GLY d   1      36.343 -31.589  -2.527  0.00  0.00    -0.272 OA
ATOM     16  H6  ARG d   1      33.278 -31.765  -1.852  0.00  0.00     0.163 HD
BRANCH  14  17
ATOM     17  CA  GLY d   1      35.164 -30.448  -0.794  0.00  0.00     0.152 C 
ATOM     18  H4  GLY d   1      36.161 -30.022  -0.607  0.00  0.00     0.090 H 
ATOM     19  H5  GLY d   1      34.461 -29.640  -1.047  0.00  0.00     0.090 H 
BRANCH  17  20
ATOM     20  N   GLY d   1      34.703 -31.100   0.423  0.00  0.00    -0.071 N 
ATOM     21  H1  GLY d   1      34.661 -30.425   1.171  0.00  0.00     0.274 HD
ATOM     22  H2  GLY d   1      35.343 -31.838   0.672  0.00  0.00     0.274 HD
ATOM     23  H3  GLY d   1      33.786 -31.488   0.269  0.00  0.00     0.274 HD
ENDBRANCH  17  20
ENDBRANCH  14  17
ENDBRANCH  11  13
BRANCH  11  24
ATOM     24  CB  ARG d   1      32.607 -33.598  -3.485  0.00  0.00    -0.036 C 
ATOM     25  H8  ARG d   1      32.404 -33.950  -4.507  0.00  0.00     0.036 H 
ATOM     26  H9  ARG d   1      31.862 -32.839  -3.204  0.00  0.00     0.036 H 
BRANCH  24  27
ATOM     27  CG  ARG d   1      32.457 -34.787  -2.534  0.00  0.00    -0.048 C 
ATOM     28  H10 ARG d   1      31.395 -34.883  -2.264  0.00  0.00     0.035 H 
ATOM     29  H11 ARG d   1      33.048 -34.584  -1.629  0.00  0.00     0.035 H 
BRANCH  27  30
ATOM     30  CD  ARG d   1      32.925 -36.116  -3.126  0.00  0.00     0.009 C 
ATOM     31  H12 ARG d   1      32.676 -36.921  -2.419  0.00  0.00     0.064 H 
ATOM     32  H13 ARG d   1      34.016 -36.073  -3.264  0.00  0.00     0.064 H 
BRANCH  30  33
ATOM     33  NE  ARG d   1      32.303 -36.422  -4.419  0.00  0.00    -0.227 N 
ATOM     34  CZ  ARG d   1      31.127 -37.025  -4.572  0.00  0.00     0.665 C 
ATOM     35  NH1 ARG d   1      30.417 -37.393  -3.512  0.00  0.00    -0.235 N 
ATOM     36  NH2 ARG d   1      30.650 -37.260  -5.786  0.00  0.00    -0.235 N 
ATOM     37  H15 ARG d   1      29.507 -37.859  -3.638  0.00  0.00     0.174 HD
ATOM     38  H16 ARG d   1      30.776 -37.212  -2.564  0.00  0.00     0.174 HD
ATOM     39  H17 ARG d   1      31.192 -36.979  -6.616  0.00  0.00     0.174 HD
ATOM     40  H18 ARG d   1      29.737 -37.724  -5.900  0.00  0.00     0.174 HD
ATOM     41  H14 ARG d   1      32.814 -36.150  -5.271  0.00  0.00     0.177 HD
ENDBRANCH  30  33
ENDBRANCH  27  30
ENDBRANCH  24  27
ENDBRANCH  11  24
ENDBRANCH   8  11
ENDBRANCH   5   7
BRANCH   5  42
ATOM     42  CB  GLU d   1      36.888 -31.899  -6.995  0.00  0.00    -0.029 C 
ATOM     43  H21 GLU d   1      37.609 -32.716  -6.844  0.00  0.00     0.037 H 
ATOM     44  H22 GLU d   1      36.961 -31.187  -6.160  0.00  0.00     0.037 H 
BRANCH  42  45
ATOM     45  CG  GLU d   1      37.256 -31.169  -8.279  0.00  0.00     0.018 C 
ATOM     46  H23 GLU d   1      36.611 -30.282  -8.360  0.00  0.00     0.049 H 
ATOM     47  H24 GLU d   1      37.056 -31.846  -9.122  0.00  0.00     0.049 H 
BRANCH  45  48
ATOM     48  CD  GLU d   1      38.697 -30.708  -8.384  0.00  0.00     0.172 C 
ATOM     49  OE1 GLU d   1      39.610 -31.507  -8.070  0.00  0.00    -0.648 OA
ATOM     50  OE2 GLU d   1      38.916 -29.559  -8.829  0.00  0.00    -0.648 OA
ENDBRANCH  45  48
ENDBRANCH  42  45
ENDBRANCH   5  42
ENDBRANCH   1   5
BRANCH   3  51
ATOM     51  CA  THR d   1      34.450 -34.505 -10.112  0.00  0.00     0.113 C 
ATOM     52  H26 THR d   1      35.071 -35.369  -9.834  0.00  0.00     0.091 H 
BRANCH  51  53
ATOM     53  C   THR d   1      34.918 -34.040 -11.494  0.00  0.00     0.243 C 
ATOM     54  O   THR d   1      34.551 -32.949 -11.934  0.00  0.00    -0.271 OA
ATOM     55  N   GLU d   1      35.711 -34.885 -12.175  0.00  0.00    -0.346 N 
ATOM     56  H32 GLU d   1      35.976 -35.741 -11.731  0.00  0.00     0.163 HD
BRANCH  55  57
ATOM     57  CA  GLU d   1      36.210 -34.628 -13.526  0.00  0.00     0.090 C 
ATOM     58  H33 GLU d   1      36.384 -33.549 -13.647  0.00  0.00     0.087 H 
BRANCH  57  59
ATOM     59  C   GLU d   1      35.144 -35.084 -14.523  0.00  0.00     0.241 C 
ATOM     60  O   GLU d   1      34.777 -36.262 -14.527  0.00  0.00    -0.271 OA
ATOM     61  N   VAL d   1      34.625 -34.150 -15.342  0.00  0.00    -0.344 N 
ATOM     62  H38 VAL d   1      34.953 -33.209 -15.257  0.00  0.00     0.163 HD
BRANCH  61  63
ATOM     63  CA  VAL d   1      33.599 -34.442 -16.356  0.00  0.00     0.099 C 
ATOM     64  H39 VAL d   1      33.473 -35.534 -16.329  0.00  0.00     0.090 H 
BRANCH  63  65
ATOM     65  C   VAL d   1      34.068 -34.120 -17.789  0.00  0.00     0.197 C 
ATOM     66  O   VAL d   1      33.383 -34.531 -18.751  0.00  0.00    -0.646 OA
ATOM     67  OXT VAL d   1      35.128 -33.476 -17.947  0.00  0.00    -0.646 OA
ENDBRANCH  63  65
BRANCH  63  68
ATOM     68  CB  VAL d   1      32.185 -33.864 -16.036  0.00  0.00    -0.032 C 
ATOM     69  H40 VAL d   1      31.543 -34.081 -16.902  0.00  0.00     0.042 H 
BRANCH  68  70
ATOM     70  CG1 VAL d   1      31.560 -34.550 -14.823  0.00  0.00    -0.071 C 
ATOM     71  H41 VAL d   1      30.567 -34.118 -14.628  0.00  0.00     0.028 H 
ATOM     72  H42 VAL d   1      32.204 -34.399 -13.944  0.00  0.00     0.028 H 
ATOM     73  H43 VAL d   1      31.458 -35.627 -15.023  0.00  0.00     0.028 H 
ENDBRANCH  68  70
BRANCH  68  74
ATOM     74  CG2 VAL d   1      32.209 -32.348 -15.859  0.00  0.00    -0.071 C 
ATOM     75  H44 VAL d   1      32.663 -31.883 -16.746  0.00  0.00     0.028 H 
ATOM     76  H45 VAL d   1      32.800 -32.092 -14.967  0.00  0.00     0.028 H 
ATOM     77  H46 VAL d   1      31.181 -31.977 -15.736  0.00  0.00     0.028 H 
ENDBRANCH  68  74
ENDBRANCH  63  68
ENDBRANCH  61  63
ENDBRANCH  57  59
BRANCH  57  78
ATOM     78  CB  GLU d   1      37.535 -35.376 -13.784  0.00  0.00    -0.029 C 
ATOM     79  H34 GLU d   1      37.795 -35.255 -14.846  0.00  0.00     0.037 H 
ATOM     80  H35 GLU d   1      37.374 -36.442 -13.565  0.00  0.00     0.037 H 
BRANCH  78  81
ATOM     81  CG  GLU d   1      38.713 -34.895 -12.952  0.00  0.00     0.018 C 
ATOM     82  H36 GLU d   1      38.496 -35.118 -11.897  0.00  0.00     0.049 H 
ATOM     83  H37 GLU d   1      38.801 -33.807 -13.086  0.00  0.00     0.049 H 
BRANCH  81  84
ATOM     84  CD  GLU d   1      40.053 -35.518 -13.296  0.00  0.00     0.172 C 
ATOM     85  OE1 GLU d   1      40.434 -35.504 -14.489  0.00  0.00    -0.648 OA
ATOM     86  OE2 GLU d   1      40.744 -35.983 -12.361  0.00  0.00    -0.648 OA
ENDBRANCH  81  84
ENDBRANCH  78  81
ENDBRANCH  57  78
ENDBRANCH  55  57
ENDBRANCH  51  53
BRANCH  51  87
ATOM     87  CB  THR d   1      32.981 -34.976 -10.117  0.00  0.00     0.060 C 
ATOM     88  H27 THR d   1      32.365 -34.169 -10.540  0.00  0.00     0.086 H 
BRANCH  87  89
ATOM     89  OG1 THR d   1      32.556 -35.223  -8.777  0.00  0.00    -0.393 OA
ATOM     90  H28 THR d   1      32.631 -34.423  -8.270  0.00  0.00     0.210 HD
ENDBRANCH  87  89
BRANCH  87  91
ATOM     91  CG2 THR d   1      32.761 -36.231 -10.959  0.00  0.00    -0.050 C 
ATOM     92  H29 THR d   1      31.699 -36.515 -10.923  0.00  0.00     0.031 H 
ATOM     93  H30 THR d   1      33.374 -37.052 -10.560  0.00  0.00     0.031 H 
ATOM     94  H31 THR d   1      33.051 -36.029 -12.001  0.00  0.00     0.031 H 
ENDBRANCH  87  91
ENDBRANCH  51  87
ENDBRANCH   3  51
TORSDOF 28
