REMARK  28 active torsions:
REMARK  status: ('A' for Active; 'I' for Inactive)
REMARK    1  A    between atoms: N_1  and  CA_2 
REMARK    2  A    between atoms: CA_2  and  C_3 
REMARK    3  A    between atoms: CA_2  and  CB_5 
REMARK       I    between atoms: C_3  and  N_7 
REMARK    4  A    between atoms: CB_5  and  OG_6 
REMARK    5  A    between atoms: N_7  and  CA_8 
REMARK    6  A    between atoms: CA_8  and  C_9 
REMARK    7  A    between atoms: CA_8  and  CB_11 
REMARK       I    between atoms: C_9  and  N_16 
REMARK    8  A    between atoms: CB_11  and  CG_12 
REMARK    9  A    between atoms: CG_12  and  CD_13 
REMARK   10  A    between atoms: CD_13  and  CE_14 
REMARK   11  A    between atoms: CE_14  and  NZ_15 
REMARK   12  A    between atoms: N_16  and  CA_17 
REMARK   13  A    between atoms: CA_17  and  C_18 
REMARK   14  A    between atoms: CA_17  and  CB_20 
REMARK       I    between atoms: C_18  and  N_25 
REMARK   15  A    between atoms: CB_20  and  CG_21 
REMARK   16  A    between atoms: CG_21  and  CD_22 
REMARK   17  A    between atoms: N_25  and  CA_26 
REMARK   18  A    between atoms: CA_26  and  C_27 
REMARK   19  A    between atoms: CA_26  and  CB_29 
REMARK       I    between atoms: C_27  and  N_32 
REMARK   20  A    between atoms: CB_29  and  OG1_30 
REMARK   21  A    between atoms: CB_29  and  CG2_31 
REMARK   22  A    between atoms: CA_33  and  C_34 
REMARK       I    between atoms: C_34  and  N_39 
REMARK   23  A    between atoms: N_39  and  CA_40 
REMARK   24  A    between atoms: CA_40  and  C_41 
REMARK   25  A    between atoms: CA_40  and  CB_43 
REMARK   26  A    between atoms: CB_43  and  CG_44 
REMARK   27  A    between atoms: CG_44  and  CD1_45 
REMARK   28  A    between atoms: CG_44  and  CD2_46 
ROOT
ATOM      1  C   GLU d   1       2.047  -5.691  22.484  0.00  0.00     0.241 C 
ATOM      2  O   GLU d   1       0.985  -5.400  21.927  0.00  0.00    -0.271 OA
ATOM      3  N   THR d   1       2.170  -6.735  23.328  0.00  0.00    -0.344 N 
ATOM      4  H27 THR d   1       3.060  -6.906  23.751  0.00  0.00     0.163 HD
ENDROOT
BRANCH   1   5
ATOM      5  CA  GLU d   1       3.303  -4.867  22.191  0.00  0.00     0.090 C 
ATOM      6  H22 GLU d   1       4.188  -5.439  22.507  0.00  0.00     0.087 H 
BRANCH   5   7
ATOM      7  N   GLU d   1       3.377  -4.634  20.747  0.00  0.00    -0.346 N 
ATOM      8  C   LYS d   1       4.468  -4.825  19.985  0.00  0.00     0.241 C 
ATOM      9  O   LYS d   1       5.553  -5.202  20.433  0.00  0.00    -0.271 OA
ATOM     10  H21 GLU d   1       2.549  -4.306  20.291  0.00  0.00     0.163 HD
BRANCH   8  11
ATOM     11  CA  LYS d   1       4.300  -4.558  18.489  0.00  0.00     0.089 C 
ATOM     12  H9  LYS d   1       3.404  -3.932  18.368  0.00  0.00     0.087 H 
BRANCH  11  13
ATOM     13  N   LYS d   1       5.423  -3.822  17.906  0.00  0.00    -0.346 N 
ATOM     14  C   SER d   1       5.654  -2.512  18.113  0.00  0.00     0.251 C 
ATOM     15  O   SER d   1       4.933  -1.805  18.823  0.00  0.00    -0.271 OA
ATOM     16  H8  LYS d   1       6.058  -4.323  17.318  0.00  0.00     0.163 HD
BRANCH  14  17
ATOM     17  CA  SER d   1       6.869  -1.910  17.386  0.00  0.00     0.195 C 
ATOM     18  H4  SER d   1       7.561  -2.732  17.148  0.00  0.00     0.102 H 
BRANCH  17  19
ATOM     19  N   SER d   1       6.462  -1.283  16.132  0.00  0.00    -0.064 N 
ATOM     20  H1  SER d   1       7.271  -0.895  15.672  0.00  0.00     0.275 HD
ATOM     21  H2  SER d   1       5.800  -0.547  16.323  0.00  0.00     0.275 HD
ATOM     22  H3  SER d   1       6.034  -1.973  15.535  0.00  0.00     0.275 HD
ENDBRANCH  17  19
BRANCH  17  23
ATOM     23  CB  SER d   1       7.614  -0.909  18.267  0.00  0.00     0.051 C 
ATOM     24  H5  SER d   1       6.911  -0.128  18.593  0.00  0.00     0.077 H 
ATOM     25  H6  SER d   1       8.425  -0.452  17.681  0.00  0.00     0.077 H 
BRANCH  23  26
ATOM     26  OG  SER d   1       8.170  -1.534  19.412  0.00  0.00    -0.398 OA
ATOM     27  H7  SER d   1       8.625  -0.885  19.936  0.00  0.00     0.209 HD
ENDBRANCH  23  26
ENDBRANCH  17  23
ENDBRANCH  14  17
ENDBRANCH  11  13
BRANCH  11  28
ATOM     28  CB  LYS d   1       4.057  -5.874  17.733  0.00  0.00    -0.038 C 
ATOM     29  H10 LYS d   1       4.390  -6.708  18.369  0.00  0.00     0.036 H 
ATOM     30  H11 LYS d   1       4.651  -5.859  16.807  0.00  0.00     0.036 H 
BRANCH  28  31
ATOM     31  CG  LYS d   1       2.597  -6.101  17.366  0.00  0.00    -0.061 C 
ATOM     32  H12 LYS d   1       2.387  -5.598  16.411  0.00  0.00     0.033 H 
ATOM     33  H13 LYS d   1       1.961  -5.672  18.154  0.00  0.00     0.033 H 
BRANCH  31  34
ATOM     34  CD  LYS d   1       2.274  -7.584  17.224  0.00  0.00    -0.043 C 
ATOM     35  H14 LYS d   1       1.560  -7.862  18.013  0.00  0.00     0.035 H 
ATOM     36  H15 LYS d   1       3.204  -8.157  17.353  0.00  0.00     0.035 H 
BRANCH  34  37
ATOM     37  CE  LYS d   1       1.673  -7.942  15.887  0.00  0.00     0.080 C 
ATOM     38  H16 LYS d   1       0.920  -7.185  15.622  0.00  0.00     0.075 H 
ATOM     39  H17 LYS d   1       1.190  -8.927  15.968  0.00  0.00     0.075 H 
BRANCH  37  40
ATOM     40  NZ  LYS d   1       2.698  -7.997  14.809  0.00  0.00    -0.079 N 
ATOM     41  H18 LYS d   1       2.255  -8.239  13.936  0.00  0.00     0.274 HD
ATOM     42  H19 LYS d   1       3.390  -8.693  15.039  0.00  0.00     0.274 HD
ATOM     43  H20 LYS d   1       3.143  -7.097  14.722  0.00  0.00     0.274 HD
ENDBRANCH  37  40
ENDBRANCH  34  37
ENDBRANCH  31  34
ENDBRANCH  28  31
ENDBRANCH  11  28
ENDBRANCH   8  11
ENDBRANCH   5   7
BRANCH   5  44
ATOM     44  CB  GLU d   1       3.282  -3.538  22.961  0.00  0.00    -0.029 C 
ATOM     45  H23 GLU d   1       2.252  -3.153  22.962  0.00  0.00     0.037 H 
ATOM     46  H24 GLU d   1       3.940  -2.825  22.442  0.00  0.00     0.037 H 
BRANCH  44  47
ATOM     47  CG  GLU d   1       3.750  -3.664  24.401  0.00  0.00     0.018 C 
ATOM     48  H25 GLU d   1       4.787  -4.032  24.389  0.00  0.00     0.049 H 
ATOM     49  H26 GLU d   1       3.105  -4.401  24.903  0.00  0.00     0.049 H 
BRANCH  47  50
ATOM     50  CD  GLU d   1       3.719  -2.385  25.216  0.00  0.00     0.172 C 
ATOM     51  OE1 GLU d   1       4.291  -1.368  24.761  0.00  0.00    -0.648 OA
ATOM     52  OE2 GLU d   1       3.162  -2.415  26.337  0.00  0.00    -0.648 OA
ENDBRANCH  47  50
ENDBRANCH  44  47
ENDBRANCH   5  44
ENDBRANCH   1   5
BRANCH   3  53
ATOM     53  CA  THR d   1       1.054  -7.631  23.653  0.00  0.00     0.114 C 
ATOM     54  H28 THR d   1       0.125  -7.106  23.385  0.00  0.00     0.091 H 
BRANCH  53  55
ATOM     55  C   THR d   1       0.967  -7.951  25.160  0.00  0.00     0.245 C 
ATOM     56  O   THR d   1       1.955  -8.418  25.732  0.00  0.00    -0.271 OA
ATOM     57  N   PRO d   1      -0.210  -7.758  25.811  0.00  0.00    -0.337 N 
ATOM     58  CA  PRO d   1      -0.321  -8.121  27.235  0.00  0.00     0.091 C 
ATOM     59  CD  PRO d   1      -1.488  -7.229  25.286  0.00  0.00    -0.001 C 
ATOM     60  CB  PRO d   1      -1.520  -7.305  27.722  0.00  0.00    -0.036 C 
ATOM     61  H34 PRO d   1       0.588  -7.820  27.776  0.00  0.00     0.087 H 
ATOM     62  CG  PRO d   1      -2.353  -7.079  26.512  0.00  0.00    -0.048 C 
ATOM     63  H35 PRO d   1      -1.188  -6.346  28.146  0.00  0.00     0.036 H 
ATOM     64  H36 PRO d   1      -2.086  -7.865  28.481  0.00  0.00     0.036 H 
ATOM     65  H37 PRO d   1      -2.779  -6.065  26.541  0.00  0.00     0.035 H 
ATOM     66  H38 PRO d   1      -3.167  -7.818  26.482  0.00  0.00     0.035 H 
ATOM     67  H39 PRO d   1      -1.940  -7.934  24.573  0.00  0.00     0.064 H 
ATOM     68  H40 PRO d   1      -1.336  -6.257  24.794  0.00  0.00     0.064 H 
BRANCH  58  69
ATOM     69  C   PRO d   1      -0.527  -9.624  27.430  0.00  0.00     0.241 C 
ATOM     70  O   PRO d   1      -1.159 -10.278  26.597  0.00  0.00    -0.271 OA
ATOM     71  N   LEU d   1       0.022 -10.173  28.525  0.00  0.00    -0.345 N 
ATOM     72  H41 LEU d   1       0.515  -9.573  29.155  0.00  0.00     0.163 HD
BRANCH  71  73
ATOM     73  CA  LEU d   1      -0.058 -11.600  28.853  0.00  0.00     0.096 C 
ATOM     74  H42 LEU d   1      -0.842 -12.042  28.220  0.00  0.00     0.089 H 
BRANCH  73  75
ATOM     75  C   LEU d   1      -0.442 -11.855  30.310  0.00  0.00     0.196 C 
ATOM     76  O   LEU d   1      -0.330 -10.926  31.138  0.00  0.00    -0.646 OA
ATOM     77  OXT LEU d   1      -0.838 -12.997  30.625  0.00  0.00    -0.646 OA
ENDBRANCH  73  75
BRANCH  73  78
ATOM     78  CB  LEU d   1       1.270 -12.302  28.527  0.00  0.00    -0.034 C 
ATOM     79  H43 LEU d   1       1.240 -13.305  28.978  0.00  0.00     0.037 H 
ATOM     80  H44 LEU d   1       2.081 -11.718  28.986  0.00  0.00     0.037 H 
BRANCH  78  81
ATOM     81  CG  LEU d   1       1.592 -12.465  27.050  0.00  0.00    -0.059 C 
ATOM     82  H45 LEU d   1       0.975 -11.747  26.490  0.00  0.00     0.038 H 
BRANCH  81  83
ATOM     83  CD1 LEU d   1       3.027 -12.143  26.782  0.00  0.00    -0.073 C 
ATOM     84  H46 LEU d   1       3.237 -12.268  25.709  0.00  0.00     0.028 H 
ATOM     85  H47 LEU d   1       3.670 -12.821  27.362  0.00  0.00     0.028 H 
ATOM     86  H48 LEU d   1       3.231 -11.103  27.077  0.00  0.00     0.028 H 
ENDBRANCH  81  83
BRANCH  81  87
ATOM     87  CD2 LEU d   1       1.243 -13.852  26.560  0.00  0.00    -0.073 C 
ATOM     88  H49 LEU d   1       0.183 -14.059  26.771  0.00  0.00     0.028 H 
ATOM     89  H50 LEU d   1       1.871 -14.592  27.077  0.00  0.00     0.028 H 
ATOM     90  H51 LEU d   1       1.420 -13.913  25.476  0.00  0.00     0.028 H 
ENDBRANCH  81  87
ENDBRANCH  78  81
ENDBRANCH  73  78
ENDBRANCH  71  73
ENDBRANCH  58  69
ENDBRANCH  53  55
BRANCH  53  91
ATOM     91  CB  THR d   1       1.129  -8.911  22.782  0.00  0.00     0.060 C 
ATOM     92  H29 THR d   1       2.032  -9.465  23.077  0.00  0.00     0.086 H 
BRANCH  91  93
ATOM     93  OG1 THR d   1       1.247  -8.554  21.403  0.00  0.00    -0.393 OA
ATOM     94  H30 THR d   1       2.037  -8.041  21.276  0.00  0.00     0.210 HD
ENDBRANCH  91  93
BRANCH  91  95
ATOM     95  CG2 THR d   1      -0.071  -9.839  22.969  0.00  0.00    -0.050 C 
ATOM     96  H31 THR d   1       0.045 -10.723  22.325  0.00  0.00     0.031 H 
ATOM     97  H32 THR d   1      -0.993  -9.305  22.696  0.00  0.00     0.031 H 
ATOM     98  H33 THR d   1      -0.129 -10.156  24.021  0.00  0.00     0.031 H 
ENDBRANCH  91  95
ENDBRANCH  53  91
ENDBRANCH   3  53
TORSDOF 28
