REMARK  3 active torsions:
REMARK  status: ('A' for Active; 'I' for Inactive)
REMARK    1  A    between atoms: N2_18  and  C3_3 
REMARK    2  A    between atoms: C9_8  and  C6_6 
REMARK    3  A    between atoms: N3_16  and  C9_8 
REMARK       I    between atoms: N4_13  and  C10_9 
REMARK       I    between atoms: C10_9  and  N3_16 
ROOT
ATOM      1  C4  5T4 d   1      26.509   8.232  -4.144  0.00  0.00     0.012 C 
ATOM      2  C5  5T4 d   1      26.473   9.231  -2.971  0.00  0.00    -0.045 C 
ATOM      3  C6  5T4 d   1      27.197  10.574  -3.344  0.00  0.00    -0.036 C 
ATOM      4  C8  5T4 d   1      28.558   9.475  -5.191  0.00  0.00     0.012 C 
ATOM      5  C7  5T4 d   1      28.641  10.370  -3.935  0.00  0.00    -0.045 C 
ATOM      6  N2  5T4 d   1      27.878   8.277  -4.698  0.00  0.00    -0.214 N 
ATOM      7  H3  5T4 d   1      25.779   8.524  -4.913  0.00  0.00     0.065 H 
ATOM      8  H4  5T4 d   1      26.278   7.218  -3.786  0.00  0.00     0.065 H 
ATOM      9  H5  5T4 d   1      26.976   8.782  -2.102  0.00  0.00     0.036 H 
ATOM     10  H6  5T4 d   1      25.425   9.447  -2.716  0.00  0.00     0.036 H 
ATOM     11  H7  5T4 d   1      26.608  11.072  -4.128  0.00  0.00     0.042 H 
ATOM     12  H8  5T4 d   1      29.562   9.232  -5.570  0.00  0.00     0.065 H 
ATOM     13  H9  5T4 d   1      27.974   9.962  -5.986  0.00  0.00     0.065 H 
ATOM     14  H21 5T4 d   1      29.281   9.887  -3.182  0.00  0.00     0.036 H 
ATOM     15  H22 5T4 d   1      29.068  11.347  -4.207  0.00  0.00     0.036 H 
ENDROOT
BRANCH   3  16
ATOM     16  C9  5T4 d   1      27.145  11.446  -2.096  0.00  0.00     0.000 C 
ATOM     17  H10 5T4 d   1      27.734  10.952  -1.309  0.00  0.00     0.064 H 
ATOM     18  H11 5T4 d   1      26.096  11.522  -1.776  0.00  0.00     0.064 H 
BRANCH  16  19
ATOM     19  N3  5T4 d   1      27.667  12.802  -2.271  0.00  0.00    -0.343 N 
ATOM     20  C10 5T4 d   1      27.917  13.609  -1.230  0.00  0.00     0.318 C 
ATOM     21  O   5T4 d   1      27.671  13.193  -0.067  0.00  0.00    -0.247 OA
ATOM     22  N4  5T4 d   1      28.553  14.780  -1.481  0.00  0.00    -0.334 N 
ATOM     23  C14 5T4 d   1      29.060  15.715  -0.464  0.00  0.00    -0.001 C 
ATOM     24  C11 5T4 d   1      28.965  15.215  -2.779  0.00  0.00    -0.001 C 
ATOM     25  C13 5T4 d   1      30.010  16.646  -1.171  0.00  0.00    -0.049 C 
ATOM     26  H14 5T4 d   1      28.228  16.284  -0.024  0.00  0.00     0.064 H 
ATOM     27  H15 5T4 d   1      29.588  15.164   0.329  0.00  0.00     0.064 H 
ATOM     28  C12 5T4 d   1      29.527  16.617  -2.620  0.00  0.00    -0.049 C 
ATOM     29  H12 5T4 d   1      31.046  16.283  -1.095  0.00  0.00     0.035 H 
ATOM     30  H13 5T4 d   1      29.946  17.663  -0.756  0.00  0.00     0.035 H 
ATOM     31  H16 5T4 d   1      30.362  16.787  -3.316  0.00  0.00     0.035 H 
ATOM     32  H17 5T4 d   1      28.748  17.374  -2.790  0.00  0.00     0.035 H 
ATOM     33  H18 5T4 d   1      28.104  15.229  -3.464  0.00  0.00     0.064 H 
ATOM     34  H19 5T4 d   1      29.738  14.541  -3.175  0.00  0.00     0.064 H 
ATOM     35  H20 5T4 d   1      27.843  13.137  -3.197  0.00  0.00     0.164 HD
ENDBRANCH  16  19
ENDBRANCH   3  16
BRANCH   6  36
ATOM     36  C3  5T4 d   1      28.661   7.037  -4.674  0.00  0.00     0.724 A 
ATOM     37  N1  5T4 d   1      29.852   6.976  -5.339  0.00  0.00    -0.075 NA
ATOM     38  C   5T4 d   1      30.562   5.791  -5.294  0.00  0.00     0.022 A 
ATOM     39  C1  5T4 d   1      29.980   4.712  -4.579  0.00  0.00    -0.048 A 
ATOM     40  H23 5T4 d   1      31.523   5.690  -5.784  0.00  0.00     0.115 H 
ATOM     41  C2  5T4 d   1      28.737   4.803  -3.954  0.00  0.00     0.022 A 
ATOM     42  H1  5T4 d   1      30.525   3.777  -4.516  0.00  0.00     0.087 H 
ATOM     43  N   5T4 d   1      28.103   5.999  -4.022  0.00  0.00    -0.075 NA
ATOM     44  H2  5T4 d   1      28.298   3.957  -3.438  0.00  0.00     0.115 H 
ENDBRANCH   6  36
TORSDOF 3
