REMARK  3 active torsions:
REMARK  status: ('A' for Active; 'I' for Inactive)
REMARK       I    between atoms: C11_2  and  N3_3 
REMARK       I    between atoms: C11_2  and  N2_8 
REMARK    1  A    between atoms: N2_8  and  C10_9 
REMARK    2  A    between atoms: C10_9  and  C7_10 
REMARK    3  A    between atoms: N1_15  and  C3_16 
ROOT
ATOM      1  C7  841 d   1      22.627  33.739   0.783  0.00  0.00    -0.036 C 
ATOM      2  C6  841 d   1      23.330  34.244   2.046  0.00  0.00    -0.045 C 
ATOM      3  C5  841 d   1      23.984  35.595   1.749  0.00  0.00    -0.003 C 
ATOM      4  C8  841 d   1      21.638  34.798   0.284  0.00  0.00    -0.045 C 
ATOM      5  C9  841 d   1      22.384  36.146   0.011  0.00  0.00    -0.003 C 
ATOM      6  N1  841 d   1      22.866  36.428   1.370  0.00  0.00    -0.366 N 
ATOM      7  H12 841 d   1      23.366  33.542  -0.008  0.00  0.00     0.042 H 
ATOM      8  H13 841 d   1      24.101  33.521   2.353  0.00  0.00     0.036 H 
ATOM      9  H14 841 d   1      22.594  34.361   2.855  0.00  0.00     0.036 H 
ATOM     10  H15 841 d   1      24.709  35.510   0.926  0.00  0.00     0.064 H 
ATOM     11  H16 841 d   1      24.488  35.994   2.642  0.00  0.00     0.064 H 
ATOM     12  H17 841 d   1      20.863  34.960   1.047  0.00  0.00     0.036 H 
ATOM     13  H18 841 d   1      21.169  34.447  -0.647  0.00  0.00     0.036 H 
ATOM     14  H19 841 d   1      21.701  36.928  -0.354  0.00  0.00     0.064 H 
ATOM     15  H20 841 d   1      23.212  36.021  -0.702  0.00  0.00     0.064 H 
ENDROOT
BRANCH   1  16
ATOM     16  C10 841 d   1      21.922  32.402   1.184  0.00  0.00     0.000 C 
ATOM     17  H10 841 d   1      22.630  31.573   1.033  0.00  0.00     0.064 H 
ATOM     18  H11 841 d   1      21.644  32.457   2.247  0.00  0.00     0.064 H 
BRANCH  16  19
ATOM     19  N2  841 d   1      20.691  32.129   0.383  0.00  0.00    -0.343 N 
ATOM     20  C11 841 d   1      20.730  31.817  -0.943  0.00  0.00     0.318 C 
ATOM     21  O   841 d   1      21.818  31.544  -1.503  0.00  0.00    -0.247 OA
ATOM     22  N3  841 d   1      19.620  31.776  -1.647  0.00  0.00    -0.334 N 
ATOM     23  C15 841 d   1      19.672  31.363  -3.096  0.00  0.00    -0.001 C 
ATOM     24  C12 841 d   1      18.323  32.183  -1.114  0.00  0.00    -0.001 C 
ATOM     25  C14 841 d   1      18.291  31.901  -3.460  0.00  0.00    -0.049 C 
ATOM     26  H1  841 d   1      19.752  30.274  -3.225  0.00  0.00     0.064 H 
ATOM     27  H2  841 d   1      20.482  31.859  -3.651  0.00  0.00     0.064 H 
ATOM     28  C13 841 d   1      17.388  31.841  -2.246  0.00  0.00    -0.049 C 
ATOM     29  H3  841 d   1      17.861  31.290  -4.267  0.00  0.00     0.035 H 
ATOM     30  H4  841 d   1      18.381  32.944  -3.798  0.00  0.00     0.035 H 
ATOM     31  H5  841 d   1      16.963  30.834  -2.118  0.00  0.00     0.035 H 
ATOM     32  H6  841 d   1      16.573  32.576  -2.322  0.00  0.00     0.035 H 
ATOM     33  H7  841 d   1      18.303  33.260  -0.893  0.00  0.00     0.064 H 
ATOM     34  H8  841 d   1      18.071  31.618  -0.205  0.00  0.00     0.064 H 
ATOM     35  H9  841 d   1      19.802  32.177   0.838  0.00  0.00     0.164 HD
ENDBRANCH  16  19
ENDBRANCH   1  16
BRANCH   6  36
ATOM     36  C3  841 d   1      22.068  37.145   2.296  0.00  0.00     0.125 A 
ATOM     37  C4  841 d   1      22.443  37.307   3.647  0.00  0.00    -0.039 A 
ATOM     38  C   841 d   1      21.593  37.992   4.558  0.00  0.00    -0.078 A 
ATOM     39  H21 841 d   1      23.388  36.905   3.994  0.00  0.00     0.089 H 
ATOM     40  C1  841 d   1      20.336  38.480   4.081  0.00  0.00    -0.066 A 
ATOM     41  H22 841 d   1      21.891  38.141   5.590  0.00  0.00     0.083 H 
ATOM     42  C2  841 d   1      19.992  38.248   2.692  0.00  0.00     0.004 A 
ATOM     43  H24 841 d   1      19.658  39.010   4.741  0.00  0.00     0.085 H 
ATOM     44  N   841 d   1      20.864  37.610   1.854  0.00  0.00    -0.244 NA
ATOM     45  H23 841 d   1      19.033  38.584   2.314  0.00  0.00     0.114 H 
ENDBRANCH   6  36
TORSDOF 3
