REMARK  7 active torsions:
REMARK  status: ('A' for Active; 'I' for Inactive)
REMARK    1  A    between atoms: C6_2  and  C8_4 
REMARK    2  A    between atoms: C2_14  and  C6_2 
REMARK    3  A    between atoms: C7_3  and  N17_19 
REMARK    4  A    between atoms: C21_6  and  O16_25 
REMARK    5  A    between atoms: C3_16  and  C1_15 
REMARK    6  A    between atoms: C11_21  and  C3_16 
REMARK    7  A    between atoms: O16_25  and  C12_26 
ROOT
ATOM      1  C7  5T5 d   1     -15.947  40.269  91.775  0.00  0.00     0.213 A 
ATOM      2  C3  5T5 d   1     -17.536  39.529  93.223  0.00  0.00     0.087 A 
ATOM      3  C9  5T5 d   1     -17.138  40.940  93.679  0.00  0.00     0.057 A 
ATOM      4  O10 5T5 d   1     -16.183  41.352  92.692  0.00  0.00    -0.320 OA
ATOM      5  N5  5T5 d   1     -16.745  39.312  92.001  0.00  0.00    -0.341 N 
ATOM      6  H9  5T5 d   1     -16.683  40.916  94.680  0.00  0.00     0.079 H 
ATOM      7  H10 5T5 d   1     -18.009  41.611  93.688  0.00  0.00     0.079 H 
ATOM      8  H13 5T5 d   1     -16.830  38.480  91.400  0.00  0.00     0.164 HD
ENDROOT
BRANCH   2   9
ATOM      9  C1  5T5 d   1     -19.056  39.420  93.071  0.00  0.00    -0.012 A 
ATOM     10  C4  5T5 d   1     -19.537  38.257  92.206  0.00  0.00    -0.048 A 
ATOM     11  C2  5T5 d   1     -19.555  39.673  91.661  0.00  0.00     0.015 A 
ATOM     12  H1  5T5 d   1     -18.814  37.526  91.815  0.00  0.00     0.034 H 
ATOM     13  H2  5T5 d   1     -20.482  37.747  92.445  0.00  0.00     0.034 H 
ATOM     14  H7  5T5 d   1     -18.927  40.004  90.820  0.00  0.00     0.053 H 
ATOM     15  H8  5T5 d   1     -19.599  39.756  93.966  0.00  0.00     0.045 H 
BRANCH  11  16
ATOM     16  C6  5T5 d   1     -20.890  40.333  91.737  0.00  0.00     0.165 C 
ATOM     17  O15 5T5 d   1     -21.682  40.094  92.634  0.00  0.00    -0.292 OA
BRANCH  16  18
ATOM     18  C8  5T5 d   1     -21.264  41.312  90.680  0.00  0.00     0.029 A 
ATOM     19  C20 5T5 d   1     -22.372  42.114  90.876  0.00  0.00     0.015 A 
ATOM     20  N13 5T5 d   1     -22.725  42.995  89.945  0.00  0.00    -0.270 NA
ATOM     21  H3  5T5 d   1     -22.952  42.025  91.787  0.00  0.00     0.116 H 
ATOM     22  C28 5T5 d   1     -22.051  43.145  88.793  0.00  0.00     0.023 A 
ATOM     23  C22 5T5 d   1     -20.946  42.341  88.550  0.00  0.00     0.052 A 
ATOM     24  H5  5T5 d   1     -22.365  43.883  88.064  0.00  0.00     0.117 H 
ATOM     25 CL   5T5 d   1     -20.050  42.535  87.020  0.00  0.00    -0.083 Cl
ATOM     26  C14 5T5 d   1     -20.538  41.425  89.490  0.00  0.00    -0.046 A 
ATOM     27  H6  5T5 d   1     -19.669  40.801  89.312  0.00  0.00     0.087 H 
ENDBRANCH  16  18
ENDBRANCH  11  16
ENDBRANCH   2   9
BRANCH   2  28
ATOM     28  C11 5T5 d   1     -17.085  38.553  94.283  0.00  0.00    -0.027 A 
ATOM     29  C19 5T5 d   1     -17.971  38.025  95.226  0.00  0.00    -0.072 A 
ATOM     30  C26 5T5 d   1     -17.537  37.134  96.199  0.00  0.00    -0.050 A 
ATOM     31  H14 5T5 d   1     -19.015  38.316  95.198  0.00  0.00     0.084 H 
ATOM     32  C21 5T5 d   1     -16.202  36.764  96.247  0.00  0.00     0.074 A 
ATOM     33  H4  5T5 d   1     -18.240  36.729  96.918  0.00  0.00     0.087 H 
ATOM     34  C25 5T5 d   1     -15.304  37.296  95.315  0.00  0.00    -0.050 A 
ATOM     35  C18 5T5 d   1     -15.747  38.182  94.341  0.00  0.00    -0.072 A 
ATOM     36  H15 5T5 d   1     -14.258  37.015  95.353  0.00  0.00     0.087 H 
ATOM     37  H16 5T5 d   1     -15.044  38.587  93.621  0.00  0.00     0.084 H 
BRANCH  32  38
ATOM     38  O16 5T5 d   1     -15.777  35.876  97.209  0.00  0.00    -0.290 OA
BRANCH  38  39
ATOM     39  C12 5T5 d   1     -14.487  35.949  97.849  0.00  0.00     0.310 C 
ATOM     40  F23 5T5 d   1     -13.649  34.991  97.330  0.00  0.00    -0.184 F 
ATOM     41  F24 5T5 d   1     -13.911  37.192  97.738  0.00  0.00    -0.184 F 
ATOM     42  H17 5T5 d   1     -14.630  35.739  98.919  0.00  0.00     0.195 H 
ENDBRANCH  38  39
ENDBRANCH  32  38
ENDBRANCH   2  28
BRANCH   1  43
ATOM     43  N17 5T5 d   1     -14.991  40.302  90.830  0.00  0.00    -0.365 N 
ATOM     44  H11 5T5 d   1     -14.864  39.499  90.198  0.00  0.00     0.159 HD
ATOM     45  H12 5T5 d   1     -14.386  41.131  90.738  0.00  0.00     0.159 HD
ENDBRANCH   1  43
TORSDOF 7
