REMARK  6 active torsions:
REMARK  status: ('A' for Active; 'I' for Inactive)
REMARK    1  A    between atoms: C4_1  and  C1_20 
REMARK    2  A    between atoms: C1_20  and  C5_2 
REMARK    3  A    between atoms: O11_15  and  C8_4 
REMARK    4  A    between atoms: C13_6  and  C15_7 
REMARK    5  A    between atoms: C14_13  and  O11_15 
REMARK    6  A    between atoms: C12_16  and  C30_17 
ROOT
ATOM      1  C7  5T6 d   1     -16.883  40.549  94.097  0.00  0.00     0.060 A 
ATOM      2  C1  5T6 d   1     -17.354  39.232  93.485  0.00  0.00     0.110 A 
ATOM      3  N2  5T6 d   1     -16.641  39.118  92.198  0.00  0.00    -0.337 N 
ATOM      4  C3  5T6 d   1     -15.813  40.062  92.050  0.00  0.00     0.213 A 
ATOM      5  N20 5T6 d   1     -14.965  40.189  91.019  0.00  0.00    -0.365 N 
ATOM      6  O6  5T6 d   1     -15.889  40.992  93.159  0.00  0.00    -0.319 OA
ATOM      7  H1  5T6 d   1     -16.446  40.390  95.094  0.00  0.00     0.080 H 
ATOM      8  H2  5T6 d   1     -17.710  41.271  94.170  0.00  0.00     0.080 H 
ATOM      9  H14 5T6 d   1     -16.797  38.367  91.510  0.00  0.00     0.164 HD
ATOM     10  H15 5T6 d   1     -14.322  40.992  90.977  0.00  0.00     0.159 HD
ATOM     11  H16 5T6 d   1     -14.957  39.483  90.269  0.00  0.00     0.159 HD
ENDROOT
BRANCH   2  12
ATOM     12  C4  5T6 d   1     -17.060  38.070  94.412  0.00  0.00    -0.023 A 
ATOM     13  C17 5T6 d   1     -17.010  36.785  93.891  0.00  0.00    -0.071 A 
ATOM     14  C19 5T6 d   1     -16.769  35.694  94.711  0.00  0.00    -0.049 A 
ATOM     15  H4  5T6 d   1     -17.161  36.632  92.829  0.00  0.00     0.084 H 
ATOM     16  C8  5T6 d   1     -16.571  35.873  96.077  0.00  0.00     0.081 A 
ATOM     17  H13 5T6 d   1     -16.735  34.697  94.287  0.00  0.00     0.087 H 
ATOM     18  C12 5T6 d   1     -16.646  37.147  96.630  0.00  0.00    -0.028 A 
ATOM     19  C9  5T6 d   1     -16.883  38.240  95.789  0.00  0.00    -0.066 A 
ATOM     20  H12 5T6 d   1     -16.930  39.237  96.213  0.00  0.00     0.085 H 
BRANCH  16  21
ATOM     21  O11 5T6 d   1     -16.392  34.746  96.824  0.00  0.00    -0.290 OA
BRANCH  21  22
ATOM     22  C14 5T6 d   1     -15.233  34.226  97.419  0.00  0.00     0.310 C 
ATOM     23  F22 5T6 d   1     -14.141  35.012  97.157  0.00  0.00    -0.184 F 
ATOM     24  F21 5T6 d   1     -15.159  32.959  96.926  0.00  0.00    -0.184 F 
ATOM     25  H8  5T6 d   1     -15.360  34.182  98.511  0.00  0.00     0.195 H 
ENDBRANCH  21  22
ENDBRANCH  16  21
BRANCH  18  26
ATOM     26  C30 5T6 d   1     -16.453  37.388  98.110  0.00  0.00    -0.049 C 
ATOM     27  H9  5T6 d   1     -16.555  38.462  98.323  0.00  0.00     0.033 H 
ATOM     28  H10 5T6 d   1     -15.451  37.048  98.409  0.00  0.00     0.033 H 
ATOM     29  H11 5T6 d   1     -17.214  36.829  98.675  0.00  0.00     0.033 H 
ENDBRANCH  18  26
ENDBRANCH   2  12
BRANCH   2  30
ATOM     30  C5  5T6 d   1     -18.854  39.307  93.299  0.00  0.00    -0.022 A 
ATOM     31  C10 5T6 d   1     -19.399  40.096  92.288  0.00  0.00    -0.063 A 
ATOM     32  C13 5T6 d   1     -20.773  40.196  92.102  0.00  0.00    -0.024 A 
ATOM     33  H3  5T6 d   1     -18.735  40.645  91.630  0.00  0.00     0.085 H 
ATOM     34  C28 5T6 d   1     -21.646  39.513  92.939  0.00  0.00    -0.072 A 
ATOM     35  C29 5T6 d   1     -21.123  38.705  93.950  0.00  0.00    -0.082 A 
ATOM     36  H7  5T6 d   1     -22.718  39.606  92.809  0.00  0.00     0.084 H 
ATOM     37  C27 5T6 d   1     -19.739  38.609  94.132  0.00  0.00    -0.074 A 
ATOM     38  H18 5T6 d   1     -21.792  38.149  94.597  0.00  0.00     0.083 H 
ATOM     39  H17 5T6 d   1     -19.346  37.987  94.928  0.00  0.00     0.084 H 
BRANCH  32  40
ATOM     40  C15 5T6 d   1     -21.281  41.084  91.025  0.00  0.00    -0.007 A 
ATOM     41  C24 5T6 d   1     -22.472  41.791  91.217  0.00  0.00     0.013 A 
ATOM     42  N16 5T6 d   1     -22.924  42.615  90.255  0.00  0.00    -0.271 NA
ATOM     43  H5  5T6 d   1     -23.030  41.675  92.139  0.00  0.00     0.116 H 
ATOM     44  C26 5T6 d   1     -22.263  42.800  89.106  0.00  0.00     0.023 A 
ATOM     45  C23 5T6 d   1     -21.072  42.118  88.866  0.00  0.00     0.052 A 
ATOM     46  H6  5T6 d   1     -22.655  43.482  88.360  0.00  0.00     0.117 H 
ATOM     47  C18 5T6 d   1     -20.564  41.255  89.829  0.00  0.00    -0.048 A 
ATOM     48 CL   5T6 d   1     -20.206  42.375  87.321  0.00  0.00    -0.083 Cl
ATOM     49  H19 5T6 d   1     -19.634  40.725  89.661  0.00  0.00     0.087 H 
ENDBRANCH  32  40
ENDBRANCH   2  30
TORSDOF 6
