REMARK  5 active torsions:
REMARK  status: ('A' for Active; 'I' for Inactive)
REMARK    1  A    between atoms: C1_12  and  C13_6 
REMARK    2  A    between atoms: C11_17  and  C1_12 
REMARK    3  A    between atoms: C3_14  and  N14_19 
REMARK    4  A    between atoms: N15_20  and  C9_16 
REMARK    5  A    between atoms: N15_20  and  C16_21 
ROOT
ATOM      1  C7  5T8 d   1     -20.019  39.525   8.799  0.00  0.00    -0.080 A 
ATOM      2  C8  5T8 d   1     -20.315  40.133   7.596  0.00  0.00    -0.057 A 
ATOM      3  C10 5T8 d   1     -17.954  40.544   7.288  0.00  0.00    -0.049 A 
ATOM      4  C9  5T8 d   1     -19.264  40.648   6.839  0.00  0.00     0.033 A 
ATOM      5  C11 5T8 d   1     -17.671  39.948   8.489  0.00  0.00    -0.026 A 
ATOM      6  C12 5T8 d   1     -18.708  39.438   9.238  0.00  0.00    -0.074 A 
ATOM      7  H5  5T8 d   1     -20.818  39.113   9.405  0.00  0.00     0.083 H 
ATOM      8  H6  5T8 d   1     -21.339  40.208   7.248  0.00  0.00     0.086 H 
ATOM      9  H7  5T8 d   1     -17.147  40.939   6.682  0.00  0.00     0.087 H 
ATOM     10  H15 5T8 d   1     -18.495  38.960  10.187  0.00  0.00     0.084 H 
ENDROOT
BRANCH   4  11
ATOM     11  N15 5T8 d   1     -19.493  41.245   5.600  0.00  0.00    -0.354 N 
ATOM     12  H18 5T8 d   1     -18.808  41.001   4.870  0.00  0.00     0.166 HD
BRANCH  11  13
ATOM     13  C16 5T8 d   1     -20.496  42.117   5.190  0.00  0.00     0.062 A 
ATOM     14  C17 5T8 d   1     -21.602  42.435   5.962  0.00  0.00    -0.055 A 
ATOM     15  C18 5T8 d   1     -22.530  43.348   5.461  0.00  0.00    -0.080 A 
ATOM     16  H11 5T8 d   1     -21.743  41.983   6.937  0.00  0.00     0.087 H 
ATOM     17  C19 5T8 d   1     -22.403  43.931   4.229  0.00  0.00    -0.071 A 
ATOM     18  H19 5T8 d   1     -23.387  43.606   6.072  0.00  0.00     0.083 H 
ATOM     19  C21 5T8 d   1     -21.289  43.620   3.432  0.00  0.00    -0.004 A 
ATOM     20  H20 5T8 d   1     -23.155  44.626   3.872  0.00  0.00     0.084 H 
ATOM     21  C20 5T8 d   1     -20.331  42.707   3.919  0.00  0.00     0.093 A 
ATOM     22  C22 5T8 d   1     -21.075  44.203   2.153  0.00  0.00    -0.048 A 
ATOM     23  N25 5T8 d   1     -19.268  42.399   3.172  0.00  0.00    -0.256 NA
ATOM     24  C24 5T8 d   1     -19.059  42.926   1.997  0.00  0.00     0.024 A 
ATOM     25  C23 5T8 d   1     -19.945  43.837   1.455  0.00  0.00     0.052 A 
ATOM     26  H13 5T8 d   1     -18.175  42.644   1.436  0.00  0.00     0.117 H 
ATOM     27 CL2  5T8 d   1     -19.595  44.478  -0.118  0.00  0.00    -0.083 Cl
ATOM     28  H12 5T8 d   1     -21.780  44.915   1.739  0.00  0.00     0.087 H 
ENDBRANCH  11  13
ENDBRANCH   4  11
BRANCH   5  29
ATOM     29  C1  5T8 d   1     -16.258  39.853   9.005  0.00  0.00     0.076 C 
ATOM     30  C6  5T8 d   1     -16.038  41.019   9.989  0.00  0.00     0.047 C 
ATOM     31  O5  5T8 d   1     -15.978  42.250   9.248  0.00  0.00    -0.381 OA
ATOM     32  H3  5T8 d   1     -15.094  40.870  10.533  0.00  0.00     0.078 H 
ATOM     33  H4  5T8 d   1     -16.872  41.060  10.705  0.00  0.00     0.078 H 
ATOM     34  C4  5T8 d   1     -14.853  42.288   8.327  0.00  0.00     0.071 C 
ATOM     35  C3  5T8 d   1     -14.683  40.991   7.578  0.00  0.00     0.095 C 
ATOM     36  H1  5T8 d   1     -15.018  43.097   7.600  0.00  0.00     0.086 H 
ATOM     37  H2  5T8 d   1     -13.935  42.490   8.898  0.00  0.00     0.086 H 
ATOM     38  N2  5T8 d   1     -15.321  39.917   7.879  0.00  0.00    -0.363 N 
ATOM     39  H14 5T8 d   1     -15.169  39.072   7.310  0.00  0.00     0.162 HD
BRANCH  35  40
ATOM     40  N14 5T8 d   1     -13.821  40.941   6.508  0.00  0.00    -0.387 N 
ATOM     41  H16 5T8 d   1     -13.696  40.061   5.988  0.00  0.00     0.157 HD
ATOM     42  H17 5T8 d   1     -13.300  41.784   6.226  0.00  0.00     0.157 HD
ENDBRANCH  35  40
BRANCH  29  43
ATOM     43  C13 5T8 d   1     -16.053  38.531   9.756  0.00  0.00    -0.047 C 
ATOM     44  H8  5T8 d   1     -16.207  37.689   9.065  0.00  0.00     0.031 H 
ATOM     45  H9  5T8 d   1     -16.775  38.463  10.583  0.00  0.00     0.031 H 
ATOM     46  H10 5T8 d   1     -15.030  38.493  10.158  0.00  0.00     0.031 H 
ENDBRANCH  29  43
ENDBRANCH   5  29
TORSDOF 5
