REMARK  5 active torsions:
REMARK  status: ('A' for Active; 'I' for Inactive)
REMARK    1  A    between atoms: C5_1  and  N16_21 
REMARK    2  A    between atoms: C7_2  and  C10_4 
REMARK       I    between atoms: C10_4  and  N12_5 
REMARK    3  A    between atoms: N12_5  and  C17_7 
REMARK    4  A    between atoms: C1_12  and  C13_6 
REMARK    5  A    between atoms: C1_12  and  C9_17 
ROOT
ATOM      1  C7  5T7 d   1     -18.716  39.687   7.034  0.00  0.00     0.030 A 
ATOM      2  C8  5T7 d   1     -18.788  38.193   7.354  0.00  0.00    -0.047 A 
ATOM      3  C9  5T7 d   1     -18.360  39.197   8.428  0.00  0.00    -0.012 A 
ATOM      4  H1  5T7 d   1     -17.933  40.099   6.380  0.00  0.00     0.055 H 
ATOM      5  H2  5T7 d   1     -18.051  37.501   6.922  0.00  0.00     0.035 H 
ATOM      6  H3  5T7 d   1     -19.764  37.691   7.426  0.00  0.00     0.035 H 
ATOM      7  H12 5T7 d   1     -19.019  39.423   9.280  0.00  0.00     0.045 H 
ENDROOT
BRANCH   1   8
ATOM      8  C10 5T7 d   1     -20.030  40.360   6.768  0.00  0.00     0.226 C 
ATOM      9  N12 5T7 d   1     -20.027  41.210   5.746  0.00  0.00    -0.325 N 
ATOM     10  H4  5T7 d   1     -19.160  41.285   5.253  0.00  0.00     0.169 HD
ATOM     11  O11 5T7 d   1     -21.028  40.141   7.443  0.00  0.00    -0.273 OA
BRANCH   9  12
ATOM     12  C17 5T7 d   1     -21.057  42.009   5.265  0.00  0.00     0.064 A 
ATOM     13  C21 5T7 d   1     -20.890  42.511   3.973  0.00  0.00     0.093 A 
ATOM     14  C22 5T7 d   1     -21.848  43.371   3.406  0.00  0.00    -0.004 A 
ATOM     15  N26 5T7 d   1     -19.805  42.141   3.272  0.00  0.00    -0.256 NA
ATOM     16  C20 5T7 d   1     -22.984  43.725   4.161  0.00  0.00    -0.071 A 
ATOM     17  C23 5T7 d   1     -21.638  43.842   2.090  0.00  0.00    -0.048 A 
ATOM     18  C19 5T7 d   1     -23.121  43.227   5.425  0.00  0.00    -0.080 A 
ATOM     19  H8  5T7 d   1     -23.738  44.383   3.744  0.00  0.00     0.084 H 
ATOM     20  C18 5T7 d   1     -22.168  42.377   6.002  0.00  0.00    -0.055 A 
ATOM     21  H16 5T7 d   1     -23.997  43.499   6.002  0.00  0.00     0.083 H 
ATOM     22  H15 5T7 d   1     -22.300  42.012   7.014  0.00  0.00     0.087 H 
ATOM     23  C24 5T7 d   1     -20.494  43.432   1.442  0.00  0.00     0.052 A 
ATOM     24  H17 5T7 d   1     -22.351  44.502   1.609  0.00  0.00     0.087 H 
ATOM     25  C25 5T7 d   1     -19.591  42.587   2.066  0.00  0.00     0.024 A 
ATOM     26 CL2  5T7 d   1     -20.118  43.989  -0.151  0.00  0.00    -0.083 Cl
ATOM     27  H18 5T7 d   1     -18.690  42.291   1.542  0.00  0.00     0.117 H 
ENDBRANCH   9  12
ENDBRANCH   1   8
BRANCH   3  28
ATOM     28  C1  5T7 d   1     -16.899  39.197   8.881  0.00  0.00     0.102 C 
ATOM     29  C2  5T7 d   1     -16.599  40.415   9.765  0.00  0.00     0.289 C 
ATOM     30  C3  5T7 d   1     -16.634  41.677   8.905  0.00  0.00     0.092 C 
ATOM     31  F14 5T7 d   1     -17.574  40.532  10.757  0.00  0.00    -0.201 F 
ATOM     32  F15 5T7 d   1     -15.359  40.236  10.393  0.00  0.00    -0.201 F 
ATOM     33  O4  5T7 d   1     -15.490  41.555   8.019  0.00  0.00    -0.316 OA
ATOM     34  H9  5T7 d   1     -16.544  42.576   9.533  0.00  0.00     0.084 H 
ATOM     35  H10 5T7 d   1     -17.568  41.726   8.327  0.00  0.00     0.084 H 
ATOM     36  C5  5T7 d   1     -15.364  40.364   7.411  0.00  0.00     0.213 C 
ATOM     37  N6  5T7 d   1     -15.979  39.274   7.740  0.00  0.00    -0.341 N 
ATOM     38  H11 5T7 d   1     -15.816  38.426   7.178  0.00  0.00     0.164 HD
BRANCH  28  39
ATOM     39  C13 5T7 d   1     -16.625  37.902   9.645  0.00  0.00    -0.047 C 
ATOM     40  H5  5T7 d   1     -16.845  37.041   8.997  0.00  0.00     0.031 H 
ATOM     41  H6  5T7 d   1     -17.265  37.861  10.539  0.00  0.00     0.031 H 
ATOM     42  H7  5T7 d   1     -15.568  37.872   9.949  0.00  0.00     0.031 H 
ENDBRANCH  28  39
BRANCH  36  43
ATOM     43  N16 5T7 d   1     -14.528  40.326   6.331  0.00  0.00    -0.365 N 
ATOM     44  H13 5T7 d   1     -14.387  39.443   5.820  0.00  0.00     0.159 HD
ATOM     45  H14 5T7 d   1     -14.039  41.180   6.028  0.00  0.00     0.159 HD
ENDBRANCH  36  43
ENDBRANCH   3  28
TORSDOF 5
