REMARK  9 active torsions:
REMARK  status: ('A' for Active; 'I' for Inactive)
REMARK       I    between atoms: N1_1  and  C26_26 
REMARK    1  A    between atoms: C3_3  and  S7_7 
REMARK    2  A    between atoms: C5_5  and  C6_6 
REMARK       I    between atoms: C6_6  and  N8_8 
REMARK    3  A    between atoms: S7_7  and  C17_17 
REMARK    4  A    between atoms: N8_8  and  C10_10 
REMARK    5  A    between atoms: C10_10  and  C11_11 
REMARK    6  A    between atoms: C20_20  and  O24_24 
REMARK    7  A    between atoms: O24_24  and  C25_25 
REMARK    8  A    between atoms: C26_26  and  C27_27 
REMARK    9  A    between atoms: C27_27  and  C32_32 
ROOT
ATOM      1  N1  5T9 d   1       8.508  36.560  19.248  0.00  0.00    -0.336 N 
ATOM      2  C2  5T9 d   1       9.361  35.612  18.559  0.00  0.00     0.015 C 
ATOM      3  C3  5T9 d   1       9.482  34.392  19.513  0.00  0.00     0.067 C 
ATOM      4  C4  5T9 d   1       9.280  34.989  20.886  0.00  0.00    -0.020 C 
ATOM      5  C5  5T9 d   1       8.240  36.089  20.594  0.00  0.00     0.093 C 
ATOM      6  C26 5T9 d   1       7.891  37.674  18.738  0.00  0.00     0.238 C 
ATOM      7  O28 5T9 d   1       7.159  38.358  19.465  0.00  0.00    -0.272 OA
ATOM      8  H1  5T9 d   1      10.351  36.052  18.371  0.00  0.00     0.066 H 
ATOM      9  H2  5T9 d   1       8.907  35.309  17.604  0.00  0.00     0.066 H 
ATOM     10  H3  5T9 d   1      10.492  33.964  19.434  0.00  0.00     0.067 H 
ATOM     11  H4  5T9 d   1      10.214  35.414  21.280  0.00  0.00     0.038 H 
ATOM     12  H5  5T9 d   1       8.889  34.244  21.594  0.00  0.00     0.038 H 
ATOM     13  H6  5T9 d   1       7.224  35.670  20.630  0.00  0.00     0.087 H 
ENDROOT
BRANCH   5  14
ATOM     14  C6  5T9 d   1       8.363  37.170  21.683  0.00  0.00     0.241 C 
ATOM     15  N8  5T9 d   1       7.282  37.229  22.500  0.00  0.00    -0.345 N 
ATOM     16  H7  5T9 d   1       6.490  36.656  22.289  0.00  0.00     0.163 HD
ATOM     17  O9  5T9 d   1       9.368  37.877  21.849  0.00  0.00    -0.271 OA
BRANCH  15  18
ATOM     18  C10 5T9 d   1       7.227  38.068  23.639  0.00  0.00     0.066 A 
ATOM     19  C13 5T9 d   1       7.443  39.571  23.463  0.00  0.00    -0.034 A 
ATOM     20  C14 5T9 d   1       6.077  39.063  23.779  0.00  0.00    -0.034 A 
ATOM     21  H10 5T9 d   1       7.658  39.980  22.465  0.00  0.00     0.037 H 
ATOM     22  H11 5T9 d   1       8.006  40.136  24.220  0.00  0.00     0.037 H 
ATOM     23  H12 5T9 d   1       5.637  39.255  24.768  0.00  0.00     0.037 H 
ATOM     24  H13 5T9 d   1       5.288  39.100  23.013  0.00  0.00     0.037 H 
BRANCH  18  25
ATOM     25  C11 5T9 d   1       7.708  37.412  24.861  0.00  0.00     0.000 C 
ATOM     26  N12 5T9 d   1       7.649  37.928  26.053  0.00  0.00    -0.314 NA
ATOM     27  H9  5T9 d   1       8.002  37.412  26.844  0.00  0.00     0.185 HD
ATOM     28  H8  5T9 d   1       8.146  36.420  24.762  0.00  0.00     0.110 H 
ENDBRANCH  18  25
ENDBRANCH  15  18
ENDBRANCH   5  14
BRANCH   6  29
ATOM     29  C27 5T9 d   1       8.178  38.099  17.323  0.00  0.00     0.132 C 
ATOM     30  C29 5T9 d   1       7.791  37.101  16.168  0.00  0.00     0.104 C 
ATOM     31  N30 5T9 d   1       6.822  38.085  15.612  0.00  0.00    -0.072 N 
ATOM     32  H20 5T9 d   1       7.326  36.169  16.521  0.00  0.00     0.078 H 
ATOM     33  H21 5T9 d   1       8.622  36.862  15.489  0.00  0.00     0.078 H 
ATOM     34  C31 5T9 d   1       7.030  39.009  16.744  0.00  0.00     0.104 C 
ATOM     35  H22 5T9 d   1       5.880  37.732  15.546  0.00  0.00     0.277 HD
ATOM     36  H23 5T9 d   1       7.100  38.467  14.722  0.00  0.00     0.277 HD
ATOM     37  H24 5T9 d   1       7.368  40.011  16.442  0.00  0.00     0.078 H 
ATOM     38  H25 5T9 d   1       6.158  39.100  17.408  0.00  0.00     0.078 H 
BRANCH  29  39
ATOM     39  C32 5T9 d   1       9.529  38.703  17.299  0.00  0.00     0.055 A 
ATOM     40  N33 5T9 d   1       9.801  39.907  17.865  0.00  0.00    -0.262 NA
ATOM     41  C34 5T9 d   1      11.063  40.388  17.762  0.00  0.00     0.023 A 
ATOM     42  C35 5T9 d   1      12.103  39.693  17.113  0.00  0.00     0.051 A 
ATOM     43  H26 5T9 d   1      11.284  41.355  18.200  0.00  0.00     0.117 H 
ATOM     44  C36 5T9 d   1      11.798  38.470  16.538  0.00  0.00    -0.059 A 
ATOM     45 CL3  5T9 d   1      13.688  40.297  17.009  0.00  0.00    -0.083 Cl
ATOM     46  C37 5T9 d   1      10.511  37.969  16.625  0.00  0.00    -0.056 A 
ATOM     47  H27 5T9 d   1      12.566  37.907  16.021  0.00  0.00     0.086 H 
ATOM     48  H28 5T9 d   1      10.265  37.014  16.174  0.00  0.00     0.086 H 
ENDBRANCH  29  39
ENDBRANCH   6  29
BRANCH   3  49
ATOM     49  S7  5T9 d   1       8.337  33.125  19.196  0.00  0.00     0.182 S 
ATOM     50  O15 5T9 d   1       8.645  32.072  20.089  0.00  0.00    -0.222 OA
ATOM     51  O16 5T9 d   1       7.045  33.716  19.258  0.00  0.00    -0.222 OA
BRANCH  49  52
ATOM     52  C17 5T9 d   1       8.639  32.652  17.589  0.00  0.00     0.081 A 
ATOM     53  C18 5T9 d   1       9.757  31.957  17.130  0.00  0.00     0.058 A 
ATOM     54  C19 5T9 d   1       9.956  31.560  15.805  0.00  0.00    -0.028 A 
ATOM     55 CL2  5T9 d   1      10.930  31.508  18.258  0.00  0.00    -0.083 Cl
ATOM     56  C20 5T9 d   1       8.994  31.907  14.856  0.00  0.00     0.069 A 
ATOM     57  H14 5T9 d   1      10.837  30.996  15.521  0.00  0.00     0.090 H 
ATOM     58  C21 5T9 d   1       7.848  32.612  15.258  0.00  0.00    -0.049 A 
ATOM     59  C22 5T9 d   1       7.689  32.972  16.592  0.00  0.00    -0.058 A 
ATOM     60  H15 5T9 d   1       7.089  32.875  14.530  0.00  0.00     0.087 H 
ATOM     61  H16 5T9 d   1       6.800  33.521  16.879  0.00  0.00     0.086 H 
BRANCH  56  62
ATOM     62  O24 5T9 d   1       9.271  31.488  13.585  0.00  0.00    -0.356 OA
BRANCH  62  63
ATOM     63  C25 5T9 d   1       8.236  31.713  12.625  0.00  0.00     0.010 C 
ATOM     64  H17 5T9 d   1       8.560  31.341  11.642  0.00  0.00     0.066 H 
ATOM     65  H18 5T9 d   1       8.026  32.791  12.558  0.00  0.00     0.066 H 
ATOM     66  H19 5T9 d   1       7.325  31.180  12.936  0.00  0.00     0.066 H 
ENDBRANCH  62  63
ENDBRANCH  56  62
ENDBRANCH  49  52
ENDBRANCH   3  49
TORSDOF 9
