REMARK  7 active torsions:
REMARK  status: ('A' for Active; 'I' for Inactive)
REMARK    1  A    between atoms: C5_7  and  C1_1 
REMARK    2  A    between atoms: C6_6  and  C7_5 
REMARK       I    between atoms: C7_5  and  N_10 
REMARK    3  A    between atoms: C6_6  and  C5_7 
REMARK    4  A    between atoms: N1_12  and  C12_16 
REMARK    5  A    between atoms: C15_19  and  C18_22 
REMARK    6  A    between atoms: C18_22  and  N2_23 
REMARK    7  A    between atoms: N2_23  and  C19_24 
ROOT
ATOM      1  O   5TB d   1      26.922  13.665  -1.505  0.00  0.00    -0.273 OA
ATOM      2  C7  5TB d   1      27.886  13.478  -2.212  0.00  0.00     0.221 C 
ATOM      3  N   5TB d   1      28.844  14.376  -2.292  0.00  0.00    -0.336 N 
ATOM      4  C11 5TB d   1      29.271  15.077  -1.087  0.00  0.00     0.058 C 
ATOM      5  N1  5TB d   1      29.708  16.409  -1.430  0.00  0.00    -0.364 N 
ATOM      6  C10 5TB d   1      29.242  16.966  -2.672  0.00  0.00    -0.002 C 
ATOM      7  C9  5TB d   1      29.943  16.062  -3.652  0.00  0.00    -0.035 C 
ATOM      8  C8  5TB d   1      29.526  14.608  -3.562  0.00  0.00     0.001 C 
ATOM      9  H14 5TB d   1      30.102  14.528  -0.620  0.00  0.00     0.097 H 
ATOM     10  H15 5TB d   1      28.429  15.138  -0.382  0.00  0.00     0.097 H 
ATOM     11  H16 5TB d   1      29.554  18.014  -2.790  0.00  0.00     0.064 H 
ATOM     12  H17 5TB d   1      28.148  16.896  -2.764  0.00  0.00     0.064 H 
ATOM     13  H18 5TB d   1      31.025  16.123  -3.465  0.00  0.00     0.037 H 
ATOM     14  H19 5TB d   1      29.726  16.421  -4.669  0.00  0.00     0.037 H 
ATOM     15  H20 5TB d   1      28.846  14.370  -4.393  0.00  0.00     0.064 H 
ATOM     16  H21 5TB d   1      30.417  13.966  -3.622  0.00  0.00     0.064 H 
ENDROOT
BRANCH   2  17
ATOM     17  C6  5TB d   1      28.051  12.212  -3.033  0.00  0.00     0.010 C 
ATOM     18  H6  5TB d   1      29.121  11.964  -3.096  0.00  0.00     0.047 H 
ATOM     19  H7  5TB d   1      27.654  12.387  -4.044  0.00  0.00     0.047 H 
BRANCH  17  20
ATOM     20  C5  5TB d   1      27.306  11.037  -2.405  0.00  0.00    -0.054 C 
ATOM     21  H8  5TB d   1      27.487  11.037  -1.320  0.00  0.00     0.034 H 
ATOM     22  H9  5TB d   1      26.229  11.153  -2.597  0.00  0.00     0.034 H 
BRANCH  20  23
ATOM     23  C1  5TB d   1      27.773   9.706  -2.985  0.00  0.00    -0.054 C 
ATOM     24  C2  5TB d   1      27.899   9.783  -4.500  0.00  0.00    -0.062 C 
ATOM     25  C3  5TB d   1      27.394   8.459  -5.068  0.00  0.00    -0.065 C 
ATOM     26  H2  5TB d   1      28.951   9.936  -4.782  0.00  0.00     0.033 H 
ATOM     27  H3  5TB d   1      27.291  10.614  -4.886  0.00  0.00     0.033 H 
ATOM     28  C4  5TB d   1      26.707   7.705  -3.939  0.00  0.00    -0.065 C 
ATOM     29  H4  5TB d   1      28.239   7.869  -5.453  0.00  0.00     0.033 H 
ATOM     30  H5  5TB d   1      26.679   8.649  -5.882  0.00  0.00     0.033 H 
ATOM     31  C   5TB d   1      26.764   8.593  -2.705  0.00  0.00    -0.062 C 
ATOM     32  H10 5TB d   1      27.230   6.757  -3.746  0.00  0.00     0.033 H 
ATOM     33  H11 5TB d   1      25.660   7.498  -4.206  0.00  0.00     0.033 H 
ATOM     34  H12 5TB d   1      25.772   9.026  -2.508  0.00  0.00     0.033 H 
ATOM     35  H13 5TB d   1      27.087   8.004  -1.834  0.00  0.00     0.033 H 
ATOM     36  H1  5TB d   1      28.746   9.448  -2.541  0.00  0.00     0.040 H 
ENDBRANCH  20  23
ENDBRANCH  17  20
ENDBRANCH   2  17
BRANCH   5  37
ATOM     37  C12 5TB d   1      30.550  17.136  -0.603  0.00  0.00     0.031 A 
ATOM     38  C17 5TB d   1      31.432  18.084  -1.124  0.00  0.00    -0.057 A 
ATOM     39  C16 5TB d   1      32.241  18.793  -0.242  0.00  0.00    -0.073 A 
ATOM     40  H22 5TB d   1      31.485  18.264  -2.192  0.00  0.00     0.086 H 
ATOM     41  C15 5TB d   1      32.154  18.552   1.123  0.00  0.00    -0.033 A 
ATOM     42  H23 5TB d   1      32.938  19.532  -0.619  0.00  0.00     0.084 H 
ATOM     43  C14 5TB d   1      31.273  17.618   1.628  0.00  0.00    -0.073 A 
ATOM     44  C13 5TB d   1      30.471  16.912   0.755  0.00  0.00    -0.057 A 
ATOM     45  H24 5TB d   1      31.212  17.441   2.696  0.00  0.00     0.084 H 
ATOM     46  H25 5TB d   1      29.774  16.176   1.140  0.00  0.00     0.086 H 
BRANCH  41  47
ATOM     47  C18 5TB d   1      33.004  19.304   2.102  0.00  0.00     0.105 C 
ATOM     48  H26 5TB d   1      33.924  19.653   1.609  0.00  0.00     0.083 H 
ATOM     49  H27 5TB d   1      33.266  18.653   2.949  0.00  0.00     0.083 H 
BRANCH  47  50
ATOM     50  N2  5TB d   1      32.237  20.435   2.570  0.00  0.00    -0.075 N 
ATOM     51  H28 5TB d   1      32.716  20.805   3.376  0.00  0.00     0.277 HD
ATOM     52  H29 5TB d   1      31.333  20.085   2.848  0.00  0.00     0.277 HD
BRANCH  50  53
ATOM     53  C19 5TB d   1      32.005  21.545   1.666  0.00  0.00     0.065 C 
ATOM     54  H30 5TB d   1      31.409  22.316   2.177  0.00  0.00     0.067 H 
ATOM     55  H31 5TB d   1      31.460  21.188   0.779  0.00  0.00     0.067 H 
ATOM     56  H32 5TB d   1      32.970  21.973   1.356  0.00  0.00     0.067 H 
ENDBRANCH  50  53
ENDBRANCH  47  50
ENDBRANCH  41  47
ENDBRANCH   5  37
TORSDOF 7
