REMARK  5 active torsions:
REMARK  status: ('A' for Active; 'I' for Inactive)
REMARK    1  A    between atoms: C7_8  and  N1_4 
REMARK       I    between atoms: N1_4  and  C11_12 
REMARK    2  A    between atoms: C5_6  and  N_21 
REMARK    3  A    between atoms: C11_12  and  C12_13 
REMARK    4  A    between atoms: C12_13  and  C13_14 
REMARK    5  A    between atoms: C13_14  and  C14_15 
ROOT
ATOM      1  C5  5TE d   1      31.016  17.983  -1.386  0.00  0.00     0.032 A 
ATOM      2  C6  5TE d   1      30.190  16.827  -1.422  0.00  0.00    -0.032 A 
ATOM      3  C7  5TE d   1      29.686  16.356  -2.647  0.00  0.00     0.036 A 
ATOM      4  C8  5TE d   1      30.018  16.960  -3.867  0.00  0.00    -0.057 A 
ATOM      5  C9  5TE d   1      30.885  18.074  -3.856  0.00  0.00    -0.079 A 
ATOM      6  C10 5TE d   1      31.388  18.553  -2.604  0.00  0.00    -0.057 A 
ATOM      7  H10 5TE d   1      29.948  16.307  -0.502  0.00  0.00     0.090 H 
ATOM      8  H11 5TE d   1      29.617  16.580  -4.800  0.00  0.00     0.086 H 
ATOM      9  H12 5TE d   1      31.166  18.560  -4.783  0.00  0.00     0.083 H 
ATOM     10  H13 5TE d   1      32.081  19.387  -2.602  0.00  0.00     0.086 H 
ENDROOT
BRANCH   3  11
ATOM     11  N1  5TE d   1      28.885  15.309  -2.772  0.00  0.00    -0.327 N 
ATOM     12  C11 5TE d   1      28.404  14.475  -1.844  0.00  0.00     0.222 C 
ATOM     13  O   5TE d   1      28.639  14.503  -0.638  0.00  0.00    -0.273 OA
ATOM     14  H7  5TE d   1      28.594  15.111  -3.708  0.00  0.00     0.169 HD
BRANCH  12  15
ATOM     15  C12 5TE d   1      27.540  13.379  -2.399  0.00  0.00     0.010 C 
ATOM     16  H14 5TE d   1      26.812  13.796  -3.111  0.00  0.00     0.047 H 
ATOM     17  H15 5TE d   1      27.005  12.870  -1.584  0.00  0.00     0.047 H 
BRANCH  15  18
ATOM     18  C13 5TE d   1      28.470  12.394  -3.113  0.00  0.00    -0.054 C 
ATOM     19  H16 5TE d   1      29.244  12.049  -2.412  0.00  0.00     0.034 H 
ATOM     20  H17 5TE d   1      28.947  12.896  -3.967  0.00  0.00     0.034 H 
BRANCH  18  21
ATOM     21  C14 5TE d   1      27.646  11.162  -3.627  0.00  0.00    -0.054 C 
ATOM     22  C15 5TE d   1      27.350  10.240  -2.489  0.00  0.00    -0.062 C 
ATOM     23  C16 5TE d   1      27.424   8.807  -3.078  0.00  0.00    -0.065 C 
ATOM     24  H19 5TE d   1      26.345  10.438  -2.087  0.00  0.00     0.033 H 
ATOM     25  H20 5TE d   1      28.096  10.365  -1.690  0.00  0.00     0.033 H 
ATOM     26  C17 5TE d   1      27.820   8.896  -4.534  0.00  0.00    -0.065 C 
ATOM     27  H21 5TE d   1      26.441   8.321  -2.992  0.00  0.00     0.033 H 
ATOM     28  H22 5TE d   1      28.173   8.220  -2.527  0.00  0.00     0.033 H 
ATOM     29  C18 5TE d   1      28.395  10.312  -4.652  0.00  0.00    -0.062 C 
ATOM     30  H23 5TE d   1      26.946   8.769  -5.189  0.00  0.00     0.033 H 
ATOM     31  H24 5TE d   1      28.579   8.140  -4.784  0.00  0.00     0.033 H 
ATOM     32  H25 5TE d   1      29.472  10.306  -4.429  0.00  0.00     0.033 H 
ATOM     33  H26 5TE d   1      28.233  10.706  -5.666  0.00  0.00     0.033 H 
ATOM     34  H18 5TE d   1      26.709  11.529  -4.071  0.00  0.00     0.040 H 
ENDBRANCH  18  21
ENDBRANCH  15  18
ENDBRANCH  12  15
ENDBRANCH   3  11
BRANCH   1  35
ATOM     35  N   5TE d   1      31.606  18.478  -0.175  0.00  0.00    -0.381 N 
ATOM     36  C1  5TE d   1      32.501  19.638  -0.193  0.00  0.00    -0.005 C 
ATOM     37  C   5TE d   1      32.707  20.409   1.115  0.00  0.00    -0.050 C 
ATOM     38  H1  5TE d   1      32.101  20.348  -0.932  0.00  0.00     0.064 H 
ATOM     39  H2  5TE d   1      33.489  19.284  -0.523  0.00  0.00     0.064 H 
ATOM     40  C4  5TE d   1      32.868  19.424   2.307  0.00  0.00    -0.062 C 
ATOM     41  H27 5TE d   1      31.836  21.056   1.295  0.00  0.00     0.035 H 
ATOM     42  H28 5TE d   1      33.612  21.028   1.032  0.00  0.00     0.035 H 
ATOM     43  C3  5TE d   1      31.732  18.431   2.333  0.00  0.00    -0.050 C 
ATOM     44  H8  5TE d   1      33.819  18.882   2.202  0.00  0.00     0.033 H 
ATOM     45  H9  5TE d   1      32.872  19.993   3.248  0.00  0.00     0.033 H 
ATOM     46  C2  5TE d   1      31.493  17.624   1.032  0.00  0.00    -0.005 C 
ATOM     47  H5  5TE d   1      31.934  17.712   3.140  0.00  0.00     0.035 H 
ATOM     48  H6  5TE d   1      30.808  18.985   2.558  0.00  0.00     0.035 H 
ATOM     49  H3  5TE d   1      30.485  17.186   1.065  0.00  0.00     0.064 H 
ATOM     50  H4  5TE d   1      32.240  16.819   0.970  0.00  0.00     0.064 H 
ENDBRANCH   1  35
TORSDOF 5
