REMARK  7 active torsions:
REMARK  status: ('A' for Active; 'I' for Inactive)
REMARK    1  A    between atoms: C5_12  and  N_1 
REMARK       I    between atoms: N1_5  and  C12_4 
REMARK    2  A    between atoms: C12_4  and  C13_17 
REMARK    3  A    between atoms: C11_6  and  N1_5 
REMARK    4  A    between atoms: C8_7  and  C11_6 
REMARK    5  A    between atoms: C13_17  and  C14_18 
REMARK    6  A    between atoms: C14_18  and  C15_19 
REMARK    7  A    between atoms: N2_22  and  C20_25 
ROOT
ATOM      1  C20 5TC d   1      32.512 -18.490  -5.266  0.00  0.00     0.030 A 
ATOM      2  C25 5TC d   1      33.112 -19.305  -6.192  0.00  0.00    -0.056 A 
ATOM      3  C24 5TC d   1      34.235 -20.037  -5.882  0.00  0.00    -0.061 A 
ATOM      4  C23 5TC d   1      34.736 -20.049  -4.616  0.00  0.00     0.044 A 
ATOM      5  C26 5TC d   1      35.723 -20.843  -4.469  0.00  0.00     0.099 C 
ATOM      6  N3  5TC d   1      36.555 -21.670  -4.294  0.00  0.00    -0.191 NA
ATOM      7  C22 5TC d   1      34.164 -19.291  -3.582  0.00  0.00    -0.061 A 
ATOM      8  C21 5TC d   1      33.023 -18.511  -3.900  0.00  0.00    -0.056 A 
ATOM      9  H31 5TC d   1      32.693 -19.374  -7.189  0.00  0.00     0.087 H 
ATOM     10  H32 5TC d   1      34.728 -20.613  -6.657  0.00  0.00     0.085 H 
ATOM     11  H33 5TC d   1      34.578 -19.302  -2.580  0.00  0.00     0.085 H 
ATOM     12  H34 5TC d   1      32.531 -17.931  -3.128  0.00  0.00     0.087 H 
ENDROOT
BRANCH   1  13
ATOM     13  N2  5TC d   1      31.384 -17.737  -5.739  0.00  0.00    -0.381 N 
ATOM     14  C18 5TC d   1      30.368 -17.387  -4.684  0.00  0.00    -0.004 C 
ATOM     15  C19 5TC d   1      29.340 -16.334  -5.040  0.00  0.00    -0.047 C 
ATOM     16  H25 5TC d   1      29.824 -18.308  -4.429  0.00  0.00     0.064 H 
ATOM     17  H26 5TC d   1      30.917 -17.029  -3.801  0.00  0.00     0.064 H 
ATOM     18  C15 5TC d   1      29.110 -16.288  -6.542  0.00  0.00    -0.051 C 
ATOM     19  H23 5TC d   1      28.391 -16.572  -4.537  0.00  0.00     0.035 H 
ATOM     20  H24 5TC d   1      29.698 -15.351  -4.700  0.00  0.00     0.035 H 
ATOM     21  C16 5TC d   1      30.368 -16.169  -7.349  0.00  0.00    -0.047 C 
ATOM     22  H22 5TC d   1      28.662 -17.252  -6.824  0.00  0.00     0.040 H 
ATOM     23  C17 5TC d   1      31.198 -17.424  -7.192  0.00  0.00    -0.004 C 
ATOM     24  H29 5TC d   1      30.947 -15.302  -6.997  0.00  0.00     0.035 H 
ATOM     25  H30 5TC d   1      30.110 -16.032  -8.409  0.00  0.00     0.035 H 
ATOM     26  H27 5TC d   1      30.685 -18.264  -7.683  0.00  0.00     0.064 H 
ATOM     27  H28 5TC d   1      32.181 -17.271  -7.660  0.00  0.00     0.064 H 
BRANCH  18  28
ATOM     28  C14 5TC d   1      28.098 -15.234  -6.852  0.00  0.00    -0.054 C 
ATOM     29  H20 5TC d   1      28.344 -14.803  -7.834  0.00  0.00     0.034 H 
ATOM     30  H21 5TC d   1      27.110 -15.714  -6.900  0.00  0.00     0.034 H 
BRANCH  28  31
ATOM     31  C13 5TC d   1      28.024 -14.127  -5.870  0.00  0.00     0.010 C 
ATOM     32  H18 5TC d   1      27.370 -14.412  -5.032  0.00  0.00     0.047 H 
ATOM     33  H19 5TC d   1      29.029 -13.896  -5.488  0.00  0.00     0.047 H 
BRANCH  31  34
ATOM     34  C12 5TC d   1      27.475 -12.967  -6.556  0.00  0.00     0.217 C 
ATOM     35  O   5TC d   1      27.180 -13.034  -7.777  0.00  0.00    -0.274 OA
ATOM     36  N1  5TC d   1      27.348 -11.905  -5.668  0.00  0.00    -0.357 N 
ATOM     37  H3  5TC d   1      27.870 -11.872  -4.816  0.00  0.00     0.162 HD
BRANCH  36  38
ATOM     38  C11 5TC d   1      26.455 -10.882  -6.020  0.00  0.00     0.019 C 
ATOM     39  H4  5TC d   1      25.448 -11.224  -5.739  0.00  0.00     0.071 H 
ATOM     40  H5  5TC d   1      26.512 -10.768  -7.113  0.00  0.00     0.071 H 
BRANCH  38  41
ATOM     41  C8  5TC d   1      26.630  -9.558  -5.445  0.00  0.00    -0.040 A 
ATOM     42  C7  5TC d   1      27.714  -9.158  -4.694  0.00  0.00    -0.073 A 
ATOM     43  C6  5TC d   1      27.732  -7.831  -4.289  0.00  0.00    -0.057 A 
ATOM     44  H6  5TC d   1      28.511  -9.845  -4.433  0.00  0.00     0.084 H 
ATOM     45  C5  5TC d   1      26.725  -6.936  -4.662  0.00  0.00     0.030 A 
ATOM     46  H7  5TC d   1      28.548  -7.479  -3.668  0.00  0.00     0.086 H 
ATOM     47  C10 5TC d   1      25.639  -7.346  -5.413  0.00  0.00    -0.057 A 
ATOM     48  C9  5TC d   1      25.623  -8.679  -5.825  0.00  0.00    -0.073 A 
ATOM     49  H9  5TC d   1      24.837  -6.663  -5.670  0.00  0.00     0.086 H 
ATOM     50  H8  5TC d   1      24.813  -9.034  -6.451  0.00  0.00     0.084 H 
BRANCH  45  51
ATOM     51  N   5TC d   1      26.809  -5.585  -4.389  0.00  0.00    -0.381 N 
ATOM     52  C   5TC d   1      25.883  -4.552  -4.891  0.00  0.00    -0.005 C 
ATOM     53  C1  5TC d   1      26.280  -3.152  -4.316  0.00  0.00    -0.050 C 
ATOM     54  H1  5TC d   1      24.858  -4.798  -4.576  0.00  0.00     0.064 H 
ATOM     55  H2  5TC d   1      25.932  -4.522  -5.989  0.00  0.00     0.064 H 
ATOM     56  C2  5TC d   1      27.774  -2.798  -4.445  0.00  0.00    -0.062 C 
ATOM     57  H16 5TC d   1      26.015  -3.133  -3.248  0.00  0.00     0.035 H 
ATOM     58  H17 5TC d   1      25.700  -2.386  -4.851  0.00  0.00     0.035 H 
ATOM     59  C3  5TC d   1      28.633  -4.052  -4.505  0.00  0.00    -0.050 C 
ATOM     60  H14 5TC d   1      27.926  -2.214  -5.365  0.00  0.00     0.033 H 
ATOM     61  H15 5TC d   1      28.077  -2.197  -3.575  0.00  0.00     0.033 H 
ATOM     62  C4  5TC d   1      27.979  -5.122  -3.674  0.00  0.00    -0.005 C 
ATOM     63  H12 5TC d   1      28.719  -4.393  -5.547  0.00  0.00     0.035 H 
ATOM     64  H13 5TC d   1      29.635  -3.834  -4.107  0.00  0.00     0.035 H 
ATOM     65  H10 5TC d   1      28.679  -5.957  -3.521  0.00  0.00     0.064 H 
ATOM     66  H11 5TC d   1      27.682  -4.709  -2.699  0.00  0.00     0.064 H 
ENDBRANCH  45  51
ENDBRANCH  38  41
ENDBRANCH  36  38
ENDBRANCH  31  34
ENDBRANCH  28  31
ENDBRANCH  18  28
ENDBRANCH   1  13
TORSDOF 7
