REMARK  10 active torsions:
REMARK  status: ('A' for Active; 'I' for Inactive)
REMARK    1  A    between atoms: N5_15  and  C8_3 
REMARK    2  A    between atoms: C10_4  and  O19_22 
REMARK    3  A    between atoms: C11_18  and  N12_5 
REMARK    4  A    between atoms: C13_6  and  O25_25 
REMARK    5  A    between atoms: C15_7  and  C3_14 
REMARK    6  A    between atoms: C17_8  and  O21_23 
REMARK    7  A    between atoms: O19_22  and  C20_9 
REMARK    8  A    between atoms: O21_23  and  C22_10 
REMARK    9  A    between atoms: C1_12  and  C9_17 
REMARK   10  A    between atoms: C11_18  and  C18_21 
ROOT
ATOM      1  C10 5U2 d   1       6.142  -4.956   4.041  0.00  0.00     0.079 A 
ATOM      2  C15 5U2 d   1       8.327  -4.092   4.659  0.00  0.00    -0.019 A 
ATOM      3  C17 5U2 d   1       6.307  -3.013   5.493  0.00  0.00     0.079 A 
ATOM      4  C14 5U2 d   1       7.538  -5.046   3.996  0.00  0.00    -0.039 A 
ATOM      5  C16 5U2 d   1       7.699  -3.102   5.427  0.00  0.00    -0.039 A 
ATOM      6  C18 5U2 d   1       5.529  -3.950   4.798  0.00  0.00     0.034 A 
ATOM      7  H21 5U2 d   1       8.011  -5.853   3.449  0.00  0.00     0.089 H 
ATOM      8  H22 5U2 d   1       8.305  -2.393   5.980  0.00  0.00     0.089 H 
ENDROOT
BRANCH   2   9
ATOM      9  C3  5U2 d   1       9.818  -4.183   4.679  0.00  0.00    -0.009 A 
ATOM     10  C4  5U2 d   1      10.616  -3.056   4.765  0.00  0.00    -0.007 A 
ATOM     11  N5  5U2 d   1      11.975  -3.165   4.865  0.00  0.00    -0.328 N 
ATOM     12  H1  5U2 d   1      10.155  -2.069   4.753  0.00  0.00     0.113 H 
ATOM     13  C6  5U2 d   1      12.567  -4.394   4.932  0.00  0.00     0.253 A 
ATOM     14  C1  5U2 d   1      11.779  -5.572   4.824  0.00  0.00     0.007 A 
ATOM     15  O7  5U2 d   1      13.777  -4.495   5.077  0.00  0.00    -0.267 OA
ATOM     16  C2  5U2 d   1      10.428  -5.464   4.684  0.00  0.00    -0.060 A 
ATOM     17  H15 5U2 d   1       9.818  -6.359   4.576  0.00  0.00     0.086 H 
BRANCH  11  18
ATOM     18  C8  5U2 d   1      12.771  -1.936   5.011  0.00  0.00    -0.011 C 
ATOM     19  H2  5U2 d   1      12.111  -1.060   4.927  0.00  0.00     0.057 H 
ATOM     20  H3  5U2 d   1      13.534  -1.897   4.220  0.00  0.00     0.057 H 
ATOM     21  H4  5U2 d   1      13.262  -1.932   5.995  0.00  0.00     0.057 H 
ENDBRANCH  11  18
BRANCH  14  22
ATOM     22  C9  5U2 d   1      12.387  -6.952   4.843  0.00  0.00    -0.046 C 
ATOM     23  H16 5U2 d   1      13.478  -6.871   4.962  0.00  0.00     0.033 H 
ATOM     24  H17 5U2 d   1      12.158  -7.466   3.898  0.00  0.00     0.033 H 
ATOM     25  H18 5U2 d   1      11.969  -7.526   5.683  0.00  0.00     0.033 H 
ENDBRANCH  14  22
ENDBRANCH   2   9
BRANCH   1  26
ATOM     26  O19 5U2 d   1       5.368  -5.880   3.398  0.00  0.00    -0.355 OA
BRANCH  26  27
ATOM     27  C20 5U2 d   1       5.435  -5.973   1.974  0.00  0.00     0.010 C 
ATOM     28  H7  5U2 d   1       4.753  -6.762   1.626  0.00  0.00     0.066 H 
ATOM     29  H8  5U2 d   1       6.464  -6.218   1.671  0.00  0.00     0.066 H 
ATOM     30  H9  5U2 d   1       5.140  -5.011   1.529  0.00  0.00     0.066 H 
ENDBRANCH  26  27
ENDBRANCH   1  26
BRANCH   3  31
ATOM     31  O21 5U2 d   1       5.716  -2.005   6.210  0.00  0.00    -0.355 OA
BRANCH  31  32
ATOM     32  C22 5U2 d   1       6.403  -1.479   7.353  0.00  0.00     0.010 C 
ATOM     33  H10 5U2 d   1       5.797  -0.683   7.811  0.00  0.00     0.066 H 
ATOM     34  H11 5U2 d   1       7.373  -1.066   7.040  0.00  0.00     0.066 H 
ATOM     35  H12 5U2 d   1       6.566  -2.284   8.085  0.00  0.00     0.066 H 
ENDBRANCH  31  32
ENDBRANCH   3  31
BRANCH   6  36
ATOM     36  C11 5U2 d   1       4.018  -3.872   4.829  0.00  0.00     0.112 C 
ATOM     37  H19 5U2 d   1       3.609  -4.630   4.145  0.00  0.00     0.083 H 
ATOM     38  H20 5U2 d   1       3.672  -4.077   5.853  0.00  0.00     0.083 H 
BRANCH  36  39
ATOM     39  N12 5U2 d   1       3.527  -2.545   4.417  0.00  0.00    -0.062 N 
ATOM     40  C24 5U2 d   1       4.110  -2.077   3.145  0.00  0.00     0.109 C 
ATOM     41  C13 5U2 d   1       2.725  -1.510   2.807  0.00  0.00     0.082 C 
ATOM     42  H13 5U2 d   1       4.455  -2.878   2.475  0.00  0.00     0.080 H 
ATOM     43  H14 5U2 d   1       4.902  -1.322   3.252  0.00  0.00     0.080 H 
ATOM     44  C23 5U2 d   1       2.251  -2.675   3.686  0.00  0.00     0.109 C 
ATOM     45  H6  5U2 d   1       2.504  -0.500   3.183  0.00  0.00     0.088 H 
ATOM     46  H23 5U2 d   1       1.353  -2.463   4.286  0.00  0.00     0.080 H 
ATOM     47  H24 5U2 d   1       2.120  -3.629   3.154  0.00  0.00     0.080 H 
ATOM     48  H5  5U2 d   1       3.548  -1.889   5.182  0.00  0.00     0.280 HD
BRANCH  41  49
ATOM     49  O25 5U2 d   1       2.384  -1.605   1.421  0.00  0.00    -0.392 OA
ATOM     50  H25 5U2 d   1       2.717  -0.844   0.961  0.00  0.00     0.210 HD
ENDBRANCH  41  49
ENDBRANCH  36  39
ENDBRANCH   6  36
TORSDOF 10
