REMARK  17 active torsions:
REMARK  status: ('A' for Active; 'I' for Inactive)
REMARK    1  A    between atoms: N01_1  and  C02_2 
REMARK    2  A    between atoms: C02_2  and  C03_3 
REMARK    3  A    between atoms: C02_2  and  C06_6 
REMARK    4  A    between atoms: C02_2  and  C11_11 
REMARK    5  A    between atoms: C06_6  and  C07_7 
REMARK    6  A    between atoms: C07_7  and  C08_8 
REMARK    7  A    between atoms: C08_8  and  C09_9 
REMARK    8  A    between atoms: C09_9  and  N10_10 
REMARK    9  A    between atoms: C11_11  and  C12_12 
REMARK   10  A    between atoms: C12_12  and  C13_13 
REMARK   11  A    between atoms: C13_13  and  N14_14 
REMARK   12  A    between atoms: C13_13  and  C15_15 
REMARK   13  A    between atoms: C13_13  and  C20_20 
REMARK   14  A    between atoms: C15_15  and  C16_16 
REMARK   15  A    between atoms: C16_16  and  C17_17 
REMARK   16  A    between atoms: C17_17  and  C18_18 
REMARK   17  A    between atoms: C18_18  and  N19_19 
ROOT
ATOM      1  C11 3VN d   1      19.264   8.301  51.033  0.00  0.00    -0.021 C 
ATOM      2  H15 3VN d   1      20.222   7.945  51.440  0.00  0.00     0.037 H 
ATOM      3  H16 3VN d   1      18.436   7.782  51.538  0.00  0.00     0.037 H 
ENDROOT
BRANCH   1   4
ATOM      4  C02 3VN d   1      19.222   7.890  49.592  0.00  0.00     0.210 C 
BRANCH   4   5
ATOM      5  N01 3VN d   1      19.394   6.467  49.507  0.00  0.00    -0.060 N 
ATOM      6  H1  3VN d   1      20.274   6.209  49.925  0.00  0.00     0.275 HD
ATOM      7  H2  3VN d   1      19.387   6.185  48.539  0.00  0.00     0.275 HD
ATOM      8  H3  3VN d   1      18.642   6.008  49.996  0.00  0.00     0.275 HD
ENDBRANCH   4   5
BRANCH   4   9
ATOM      9  C03 3VN d   1      17.910   8.257  48.966  0.00  0.00     0.210 C 
ATOM     10  O04 3VN d   1      17.164   7.350  48.511  0.00  0.00    -0.646 OA
ATOM     11  O05 3VN d   1      17.535   9.460  48.875  0.00  0.00    -0.646 OA
ENDBRANCH   4   9
BRANCH   4  12
ATOM     12  C06 3VN d   1      20.337   8.554  48.852  0.00  0.00    -0.024 C 
ATOM     13  H4  3VN d   1      21.236   7.935  48.992  0.00  0.00     0.037 H 
ATOM     14  H5  3VN d   1      20.495   9.540  49.315  0.00  0.00     0.037 H 
BRANCH  12  15
ATOM     15  C07 3VN d   1      20.174   8.774  47.385  0.00  0.00    -0.061 C 
ATOM     16  H6  3VN d   1      19.476   9.614  47.255  0.00  0.00     0.033 H 
ATOM     17  H7  3VN d   1      19.729   7.860  46.964  0.00  0.00     0.033 H 
BRANCH  15  18
ATOM     18  C08 3VN d   1      21.391   9.082  46.587  0.00  0.00    -0.043 C 
ATOM     19  H8  3VN d   1      21.799   8.128  46.221  0.00  0.00     0.035 H 
ATOM     20  H9  3VN d   1      22.119   9.558  47.261  0.00  0.00     0.035 H 
BRANCH  18  21
ATOM     21  C09 3VN d   1      21.215   9.976  45.411  0.00  0.00     0.080 C 
ATOM     22  H10 3VN d   1      22.213  10.322  45.103  0.00  0.00     0.075 H 
ATOM     23  H11 3VN d   1      20.612  10.837  45.735  0.00  0.00     0.075 H 
BRANCH  21  24
ATOM     24  N10 3VN d   1      20.578   9.409  44.259  0.00  0.00    -0.079 N 
ATOM     25  H12 3VN d   1      20.516  10.105  43.533  0.00  0.00     0.274 HD
ATOM     26  H13 3VN d   1      19.652   9.098  44.506  0.00  0.00     0.274 HD
ATOM     27  H14 3VN d   1      21.119   8.625  43.928  0.00  0.00     0.274 HD
ENDBRANCH  21  24
ENDBRANCH  18  21
ENDBRANCH  15  18
ENDBRANCH  12  15
ENDBRANCH   4  12
ENDBRANCH   1   4
BRANCH   1  28
ATOM     28  C12 3VN d   1      19.152   9.749  51.389  0.00  0.00    -0.021 C 
ATOM     29  H17 3VN d   1      18.195  10.102  50.978  0.00  0.00     0.037 H 
ATOM     30  H18 3VN d   1      19.981  10.264  50.881  0.00  0.00     0.037 H 
BRANCH  28  31
ATOM     31  C13 3VN d   1      19.190  10.183  52.818  0.00  0.00     0.213 C 
BRANCH  31  32
ATOM     32  N14 3VN d   1      18.623  11.493  52.923  0.00  0.00    -0.060 N 
ATOM     33  H19 3VN d   1      18.645  11.793  53.885  0.00  0.00     0.275 HD
ATOM     34  H20 3VN d   1      17.669  11.473  52.599  0.00  0.00     0.275 HD
ATOM     35  H21 3VN d   1      19.156  12.136  52.358  0.00  0.00     0.275 HD
ENDBRANCH  31  32
BRANCH  31  36
ATOM     36  C15 3VN d   1      20.613  10.212  53.262  0.00  0.00    -0.009 C 
ATOM     37  H22 3VN d   1      21.096  11.065  52.763  0.00  0.00     0.043 H 
ATOM     38  H23 3VN d   1      21.082   9.276  52.923  0.00  0.00     0.043 H 
BRANCH  36  39
ATOM     39  C16 3VN d   1      20.881  10.341  54.723  0.00  0.00    -0.102 C 
ATOM     40  H24 3VN d   1      20.184  10.860  55.380  0.00  0.00     0.076 H 
BRANCH  39  41
ATOM     41  C17 3VN d   1      22.135   9.736  55.253  0.00  0.00    -0.082 C 
ATOM     42  H25 3VN d   1      22.818   9.179  54.613  0.00  0.00     0.078 H 
BRANCH  41  43
ATOM     43  C18 3VN d   1      22.404   9.933  56.704  0.00  0.00     0.095 C 
ATOM     44  H26 3VN d   1      22.483  11.015  56.886  0.00  0.00     0.081 H 
ATOM     45  H27 3VN d   1      23.366   9.451  56.935  0.00  0.00     0.081 H 
BRANCH  43  46
ATOM     46  N19 3VN d   1      21.423   9.407  57.612  0.00  0.00    -0.076 N 
ATOM     47  H28 3VN d   1      21.707   9.597  58.560  0.00  0.00     0.274 HD
ATOM     48  H29 3VN d   1      21.341   8.411  57.479  0.00  0.00     0.274 HD
ATOM     49  H30 3VN d   1      20.532   9.844  57.434  0.00  0.00     0.274 HD
ENDBRANCH  43  46
ENDBRANCH  41  43
ENDBRANCH  39  41
ENDBRANCH  36  39
ENDBRANCH  31  36
BRANCH  31  50
ATOM     50  C20 3VN d   1      18.413   9.258  53.695  0.00  0.00     0.210 C 
ATOM     51  O21 3VN d   1      18.871   8.123  53.996  0.00  0.00    -0.646 OA
ATOM     52  O22 3VN d   1      17.293   9.619  54.146  0.00  0.00    -0.646 OA
ENDBRANCH  31  50
ENDBRANCH  28  31
ENDBRANCH   1  28
TORSDOF 17
