REMARK  12 active torsions:
REMARK  status: ('A' for Active; 'I' for Inactive)
REMARK    1  A    between atoms: C4_1  and  C6_2 
REMARK    2  A    between atoms: C4_1  and  C2_10 
REMARK    3  A    between atoms: N7_12  and  C4_1 
REMARK    4  A    between atoms: C10_4  and  C9_13 
REMARK    5  A    between atoms: C16_19  and  C17_5 
REMARK    6  A    between atoms: C24_7  and  N25_24 
REMARK    7  A    between atoms: C2_10  and  C1_9 
REMARK    8  A    between atoms: C2_10  and  C3_11 
REMARK    9  A    between atoms: C12_15  and  C16_19 
REMARK   10  A    between atoms: N13_16  and  C14_17 
REMARK   11  A    between atoms: C16_19  and  C18_20 
REMARK   12  A    between atoms: C16_19  and  O19_21 
ROOT
ATOM      1  C8  5U3 d   1     -22.066  21.945 481.894  0.00  0.00    -0.002 A 
ATOM      2  C20 5U3 d   1     -24.260  21.404 480.991  0.00  0.00     0.083 A 
ATOM      3  C24 5U3 d   1     -25.127  19.322 480.679  0.00  0.00     0.159 A 
ATOM      4  C26 5U3 d   1     -23.961  20.047 481.154  0.00  0.00     0.108 A 
ATOM      5  N7  5U3 d   1     -21.801  20.610 482.061  0.00  0.00    -0.318 N 
ATOM      6  C9  5U3 d   1     -23.252  22.384 481.370  0.00  0.00     0.039 A 
ATOM      7  N21 5U3 d   1     -25.500  21.490 480.463  0.00  0.00    -0.274 N 
ATOM      8  N23 5U3 d   1     -26.010  20.200 480.281  0.00  0.00    -0.155 NA
ATOM      9  C27 5U3 d   1     -22.713  19.672 481.693  0.00  0.00     0.264 A 
ATOM     10  O28 5U3 d   1     -22.493  18.481 481.819  0.00  0.00    -0.267 OA
ATOM     11  H5  5U3 d   1     -21.313  22.675 482.186  0.00  0.00     0.113 H 
ATOM     12  H24 5U3 d   1     -25.991  22.365 480.231  0.00  0.00     0.189 HD
ENDROOT
BRANCH   6  13
ATOM     13  C10 5U3 d   1     -23.552  23.822 481.153  0.00  0.00     0.093 A 
ATOM     14  C11 5U3 d   1     -22.638  24.885 481.225  0.00  0.00    -0.026 A 
ATOM     15  C12 5U3 d   1     -23.314  26.023 480.952  0.00  0.00     0.066 A 
ATOM     16  H16 5U3 d   1     -21.577  24.807 481.458  0.00  0.00     0.090 H 
ATOM     17  N13 5U3 d   1     -24.618  25.697 480.712  0.00  0.00    -0.275 N 
ATOM     18  N15 5U3 d   1     -24.736  24.312 480.836  0.00  0.00    -0.172 NA
BRANCH  15  19
ATOM     19  C16 5U3 d   1     -22.668  27.395 480.950  0.00  0.00     0.094 C 
BRANCH  19  20
ATOM     20  C17 5U3 d   1     -22.834  28.113 479.607  0.00  0.00    -0.043 C 
ATOM     21  H6  5U3 d   1     -22.350  29.100 479.656  0.00  0.00     0.032 H 
ATOM     22  H7  5U3 d   1     -23.905  28.240 479.389  0.00  0.00     0.032 H 
ATOM     23  H8  5U3 d   1     -22.366  27.515 478.811  0.00  0.00     0.032 H 
ENDBRANCH  19  20
BRANCH  19  24
ATOM     24  C18 5U3 d   1     -23.287  28.234 482.073  0.00  0.00    -0.043 C 
ATOM     25  H20 5U3 d   1     -23.163  27.711 483.033  0.00  0.00     0.032 H 
ATOM     26  H21 5U3 d   1     -24.358  28.382 481.872  0.00  0.00     0.032 H 
ATOM     27  H22 5U3 d   1     -22.784  29.211 482.121  0.00  0.00     0.032 H 
ENDBRANCH  19  24
BRANCH  19  28
ATOM     28  O19 5U3 d   1     -21.266  27.210 481.188  0.00  0.00    -0.384 OA
ATOM     29  H23 5U3 d   1     -20.898  26.668 480.500  0.00  0.00     0.211 HD
ENDBRANCH  19  28
ENDBRANCH  15  19
BRANCH  17  30
ATOM     30  C14 5U3 d   1     -25.723  26.597 480.376  0.00  0.00     0.003 C 
ATOM     31  H17 5U3 d   1     -26.646  26.012 480.246  0.00  0.00     0.059 H 
ATOM     32  H18 5U3 d   1     -25.491  27.129 479.441  0.00  0.00     0.059 H 
ATOM     33  H19 5U3 d   1     -25.862  27.326 481.188  0.00  0.00     0.059 H 
ENDBRANCH  17  30
ENDBRANCH   6  13
BRANCH   5  34
ATOM     34  C4  5U3 d   1     -20.495  20.199 482.632  0.00  0.00     0.019 C 
ATOM     35  H1  5U3 d   1     -20.351  19.127 482.432  0.00  0.00     0.073 H 
BRANCH  34  36
ATOM     36  C6  5U3 d   1     -19.355  20.978 481.950  0.00  0.00    -0.056 C 
ATOM     37  H2  5U3 d   1     -18.391  20.667 482.379  0.00  0.00     0.030 H 
ATOM     38  H3  5U3 d   1     -19.499  22.056 482.113  0.00  0.00     0.030 H 
ATOM     39  H4  5U3 d   1     -19.361  20.767 480.870  0.00  0.00     0.030 H 
ENDBRANCH  34  36
BRANCH  34  40
ATOM     40  C2  5U3 d   1     -20.468  20.414 484.169  0.00  0.00    -0.041 C 
ATOM     41  H12 5U3 d   1     -20.691  21.474 484.360  0.00  0.00     0.042 H 
BRANCH  40  42
ATOM     42  C1  5U3 d   1     -21.513  19.554 484.895  0.00  0.00    -0.071 C 
ATOM     43  H9  5U3 d   1     -21.454  19.741 485.977  0.00  0.00     0.028 H 
ATOM     44  H10 5U3 d   1     -21.315  18.491 484.696  0.00  0.00     0.028 H 
ATOM     45  H11 5U3 d   1     -22.518  19.814 484.532  0.00  0.00     0.028 H 
ENDBRANCH  40  42
BRANCH  40  46
ATOM     46  C3  5U3 d   1     -19.102  20.083 484.784  0.00  0.00    -0.071 C 
ATOM     47  H13 5U3 d   1     -18.323  20.681 484.289  0.00  0.00     0.028 H 
ATOM     48  H14 5U3 d   1     -18.887  19.013 484.645  0.00  0.00     0.028 H 
ATOM     49  H15 5U3 d   1     -19.117  20.317 485.859  0.00  0.00     0.028 H 
ENDBRANCH  40  46
ENDBRANCH  34  40
ENDBRANCH   5  34
BRANCH   3  50
ATOM     50  N25 5U3 d   1     -25.281  17.946 480.653  0.00  0.00    -0.382 N 
ATOM     51  H25 5U3 d   1     -26.153  17.532 480.294  0.00  0.00     0.157 HD
ATOM     52  H26 5U3 d   1     -24.523  17.337 480.993  0.00  0.00     0.157 HD
ENDBRANCH   3  50
TORSDOF 12
