REMARK  5 active torsions:
REMARK  status: ('A' for Active; 'I' for Inactive)
REMARK    1  A    between atoms: N8_14  and  C7_4 
REMARK    2  A    between atoms: C11_16  and  C10_5 
REMARK    3  A    between atoms: N14_18  and  C15_7 
REMARK    4  A    between atoms: C21_9  and  N22_22 
REMARK    5  A    between atoms: C2_12  and  C1_11 
ROOT
ATOM      1  C10 5U4 d   1      25.393 -22.340   5.447  0.00  0.00     0.040 A 
ATOM      2  C17 5U4 d   1      26.411 -21.386   5.025  0.00  0.00     0.083 A 
ATOM      3  C21 5U4 d   1      27.349 -19.345   4.600  0.00  0.00     0.159 A 
ATOM      4  C24 5U4 d   1      24.896 -19.595   5.685  0.00  0.00     0.268 A 
ATOM      5  N8  5U4 d   1      23.997 -20.549   6.105  0.00  0.00    -0.287 N 
ATOM      6  C9  5U4 d   1      24.226 -21.885   5.961  0.00  0.00     0.003 A 
ATOM      7  N18 5U4 d   1      27.639 -21.534   4.479  0.00  0.00    -0.274 N 
ATOM      8  N20 5U4 d   1      28.190 -20.274   4.234  0.00  0.00    -0.155 NA
ATOM      9  C23 5U4 d   1      26.148 -20.008   5.130  0.00  0.00     0.108 A 
ATOM     10  O25 5U4 d   1      24.652 -18.388   5.797  0.00  0.00    -0.267 OA
ATOM     11  H12 5U4 d   1      23.459 -22.597   6.264  0.00  0.00     0.114 H 
ATOM     12  H14 5U4 d   1      28.096 -22.434   4.276  0.00  0.00     0.189 HD
ENDROOT
BRANCH   5  13
ATOM     13  C7  5U4 d   1      22.747 -20.199   6.660  0.00  0.00     0.048 A 
ATOM     14  C6  5U4 d   1      21.613 -20.456   5.887  0.00  0.00    -0.056 A 
ATOM     15  C5  5U4 d   1      20.360 -20.139   6.377  0.00  0.00    -0.081 A 
ATOM     16  H3  5U4 d   1      21.715 -20.903   4.905  0.00  0.00     0.087 H 
ATOM     17  C4  5U4 d   1      20.234 -19.572   7.638  0.00  0.00    -0.082 A 
ATOM     18  H2  5U4 d   1      19.478 -20.333   5.778  0.00  0.00     0.083 H 
ATOM     19  C3  5U4 d   1      21.343 -19.314   8.422  0.00  0.00    -0.075 A 
ATOM     20  H1  5U4 d   1      19.248 -19.327   8.015  0.00  0.00     0.083 H 
ATOM     21  C2  5U4 d   1      22.600 -19.628   7.946  0.00  0.00    -0.035 A 
ATOM     22  H11 5U4 d   1      21.226 -18.868   9.403  0.00  0.00     0.084 H 
BRANCH  21  23
ATOM     23  C1  5U4 d   1      23.754 -19.320   8.868  0.00  0.00    -0.049 C 
ATOM     24  H8  5U4 d   1      23.371 -18.883   9.802  0.00  0.00     0.033 H 
ATOM     25  H9  5U4 d   1      24.432 -18.605   8.380  0.00  0.00     0.033 H 
ATOM     26  H10 5U4 d   1      24.300 -20.248   9.094  0.00  0.00     0.033 H 
ENDBRANCH  21  23
ENDBRANCH   5  13
BRANCH   1  27
ATOM     27  C11 5U4 d   1      25.594 -23.791   5.225  0.00  0.00     0.092 A 
ATOM     28  C12 5U4 d   1      24.535 -24.711   5.248  0.00  0.00    -0.036 A 
ATOM     29  C13 5U4 d   1      25.043 -25.920   4.980  0.00  0.00     0.000 A 
ATOM     30  H13 5U4 d   1      23.489 -24.483   5.448  0.00  0.00     0.089 H 
ATOM     31  N14 5U4 d   1      26.365 -25.785   4.769  0.00  0.00    -0.285 N 
ATOM     32  H4  5U4 d   1      24.483 -26.853   4.940  0.00  0.00     0.114 H 
ATOM     33  N16 5U4 d   1      26.708 -24.433   4.918  0.00  0.00    -0.173 NA
BRANCH  31  34
ATOM     34  C15 5U4 d   1      27.247 -26.915   4.447  0.00  0.00     0.002 C 
ATOM     35  H5  5U4 d   1      28.277 -26.551   4.321  0.00  0.00     0.059 H 
ATOM     36  H6  5U4 d   1      26.909 -27.390   3.514  0.00  0.00     0.059 H 
ATOM     37  H7  5U4 d   1      27.215 -27.650   5.265  0.00  0.00     0.059 H 
ENDBRANCH  31  34
ENDBRANCH   1  27
BRANCH   3  38
ATOM     38  N22 5U4 d   1      27.610 -17.988   4.488  0.00  0.00    -0.382 N 
ATOM     39  H15 5U4 d   1      26.906 -17.301   4.794  0.00  0.00     0.157 HD
ATOM     40  H16 5U4 d   1      28.508 -17.667   4.099  0.00  0.00     0.157 HD
ENDBRANCH   3  38
TORSDOF 5
