REMARK  4 active torsions:
REMARK  status: ('A' for Active; 'I' for Inactive)
REMARK    1  A    between atoms: NAO_6  and  CAN_7 
REMARK    2  A    between atoms: CAM_12  and  CAK_13 
REMARK    3  A    between atoms: CAK_13  and  NAL_14 
REMARK    4  A    between atoms: NAL_14  and  CAA_15 
ROOT
ATOM      1  CAN 5TT d   1      29.995  77.082   9.149  0.00  0.00     0.030 A 
ATOM      2  CAE 5TT d   1      29.379  77.129  10.392  0.00  0.00    -0.057 A 
ATOM      3  CAC 5TT d   1      29.944  76.434  11.454  0.00  0.00    -0.073 A 
ATOM      4  CAD 5TT d   1      31.121  76.290   8.972  0.00  0.00    -0.057 A 
ATOM      5  CAB 5TT d   1      31.708  75.645  10.054  0.00  0.00    -0.073 A 
ATOM      6  CAM 5TT d   1      31.126  75.712  11.305  0.00  0.00    -0.033 A 
ATOM      7  H11 5TT d   1      28.469  77.701  10.532  0.00  0.00     0.086 H 
ATOM      8  H12 5TT d   1      29.454  76.454  12.421  0.00  0.00     0.084 H 
ATOM      9  H13 5TT d   1      31.546  76.174   7.982  0.00  0.00     0.086 H 
ATOM     10  H14 5TT d   1      32.627  75.087   9.916  0.00  0.00     0.084 H 
ENDROOT
BRANCH   1  11
ATOM     11  NAO 5TT d   1      29.385  77.714   8.070  0.00  0.00    -0.381 N 
ATOM     12  CAI 5TT d   1      28.190  78.565   8.218  0.00  0.00    -0.005 C 
ATOM     13  CAG 5TT d   1      28.246  79.695   7.188  0.00  0.00    -0.050 C 
ATOM     14  H1  5TT d   1      27.286  77.961   8.053  0.00  0.00     0.064 H 
ATOM     15  H2  5TT d   1      28.166  78.992   9.232  0.00  0.00     0.064 H 
ATOM     16  CAF 5TT d   1      28.288  79.119   5.761  0.00  0.00    -0.062 C 
ATOM     17  H3  5TT d   1      29.149  80.299   7.362  0.00  0.00     0.035 H 
ATOM     18  H4  5TT d   1      27.354  80.329   7.297  0.00  0.00     0.035 H 
ATOM     19  CAH 5TT d   1      29.551  78.267   5.688  0.00  0.00    -0.050 C 
ATOM     20  H5  5TT d   1      28.332  79.932   5.022  0.00  0.00     0.033 H 
ATOM     21  H6  5TT d   1      27.398  78.500   5.572  0.00  0.00     0.033 H 
ATOM     22  CAJ 5TT d   1      29.502  77.138   6.715  0.00  0.00    -0.005 C 
ATOM     23  H7  5TT d   1      30.427  78.901   5.891  0.00  0.00     0.035 H 
ATOM     24  H8  5TT d   1      29.637  77.835   4.680  0.00  0.00     0.035 H 
ATOM     25  H9  5TT d   1      30.423  76.541   6.648  0.00  0.00     0.064 H 
ATOM     26  H10 5TT d   1      28.633  76.495   6.513  0.00  0.00     0.064 H 
ENDBRANCH   1  11
BRANCH   6  27
ATOM     27  CAK 5TT d   1      31.793  74.951  12.454  0.00  0.00     0.105 C 
ATOM     28  H15 5TT d   1      32.879  75.122  12.405  0.00  0.00     0.083 H 
ATOM     29  H16 5TT d   1      31.585  73.878  12.332  0.00  0.00     0.083 H 
BRANCH  27  30
ATOM     30  NAL 5TT d   1      31.311  75.375  13.776  0.00  0.00    -0.075 N 
ATOM     31  H17 5TT d   1      30.325  75.187  13.866  0.00  0.00     0.277 HD
ATOM     32  H18 5TT d   1      31.479  76.360  13.911  0.00  0.00     0.277 HD
BRANCH  30  33
ATOM     33  CAA 5TT d   1      32.070  74.590  14.753  0.00  0.00     0.065 C 
ATOM     34  H19 5TT d   1      31.752  74.864  15.770  0.00  0.00     0.067 H 
ATOM     35  H20 5TT d   1      33.144  74.798  14.636  0.00  0.00     0.067 H 
ATOM     36  H21 5TT d   1      31.884  73.519  14.587  0.00  0.00     0.067 H 
ENDBRANCH  30  33
ENDBRANCH  27  30
ENDBRANCH   6  27
TORSDOF 4
