REMARK  14 active torsions:
REMARK  status: ('A' for Active; 'I' for Inactive)
REMARK    1  A    between atoms: O5'_4  and  P_1 
REMARK    2  A    between atoms: P_1  and  O3'1_31 
REMARK    3  A    between atoms: C5'_5  and  O5'_4 
REMARK    4  A    between atoms: C4'_6  and  C5'_5 
REMARK    5  A    between atoms: C2'_10  and  O2'_11 
REMARK    6  A    between atoms: N9_13  and  C1'_12 
REMARK    7  A    between atoms: C6_17  and  N6_18 
REMARK    8  A    between atoms: O5'1_26  and  P1_23 
REMARK    9  A    between atoms: C5'1_27  and  O5'1_26 
REMARK   10  A    between atoms: C4'1_28  and  C5'1_27 
REMARK   11  A    between atoms: O3'1_31  and  C3'1_30 
REMARK   12  A    between atoms: C2'1_32  and  O2'1_33 
REMARK   13  A    between atoms: C1'1_34  and  N91_35 
REMARK   14  A    between atoms: C61_39  and  N61_40 
ROOT
ATOM      1  O3' 2BA d   1      12.492   9.829  -6.861  0.00  0.00    -0.279 OA
ENDROOT
BRANCH   1   2
ATOM      2  P   2BA d   1      12.975   8.973  -5.583  0.00  0.00     0.408 P 
ATOM      3  O1P 2BA d   1      11.961   8.342  -4.664  0.00  0.00    -0.624 OA
ATOM      4  O2P 2BA d   1      13.863   9.869  -4.753  0.00  0.00    -0.624 OA
BRANCH   2   5
ATOM      5  O5' 2BA d   1      14.148   8.003  -6.116  0.00  0.00    -0.287 OA
BRANCH   5   6
ATOM      6  C5' 2BA d   1      15.073   8.032  -6.569  0.00  0.00     0.056 C 
ATOM      7  H1  2BA d   1      15.808   7.830  -5.776  0.00  0.00     0.079 H 
ATOM      8  H2  2BA d   1      15.202   9.061  -6.936  0.00  0.00     0.079 H 
BRANCH   6   9
ATOM      9  C4' 2BA d   1      15.434   7.139  -7.706  0.00  0.00     0.064 C 
ATOM     10  O4' 2BA d   1      15.699   6.122  -6.741  0.00  0.00    -0.356 OA
ATOM     11  C1' 2BA d   1      15.571   4.823  -7.324  0.00  0.00     0.137 C 
ATOM     12  C2' 2BA d   1      15.407   5.010  -8.820  0.00  0.00     0.080 C 
ATOM     13  H8  2BA d   1      16.442   4.180  -7.129  0.00  0.00     0.122 H 
ATOM     14  C3' 2BA d   1      14.970   6.450  -8.984  0.00  0.00    -0.011 C 
ATOM     15  H6  2BA d   1      14.653   4.322  -9.230  0.00  0.00     0.089 H 
ATOM     16  H4  2BA d   1      15.448   6.903  -9.865  0.00  0.00     0.041 H 
ATOM     17  H5  2BA d   1      13.877   6.515  -9.086  0.00  0.00     0.041 H 
ATOM     18  H3  2BA d   1      16.366   7.592  -8.076  0.00  0.00     0.086 H 
BRANCH  11  19
ATOM     19  N9  2BA d   1      14.143   4.241  -6.440  0.00  0.00    -0.294 N 
ATOM     20  C8  2BA d   1      13.148   4.788  -5.718  0.00  0.00     0.071 A 
ATOM     21  N7  2BA d   1      12.261   3.831  -5.367  0.00  0.00    -0.236 NA
ATOM     22  H9  2BA d   1      13.069   5.842  -5.456  0.00  0.00     0.144 H 
ATOM     23  C5  2BA d   1      12.720   2.675  -5.877  0.00  0.00     0.149 A 
ATOM     24  C6  2BA d   1      12.242   1.379  -5.842  0.00  0.00     0.155 A 
ATOM     25  C4  2BA d   1      13.907   2.930  -6.551  0.00  0.00     0.167 A 
ATOM     26  N1  2BA d   1      12.939   0.397  -6.466  0.00  0.00    -0.222 NA
ATOM     27  C2  2BA d   1      14.086   0.670  -7.115  0.00  0.00     0.091 A 
ATOM     28  N3  2BA d   1      14.575   1.917  -7.163  0.00  0.00    -0.222 NA
ATOM     29  H12 2BA d   1      14.623  -0.132  -7.607  0.00  0.00     0.146 H 
BRANCH  24  30
ATOM     30  N6  2BA d   1      11.086   1.124  -5.186  0.00  0.00    -0.382 N 
ATOM     31  H10 2BA d   1      10.715   0.164  -5.150  0.00  0.00     0.157 HD
ATOM     32  H11 2BA d   1      10.577   1.890  -4.723  0.00  0.00     0.157 HD
ENDBRANCH  24  30
ENDBRANCH  11  19
BRANCH  12  33
ATOM     33  O2' 2BA d   1      16.671   4.788  -9.450  0.00  0.00    -0.391 OA
ATOM     34  H7  2BA d   1      16.926   3.880  -9.335  0.00  0.00     0.210 HD
ENDBRANCH  12  33
ENDBRANCH   6   9
ENDBRANCH   5   6
ENDBRANCH   2   5
ENDBRANCH   1   2
BRANCH   1  35
ATOM     35  C3' 2BA d   1      11.477   9.458  -7.843  0.00  0.00     0.106 C 
ATOM     36  C4' 2BA d   1      11.432  10.275  -8.996  0.00  0.00     0.090 C 
ATOM     37  O4' 2BA d   1      10.496   9.551 -10.017  0.00  0.00    -0.353 OA
ATOM     38  H15 2BA d   1      11.258  11.337  -8.769  0.00  0.00     0.090 H 
ATOM     39  C1' 2BA d   1       9.490   9.026  -9.148  0.00  0.00     0.140 C 
ATOM     40  C2' 2BA d   1      10.024   9.163  -7.657  0.00  0.00     0.106 C 
ATOM     41  H19 2BA d   1       8.544   9.570  -9.287  0.00  0.00     0.122 H 
ATOM     42  H17 2BA d   1       9.996   8.137  -7.260  0.00  0.00     0.093 H 
ATOM     43  H16 2BA d   1      11.878   8.490  -8.178  0.00  0.00     0.092 H 
BRANCH  36  44
ATOM     44  C5' 2BA d   1      12.680   9.891 -10.155  0.00  0.00     0.059 C 
ATOM     45  H13 2BA d   1      12.636  10.609 -10.988  0.00  0.00     0.079 H 
ATOM     46  H14 2BA d   1      13.663   9.956  -9.666  0.00  0.00     0.079 H 
BRANCH  44  47
ATOM     47  O5' 2BA d   1      12.491   8.571 -10.660  0.00  0.00    -0.280 OA
BRANCH  47  48
ATOM     48  P1  2BA d   1      13.710   7.800 -11.367  0.00  0.00     0.422 P 
ATOM     49  O3' 2BA d   1      14.889   7.644 -10.283  0.00  0.00    -0.617 OA
ATOM     50  O1P 2BA d   1      13.288   6.352 -11.444  0.00  0.00    -0.617 OA
ATOM     51  O2P 2BA d   1      14.045   8.290 -12.758  0.00  0.00    -0.617 OA
ENDBRANCH  47  48
ENDBRANCH  44  47
ENDBRANCH  36  44
BRANCH  39  52
ATOM     52  N91 2BA d   1       9.295   7.571  -9.372  0.00  0.00    -0.294 N 
ATOM     53  C81 2BA d   1      10.033   6.784 -10.171  0.00  0.00     0.071 A 
ATOM     54  N71 2BA d   1       9.559   5.520 -10.104  0.00  0.00    -0.236 NA
ATOM     55  H20 2BA d   1      10.877   7.111 -10.776  0.00  0.00     0.144 H 
ATOM     56  C51 2BA d   1       8.517   5.522  -9.251  0.00  0.00     0.149 A 
ATOM     57  C61 2BA d   1       7.655   4.533  -8.802  0.00  0.00     0.155 A 
ATOM     58  C41 2BA d   1       8.349   6.820  -8.788  0.00  0.00     0.167 A 
ATOM     59  N11 2BA d   1       6.677   4.866  -7.921  0.00  0.00    -0.222 NA
ATOM     60  C21 2BA d   1       6.534   6.130  -7.483  0.00  0.00     0.091 A 
ATOM     61  N31 2BA d   1       7.351   7.105  -7.901  0.00  0.00    -0.222 NA
ATOM     62  H23 2BA d   1       5.743   6.363  -6.779  0.00  0.00     0.146 H 
BRANCH  57  63
ATOM     63  N61 2BA d   1       7.798   3.264  -9.242  0.00  0.00    -0.382 N 
ATOM     64  H21 2BA d   1       7.158   2.528  -8.909  0.00  0.00     0.157 HD
ATOM     65  H22 2BA d   1       8.547   3.032  -9.910  0.00  0.00     0.157 HD
ENDBRANCH  57  63
ENDBRANCH  39  52
BRANCH  40  66
ATOM     66  O2' 2BA d   1       9.274   9.868  -6.665  0.00  0.00    -0.388 OA
ATOM     67  H18 2BA d   1       8.374   9.565  -6.676  0.00  0.00     0.210 HD
ENDBRANCH  40  66
ENDBRANCH   1  35
TORSDOF 14
