REMARK  13 active torsions:
REMARK  status: ('A' for Active; 'I' for Inactive)
REMARK    1  A    between atoms: C1_1  and  C02_29 
REMARK    2  A    between atoms: C7_7  and  C11_11 
REMARK    3  A    between atoms: C9_9  and  C10_10 
REMARK    4  A    between atoms: O27_27  and  C12_12 
REMARK    5  A    between atoms: C01_32  and  C13_13 
REMARK       I    between atoms: C13_13  and  N_33 
REMARK    6  A    between atoms: C14_14  and  O23_23 
REMARK    7  A    between atoms: C15_15  and  O24_24 
REMARK    8  A    between atoms: C16_16  and  O25_25 
REMARK    9  A    between atoms: C17_17  and  C20_20 
REMARK   10  A    between atoms: C18_18  and  O27_27 
REMARK   11  A    between atoms: N_33  and  C19_19 
REMARK   12  A    between atoms: C20_20  and  O26_26 
REMARK       I    between atoms: C02_29  and  N1_30 
REMARK   13  A    between atoms: N1_30  and  C21_31 
ROOT
ATOM      1  C3  5U7 d   1      -6.190   7.236  11.365  0.00  0.00    -0.070 A 
ATOM      2  C4  5U7 d   1      -6.613   9.516  10.697  0.00  0.00    -0.064 A 
ATOM      3  C6  5U7 d   1      -4.848   7.354  10.938  0.00  0.00    -0.049 A 
ATOM      4  C7  5U7 d   1      -5.286   9.637  10.279  0.00  0.00    -0.028 A 
ATOM      5  C9  5U7 d   1      -7.048   8.318  11.233  0.00  0.00    -0.025 A 
ATOM      6  C12 5U7 d   1      -4.423   8.568  10.394  0.00  0.00     0.078 A 
ATOM      7  H2  5U7 d   1      -6.547   6.306  11.793  0.00  0.00     0.085 H 
ATOM      8  H3  5U7 d   1      -7.295  10.353  10.602  0.00  0.00     0.085 H 
ATOM      9  H5  5U7 d   1      -4.163   6.519  11.031  0.00  0.00     0.087 H 
ENDROOT
BRANCH   5  10
ATOM     10  C10 5U7 d   1      -8.522   8.267  11.701  0.00  0.00    -0.024 A 
ATOM     11  C2  5U7 d   1      -9.292   7.124  11.565  0.00  0.00    -0.057 A 
ATOM     12  C1  5U7 d   1     -10.614   7.125  12.022  0.00  0.00     0.033 A 
ATOM     13  H1  5U7 d   1      -8.873   6.235  11.108  0.00  0.00     0.086 H 
ATOM     14  C5  5U7 d   1     -11.157   8.275  12.618  0.00  0.00    -0.052 A 
ATOM     15  C01 5U7 d   1     -10.375   9.425  12.763  0.00  0.00     0.033 A 
ATOM     16  H4  5U7 d   1     -12.184   8.271  12.966  0.00  0.00     0.086 H 
ATOM     17  C8  5U7 d   1      -9.050   9.406  12.303  0.00  0.00    -0.057 A 
ATOM     18  H6  5U7 d   1      -8.430  10.288  12.418  0.00  0.00     0.086 H 
BRANCH  12  19
ATOM     19  C02 5U7 d   1     -11.506   5.874  11.868  0.00  0.00     0.251 C 
ATOM     20  O3  5U7 d   1     -12.703   6.046  11.987  0.00  0.00    -0.268 OA
ATOM     21  N1  5U7 d   1     -11.041   4.526  11.588  0.00  0.00    -0.361 N 
ATOM     22  H24 5U7 d   1     -11.738   3.813  11.510  0.00  0.00     0.162 HD
BRANCH  21  23
ATOM     23  C21 5U7 d   1      -9.663   4.120  11.411  0.00  0.00    -0.018 C 
ATOM     24  H25 5U7 d   1      -9.622   3.039  11.211  0.00  0.00     0.056 H 
ATOM     25  H26 5U7 d   1      -9.094   4.346  12.325  0.00  0.00     0.056 H 
ATOM     26  H27 5U7 d   1      -9.226   4.666  10.562  0.00  0.00     0.056 H 
ENDBRANCH  21  23
ENDBRANCH  12  19
BRANCH  15  27
ATOM     27  C13 5U7 d   1     -10.905  10.720  13.416  0.00  0.00     0.251 C 
ATOM     28  O21 5U7 d   1     -11.903  10.706  14.142  0.00  0.00    -0.268 OA
ATOM     29  N   5U7 d   1     -10.191  11.951  13.172  0.00  0.00    -0.361 N 
ATOM     30  H28 5U7 d   1      -9.380  11.933  12.587  0.00  0.00     0.162 HD
BRANCH  29  31
ATOM     31  C19 5U7 d   1     -10.613  13.213  13.749  0.00  0.00    -0.018 C 
ATOM     32  H15 5U7 d   1      -9.926  14.010  13.430  0.00  0.00     0.056 H 
ATOM     33  H16 5U7 d   1     -10.601  13.137  14.846  0.00  0.00     0.056 H 
ATOM     34  H17 5U7 d   1     -11.632  13.449  13.409  0.00  0.00     0.056 H 
ENDBRANCH  29  31
ENDBRANCH  15  27
ENDBRANCH   5  10
BRANCH   4  35
ATOM     35  C11 5U7 d   1      -4.812  10.917   9.707  0.00  0.00    -0.049 C 
ATOM     36  H7  5U7 d   1      -5.638  11.643   9.698  0.00  0.00     0.033 H 
ATOM     37  H8  5U7 d   1      -4.459  10.751   8.678  0.00  0.00     0.033 H 
ATOM     38  H9  5U7 d   1      -3.986  11.309  10.319  0.00  0.00     0.033 H 
ENDBRANCH   4  35
BRANCH   6  39
ATOM     39  O27 5U7 d   1      -3.100   8.819   9.945  0.00  0.00    -0.317 OA
BRANCH  39  40
ATOM     40  C18 5U7 d   1      -2.239   7.728   9.847  0.00  0.00     0.164 C 
ATOM     41  C16 5U7 d   1      -0.942   8.331   9.350  0.00  0.00     0.110 C 
ATOM     42  C14 5U7 d   1      -1.194   8.980   7.989  0.00  0.00     0.092 C 
ATOM     43  H12 5U7 d   1      -0.590   9.097  10.057  0.00  0.00     0.094 H 
ATOM     44  C15 5U7 d   1      -1.753   7.964   7.046  0.00  0.00     0.090 C 
ATOM     45  H10 5U7 d   1      -1.911   9.807   8.100  0.00  0.00     0.091 H 
ATOM     46  C17 5U7 d   1      -2.990   7.319   7.648  0.00  0.00     0.089 C 
ATOM     47  H11 5U7 d   1      -0.998   7.183   6.873  0.00  0.00     0.091 H 
ATOM     48  O22 5U7 d   1      -2.707   6.760   8.930  0.00  0.00    -0.348 OA
ATOM     49  H13 5U7 d   1      -3.773   8.085   7.749  0.00  0.00     0.090 H 
ATOM     50  H14 5U7 d   1      -2.101   7.258  10.832  0.00  0.00     0.134 H 
BRANCH  41  51
ATOM     51  O25 5U7 d   1       0.006   7.313   9.265  0.00  0.00    -0.388 OA
ATOM     52  H22 5U7 d   1       0.828   7.673   8.954  0.00  0.00     0.210 HD
ENDBRANCH  41  51
BRANCH  42  53
ATOM     53  O23 5U7 d   1       0.035   9.481   7.497  0.00  0.00    -0.390 OA
ATOM     54  H20 5U7 d   1       0.380  10.124   8.105  0.00  0.00     0.210 HD
ENDBRANCH  42  53
BRANCH  44  55
ATOM     55  O24 5U7 d   1      -2.061   8.598   5.790  0.00  0.00    -0.390 OA
ATOM     56  H21 5U7 d   1      -2.393   7.948   5.182  0.00  0.00     0.210 HD
ENDBRANCH  44  55
BRANCH  46  57
ATOM     57  C20 5U7 d   1      -3.491   6.200   6.769  0.00  0.00     0.043 C 
ATOM     58  H18 5U7 d   1      -3.674   6.581   5.753  0.00  0.00     0.078 H 
ATOM     59  H19 5U7 d   1      -4.426   5.794   7.183  0.00  0.00     0.078 H 
BRANCH  57  60
ATOM     60  O26 5U7 d   1      -2.501   5.175   6.726  0.00  0.00    -0.398 OA
ATOM     61  H23 5U7 d   1      -2.806   4.464   6.175  0.00  0.00     0.209 HD
ENDBRANCH  57  60
ENDBRANCH  46  57
ENDBRANCH  39  40
ENDBRANCH   6  39
TORSDOF 13
