REMARK  10 active torsions:
REMARK  status: ('A' for Active; 'I' for Inactive)
REMARK    1  A    between atoms: N_1  and  CA_2 
REMARK    2  A    between atoms: CA_2  and  CB_3 
REMARK    3  A    between atoms: CA_2  and  C_6 
REMARK    4  A    between atoms: CB_3  and  CG_4 
REMARK    5  A    between atoms: CG_4  and  SD_5 
REMARK    6  A    between atoms: SD_5  and  C5'_9 
REMARK    7  A    between atoms: C5'_9  and  C4'_10 
REMARK    8  A    between atoms: C3'_12  and  O3'_13 
REMARK    9  A    between atoms: C2'_14  and  O2'_15 
REMARK   10  A    between atoms: C1'_16  and  N9_17 
ROOT
ATOM      1  C4' SAH d   1     -17.752  -7.099 -33.073  0.00  0.00     0.076 C 
ATOM      2  O4' SAH d   1     -18.189  -7.925 -34.163  0.00  0.00    -0.355 OA
ATOM      3  C3' SAH d   1     -16.766  -7.934 -32.251  0.00  0.00     0.090 C 
ATOM      4  C2' SAH d   1     -16.593  -9.197 -33.072  0.00  0.00     0.105 C 
ATOM      5  C1' SAH d   1     -17.944  -9.268 -33.772  0.00  0.00     0.139 C 
ATOM      6  H11 SAH d   1     -18.611  -6.822 -32.444  0.00  0.00     0.088 H 
ATOM      7  H12 SAH d   1     -15.809  -7.405 -32.131  0.00  0.00     0.091 H 
ATOM      8  H14 SAH d   1     -15.787  -9.064 -33.809  0.00  0.00     0.093 H 
ATOM      9  H16 SAH d   1     -18.721  -9.599 -33.067  0.00  0.00     0.122 H 
ENDROOT
BRANCH   1  10
ATOM     10  C5' SAH d   1     -17.109  -5.824 -33.623  0.00  0.00     0.003 C 
ATOM     11  H9  SAH d   1     -16.102  -6.064 -33.996  0.00  0.00     0.052 H 
ATOM     12  H10 SAH d   1     -17.725  -5.442 -34.450  0.00  0.00     0.052 H 
BRANCH  10  13
ATOM     13  SD  SAH d   1     -16.977  -4.573 -32.380  0.00  0.00    -0.166 SA
BRANCH  13  14
ATOM     14  CG  SAH d   1     -18.549  -3.751 -32.497  0.00  0.00    -0.021 C 
ATOM     15  H7  SAH d   1     -18.392  -2.709 -32.813  0.00  0.00     0.049 H 
ATOM     16  H8  SAH d   1     -19.175  -4.268 -33.239  0.00  0.00     0.049 H 
BRANCH  14  17
ATOM     17  CB  SAH d   1     -19.257  -3.767 -31.136  0.00  0.00    -0.021 C 
ATOM     18  H5  SAH d   1     -19.610  -4.791 -30.943  0.00  0.00     0.037 H 
ATOM     19  H6  SAH d   1     -18.527  -3.480 -30.365  0.00  0.00     0.037 H 
BRANCH  17  20
ATOM     20  CA  SAH d   1     -20.462  -2.815 -31.038  0.00  0.00     0.183 C 
ATOM     21  H4  SAH d   1     -20.820  -2.840 -29.998  0.00  0.00     0.101 H 
BRANCH  20  22
ATOM     22  N   SAH d   1     -21.556  -3.287 -31.900  0.00  0.00    -0.065 N 
ATOM     23  H1  SAH d   1     -21.779  -4.242 -31.667  0.00  0.00     0.275 HD
ATOM     24  H2  SAH d   1     -21.270  -3.234 -32.865  0.00  0.00     0.275 HD
ATOM     25  H3  SAH d   1     -22.369  -2.708 -31.758  0.00  0.00     0.275 HD
ENDBRANCH  20  22
BRANCH  20  26
ATOM     26  C   SAH d   1     -20.097  -1.389 -31.353  0.00  0.00     0.204 C 
ATOM     27  O   SAH d   1     -20.728  -0.730 -32.185  0.00  0.00    -0.646 OA
ATOM     28  OXT SAH d   1     -19.160  -0.835 -30.766  0.00  0.00    -0.646 OA
ENDBRANCH  20  26
ENDBRANCH  17  20
ENDBRANCH  14  17
ENDBRANCH  13  14
ENDBRANCH  10  13
ENDBRANCH   1  10
BRANCH   3  29
ATOM     29  O3' SAH d   1     -17.304  -8.252 -30.962  0.00  0.00    -0.390 OA
ATOM     30  H13 SAH d   1     -16.673  -8.769 -30.475  0.00  0.00     0.210 HD
ENDBRANCH   3  29
BRANCH   5  31
ATOM     31  N9  SAH d   1     -17.914 -10.211 -34.905  0.00  0.00    -0.294 N 
ATOM     32  C8  SAH d   1     -17.011 -10.277 -35.901  0.00  0.00     0.071 A 
ATOM     33  N7  SAH d   1     -17.310 -11.300 -36.743  0.00  0.00    -0.236 NA
ATOM     34  H17 SAH d   1     -16.161  -9.605 -36.016  0.00  0.00     0.144 H 
ATOM     35  C5  SAH d   1     -18.413 -11.904 -36.263  0.00  0.00     0.149 A 
ATOM     36  C6  SAH d   1     -19.267 -13.041 -36.652  0.00  0.00     0.155 A 
ATOM     37  C4  SAH d   1     -18.806 -11.178 -35.053  0.00  0.00     0.167 A 
ATOM     38  N6  SAH d   1     -18.973 -13.768 -37.752  0.00  0.00    -0.382 N 
ATOM     39  N1  SAH d   1     -20.339 -13.326 -35.870  0.00  0.00    -0.222 NA
ATOM     40  H18 SAH d   1     -19.572 -14.562 -38.020  0.00  0.00     0.157 HD
ATOM     41  H19 SAH d   1     -18.149 -13.529 -38.322  0.00  0.00     0.157 HD
ATOM     42  C2  SAH d   1     -20.636 -12.617 -34.765  0.00  0.00     0.091 A 
ATOM     43  N3  SAH d   1     -19.900 -11.568 -34.354  0.00  0.00    -0.222 NA
ATOM     44  H20 SAH d   1     -21.504 -12.903 -34.182  0.00  0.00     0.146 H 
ENDBRANCH   5  31
BRANCH   4  45
ATOM     45  O2' SAH d   1     -16.289 -10.362 -32.297  0.00  0.00    -0.388 OA
ATOM     46  H15 SAH d   1     -16.993 -10.523 -31.680  0.00  0.00     0.210 HD
ENDBRANCH   4  45
TORSDOF 10
