REMARK  2 active torsions:
REMARK  status: ('A' for Active; 'I' for Inactive)
REMARK    1  A    between atoms: C1_1  and  C_11 
REMARK    2  A    between atoms: C3_3  and  C6_6 
REMARK       I    between atoms: C_11  and  N_12 
ROOT
ATOM      1  C1  5UP d   1      13.783  48.511 -53.124  0.00  0.00     0.035 A 
ATOM      2  C2  5UP d   1      14.888  48.429 -52.286  0.00  0.00    -0.038 A 
ATOM      3  C3  5UP d   1      15.677  47.283 -52.330  0.00  0.00     0.086 A 
ATOM      4  C4  5UP d   1      14.339  46.340 -53.933  0.00  0.00     0.004 A 
ATOM      5  C5  5UP d   1      13.495  47.435 -53.953  0.00  0.00    -0.051 A 
ATOM      6  N1  5UP d   1      15.424  46.245 -53.144  0.00  0.00    -0.259 NA
ATOM      7  H1  5UP d   1      15.131  49.242 -51.611  0.00  0.00     0.088 H 
ATOM      8  H2  5UP d   1      14.113  45.509 -54.592  0.00  0.00     0.114 H 
ATOM      9  H3  5UP d   1      12.627  47.453 -54.602  0.00  0.00     0.087 H 
ENDROOT
BRANCH   3  10
ATOM     10  C6  5UP d   1      16.854  47.159 -51.459  0.00  0.00     0.095 A 
ATOM     11  C7  5UP d   1      17.525  48.213 -50.929  0.00  0.00    -0.011 A 
ATOM     12  S   5UP d   1      18.863  47.703 -49.990  0.00  0.00    -0.062 SA
ATOM     13  H4  5UP d   1      17.247  49.255 -51.082  0.00  0.00     0.098 H 
ATOM     14  C8  5UP d   1      18.443  46.050 -50.356  0.00  0.00     0.164 A 
ATOM     15  N3  5UP d   1      17.383  45.907 -51.124  0.00  0.00    -0.222 NA
ATOM     16  N2  5UP d   1      19.177  45.035 -49.882  0.00  0.00    -0.378 N 
ATOM     17  H7  5UP d   1      18.918  44.064 -50.106  0.00  0.00     0.158 HD
ATOM     18  H8  5UP d   1      20.001  45.226 -49.294  0.00  0.00     0.158 HD
ENDBRANCH   3  10
BRANCH   1  19
ATOM     19  C   5UP d   1      13.001  49.793 -53.153  0.00  0.00     0.249 C 
ATOM     20  O   5UP d   1      11.763  49.755 -53.285  0.00  0.00    -0.268 OA
ATOM     21  N   5UP d   1      13.683  50.933 -53.023  0.00  0.00    -0.366 N 
ATOM     22  H5  5UP d   1      13.200  51.809 -53.037  0.00  0.00     0.159 HD
ATOM     23  H6  5UP d   1      14.677  50.911 -52.912  0.00  0.00     0.159 HD
ENDBRANCH   1  19
TORSDOF 2
