REMARK  2 active torsions:
REMARK  status: ('A' for Active; 'I' for Inactive)
REMARK    1  A    between atoms: C3_11  and  C1_12 
REMARK    2  A    between atoms: C_16  and  N_17 
ROOT
ATOM      1  O   5V7 d   1      11.780  49.378 -53.782  0.00  0.00    -0.267 OA
ATOM      2  C9  5V7 d   1      12.830  49.305 -53.156  0.00  0.00     0.259 A 
ATOM      3  C6  5V7 d   1      13.635  48.087 -53.056  0.00  0.00     0.065 A 
ATOM      4  C5  5V7 d   1      13.271  46.927 -53.729  0.00  0.00    -0.048 A 
ATOM      5  C4  5V7 d   1      14.113  45.843 -53.596  0.00  0.00     0.004 A 
ATOM      6  N2  5V7 d   1      15.230  45.841 -52.854  0.00  0.00    -0.256 NA
ATOM      7  N4  5V7 d   1      13.320  50.371 -52.481  0.00  0.00    -0.317 N 
ATOM      8  C8  5V7 d   1      14.463  50.319 -51.758  0.00  0.00     0.067 A 
ATOM      9  N3  5V7 d   1      15.222  49.255 -51.617  0.00  0.00    -0.241 NA
ATOM     10  C7  5V7 d   1      14.799  48.116 -52.278  0.00  0.00     0.105 A 
ATOM     11  C3  5V7 d   1      15.574  46.947 -52.177  0.00  0.00     0.115 A 
ATOM     12  H1  5V7 d   1      12.370  46.877 -54.329  0.00  0.00     0.087 H 
ATOM     13  H2  5V7 d   1      13.855  44.933 -54.126  0.00  0.00     0.114 H 
ATOM     14  H3  5V7 d   1      12.816  51.234 -52.518  0.00  0.00     0.169 HD
ATOM     15  H4  5V7 d   1      14.779  51.231 -51.253  0.00  0.00     0.143 H 
ENDROOT
BRANCH  11  16
ATOM     16  C1  5V7 d   1      16.720  46.815 -51.266  0.00  0.00     0.097 A 
ATOM     17  N1  5V7 d   1      17.130  45.525 -50.956  0.00  0.00    -0.222 NA
ATOM     18  C   5V7 d   1      18.129  45.558 -50.106  0.00  0.00     0.164 A 
ATOM     19  S   5V7 d   1      18.630  47.160 -49.631  0.00  0.00    -0.062 SA
ATOM     20  C2  5V7 d   1      17.415  47.803 -50.650  0.00  0.00    -0.011 A 
ATOM     21  H5  5V7 d   1      17.225  48.867 -50.786  0.00  0.00     0.098 H 
BRANCH  18  22
ATOM     22  N   5V7 d   1      18.747  44.475 -49.627  0.00  0.00    -0.378 N 
ATOM     23  H6  5V7 d   1      18.439  43.536 -49.917  0.00  0.00     0.158 HD
ATOM     24  H7  5V7 d   1      19.531  44.579 -48.968  0.00  0.00     0.158 HD
ENDBRANCH  18  22
ENDBRANCH  11  16
TORSDOF 2
