REMARK  0 active torsions:
REMARK  status: ('A' for Active; 'I' for Inactive)
ROOT
ATOM      1  O   N5J d   1      -0.119-105.060  16.050  0.00  0.00    -0.267 OA
ATOM      2  C1  N5J d   1       1.057-105.083  16.390  0.00  0.00     0.259 A 
ATOM      3  N1  N5J d   1       1.705-103.973  16.834  0.00  0.00    -0.317 N 
ATOM      4  C2  N5J d   1       2.995-103.981  17.234  0.00  0.00     0.067 A 
ATOM      5  N2  N5J d   1       3.768-105.035  17.244  0.00  0.00    -0.242 NA
ATOM      6  C3  N5J d   1       3.198-106.226  16.801  0.00  0.00     0.091 A 
ATOM      7  N3  N5J d   1       3.446-108.582  16.318  0.00  0.00    -0.271 NA
ATOM      8  C4  N5J d   1       3.917-107.408  16.745  0.00  0.00     0.030 A 
ATOM      9  C5  N5J d   1       2.176-108.612  15.920  0.00  0.00     0.003 A 
ATOM     10  C6  N5J d   1       1.346-107.512  15.924  0.00  0.00    -0.048 A 
ATOM     11  C7  N5J d   1       1.869-106.302  16.369  0.00  0.00     0.064 A 
ATOM     12  H1  N5J d   1       1.202-103.109  16.866  0.00  0.00     0.169 HD
ATOM     13  H2  N5J d   1       3.423-103.039  17.573  0.00  0.00     0.143 H 
ATOM     14  H3  N5J d   1       4.949-107.378  17.076  0.00  0.00     0.118 H 
ATOM     15  H4  N5J d   1       1.772-109.556  15.573  0.00  0.00     0.114 H 
ATOM     16  H5  N5J d   1       0.317-107.587  15.591  0.00  0.00     0.087 H 
ENDROOT
TORSDOF 0
