REMARK  1 active torsions:
REMARK  status: ('A' for Active; 'I' for Inactive)
REMARK    1  A    between atoms: C6_7  and  C7_12 
ROOT
ATOM      1  O   5UB d   1      12.287  48.675 -54.779  0.00  0.00    -0.267 OA
ATOM      2  C   5UB d   1      13.300  48.516 -54.105  0.00  0.00     0.259 A 
ATOM      3  C3  5UB d   1      14.035  47.254 -54.024  0.00  0.00     0.065 A 
ATOM      4  C4  5UB d   1      13.650  46.148 -54.772  0.00  0.00    -0.048 A 
ATOM      5  C5  5UB d   1      14.427  45.015 -54.650  0.00  0.00     0.004 A 
ATOM      6  N2  5UB d   1      15.499  44.916 -53.850  0.00  0.00    -0.256 NA
ATOM      7  C6  5UB d   1      15.861  45.971 -53.104  0.00  0.00     0.115 A 
ATOM      8  C2  5UB d   1      15.156  47.183 -53.188  0.00  0.00     0.105 A 
ATOM      9  N1  5UB d   1      15.601  48.263 -52.452  0.00  0.00    -0.241 NA
ATOM     10  C1  5UB d   1      14.904  49.371 -52.579  0.00  0.00     0.067 A 
ATOM     11  N   5UB d   1      13.805  49.517 -53.357  0.00  0.00    -0.317 N 
ATOM     12  H1  5UB d   1      12.781  46.174 -55.420  0.00  0.00     0.087 H 
ATOM     13  H2  5UB d   1      14.153  44.147 -55.239  0.00  0.00     0.114 H 
ATOM     14  H3  5UB d   1      15.237  50.240 -52.014  0.00  0.00     0.143 H 
ATOM     15  H4  5UB d   1      13.348  50.406 -53.377  0.00  0.00     0.169 HD
ENDROOT
BRANCH   7  16
ATOM     16  C7  5UB d   1      16.938  45.736 -52.134  0.00  0.00     0.094 A 
ATOM     17  N3  5UB d   1      17.316  44.390 -51.920  0.00  0.00    -0.251 NA
ATOM     18  C9  5UB d   1      18.225  44.340 -50.999  0.00  0.00     0.040 A 
ATOM     19  S   5UB d   1      18.689  45.856 -50.339  0.00  0.00    -0.092 SA
ATOM     20  H5  5UB d   1      18.665  43.401 -50.666  0.00  0.00     0.126 H 
ATOM     21  C8  5UB d   1      17.589  46.642 -51.365  0.00  0.00    -0.014 A 
ATOM     22  H6  5UB d   1      17.430  47.719 -51.400  0.00  0.00     0.098 H 
ENDBRANCH   7  16
TORSDOF 1
