REMARK  7 active torsions:
REMARK  status: ('A' for Active; 'I' for Inactive)
REMARK    1  A    between atoms: C9_10  and  C8_1 
REMARK    2  A    between atoms: C8_1  and  N_26 
REMARK    3  A    between atoms: C1_8  and  C2_3 
REMARK    4  A    between atoms: N_26  and  C1_8 
REMARK    5  A    between atoms: C10_12  and  C9_10 
REMARK    6  A    between atoms: C13_16  and  N1_11 
REMARK    7  A    between atoms: N_26  and  C_27 
ROOT
ATOM      1  C9  5U8 d   1      -7.107   7.005 -20.968  0.00  0.00    -0.015 C 
ATOM      2  H10 5U8 d   1      -8.036   6.418 -21.026  0.00  0.00     0.042 H 
ATOM      3  H11 5U8 d   1      -7.340   8.029 -20.642  0.00  0.00     0.042 H 
ENDROOT
BRANCH   1   4
ATOM      4  C8  5U8 d   1      -6.482   7.065 -22.352  0.00  0.00     0.087 C 
ATOM      5  H1  5U8 d   1      -6.170   6.051 -22.643  0.00  0.00     0.076 H 
ATOM      6  H2  5U8 d   1      -5.601   7.723 -22.314  0.00  0.00     0.076 H 
BRANCH   4   7
ATOM      7  N   5U8 d   1      -7.410   7.580 -23.362  0.00  0.00    -0.071 N 
ATOM      8  H17 5U8 d   1      -8.245   7.016 -23.334  0.00  0.00     0.279 HD
BRANCH   7   9
ATOM      9  C1  5U8 d   1      -6.844   7.480 -24.698  0.00  0.00     0.106 C 
ATOM     10  H7  5U8 d   1      -5.973   8.150 -24.754  0.00  0.00     0.083 H 
ATOM     11  H8  5U8 d   1      -6.518   6.441 -24.857  0.00  0.00     0.083 H 
BRANCH   9  12
ATOM     12  C2  5U8 d   1      -7.797   7.851 -25.809  0.00  0.00    -0.032 A 
ATOM     13  C3  5U8 d   1      -7.606   9.005 -26.551  0.00  0.00    -0.072 A 
ATOM     14  C4  5U8 d   1      -8.476   9.353 -27.568  0.00  0.00    -0.045 A 
ATOM     15  H4  5U8 d   1      -6.760   9.646 -26.331  0.00  0.00     0.084 H 
ATOM     16  C5  5U8 d   1      -9.532   8.528 -27.824  0.00  0.00     0.116 A 
ATOM     17  H5  5U8 d   1      -8.323  10.257 -28.146  0.00  0.00     0.088 H 
ATOM     18  C6  5U8 d   1      -9.761   7.379 -27.125  0.00  0.00    -0.045 A 
ATOM     19  F   5U8 d   1     -10.398   8.869 -28.814  0.00  0.00    -0.206 F 
ATOM     20  C7  5U8 d   1      -8.882   7.044 -26.111  0.00  0.00    -0.072 A 
ATOM     21  H6  5U8 d   1     -10.609   6.745 -27.358  0.00  0.00     0.088 H 
ATOM     22  H9  5U8 d   1      -9.045   6.135 -25.543  0.00  0.00     0.084 H 
ENDBRANCH   9  12
ENDBRANCH   7   9
BRANCH   7  23
ATOM     23  C   5U8 d   1      -7.783   8.962 -23.061  0.00  0.00     0.067 C 
ATOM     24  H18 5U8 d   1      -8.208   9.015 -22.048  0.00  0.00     0.068 H 
ATOM     25  H19 5U8 d   1      -8.530   9.307 -23.791  0.00  0.00     0.068 H 
ATOM     26  H20 5U8 d   1      -6.891   9.603 -23.118  0.00  0.00     0.068 H 
ENDBRANCH   7  23
ENDBRANCH   4   7
ENDBRANCH   1   4
BRANCH   1  27
ATOM     27  C10 5U8 d   1      -6.196   6.369 -19.948  0.00  0.00    -0.020 A 
ATOM     28  C11 5U8 d   1      -5.310   7.008 -19.091  0.00  0.00     0.013 A 
ATOM     29  N1  5U8 d   1      -4.678   6.047 -18.385  0.00  0.00    -0.224 N 
ATOM     30  H12 5U8 d   1      -5.154   8.082 -19.005  0.00  0.00     0.115 H 
ATOM     31  N2  5U8 d   1      -5.111   4.799 -18.723  0.00  0.00    -0.178 NA
ATOM     32  C12 5U8 d   1      -6.019   5.003 -19.660  0.00  0.00     0.030 A 
ATOM     33  H13 5U8 d   1      -6.569   4.204 -20.154  0.00  0.00     0.118 H 
BRANCH  29  34
ATOM     34  C13 5U8 d   1      -3.642   6.207 -17.435  0.00  0.00     0.180 A 
ATOM     35  C14 5U8 d   1      -2.951   7.432 -17.318  0.00  0.00     0.121 A 
ATOM     36  N3  5U8 d   1      -3.365   8.576 -17.967  0.00  0.00    -0.239 NA
ATOM     37  C17 5U8 d   1      -1.828   7.397 -16.482  0.00  0.00     0.066 A 
ATOM     38  C15 5U8 d   1      -2.636   9.648 -17.760  0.00  0.00     0.067 A 
ATOM     39  N4  5U8 d   1      -1.529   9.699 -16.985  0.00  0.00    -0.317 N 
ATOM     40  H14 5U8 d   1      -2.947  10.569 -18.251  0.00  0.00     0.143 H 
ATOM     41  C16 5U8 d   1      -1.045   8.624 -16.313  0.00  0.00     0.259 A 
ATOM     42  H3  5U8 d   1      -1.044  10.570 -16.903  0.00  0.00     0.169 HD
ATOM     43  O   5U8 d   1      -0.016   8.677 -15.648  0.00  0.00    -0.267 OA
ATOM     44  C18 5U8 d   1      -1.477   6.228 -15.810  0.00  0.00    -0.048 A 
ATOM     45  C19 5U8 d   1      -2.270   5.113 -15.990  0.00  0.00     0.006 A 
ATOM     46  H15 5U8 d   1      -0.607   6.195 -15.165  0.00  0.00     0.087 H 
ATOM     47  N5  5U8 d   1      -3.345   5.077 -16.786  0.00  0.00    -0.239 NA
ATOM     48  H16 5U8 d   1      -2.005   4.210 -15.453  0.00  0.00     0.114 H 
ENDBRANCH  29  34
ENDBRANCH   1  27
TORSDOF 7
