REMARK  6 active torsions:
REMARK  status: ('A' for Active; 'I' for Inactive)
REMARK    1  A    between atoms: N2_2  and  C3_3 
REMARK    2  A    between atoms: C6_6  and  C5_5 
REMARK    3  A    between atoms: C7_13  and  C6_6 
REMARK    4  A    between atoms: N4_16  and  C18_7 
REMARK    5  A    between atoms: C7_13  and  N4_16 
REMARK    6  A    between atoms: N4_16  and  C8_14 
ROOT
ATOM      1  N2  5UO d   1       4.574 -14.814 -52.163  0.00  0.00    -0.224 N 
ATOM      2  C4  5UO d   1       3.330 -13.762 -50.795  0.00  0.00     0.030 A 
ATOM      3  C5  5UO d   1       3.464 -15.058 -50.277  0.00  0.00    -0.020 A 
ATOM      4  C19 5UO d   1       4.269 -15.706 -51.197  0.00  0.00     0.013 A 
ATOM      5  N3  5UO d   1       3.990 -13.603 -51.926  0.00  0.00    -0.178 NA
ATOM      6  H2  5UO d   1       2.747 -12.976 -50.318  0.00  0.00     0.118 H 
ATOM      7  H8  5UO d   1       4.596 -16.744 -51.150  0.00  0.00     0.115 H 
ENDROOT
BRANCH   3   8
ATOM      8  C6  5UO d   1       2.897 -15.619 -48.998  0.00  0.00    -0.016 C 
ATOM      9  H3  5UO d   1       2.741 -16.700 -49.126  0.00  0.00     0.042 H 
ATOM     10  H4  5UO d   1       1.932 -15.131 -48.797  0.00  0.00     0.042 H 
BRANCH   8  11
ATOM     11  C7  5UO d   1       3.813 -15.397 -47.806  0.00  0.00     0.086 C 
ATOM     12  H11 5UO d   1       4.031 -14.322 -47.729  0.00  0.00     0.076 H 
ATOM     13  H12 5UO d   1       4.749 -15.949 -47.977  0.00  0.00     0.076 H 
BRANCH  11  14
ATOM     14  N4  5UO d   1       3.234 -15.846 -46.536  0.00  0.00    -0.079 N 
ATOM     15  H16 5UO d   1       2.467 -15.233 -46.307  0.00  0.00     0.278 HD
BRANCH  14  16
ATOM     16  C18 5UO d   1       4.219 -15.786 -45.455  0.00  0.00     0.066 C 
ATOM     17  H5  5UO d   1       3.756 -16.128 -44.518  0.00  0.00     0.068 H 
ATOM     18  H6  5UO d   1       4.569 -14.750 -45.334  0.00  0.00     0.068 H 
ATOM     19  H7  5UO d   1       5.073 -16.435 -45.700  0.00  0.00     0.068 H 
ENDBRANCH  14  16
BRANCH  14  20
ATOM     20  C8  5UO d   1       2.724 -17.215 -46.636  0.00  0.00     0.066 C 
ATOM     21  H13 5UO d   1       2.298 -17.519 -45.669  0.00  0.00     0.068 H 
ATOM     22  H14 5UO d   1       3.547 -17.894 -46.904  0.00  0.00     0.068 H 
ATOM     23  H15 5UO d   1       1.944 -17.260 -47.410  0.00  0.00     0.068 H 
ENDBRANCH  14  20
ENDBRANCH  11  14
ENDBRANCH   8  11
ENDBRANCH   3   8
BRANCH   1  24
ATOM     24  C3  5UO d   1       5.438 -15.004 -53.277  0.00  0.00     0.180 A 
ATOM     25  C2  5UO d   1       6.141 -16.221 -53.504  0.00  0.00     0.121 A 
ATOM     26  N1  5UO d   1       5.837 -17.378 -52.824  0.00  0.00    -0.239 NA
ATOM     27  C22 5UO d   1       7.128 -16.164 -54.497  0.00  0.00     0.066 A 
ATOM     28  C1  5UO d   1       6.529 -18.442 -53.162  0.00  0.00     0.067 A 
ATOM     29  N   5UO d   1       7.508 -18.469 -54.093  0.00  0.00    -0.317 N 
ATOM     30  H1  5UO d   1       6.295 -19.375 -52.652  0.00  0.00     0.143 H 
ATOM     31  C   5UO d   1       7.884 -17.380 -54.800  0.00  0.00     0.259 A 
ATOM     32  H17 5UO d   1       7.976 -19.335 -54.267  0.00  0.00     0.169 HD
ATOM     33  O   5UO d   1       8.810 -17.401 -55.602  0.00  0.00    -0.267 OA
ATOM     34  C21 5UO d   1       7.360 -14.997 -55.218  0.00  0.00    -0.048 A 
ATOM     35  C20 5UO d   1       6.571 -13.905 -54.933  0.00  0.00     0.006 A 
ATOM     36  H10 5UO d   1       8.133 -14.949 -55.976  0.00  0.00     0.087 H 
ATOM     37  N5  5UO d   1       5.622 -13.893 -53.992  0.00  0.00    -0.239 NA
ATOM     38  H9  5UO d   1       6.729 -12.999 -55.507  0.00  0.00     0.114 H 
ENDBRANCH   1  24
TORSDOF 6
