REMARK  6 active torsions:
REMARK  status: ('A' for Active; 'I' for Inactive)
REMARK    1  A    between atoms: C5_28  and  C4_4 
REMARK    2  A    between atoms: C4_4  and  C3_29 
REMARK    3  A    between atoms: C9_6  and  C10_7 
REMARK    4  A    between atoms: C8_24  and  C9_6 
REMARK    5  A    between atoms: N1_22  and  C13_10 
REMARK    6  A    between atoms: N_25  and  C8_24 
ROOT
ATOM      1  C7  5UL d   1     -20.785 -15.014 -25.312  0.00  0.00     0.084 C 
ATOM      2  C20 5UL d   1     -22.574 -16.501 -24.852  0.00  0.00     0.084 C 
ATOM      3  N   5UL d   1     -22.163 -15.100 -24.842  0.00  0.00    -0.071 N 
ATOM      4  C6  5UL d   1     -20.688 -15.480 -26.759  0.00  0.00    -0.039 C 
ATOM      5  C21 5UL d   1     -22.558 -17.051 -26.271  0.00  0.00    -0.039 C 
ATOM      6  C5  5UL d   1     -21.194 -16.906 -26.937  0.00  0.00    -0.047 C 
ATOM      7  H5  5UL d   1     -20.147 -15.651 -24.682  0.00  0.00     0.076 H 
ATOM      8  H6  5UL d   1     -20.443 -13.971 -25.243  0.00  0.00     0.076 H 
ATOM      9  H13 5UL d   1     -23.592 -16.582 -24.444  0.00  0.00     0.076 H 
ATOM     10  H14 5UL d   1     -21.881 -17.086 -24.229  0.00  0.00     0.076 H 
ATOM     11  H20 5UL d   1     -22.745 -14.602 -25.498  0.00  0.00     0.279 HD
ATOM     12  H21 5UL d   1     -19.636 -15.435 -27.076  0.00  0.00     0.035 H 
ATOM     13  H22 5UL d   1     -21.290 -14.809 -27.389  0.00  0.00     0.035 H 
ATOM     14  H23 5UL d   1     -23.303 -16.506 -26.869  0.00  0.00     0.035 H 
ATOM     15  H24 5UL d   1     -22.823 -18.118 -26.239  0.00  0.00     0.035 H 
ATOM     16  H25 5UL d   1     -20.492 -17.582 -26.427  0.00  0.00     0.040 H 
ENDROOT
BRANCH   3  17
ATOM     17  C8  5UL d   1     -22.353 -14.469 -23.531  0.00  0.00     0.087 C 
ATOM     18  H18 5UL d   1     -22.172 -13.390 -23.642  0.00  0.00     0.076 H 
ATOM     19  H19 5UL d   1     -23.395 -14.636 -23.220  0.00  0.00     0.076 H 
BRANCH  17  20
ATOM     20  C9  5UL d   1     -21.444 -14.988 -22.430  0.00  0.00    -0.015 C 
ATOM     21  H7  5UL d   1     -21.664 -16.052 -22.255  0.00  0.00     0.042 H 
ATOM     22  H8  5UL d   1     -20.397 -14.877 -22.747  0.00  0.00     0.042 H 
BRANCH  20  23
ATOM     23  C10 5UL d   1     -21.652 -14.225 -21.147  0.00  0.00    -0.020 A 
ATOM     24  C11 5UL d   1     -22.394 -14.616 -20.062  0.00  0.00     0.013 A 
ATOM     25  N1  5UL d   1     -22.401 -13.590 -19.187  0.00  0.00    -0.224 N 
ATOM     26  H9  5UL d   1     -22.887 -15.578 -19.931  0.00  0.00     0.115 H 
ATOM     27  N2  5UL d   1     -21.673 -12.532 -19.637  0.00  0.00    -0.178 NA
ATOM     28  C12 5UL d   1     -21.223 -12.927 -20.815  0.00  0.00     0.030 A 
ATOM     29  H10 5UL d   1     -20.591 -12.316 -21.457  0.00  0.00     0.118 H 
BRANCH  25  30
ATOM     30  C13 5UL d   1     -23.122 -13.489 -17.975  0.00  0.00     0.180 A 
ATOM     31  N3  5UL d   1     -23.191 -12.255 -17.465  0.00  0.00    -0.239 NA
ATOM     32  C14 5UL d   1     -24.037 -12.083 -16.442  0.00  0.00     0.006 A 
ATOM     33  C15 5UL d   1     -24.816 -13.086 -15.904  0.00  0.00    -0.048 A 
ATOM     34  H11 5UL d   1     -24.115 -11.092 -16.009  0.00  0.00     0.114 H 
ATOM     35  C16 5UL d   1     -24.693 -14.365 -16.439  0.00  0.00     0.066 A 
ATOM     36  H16 5UL d   1     -25.503 -12.884 -15.090  0.00  0.00     0.087 H 
ATOM     37  C17 5UL d   1     -23.808 -14.619 -17.495  0.00  0.00     0.121 A 
ATOM     38  C19 5UL d   1     -25.469 -15.478 -15.898  0.00  0.00     0.259 A 
ATOM     39  N4  5UL d   1     -23.616 -15.883 -18.012  0.00  0.00    -0.239 NA
ATOM     40  C18 5UL d   1     -24.322 -16.841 -17.462  0.00  0.00     0.067 A 
ATOM     41  N5  5UL d   1     -25.216 -16.674 -16.459  0.00  0.00    -0.317 N 
ATOM     42  H12 5UL d   1     -24.178 -17.851 -17.842  0.00  0.00     0.143 H 
ATOM     43  H17 5UL d   1     -25.710 -17.475 -16.120  0.00  0.00     0.169 HD
ATOM     44  O   5UL d   1     -26.328 -15.353 -15.033  0.00  0.00    -0.267 OA
ENDBRANCH  25  30
ENDBRANCH  20  23
ENDBRANCH  17  20
ENDBRANCH   3  17
BRANCH   6  45
ATOM     45  C4  5UL d   1     -21.243 -17.315 -28.414  0.00  0.00    -0.038 C 
ATOM     46  H3  5UL d   1     -22.214 -17.001 -28.823  0.00  0.00     0.040 H 
ATOM     47  H4  5UL d   1     -21.159 -18.410 -28.468  0.00  0.00     0.040 H 
BRANCH  45  48
ATOM     48  C3  5UL d   1     -20.157 -16.719 -29.275  0.00  0.00    -0.058 A 
ATOM     49  C2  5UL d   1     -18.818 -16.921 -28.977  0.00  0.00    -0.075 A 
ATOM     50  C1  5UL d   1     -17.821 -16.405 -29.783  0.00  0.00    -0.061 A 
ATOM     51  H2  5UL d   1     -18.549 -17.493 -28.097  0.00  0.00     0.084 H 
ATOM     52  C   5UL d   1     -18.170 -15.678 -30.897  0.00  0.00     0.034 A 
ATOM     53  H1  5UL d   1     -16.778 -16.571 -29.540  0.00  0.00     0.086 H 
ATOM     54  C23 5UL d   1     -19.488 -15.454 -31.216  0.00  0.00    -0.061 A 
ATOM     55 CL   5UL d   1     -16.921 -15.035 -31.925  0.00  0.00    -0.084 Cl
ATOM     56  C22 5UL d   1     -20.474 -15.974 -30.401  0.00  0.00    -0.075 A 
ATOM     57  H15 5UL d   1     -19.750 -14.877 -32.096  0.00  0.00     0.086 H 
ATOM     58  H26 5UL d   1     -21.515 -15.797 -30.646  0.00  0.00     0.084 H 
ENDBRANCH  45  48
ENDBRANCH   6  45
TORSDOF 6
