REMARK  6 active torsions:
REMARK  status: ('A' for Active; 'I' for Inactive)
REMARK    1  A    between atoms: C14_11  and  N1_12 
REMARK    2  A    between atoms: C11_16  and  C10_17 
REMARK    3  A    between atoms: C10_17  and  C9_18 
REMARK    4  A    between atoms: C9_18  and  N_19 
REMARK    5  A    between atoms: N_19  and  C8_20 
REMARK    6  A    between atoms: N_19  and  C21_21 
ROOT
ATOM      1  N1  5UJ d   1       4.359 -14.551 -52.384  0.00  0.00    -0.224 N 
ATOM      2  C12 5UJ d   1       4.123 -15.439 -51.397  0.00  0.00     0.013 A 
ATOM      3  N2  5UJ d   1       3.681 -13.385 -52.194  0.00  0.00    -0.178 NA
ATOM      4  C13 5UJ d   1       3.028 -13.572 -51.060  0.00  0.00     0.030 A 
ATOM      5  C11 5UJ d   1       3.265 -14.846 -50.506  0.00  0.00    -0.020 A 
ATOM      6  H5  5UJ d   1       4.538 -16.443 -51.321  0.00  0.00     0.115 H 
ATOM      7  H6  5UJ d   1       2.379 -12.825 -50.605  0.00  0.00     0.118 H 
ENDROOT
BRANCH   5   8
ATOM      8  C10 5UJ d   1       2.720 -15.446 -49.235  0.00  0.00    -0.016 C 
ATOM      9  H7  5UJ d   1       2.928 -16.526 -49.240  0.00  0.00     0.042 H 
ATOM     10  H8  5UJ d   1       1.633 -15.282 -49.208  0.00  0.00     0.042 H 
BRANCH   8  11
ATOM     11  C9  5UJ d   1       3.332 -14.841 -47.983  0.00  0.00     0.086 C 
ATOM     12  H9  5UJ d   1       3.244 -13.746 -48.043  0.00  0.00     0.076 H 
ATOM     13  H10 5UJ d   1       4.395 -15.121 -47.941  0.00  0.00     0.076 H 
BRANCH  11  14
ATOM     14  N   5UJ d   1       2.678 -15.297 -46.751  0.00  0.00    -0.079 N 
ATOM     15  H11 5UJ d   1       1.715 -15.002 -46.780  0.00  0.00     0.278 HD
BRANCH  14  16
ATOM     16  C8  5UJ d   1       3.309 -14.713 -45.566  0.00  0.00     0.066 C 
ATOM     17  H12 5UJ d   1       2.796 -15.074 -44.662  0.00  0.00     0.068 H 
ATOM     18  H13 5UJ d   1       3.237 -13.617 -45.615  0.00  0.00     0.068 H 
ATOM     19  H14 5UJ d   1       4.368 -15.010 -45.530  0.00  0.00     0.068 H 
ENDBRANCH  14  16
BRANCH  14  20
ATOM     20  C21 5UJ d   1       2.716 -16.757 -46.638  0.00  0.00     0.066 C 
ATOM     21  H15 5UJ d   1       2.244 -17.206 -47.524  0.00  0.00     0.068 H 
ATOM     22  H16 5UJ d   1       2.171 -17.069 -45.735  0.00  0.00     0.068 H 
ATOM     23  H17 5UJ d   1       3.761 -17.093 -46.570  0.00  0.00     0.068 H 
ENDBRANCH  14  20
ENDBRANCH  11  14
ENDBRANCH   8  11
ENDBRANCH   5   8
BRANCH   1  24
ATOM     24  C14 5UJ d   1       5.238 -14.694 -53.484  0.00  0.00     0.180 A 
ATOM     25  N3  5UJ d   1       5.440 -13.577 -54.187  0.00  0.00    -0.239 NA
ATOM     26  C15 5UJ d   1       6.403 -13.608 -55.115  0.00  0.00     0.006 A 
ATOM     27  C16 5UJ d   1       7.175 -14.716 -55.389  0.00  0.00    -0.048 A 
ATOM     28  H2  5UJ d   1       6.587 -12.706 -55.687  0.00  0.00     0.114 H 
ATOM     29  C17 5UJ d   1       6.917 -15.880 -54.670  0.00  0.00     0.066 A 
ATOM     30  H1  5UJ d   1       7.957 -14.682 -56.139  0.00  0.00     0.087 H 
ATOM     31  C20 5UJ d   1       7.666 -17.102 -54.949  0.00  0.00     0.259 A 
ATOM     32  C18 5UJ d   1       5.917 -15.917 -53.689  0.00  0.00     0.121 A 
ATOM     33  O   5UJ d   1       8.593 -17.161 -55.749  0.00  0.00    -0.267 OA
ATOM     34  N5  5UJ d   1       7.288 -18.181 -54.230  0.00  0.00    -0.317 N 
ATOM     35  C19 5UJ d   1       6.299 -18.138 -53.309  0.00  0.00     0.067 A 
ATOM     36  H3  5UJ d   1       7.760 -19.049 -54.386  0.00  0.00     0.169 HD
ATOM     37  N4  5UJ d   1       5.603 -17.068 -52.997  0.00  0.00    -0.239 NA
ATOM     38  H4  5UJ d   1       6.061 -19.062 -52.785  0.00  0.00     0.143 H 
ENDBRANCH   1  24
TORSDOF 6
