REMARK  5 active torsions:
REMARK  status: ('A' for Active; 'I' for Inactive)
REMARK    1  A    between atoms: C2_2  and  C1_1 
REMARK    2  A    between atoms: C1_1  and  C_9 
REMARK    3  A    between atoms: C5_11  and  O1_4 
REMARK    4  A    between atoms: O1_4  and  C6_12 
REMARK    5  A    between atoms: C8_14  and  C7_13 
ROOT
ATOM      1  C2  5V5 d   1      17.675  62.999  11.798  0.00  0.00    -0.047 A 
ATOM      2  C3  5V5 d   1      17.608  61.849  12.596  0.00  0.00    -0.074 A 
ATOM      3  C12 5V5 d   1      17.948  62.906  10.441  0.00  0.00    -0.062 A 
ATOM      4  C4  5V5 d   1      17.771  60.576  12.057  0.00  0.00    -0.049 A 
ATOM      5  C5  5V5 d   1      18.051  60.434  10.685  0.00  0.00     0.079 A 
ATOM      6  C7  5V5 d   1      18.131  61.663   9.843  0.00  0.00     0.015 A 
ATOM      7  H3  5V5 d   1      17.425  61.953  13.659  0.00  0.00     0.084 H 
ATOM      8  H5  5V5 d   1      18.019  63.807   9.843  0.00  0.00     0.085 H 
ATOM      9  H6  5V5 d   1      17.683  59.700  12.690  0.00  0.00     0.087 H 
ENDROOT
BRANCH   6  10
ATOM     10  C8  5V5 d   1      18.350  61.632   8.371  0.00  0.00     0.017 A 
ATOM     11  C9  5V5 d   1      17.911  62.454   7.343  0.00  0.00    -0.065 A 
ATOM     12  C10 5V5 d   1      18.360  62.017   6.088  0.00  0.00    -0.075 A 
ATOM     13  H10 5V5 d   1      17.290  63.336   7.493  0.00  0.00     0.085 H 
ATOM     14  C11 5V5 d   1      19.116  60.852   6.054  0.00  0.00    -0.044 A 
ATOM     15  H11 5V5 d   1      18.126  62.568   5.178  0.00  0.00     0.084 H 
ATOM     16  S   5V5 d   1      19.283  60.343   7.701  0.00  0.00    -0.101 SA
ATOM     17  H4  5V5 d   1      19.521  60.359   5.171  0.00  0.00     0.095 H 
ENDBRANCH   6  10
BRANCH   5  18
ATOM     18  O1  5V5 d   1      18.187  59.193  10.107  0.00  0.00    -0.355 OA
BRANCH  18  19
ATOM     19  C6  5V5 d   1      18.038  57.989  10.863  0.00  0.00     0.010 C 
ATOM     20  H7  5V5 d   1      18.188  57.121  10.204  0.00  0.00     0.066 H 
ATOM     21  H8  5V5 d   1      17.028  57.951  11.296  0.00  0.00     0.066 H 
ATOM     22  H9  5V5 d   1      18.784  57.969  11.671  0.00  0.00     0.066 H 
ENDBRANCH  18  19
ENDBRANCH   5  18
BRANCH   1  23
ATOM     23  C1  5V5 d   1      17.455  64.376  12.409  0.00  0.00     0.039 C 
ATOM     24  H1  5V5 d   1      17.061  64.254  13.429  0.00  0.00     0.056 H 
ATOM     25  H2  5V5 d   1      16.724  64.924  11.796  0.00  0.00     0.056 H 
BRANCH  23  26
ATOM     26  C   5V5 d   1      18.732  65.173  12.473  0.00  0.00     0.176 C 
ATOM     27  O2  5V5 d   1      19.806  64.565  12.643  0.00  0.00    -0.648 OA
ATOM     28  O   5V5 d   1      18.668  66.414  12.373  0.00  0.00    -0.648 OA
ENDBRANCH  23  26
ENDBRANCH   1  23
TORSDOF 5
