REMARK  5 active torsions:
REMARK  status: ('A' for Active; 'I' for Inactive)
REMARK    1  A    between atoms: C2_2  and  C1_1 
REMARK    2  A    between atoms: C1_1  and  C_8 
REMARK    3  A    between atoms: C9_11  and  O2_5 
REMARK    4  A    between atoms: O2_5  and  C10_12 
REMARK    5  A    between atoms: C4_10  and  C5_13 
ROOT
ATOM      1  C2  5V6 d   1      17.733  63.768  11.761  0.00  0.00    -0.047 A 
ATOM      2  C3  5V6 d   1      17.989  63.685  10.383  0.00  0.00    -0.063 A 
ATOM      3  C11 5V6 d   1      17.853  61.345  11.984  0.00  0.00    -0.049 A 
ATOM      4  C12 5V6 d   1      17.648  62.608  12.545  0.00  0.00    -0.074 A 
ATOM      5  C4  5V6 d   1      18.203  62.443   9.760  0.00  0.00     0.009 A 
ATOM      6  C9  5V6 d   1      18.124  61.218  10.600  0.00  0.00     0.079 A 
ATOM      7  H3  5V6 d   1      18.022  64.592   9.791  0.00  0.00     0.085 H 
ATOM      8  H4  5V6 d   1      17.805  60.461  12.609  0.00  0.00     0.087 H 
ATOM      9  H5  5V6 d   1      17.420  62.693  13.601  0.00  0.00     0.084 H 
ENDROOT
BRANCH   5  10
ATOM     10  C5  5V6 d   1      18.441  62.365   8.284  0.00  0.00    -0.016 A 
ATOM     11  C6  5V6 d   1      17.818  63.236   7.381  0.00  0.00    -0.034 A 
ATOM     12  S   5V6 d   1      18.359  62.768   5.804  0.00  0.00    -0.113 SA
ATOM     13  H9  5V6 d   1      17.131  64.046   7.622  0.00  0.00     0.096 H 
ATOM     14  C7  5V6 d   1      19.333  61.430   6.270  0.00  0.00    -0.044 A 
ATOM     15  C8  5V6 d   1      19.255  61.397   7.657  0.00  0.00    -0.065 A 
ATOM     16  H10 5V6 d   1      19.889  60.756   5.620  0.00  0.00     0.095 H 
ATOM     17  H11 5V6 d   1      19.800  60.654   8.237  0.00  0.00     0.085 H 
ENDBRANCH   5  10
BRANCH   6  18
ATOM     18  O2  5V6 d   1      18.296  59.984  10.016  0.00  0.00    -0.355 OA
BRANCH  18  19
ATOM     19  C10 5V6 d   1      18.098  58.775  10.755  0.00  0.00     0.010 C 
ATOM     20  H6  5V6 d   1      18.287  57.911  10.101  0.00  0.00     0.066 H 
ATOM     21  H7  5V6 d   1      17.062  58.736  11.124  0.00  0.00     0.066 H 
ATOM     22  H8  5V6 d   1      18.792  58.748  11.608  0.00  0.00     0.066 H 
ENDBRANCH  18  19
ENDBRANCH   6  18
BRANCH   1  23
ATOM     23  C1  5V6 d   1      17.464  65.122  12.402  0.00  0.00     0.039 C 
ATOM     24  H1  5V6 d   1      17.023  64.961  13.397  0.00  0.00     0.056 H 
ATOM     25  H2  5V6 d   1      16.754  65.677  11.771  0.00  0.00     0.056 H 
BRANCH  23  26
ATOM     26  C   5V6 d   1      18.717  65.942  12.556  0.00  0.00     0.176 C 
ATOM     27  O1  5V6 d   1      18.632  67.188  12.547  0.00  0.00    -0.648 OA
ATOM     28  O   5V6 d   1      19.798  65.350  12.703  0.00  0.00    -0.648 OA
ENDBRANCH  23  26
ENDBRANCH   1  23
TORSDOF 5
