REMARK  8 active torsions:
REMARK  status: ('A' for Active; 'I' for Inactive)
REMARK    1  A    between atoms: C10_1  and  C00_12 
REMARK    2  A    between atoms: C13_2  and  N14_25 
REMARK    3  A    between atoms: C15_3  and  C17_4 
REMARK       I    between atoms: N14_25  and  C15_3 
REMARK       I    between atoms: C17_4  and  N19_28 
REMARK    4  A    between atoms: N19_28  and  C20_5 
REMARK    5  A    between atoms: N_10  and  C_11 
REMARK    6  A    between atoms: C00_12  and  N_10 
REMARK       I    between atoms: C02_15  and  N01_14 
REMARK       I    between atoms: N03_16  and  C02_15 
REMARK    7  A    between atoms: C04_17  and  N03_16 
REMARK    8  A    between atoms: C05_18  and  C04_17 
ROOT
ATOM      1  C10 5VE d   1     -19.698   1.292  23.894  0.00  0.00    -0.032 A 
ATOM      2  C13 5VE d   1     -20.932  -0.157  20.534  0.00  0.00     0.044 C 
ATOM      3  C05 5VE d   1     -19.977  -0.011  19.350  0.00  0.00    -0.011 C 
ATOM      4  C06 5VE d   1     -18.636   0.028  19.920  0.00  0.00    -0.034 C 
ATOM      5  C07 5VE d   1     -18.800   0.519  21.345  0.00  0.00    -0.049 A 
ATOM      6  C08 5VE d   1     -17.897   1.014  22.260  0.00  0.00    -0.076 A 
ATOM      7  C09 5VE d   1     -18.347   1.406  23.552  0.00  0.00    -0.075 A 
ATOM      8  C11 5VE d   1     -20.617   0.790  22.967  0.00  0.00    -0.067 A 
ATOM      9  C12 5VE d   1     -20.166   0.405  21.701  0.00  0.00    -0.028 A 
ATOM     10  H1  5VE d   1     -21.883   0.371  20.373  0.00  0.00     0.081 H 
ATOM     11  H16 5VE d   1     -20.076  -0.880  18.683  0.00  0.00     0.046 H 
ATOM     12  H17 5VE d   1     -17.998   0.719  19.349  0.00  0.00     0.040 H 
ATOM     13  H18 5VE d   1     -18.188  -0.977  19.911  0.00  0.00     0.040 H 
ATOM     14  H19 5VE d   1     -16.849   1.105  21.997  0.00  0.00     0.084 H 
ATOM     15  H20 5VE d   1     -17.639   1.795  24.275  0.00  0.00     0.084 H 
ATOM     16  H21 5VE d   1     -21.666   0.701  23.227  0.00  0.00     0.085 H 
ENDROOT
BRANCH   2  17
ATOM     17  N14 5VE d   1     -21.136  -1.527  20.732  0.00  0.00    -0.344 N 
ATOM     18  C15 5VE d   1     -22.298  -2.177  20.169  0.00  0.00     0.310 C 
ATOM     19  O16 5VE d   1     -23.118  -1.528  19.528  0.00  0.00    -0.262 OA
ATOM     20  H22 5VE d   1     -20.476  -2.058  21.264  0.00  0.00     0.163 HD
BRANCH  18  21
ATOM     21  C17 5VE d   1     -22.495  -3.675  20.385  0.00  0.00     0.314 C 
ATOM     22  O18 5VE d   1     -21.665  -4.304  21.026  0.00  0.00    -0.262 OA
ATOM     23  N19 5VE d   1     -23.674  -4.324  19.827  0.00  0.00    -0.319 N 
ATOM     24  H23 5VE d   1     -24.335  -3.756  19.337  0.00  0.00     0.169 HD
BRANCH  23  25
ATOM     25  C20 5VE d   1     -23.938  -5.691  19.935  0.00  0.00     0.038 A 
ATOM     26  C21 5VE d   1     -23.652  -6.432  21.079  0.00  0.00    -0.018 A 
ATOM     27  C22 5VE d   1     -23.934  -7.823  21.101  0.00  0.00     0.140 A 
ATOM     28  H2  5VE d   1     -23.217  -5.950  21.947  0.00  0.00     0.091 H 
ATOM     29  C24 5VE d   1     -24.500  -8.458  19.962  0.00  0.00     0.072 A 
ATOM     30  F23 5VE d   1     -23.672  -8.531  22.185  0.00  0.00    -0.204 F 
ATOM     31  C26 5VE d   1     -24.781  -7.719  18.813  0.00  0.00    -0.057 A 
ATOM     32 CL25 5VE d   1     -24.850 -10.162  19.981  0.00  0.00    -0.081 Cl
ATOM     33  C27 5VE d   1     -24.498  -6.335  18.790  0.00  0.00    -0.055 A 
ATOM     34  H3  5VE d   1     -25.213  -8.203  17.945  0.00  0.00     0.086 H 
ATOM     35  H24 5VE d   1     -24.707  -5.758  17.897  0.00  0.00     0.087 H 
ENDBRANCH  23  25
ENDBRANCH  18  21
ENDBRANCH   2  17
BRANCH   3  36
ATOM     36  C04 5VE d   1     -20.264   1.267  18.545  0.00  0.00     0.015 C 
ATOM     37  H14 5VE d   1     -20.431   2.103  19.240  0.00  0.00     0.065 H 
ATOM     38  H15 5VE d   1     -19.400   1.492  17.903  0.00  0.00     0.065 H 
BRANCH  36  39
ATOM     39  N03 5VE d   1     -21.477   1.087  17.692  0.00  0.00    -0.227 N 
ATOM     40  C02 5VE d   1     -22.553   2.082  17.705  0.00  0.00     0.665 C 
ATOM     41  N01 5VE d   1     -22.461   3.101  18.444  0.00  0.00    -0.235 N 
ATOM     42  N28 5VE d   1     -23.647   1.907  16.927  0.00  0.00    -0.235 N 
ATOM     43  H11 5VE d   1     -23.217   3.800  18.453  0.00  0.00     0.174 HD
ATOM     44  H12 5VE d   1     -21.630   3.233  19.038  0.00  0.00     0.174 HD
ATOM     45  H25 5VE d   1     -24.403   2.607  16.936  0.00  0.00     0.174 HD
ATOM     46  H26 5VE d   1     -23.723   1.074  16.326  0.00  0.00     0.174 HD
ATOM     47  H13 5VE d   1     -21.558   0.256  17.089  0.00  0.00     0.177 HD
ENDBRANCH  36  39
ENDBRANCH   3  36
BRANCH   1  48
ATOM     48  C00 5VE d   1     -20.196   1.737  25.350  0.00  0.00     0.105 C 
ATOM     49  H9  5VE d   1     -21.255   1.465  25.471  0.00  0.00     0.083 H 
ATOM     50  H10 5VE d   1     -20.082   2.826  25.456  0.00  0.00     0.083 H 
BRANCH  48  51
ATOM     51  N   5VE d   1     -19.448   1.103  26.322  0.00  0.00    -0.075 N 
ATOM     52  H4  5VE d   1     -19.725   0.136  26.381  0.00  0.00     0.277 HD
ATOM     53  H5  5VE d   1     -18.470   1.158  26.083  0.00  0.00     0.277 HD
BRANCH  51  54
ATOM     54  C   5VE d   1     -19.668   1.744  27.593  0.00  0.00     0.065 C 
ATOM     55  H6  5VE d   1     -19.072   1.238  28.367  0.00  0.00     0.067 H 
ATOM     56  H7  5VE d   1     -20.735   1.684  27.854  0.00  0.00     0.067 H 
ATOM     57  H8  5VE d   1     -19.365   2.800  27.529  0.00  0.00     0.067 H 
ENDBRANCH  51  54
ENDBRANCH  48  51
ENDBRANCH   1  48
TORSDOF 8
