REMARK  8 active torsions:
REMARK  status: ('A' for Active; 'I' for Inactive)
REMARK    1  A    between atoms: C2_3  and  N3_24 
REMARK    2  A    between atoms: C15_18  and  O2_4 
REMARK    3  A    between atoms: O2_4  and  C16_19 
REMARK    4  A    between atoms: C4_6  and  N1_11 
REMARK    5  A    between atoms: C5_7  and  C6_8 
REMARK    6  A    between atoms: N1_11  and  C5_7 
REMARK    7  A    between atoms: N3_24  and  C10_14 
REMARK    8  A    between atoms: C15_18  and  C_21 
ROOT
ATOM      1  C13 5UY d   1      12.532   0.278  10.799  0.00  0.00     0.048 A 
ATOM      2  C10 5UY d   1      13.684  -0.458  10.495  0.00  0.00     0.146 A 
ATOM      3  C11 5UY d   1      12.950  -2.145  11.831  0.00  0.00     0.043 A 
ATOM      4  C12 5UY d   1      11.807  -1.422  12.135  0.00  0.00     0.153 A 
ATOM      5  C14 5UY d   1      10.790  -1.962  13.013  0.00  0.00     0.121 C 
ATOM      6  N5  5UY d   1      11.590  -0.198  11.618  0.00  0.00    -0.245 NA
ATOM      7  N4  5UY d   1      13.888  -1.665  11.013  0.00  0.00    -0.239 NA
ATOM      8  N6  5UY d   1      10.004  -2.414  13.701  0.00  0.00    -0.190 NA
ATOM      9  H13 5UY d   1      12.401   1.260  10.358  0.00  0.00     0.120 H 
ATOM     10  H14 5UY d   1      13.085  -3.127  12.270  0.00  0.00     0.119 H 
ENDROOT
BRANCH   2  11
ATOM     11  N3  5UY d   1      14.628   0.067   9.647  0.00  0.00    -0.324 N 
ATOM     12  H20 5UY d   1      14.301   0.858   9.074  0.00  0.00     0.169 HD
BRANCH  11  13
ATOM     13  C2  5UY d   1      15.938  -0.292   9.439  0.00  0.00     0.131 A 
ATOM     14  C3  5UY d   1      16.469  -1.505   9.877  0.00  0.00    -0.012 A 
ATOM     15  C4  5UY d   1      17.810  -1.791   9.642  0.00  0.00     0.049 A 
ATOM     16  H2  5UY d   1      15.841  -2.220  10.397  0.00  0.00     0.092 H 
ATOM     17  C   5UY d   1      18.582  -0.821   8.975  0.00  0.00     0.083 A 
ATOM     18  C1  5UY d   1      17.948   0.353   8.577  0.00  0.00     0.022 A 
ATOM     19  N   5UY d   1      16.660   0.622   8.793  0.00  0.00    -0.242 NA
ATOM     20  H1  5UY d   1      18.541   1.097   8.057  0.00  0.00     0.116 H 
BRANCH  15  21
ATOM     21  N1  5UY d   1      18.349  -2.988  10.048  0.00  0.00    -0.386 N 
ATOM     22  H10 5UY d   1      19.352  -3.153   9.883  0.00  0.00     0.159 HD
BRANCH  21  23
ATOM     23  C5  5UY d   1      17.577  -4.034  10.698  0.00  0.00     0.018 C 
ATOM     24  H3  5UY d   1      16.514  -3.846  10.486  0.00  0.00     0.067 H 
ATOM     25  H4  5UY d   1      17.875  -4.995  10.254  0.00  0.00     0.067 H 
BRANCH  23  26
ATOM     26  C6  5UY d   1      17.735  -4.150  12.198  0.00  0.00     0.076 C 
ATOM     27  C9  5UY d   1      17.092  -3.007  12.966  0.00  0.00     0.107 C 
ATOM     28  N2  5UY d   1      17.111  -3.284  14.403  0.00  0.00    -0.071 N 
ATOM     29  H11 5UY d   1      16.050  -2.888  12.634  0.00  0.00     0.079 H 
ATOM     30  H12 5UY d   1      17.649  -2.079  12.768  0.00  0.00     0.079 H 
ATOM     31  C8  5UY d   1      16.497  -4.580  14.724  0.00  0.00     0.101 C 
ATOM     32  H18 5UY d   1      18.068  -3.290  14.720  0.00  0.00     0.277 HD
ATOM     33  H19 5UY d   1      16.603  -2.556  14.881  0.00  0.00     0.277 HD
ATOM     34  C7  5UY d   1      17.109  -5.689  13.906  0.00  0.00     0.043 C 
ATOM     35  H8  5UY d   1      16.650  -4.795  15.792  0.00  0.00     0.079 H 
ATOM     36  H9  5UY d   1      15.419  -4.529  14.511  0.00  0.00     0.079 H 
ATOM     37  O   5UY d   1      17.062  -5.372  12.505  0.00  0.00    -0.381 OA
ATOM     38  H6  5UY d   1      16.551  -6.620  14.085  0.00  0.00     0.076 H 
ATOM     39  H7  5UY d   1      18.157  -5.826  14.210  0.00  0.00     0.076 H 
ATOM     40  H5  5UY d   1      18.800  -4.207  12.465  0.00  0.00     0.088 H 
ENDBRANCH  23  26
ENDBRANCH  21  23
ENDBRANCH  15  21
BRANCH  17  41
ATOM     41  C15 5UY d   1      20.018  -1.053   8.665  0.00  0.00     0.296 C 
ATOM     42  O1  5UY d   1      20.676  -1.944   9.140  0.00  0.00    -0.259 OA
BRANCH  41  43
ATOM     43  O2  5UY d   1      20.486  -0.156   7.792  0.00  0.00    -0.322 OA
BRANCH  43  44
ATOM     44  C16 5UY d   1      21.883  -0.261   7.427  0.00  0.00     0.013 C 
ATOM     45  H15 5UY d   1      22.134   0.532   6.707  0.00  0.00     0.067 H 
ATOM     46  H16 5UY d   1      22.070  -1.244   6.970  0.00  0.00     0.067 H 
ATOM     47  H17 5UY d   1      22.506  -0.151   8.327  0.00  0.00     0.067 H 
ENDBRANCH  43  44
ENDBRANCH  41  43
ENDBRANCH  17  41
ENDBRANCH  11  13
ENDBRANCH   2  11
TORSDOF 8
