REMARK  8 active torsions:
REMARK  status: ('A' for Active; 'I' for Inactive)
REMARK    1  A    between atoms: C13_2  and  N14_25 
REMARK    2  A    between atoms: C15_3  and  C17_4 
REMARK       I    between atoms: N14_25  and  C15_3 
REMARK       I    between atoms: C17_4  and  N19_28 
REMARK    3  A    between atoms: N19_28  and  C20_5 
REMARK    4  A    between atoms: N_10  and  C_11 
REMARK    5  A    between atoms: C00_12  and  N_10 
REMARK    6  A    between atoms: C09_22  and  C00_12 
REMARK       I    between atoms: C02_15  and  N01_14 
REMARK       I    between atoms: N03_16  and  C02_15 
REMARK    7  A    between atoms: C04_17  and  N03_16 
REMARK    8  A    between atoms: C05_18  and  C04_17 
ROOT
ATOM      1  C10 5VG d   1     -16.962 -59.524  22.164  0.00  0.00    -0.075 A 
ATOM      2  C13 5VG d   1     -15.129 -59.454  18.692  0.00  0.00     0.044 C 
ATOM      3  C05 5VG d   1     -15.920 -59.909  17.517  0.00  0.00    -0.011 C 
ATOM      4  C06 5VG d   1     -17.354 -59.671  17.848  0.00  0.00    -0.033 C 
ATOM      5  C07 5VG d   1     -17.422 -59.634  19.362  0.00  0.00    -0.049 A 
ATOM      6  C08 5VG d   1     -18.516 -59.705  20.253  0.00  0.00    -0.069 A 
ATOM      7  C09 5VG d   1     -18.271 -59.646  21.676  0.00  0.00    -0.032 A 
ATOM      8  C11 5VG d   1     -15.844 -59.456  21.248  0.00  0.00    -0.074 A 
ATOM      9  C12 5VG d   1     -16.090 -59.510  19.867  0.00  0.00    -0.029 A 
ATOM     10  H1  5VG d   1     -16.787 -59.480  23.233  0.00  0.00     0.084 H 
ATOM     11  H2  5VG d   1     -14.245 -60.087  18.859  0.00  0.00     0.081 H 
ATOM     12  H17 5VG d   1     -15.645 -59.313  16.634  0.00  0.00     0.046 H 
ATOM     13  H18 5VG d   1     -17.979 -60.486  17.455  0.00  0.00     0.040 H 
ATOM     14  H19 5VG d   1     -17.692 -58.714  17.425  0.00  0.00     0.040 H 
ATOM     15  H20 5VG d   1     -19.527 -59.803  19.874  0.00  0.00     0.085 H 
ATOM     16  H21 5VG d   1     -14.831 -59.365  21.623  0.00  0.00     0.084 H 
ENDROOT
BRANCH   2  17
ATOM     17  N14 5VG d   1     -14.754 -58.096  18.476  0.00  0.00    -0.344 N 
ATOM     18  C15 5VG d   1     -13.414 -57.778  18.059  0.00  0.00     0.310 C 
ATOM     19  O16 5VG d   1     -12.581 -58.687  17.889  0.00  0.00    -0.262 OA
ATOM     20  H22 5VG d   1     -15.422 -57.365  18.614  0.00  0.00     0.163 HD
BRANCH  18  21
ATOM     21  C17 5VG d   1     -13.024 -56.333  17.826  0.00  0.00     0.314 C 
ATOM     22  O18 5VG d   1     -13.863 -55.438  17.998  0.00  0.00    -0.262 OA
ATOM     23  N19 5VG d   1     -11.669 -56.018  17.407  0.00  0.00    -0.319 N 
ATOM     24  H23 5VG d   1     -11.016 -56.765  17.284  0.00  0.00     0.169 HD
BRANCH  23  25
ATOM     25  C20 5VG d   1     -11.235 -54.667  17.163  0.00  0.00     0.038 A 
ATOM     26  C21 5VG d   1     -11.475 -53.657  18.101  0.00  0.00    -0.018 A 
ATOM     27  C22 5VG d   1     -11.038 -52.348  17.835  0.00  0.00     0.140 A 
ATOM     28  H3  5VG d   1     -11.994 -53.882  19.026  0.00  0.00     0.091 H 
ATOM     29  C24 5VG d   1     -10.358 -52.052  16.630  0.00  0.00     0.072 A 
ATOM     30  F23 5VG d   1     -11.277 -51.350  18.759  0.00  0.00    -0.204 F 
ATOM     31  C26 5VG d   1     -10.116 -53.055  15.701  0.00  0.00    -0.057 A 
ATOM     32 CL25 5VG d   1      -9.825 -50.459  16.304  0.00  0.00    -0.081 Cl
ATOM     33  C27 5VG d   1     -10.561 -54.381  15.975  0.00  0.00    -0.055 A 
ATOM     34  H4  5VG d   1      -9.594 -52.832  14.777  0.00  0.00     0.086 H 
ATOM     35  H24 5VG d   1     -10.375 -55.171  15.257  0.00  0.00     0.087 H 
ENDBRANCH  23  25
ENDBRANCH  18  21
ENDBRANCH   2  17
BRANCH   3  36
ATOM     36  C04 5VG d   1     -15.652 -61.360  17.219  0.00  0.00     0.015 C 
ATOM     37  H15 5VG d   1     -15.349 -61.873  18.143  0.00  0.00     0.065 H 
ATOM     38  H16 5VG d   1     -16.566 -61.827  16.823  0.00  0.00     0.065 H 
BRANCH  36  39
ATOM     39  N03 5VG d   1     -14.593 -61.469  16.239  0.00  0.00    -0.227 N 
ATOM     40  C02 5VG d   1     -13.316 -62.098  16.600  0.00  0.00     0.665 C 
ATOM     41  N01 5VG d   1     -13.132 -62.565  17.798  0.00  0.00    -0.235 N 
ATOM     42  N28 5VG d   1     -12.385 -62.192  15.740  0.00  0.00    -0.235 N 
ATOM     43  H12 5VG d   1     -12.235 -63.005  18.047  0.00  0.00     0.174 HD
ATOM     44  H13 5VG d   1     -13.883 -62.495  18.499  0.00  0.00     0.174 HD
ATOM     45  H25 5VG d   1     -11.490 -62.634  15.996  0.00  0.00     0.174 HD
ATOM     46  H26 5VG d   1     -12.525 -61.827  14.787  0.00  0.00     0.174 HD
ATOM     47  H14 5VG d   1     -14.735 -61.105  15.286  0.00  0.00     0.177 HD
ENDBRANCH  36  39
ENDBRANCH   3  36
BRANCH   7  48
ATOM     48  C00 5VG d   1     -19.448 -59.719  22.680  0.00  0.00     0.105 C 
ATOM     49  H10 5VG d   1     -20.386 -59.472  22.162  0.00  0.00     0.083 H 
ATOM     50  H11 5VG d   1     -19.514 -60.737  23.093  0.00  0.00     0.083 H 
BRANCH  48  51
ATOM     51  N   5VG d   1     -19.234 -58.787  23.745  0.00  0.00    -0.075 N 
ATOM     52  H5  5VG d   1     -18.257 -58.541  23.786  0.00  0.00     0.277 HD
ATOM     53  H6  5VG d   1     -19.783 -57.958  23.583  0.00  0.00     0.277 HD
BRANCH  51  54
ATOM     54  C   5VG d   1     -19.623 -59.379  24.963  0.00  0.00     0.065 C 
ATOM     55  H7  5VG d   1     -19.460 -58.667  25.785  0.00  0.00     0.067 H 
ATOM     56  H8  5VG d   1     -19.024 -60.285  25.139  0.00  0.00     0.067 H 
ATOM     57  H9  5VG d   1     -20.689 -59.648  24.916  0.00  0.00     0.067 H 
ENDBRANCH  51  54
ENDBRANCH  48  51
ENDBRANCH   7  48
TORSDOF 8
