REMARK  8 active torsions:
REMARK  status: ('A' for Active; 'I' for Inactive)
REMARK    1  A    between atoms: CAH_8  and  NAI_9 
REMARK       I    between atoms: NAI_9  and  CAJ_10 
REMARK    2  A    between atoms: CAJ_10  and  CAL_12 
REMARK       I    between atoms: CAL_12  and  NAN_14 
REMARK    3  A    between atoms: NAN_14  and  CAO_15 
REMARK    4  A    between atoms: CAS_19  and  CAT_20 
REMARK    5  A    between atoms: CAT_20  and  NAU_21 
REMARK    6  A    between atoms: NAU_21  and  CBE_22 
REMARK       I    between atoms: NAU_21  and  CBF_23 
REMARK       I    between atoms: CBF_23  and  NBH_24 
REMARK    7  A    between atoms: CAY_29  and  CAZ_30 
REMARK    8  A    between atoms: CAZ_30  and  NBA_31 
REMARK       I    between atoms: NBA_31  and  CBB_32 
REMARK       I    between atoms: CBB_32  and  NBD_33 
ROOT
ATOM      1  CAO 5VF d   1     -14.849 -59.435  18.762  0.00  0.00     0.044 C 
ATOM      2  CAP 5VF d   1     -15.845 -59.682  19.847  0.00  0.00    -0.029 A 
ATOM      3  CAQ 5VF d   1     -15.690 -59.685  21.257  0.00  0.00    -0.074 A 
ATOM      4  CAR 5VF d   1     -16.804 -59.945  22.064  0.00  0.00    -0.075 A 
ATOM      5  CAS 5VF d   1     -18.061 -60.199  21.474  0.00  0.00    -0.039 A 
ATOM      6  CAV 5VF d   1     -18.210 -60.193  20.076  0.00  0.00    -0.069 A 
ATOM      7  CAW 5VF d   1     -17.094 -59.932  19.257  0.00  0.00    -0.049 A 
ATOM      8  CAX 5VF d   1     -16.945 -59.868  17.729  0.00  0.00    -0.033 C 
ATOM      9  CAY 5VF d   1     -15.475 -59.963  17.495  0.00  0.00    -0.011 C 
ATOM     10  H6  5VF d   1     -13.898 -59.944  18.976  0.00  0.00     0.081 H 
ATOM     11  H7  5VF d   1     -14.722 -59.489  21.704  0.00  0.00     0.084 H 
ATOM     12  H8  5VF d   1     -16.701 -59.951  23.143  0.00  0.00     0.084 H 
ATOM     13  H18 5VF d   1     -19.179 -60.388  19.631  0.00  0.00     0.085 H 
ATOM     14  H19 5VF d   1     -17.341 -58.919  17.339  0.00  0.00     0.040 H 
ATOM     15  H20 5VF d   1     -17.470 -60.708  17.251  0.00  0.00     0.040 H 
ATOM     16  H21 5VF d   1     -15.177 -59.355  16.628  0.00  0.00     0.046 H 
ENDROOT
BRANCH   1  17
ATOM     17  NAN 5VF d   1     -14.647 -58.054  18.628  0.00  0.00    -0.344 N 
ATOM     18  CAL 5VF d   1     -13.315 -57.621  18.204  0.00  0.00     0.310 C 
ATOM     19  OAM 5VF d   1     -12.444 -58.483  17.991  0.00  0.00    -0.262 OA
ATOM     20  H5  5VF d   1     -15.378 -57.397  18.813  0.00  0.00     0.163 HD
BRANCH  18  21
ATOM     21  CAJ 5VF d   1     -12.977 -56.182  18.021  0.00  0.00     0.314 C 
ATOM     22  NAI 5VF d   1     -11.652 -55.910  17.611  0.00  0.00    -0.319 N 
ATOM     23  H4  5VF d   1     -11.033 -56.684  17.477  0.00  0.00     0.169 HD
ATOM     24  OAK 5VF d   1     -13.770 -55.329  18.210  0.00  0.00    -0.262 OA
BRANCH  22  25
ATOM     25  CAH 5VF d   1     -11.126 -54.550  17.369  0.00  0.00     0.038 A 
ATOM     26  CAA 5VF d   1     -11.498 -53.462  18.178  0.00  0.00    -0.018 A 
ATOM     27  CAB 5VF d   1     -10.971 -52.192  17.903  0.00  0.00     0.140 A 
ATOM     28  H1  5VF d   1     -12.184 -53.603  19.005  0.00  0.00     0.091 H 
ATOM     29  FAC 5VF d   1     -11.326 -51.136  18.682  0.00  0.00    -0.204 F 
ATOM     30  CAD 5VF d   1     -10.074 -52.025  16.826  0.00  0.00     0.072 A 
ATOM     31 CLAE 5VF d   1      -9.416 -50.499  16.461  0.00  0.00    -0.081 Cl
ATOM     32  CAF 5VF d   1      -9.702 -53.112  16.024  0.00  0.00    -0.057 A 
ATOM     33  CAG 5VF d   1     -10.232 -54.378  16.299  0.00  0.00    -0.055 A 
ATOM     34  H2  5VF d   1      -9.011 -52.974  15.200  0.00  0.00     0.086 H 
ATOM     35  H3  5VF d   1      -9.952 -55.227  15.686  0.00  0.00     0.087 H 
ENDBRANCH  22  25
ENDBRANCH  18  21
ENDBRANCH   1  17
BRANCH   9  36
ATOM     36  CAZ 5VF d   1     -15.069 -61.400  17.275  0.00  0.00     0.015 C 
ATOM     37  H22 5VF d   1     -15.969 -62.007  17.097  0.00  0.00     0.065 H 
ATOM     38  H23 5VF d   1     -14.548 -61.770  18.171  0.00  0.00     0.065 H 
BRANCH  36  39
ATOM     39  NBA 5VF d   1     -14.196 -61.508  16.144  0.00  0.00    -0.227 N 
ATOM     40  CBB 5VF d   1     -12.831 -62.021  16.265  0.00  0.00     0.665 C 
ATOM     41  NBD 5VF d   1     -12.089 -62.094  15.217  0.00  0.00    -0.235 N 
ATOM     42  NBC 5VF d   1     -12.354 -62.407  17.446  0.00  0.00    -0.235 N 
ATOM     43  H25 5VF d   1     -11.127 -62.454  15.291  0.00  0.00     0.174 HD
ATOM     44  H26 5VF d   1     -12.457 -61.793  14.303  0.00  0.00     0.174 HD
ATOM     45  H27 5VF d   1     -12.948 -62.349  18.285  0.00  0.00     0.174 HD
ATOM     46  H28 5VF d   1     -11.391 -62.764  17.521  0.00  0.00     0.174 HD
ATOM     47  H24 5VF d   1     -14.540 -61.216  15.218  0.00  0.00     0.177 HD
ENDBRANCH  36  39
ENDBRANCH   9  36
BRANCH   5  48
ATOM     48  CAT 5VF d   1     -19.297 -60.487  22.368  0.00  0.00     0.035 C 
ATOM     49  H9  5VF d   1     -20.211 -60.191  21.833  0.00  0.00     0.072 H 
ATOM     50  H10 5VF d   1     -19.215 -59.910  23.301  0.00  0.00     0.072 H 
BRANCH  48  51
ATOM     51  NAU 5VF d   1     -19.359 -61.870  22.675  0.00  0.00    -0.219 N 
ATOM     52  CBF 5VF d   1     -20.336 -62.282  23.516  0.00  0.00     0.667 C 
ATOM     53  NBH 5VF d   1     -21.151 -61.432  24.000  0.00  0.00    -0.235 N 
ATOM     54  NBG 5VF d   1     -20.436 -63.526  23.826  0.00  0.00    -0.235 N 
ATOM     55  H14 5VF d   1     -21.896 -61.740  24.640  0.00  0.00     0.174 HD
ATOM     56  H15 5VF d   1     -21.065 -60.436  23.751  0.00  0.00     0.174 HD
ATOM     57  H16 5VF d   1     -19.774 -64.210  23.432  0.00  0.00     0.174 HD
ATOM     58  H17 5VF d   1     -21.178 -63.839  24.468  0.00  0.00     0.174 HD
BRANCH  51  59
ATOM     59  CBE 5VF d   1     -18.446 -62.783  22.130  0.00  0.00    -0.002 C 
ATOM     60  H11 5VF d   1     -18.675 -63.794  22.498  0.00  0.00     0.057 H 
ATOM     61  H12 5VF d   1     -17.425 -62.505  22.431  0.00  0.00     0.057 H 
ATOM     62  H13 5VF d   1     -18.522 -62.767  21.033  0.00  0.00     0.057 H 
ENDBRANCH  51  59
ENDBRANCH  48  51
ENDBRANCH   5  48
TORSDOF 8
