REMARK  8 active torsions:
REMARK  status: ('A' for Active; 'I' for Inactive)
REMARK    1  A    between atoms: CAH_8  and  NAI_9 
REMARK       I    between atoms: NAI_9  and  CAJ_10 
REMARK    2  A    between atoms: CAJ_10  and  CAL_12 
REMARK       I    between atoms: CAL_12  and  NAN_14 
REMARK    3  A    between atoms: NAN_14  and  CAO_15 
REMARK    4  A    between atoms: CAR_18  and  CAS_19 
REMARK    5  A    between atoms: CAS_19  and  NAT_20 
REMARK    6  A    between atoms: NAT_20  and  CAU_21 
REMARK       I    between atoms: NAT_20  and  CBF_22 
REMARK       I    between atoms: CBF_22  and  NBH_23 
REMARK    7  A    between atoms: CAZ_29  and  CBA_30 
REMARK    8  A    between atoms: CBA_30  and  NBB_31 
REMARK       I    between atoms: NBB_31  and  CBC_32 
REMARK       I    between atoms: CBC_32  and  NBE_33 
REMARK       I    between atoms: CBC_32  and  NBD_34 
ROOT
ATOM      1  CAO 5VH d   1     -15.665 -59.840  18.318  0.00  0.00     0.044 C 
ATOM      2  CAP 5VH d   1     -16.746 -59.773  19.201  0.00  0.00    -0.028 A 
ATOM      3  CAQ 5VH d   1     -16.739 -59.724  20.533  0.00  0.00    -0.067 A 
ATOM      4  CAR 5VH d   1     -17.926 -59.659  21.246  0.00  0.00    -0.039 A 
ATOM      5  CAV 5VH d   1     -19.120 -59.650  20.547  0.00  0.00    -0.075 A 
ATOM      6  CAW 5VH d   1     -19.074 -59.704  19.162  0.00  0.00    -0.076 A 
ATOM      7  CAX 5VH d   1     -17.909 -59.762  18.519  0.00  0.00    -0.049 A 
ATOM      8  CAY 5VH d   1     -17.666 -59.822  17.145  0.00  0.00    -0.034 C 
ATOM      9  CAZ 5VH d   1     -16.258 -60.328  17.027  0.00  0.00    -0.011 C 
ATOM     10  H6  5VH d   1     -14.896 -60.535  18.687  0.00  0.00     0.081 H 
ATOM     11  H7  5VH d   1     -15.794 -59.735  21.065  0.00  0.00     0.085 H 
ATOM     12  H17 5VH d   1     -20.069 -59.602  21.069  0.00  0.00     0.084 H 
ATOM     13  H18 5VH d   1     -19.998 -59.699  18.595  0.00  0.00     0.084 H 
ATOM     14  H19 5VH d   1     -17.759 -58.824  16.691  0.00  0.00     0.040 H 
ATOM     15  H20 5VH d   1     -18.369 -60.514  16.657  0.00  0.00     0.040 H 
ATOM     16  H21 5VH d   1     -15.788 -59.748  16.219  0.00  0.00     0.046 H 
ENDROOT
BRANCH   1  17
ATOM     17  NAN 5VH d   1     -15.085 -58.502  18.129  0.00  0.00    -0.344 N 
ATOM     18  CAL 5VH d   1     -13.848 -58.149  17.692  0.00  0.00     0.310 C 
ATOM     19  OAM 5VH d   1     -13.044 -59.033  17.401  0.00  0.00    -0.262 OA
ATOM     20  H5  5VH d   1     -15.691 -57.739  18.356  0.00  0.00     0.163 HD
BRANCH  18  21
ATOM     21  CAJ 5VH d   1     -13.339 -56.678  17.519  0.00  0.00     0.314 C 
ATOM     22  NAI 5VH d   1     -12.071 -56.388  17.085  0.00  0.00    -0.319 N 
ATOM     23  H4  5VH d   1     -11.420 -57.121  16.887  0.00  0.00     0.169 HD
ATOM     24  OAK 5VH d   1     -14.166 -55.805  17.801  0.00  0.00    -0.262 OA
BRANCH  22  25
ATOM     25  CAH 5VH d   1     -11.721 -55.101  16.931  0.00  0.00     0.038 A 
ATOM     26  CAA 5VH d   1     -12.025 -54.177  17.923  0.00  0.00    -0.018 A 
ATOM     27  CAB 5VH d   1     -11.663 -52.844  17.764  0.00  0.00     0.140 A 
ATOM     28  H1  5VH d   1     -12.544 -54.495  18.820  0.00  0.00     0.091 H 
ATOM     29  FAC 5VH d   1     -11.958 -51.937  18.734  0.00  0.00    -0.204 F 
ATOM     30  CAD 5VH d   1     -10.997 -52.438  16.613  0.00  0.00     0.072 A 
ATOM     31 CLAE 5VH d   1     -10.547 -50.783  16.416  0.00  0.00    -0.081 Cl
ATOM     32  CAF 5VH d   1     -10.694 -53.363  15.621  0.00  0.00    -0.057 A 
ATOM     33  CAG 5VH d   1     -11.056 -54.695  15.780  0.00  0.00    -0.055 A 
ATOM     34  H2  5VH d   1     -10.175 -53.045  14.724  0.00  0.00     0.086 H 
ATOM     35  H3  5VH d   1     -10.820 -55.417  15.007  0.00  0.00     0.087 H 
ENDBRANCH  22  25
ENDBRANCH  18  21
ENDBRANCH   1  17
BRANCH   9  36
ATOM     36  CBA 5VH d   1     -16.060 -61.371  16.736  0.00  0.00     0.015 C 
ATOM     37  H22 5VH d   1     -16.787 -61.677  15.969  0.00  0.00     0.065 H 
ATOM     38  H23 5VH d   1     -16.164 -62.019  17.619  0.00  0.00     0.065 H 
BRANCH  36  39
ATOM     39  NBB 5VH d   1     -14.549 -61.523  16.134  0.00  0.00    -0.227 N 
ATOM     40  CBC 5VH d   1     -13.403 -62.419  16.140  0.00  0.00     0.665 C 
ATOM     41  NBE 5VH d   1     -13.243 -62.790  17.226  0.00  0.00    -0.235 N 
ATOM     42  NBD 5VH d   1     -11.958 -62.625  15.765  0.00  0.00    -0.235 N 
ATOM     43  H25 5VH d   1     -12.473 -63.440  17.440  0.00  0.00     0.174 HD
ATOM     44  H26 5VH d   1     -13.871 -62.470  17.977  0.00  0.00     0.174 HD
ATOM     45  H27 5VH d   1     -11.636 -62.402  14.812  0.00  0.00     0.174 HD
ATOM     46  H28 5VH d   1     -11.292 -62.988  16.462  0.00  0.00     0.174 HD
ATOM     47  H24 5VH d   1     -14.334 -60.703  15.549  0.00  0.00     0.177 HD
ENDBRANCH  36  39
ENDBRANCH   9  36
BRANCH   4  48
ATOM     48  CAS 5VH d   1     -17.918 -59.608  22.636  0.00  0.00     0.035 C 
ATOM     49  H8  5VH d   1     -18.818 -59.083  22.989  0.00  0.00     0.072 H 
ATOM     50  H9  5VH d   1     -17.022 -59.069  22.978  0.00  0.00     0.072 H 
BRANCH  48  51
ATOM     51  NAT 5VH d   1     -17.904 -60.974  23.177  0.00  0.00    -0.219 N 
ATOM     52  CBF 5VH d   1     -17.821 -61.214  24.501  0.00  0.00     0.667 C 
ATOM     53  NBH 5VH d   1     -17.809 -62.466  24.991  0.00  0.00    -0.235 N 
ATOM     54  NBG 5VH d   1     -17.749 -60.186  25.361  0.00  0.00    -0.235 N 
ATOM     55  H13 5VH d   1     -17.745 -62.621  26.007  0.00  0.00     0.174 HD
ATOM     56  H14 5VH d   1     -17.864 -63.270  24.350  0.00  0.00     0.174 HD
ATOM     57  H15 5VH d   1     -17.757 -59.218  25.009  0.00  0.00     0.174 HD
ATOM     58  H16 5VH d   1     -17.686 -60.365  26.373  0.00  0.00     0.174 HD
BRANCH  51  59
ATOM     59  CAU 5VH d   1     -17.981 -62.129  22.268  0.00  0.00    -0.002 C 
ATOM     60  H10 5VH d   1     -17.957 -63.059  22.855  0.00  0.00     0.057 H 
ATOM     61  H11 5VH d   1     -17.125 -62.109  21.577  0.00  0.00     0.057 H 
ATOM     62  H12 5VH d   1     -18.918 -62.082  21.693  0.00  0.00     0.057 H 
ENDBRANCH  51  59
ENDBRANCH  48  51
ENDBRANCH   4  48
TORSDOF 8
