REMARK  21 active torsions:
REMARK  status: ('A' for Active; 'I' for Inactive)
REMARK    1  A    between atoms: C_1  and  CH3_3 
REMARK       I    between atoms: C_1  and  N_4 
REMARK    2  A    between atoms: N_4  and  CA_5 
REMARK    3  A    between atoms: CA_5  and  C_6 
REMARK    4  A    between atoms: CA_5  and  CB_8 
REMARK       I    between atoms: C_6  and  N_11 
REMARK    5  A    between atoms: CB_8  and  CG1_9 
REMARK    6  A    between atoms: CB_8  and  CG2_10 
REMARK    7  A    between atoms: N_11  and  CA_12 
REMARK    8  A    between atoms: CA_12  and  C_13 
REMARK    9  A    between atoms: CA_12  and  CB_15 
REMARK       I    between atoms: C_13  and  N_22 
REMARK   10  A    between atoms: CB_15  and  CG_16 
REMARK   11  A    between atoms: CG_16  and  CD_17 
REMARK   12  A    between atoms: CD_17  and  NE_18 
REMARK       I    between atoms: NE_18  and  CZ_19 
REMARK       I    between atoms: CZ_19  and  NH1_20 
REMARK   13  A    between atoms: N_22  and  CA_23 
REMARK   14  A    between atoms: CA_23  and  C_24 
REMARK   15  A    between atoms: CA_23  and  CB_26 
REMARK       I    between atoms: C_24  and  N_30 
REMARK   16  A    between atoms: CB_26  and  CG_27 
REMARK   17  A    between atoms: CG_27  and  SD_28 
REMARK   18  A    between atoms: SD_28  and  CE_29 
REMARK   19  A    between atoms: N_30  and  CA_31 
REMARK   20  A    between atoms: CA_31  and  C_32 
REMARK   21  A    between atoms: CA_31  and  CB_34 
ROOT
ATOM      1  CA  ARG d   1     -16.587  -7.385  -5.672  0.00  0.00     0.089 C 
ATOM      2  H14 ARG d   1     -15.582  -7.335  -5.228  0.00  0.00     0.087 H 
ENDROOT
BRANCH   1   3
ATOM      3  N   ARG d   1     -17.484  -6.562  -4.862  0.00  0.00    -0.346 N 
ATOM      4  C   VAL d   1     -17.098  -5.987  -3.709  0.00  0.00     0.241 C 
ATOM      5  O   VAL d   1     -16.053  -6.297  -3.114  0.00  0.00    -0.271 OA
ATOM      6  H13 ARG d   1     -18.422  -6.421  -5.178  0.00  0.00     0.163 HD
BRANCH   4   7
ATOM      7  CA  VAL d   1     -18.062  -4.962  -3.070  0.00  0.00     0.092 C 
ATOM      8  H5  VAL d   1     -19.096  -5.310  -3.213  0.00  0.00     0.088 H 
BRANCH   7   9
ATOM      9  N   VAL d   1     -17.800  -4.865  -1.637  0.00  0.00    -0.348 N 
ATOM     10  C   ACE d   1     -17.772  -5.896  -0.780  0.00  0.00     0.214 C 
ATOM     11  O   ACE d   1     -18.025  -7.094  -1.085  0.00  0.00    -0.274 OA
ATOM     12  H4  VAL d   1     -17.627  -3.954  -1.263  0.00  0.00     0.163 HD
BRANCH  10  13
ATOM     13  CH3 ACE d   1     -17.393  -5.500   0.661  0.00  0.00    -0.003 C 
ATOM     14  H1  ACE d   1     -17.214  -4.416   0.708  0.00  0.00     0.040 H 
ATOM     15  H2  ACE d   1     -16.480  -6.035   0.960  0.00  0.00     0.040 H 
ATOM     16  H3  ACE d   1     -18.214  -5.766   1.343  0.00  0.00     0.040 H 
ENDBRANCH  10  13
ENDBRANCH   7   9
BRANCH   7  17
ATOM     17  CB  VAL d   1     -17.905  -3.594  -3.768  0.00  0.00    -0.033 C 
ATOM     18  H6  VAL d   1     -16.850  -3.286  -3.715  0.00  0.00     0.042 H 
BRANCH  17  19
ATOM     19  CG1 VAL d   1     -18.334  -3.704  -5.199  0.00  0.00    -0.071 C 
ATOM     20  H7  VAL d   1     -18.220  -2.727  -5.692  0.00  0.00     0.028 H 
ATOM     21  H8  VAL d   1     -19.388  -4.016  -5.243  0.00  0.00     0.028 H 
ATOM     22  H9  VAL d   1     -17.709  -4.449  -5.713  0.00  0.00     0.028 H 
ENDBRANCH  17  19
BRANCH  17  23
ATOM     23  CG2 VAL d   1     -18.774  -2.530  -3.136  0.00  0.00    -0.071 C 
ATOM     24  H10 VAL d   1     -18.497  -2.411  -2.078  0.00  0.00     0.028 H 
ATOM     25  H11 VAL d   1     -19.830  -2.829  -3.207  0.00  0.00     0.028 H 
ATOM     26  H12 VAL d   1     -18.627  -1.576  -3.663  0.00  0.00     0.028 H 
ENDBRANCH  17  23
ENDBRANCH   7  17
ENDBRANCH   4   7
ENDBRANCH   1   3
BRANCH   1  27
ATOM     27  C   ARG d   1     -16.507  -6.837  -7.065  0.00  0.00     0.241 C 
ATOM     28  O   ARG d   1     -17.513  -6.404  -7.609  0.00  0.00    -0.271 OA
ATOM     29  N   MET d   1     -15.290  -6.803  -7.624  0.00  0.00    -0.346 N 
ATOM     30  H26 MET d   1     -14.525  -7.227  -7.138  0.00  0.00     0.163 HD
BRANCH  29  31
ATOM     31  CA  MET d   1     -15.034  -6.162  -8.934  0.00  0.00     0.090 C 
ATOM     32  H27 MET d   1     -15.864  -5.470  -9.140  0.00  0.00     0.087 H 
BRANCH  31  33
ATOM     33  C   MET d   1     -15.036  -7.248 -10.000  0.00  0.00     0.241 C 
ATOM     34  O   MET d   1     -14.419  -8.332  -9.814  0.00  0.00    -0.271 OA
ATOM     35  N   5XU d   1     -15.813  -6.955 -11.061  0.00  0.00    -0.345 N 
ATOM     36  H35 5XU d   1     -16.288  -6.075 -11.063  0.00  0.00     0.163 HD
BRANCH  35  37
ATOM     37  CA  5XU d   1     -16.005  -7.822 -12.190  0.00  0.00     0.093 C 
ATOM     38  H36 5XU d   1     -15.556  -8.809 -12.005  0.00  0.00     0.089 H 
BRANCH  37  39
ATOM     39  C   5XU d   1     -15.259  -7.103 -13.306  0.00  0.00     0.196 C 
ATOM     40  O   5XU d   1     -15.628  -6.013 -13.796  0.00  0.00    -0.646 OA
ATOM     41  OXT 5XU d   1     -14.211  -7.539 -13.832  0.00  0.00    -0.646 OA
ENDBRANCH  37  39
BRANCH  37  42
ATOM     42  CB  5XU d   1     -17.505  -8.006 -12.485  0.00  0.00    -0.048 C 
ATOM     43  H37 5XU d   1     -17.629  -8.672 -13.351  0.00  0.00     0.030 H 
ATOM     44  H38 5XU d   1     -17.958  -7.028 -12.706  0.00  0.00     0.030 H 
ATOM     45  H39 5XU d   1     -18.000  -8.449 -11.608  0.00  0.00     0.030 H 
ENDBRANCH  37  42
ENDBRANCH  35  37
ENDBRANCH  31  33
BRANCH  31  46
ATOM     46  CB  MET d   1     -13.739  -5.347  -8.981  0.00  0.00    -0.030 C 
ATOM     47  H28 MET d   1     -13.742  -4.742  -9.899  0.00  0.00     0.037 H 
ATOM     48  H29 MET d   1     -12.889  -6.045  -9.005  0.00  0.00     0.037 H 
BRANCH  46  49
ATOM     49  CG  MET d   1     -13.561  -4.414  -7.790  0.00  0.00    -0.021 C 
ATOM     50  H30 MET d   1     -13.492  -5.031  -6.882  0.00  0.00     0.049 H 
ATOM     51  H31 MET d   1     -14.449  -3.768  -7.728  0.00  0.00     0.049 H 
BRANCH  49  52
ATOM     52  SD  MET d   1     -12.086  -3.340  -7.857  0.00  0.00    -0.173 SA
BRANCH  52  53
ATOM     53  CE  MET d   1     -10.873  -4.561  -8.481  0.00  0.00    -0.035 C 
ATOM     54  H32 MET d   1      -9.890  -4.079  -8.589  0.00  0.00     0.041 H 
ATOM     55  H33 MET d   1     -11.204  -4.941  -9.459  0.00  0.00     0.041 H 
ATOM     56  H34 MET d   1     -10.796  -5.397  -7.770  0.00  0.00     0.041 H 
ENDBRANCH  52  53
ENDBRANCH  49  52
ENDBRANCH  46  49
ENDBRANCH  31  46
ENDBRANCH  29  31
ENDBRANCH   1  27
BRANCH   1  57
ATOM     57  CB  ARG d   1     -17.015  -8.807  -5.671  0.00  0.00    -0.036 C 
ATOM     58  H15 ARG d   1     -16.434  -9.359  -6.424  0.00  0.00     0.036 H 
ATOM     59  H16 ARG d   1     -18.085  -8.862  -5.920  0.00  0.00     0.036 H 
BRANCH  57  60
ATOM     60  CG  ARG d   1     -16.791  -9.429  -4.323  0.00  0.00    -0.048 C 
ATOM     61  H17 ARG d   1     -17.408  -8.918  -3.569  0.00  0.00     0.035 H 
ATOM     62  H18 ARG d   1     -15.730  -9.347  -4.046  0.00  0.00     0.035 H 
BRANCH  60  63
ATOM     63  CD  ARG d   1     -17.183 -10.869  -4.408  0.00  0.00     0.009 C 
ATOM     64  H19 ARG d   1     -16.562 -11.371  -5.165  0.00  0.00     0.064 H 
ATOM     65  H20 ARG d   1     -18.242 -10.941  -4.697  0.00  0.00     0.064 H 
BRANCH  63  66
ATOM     66  NE  ARG d   1     -16.992 -11.515  -3.128  0.00  0.00    -0.227 N 
ATOM     67  CZ  ARG d   1     -15.877 -12.131  -2.768  0.00  0.00     0.665 C 
ATOM     68  NH1 ARG d   1     -14.820 -12.194  -3.587  0.00  0.00    -0.235 N 
ATOM     69  NH2 ARG d   1     -15.831 -12.675  -1.567  0.00  0.00    -0.235 N 
ATOM     70  H22 ARG d   1     -13.963 -12.679  -3.285  0.00  0.00     0.174 HD
ATOM     71  H23 ARG d   1     -14.864 -11.758  -4.519  0.00  0.00     0.174 HD
ATOM     72  H24 ARG d   1     -16.650 -12.620  -0.945  0.00  0.00     0.174 HD
ATOM     73  H25 ARG d   1     -14.976 -13.154  -1.251  0.00  0.00     0.174 HD
ATOM     74  H21 ARG d   1     -17.772 -11.494  -2.455  0.00  0.00     0.177 HD
ENDBRANCH  63  66
ENDBRANCH  60  63
ENDBRANCH  57  60
ENDBRANCH   1  57
TORSDOF 21
