REMARK  5 active torsions:
REMARK  status: ('A' for Active; 'I' for Inactive)
REMARK    1  A    between atoms: C5_3  and  C6_4 
REMARK    2  A    between atoms: C6_4  and  N2_13 
REMARK    3  A    between atoms: C7_5  and  C8_6 
REMARK    4  A    between atoms: N2_13  and  C7_5 
REMARK    5  A    between atoms: C2_11  and  C1_10 
ROOT
ATOM      1  N2  5V1 d   1     -28.876 -19.266 -21.410  0.00  0.00    -0.066 N 
ATOM      2  H9  5V1 d   1     -28.979 -18.515 -20.746  0.00  0.00     0.277 HD
ATOM      3  H10 5V1 d   1     -29.325 -20.094 -21.052  0.00  0.00     0.277 HD
ENDROOT
BRANCH   1   4
ATOM      4  C6  5V1 d   1     -27.456 -19.543 -21.588  0.00  0.00     0.121 C 
ATOM      5  H2  5V1 d   1     -26.978 -18.652 -22.021  0.00  0.00     0.085 H 
ATOM      6  H3  5V1 d   1     -27.015 -19.753 -20.602  0.00  0.00     0.085 H 
BRANCH   4   7
ATOM      7  C5  5V1 d   1     -27.185 -20.720 -22.495  0.00  0.00     0.060 A 
ATOM      8  N1  5V1 d   1     -28.113 -21.700 -22.501  0.00  0.00    -0.264 NA
ATOM      9  C4  5V1 d   1     -27.925 -22.760 -23.311  0.00  0.00     0.004 A 
ATOM     10  C3  5V1 d   1     -26.823 -22.887 -24.130  0.00  0.00    -0.050 A 
ATOM     11  H1  5V1 d   1     -28.671 -23.546 -23.319  0.00  0.00     0.114 H 
ATOM     12  C2  5V1 d   1     -25.869 -21.878 -24.129  0.00  0.00     0.044 A 
ATOM     13  H8  5V1 d   1     -26.704 -23.759 -24.763  0.00  0.00     0.087 H 
ATOM     14  C14 5V1 d   1     -26.054 -20.780 -23.296  0.00  0.00    -0.041 A 
ATOM     15  H14 5V1 d   1     -25.323 -19.980 -23.273  0.00  0.00     0.088 H 
BRANCH  12  16
ATOM     16  C1  5V1 d   1     -24.653 -21.972 -24.981  0.00  0.00     0.209 C 
ATOM     17  O1  5V1 d   1     -24.863 -22.435 -26.189  0.00  0.00    -0.644 OA
ATOM     18  O2  5V1 d   1     -23.553 -21.646 -24.564  0.00  0.00    -0.644 OA
ENDBRANCH  12  16
ENDBRANCH   4   7
ENDBRANCH   1   4
BRANCH   1  19
ATOM     19  C7  5V1 d   1     -29.532 -18.878 -22.669  0.00  0.00     0.105 C 
ATOM     20  H4  5V1 d   1     -29.144 -19.509 -23.482  0.00  0.00     0.083 H 
ATOM     21  H5  5V1 d   1     -30.616 -19.035 -22.569  0.00  0.00     0.083 H 
BRANCH  19  22
ATOM     22  C8  5V1 d   1     -29.278 -17.435 -23.010  0.00  0.00    -0.033 A 
ATOM     23  C13 5V1 d   1     -30.057 -16.419 -22.470  0.00  0.00    -0.075 A 
ATOM     24  C12 5V1 d   1     -29.807 -15.099 -22.785  0.00  0.00    -0.082 A 
ATOM     25  H7  5V1 d   1     -30.869 -16.666 -21.795  0.00  0.00     0.084 H 
ATOM     26  C11 5V1 d   1     -28.784 -14.776 -23.648  0.00  0.00    -0.083 A 
ATOM     27  H13 5V1 d   1     -30.417 -14.315 -22.352  0.00  0.00     0.083 H 
ATOM     28  C10 5V1 d   1     -28.011 -15.773 -24.197  0.00  0.00    -0.082 A 
ATOM     29  H12 5V1 d   1     -28.588 -13.739 -23.894  0.00  0.00     0.083 H 
ATOM     30  C9  5V1 d   1     -28.250 -17.091 -23.875  0.00  0.00    -0.075 A 
ATOM     31  H6  5V1 d   1     -27.212 -15.521 -24.885  0.00  0.00     0.083 H 
ATOM     32  H11 5V1 d   1     -27.627 -17.868 -24.303  0.00  0.00     0.084 H 
ENDBRANCH  19  22
ENDBRANCH   1  19
TORSDOF 5
