REMARK WARNING: 32 MAX_TORS EXCEEDED!!!
REMARK  76 active torsions:
REMARK  status: ('A' for Active; 'I' for Inactive)
REMARK    1  A    between atoms: N_1  and  CA_2 
REMARK    2  A    between atoms: CA_2  and  C_3 
REMARK       I    between atoms: C_3  and  N_5 
REMARK    3  A    between atoms: CA_6  and  C_7 
REMARK       I    between atoms: C_7  and  N_12 
REMARK    4  A    between atoms: N_12  and  CA_13 
REMARK    5  A    between atoms: CA_13  and  C_14 
REMARK       I    between atoms: C_14  and  N_16 
REMARK    6  A    between atoms: N_16  and  CA_17 
REMARK    7  A    between atoms: CA_17  and  C_18 
REMARK    8  A    between atoms: CA_17  and  CB_20 
REMARK       I    between atoms: C_18  and  N_22 
REMARK    9  A    between atoms: CB_20  and  OG_21 
REMARK   10  A    between atoms: N_22  and  CA_23 
REMARK   11  A    between atoms: CA_23  and  C_24 
REMARK   12  A    between atoms: CA_23  and  CB_26 
REMARK       I    between atoms: C_24  and  N_33 
REMARK   13  A    between atoms: CB_26  and  CG_27 
REMARK   14  A    between atoms: CG_27  and  CD_28 
REMARK   15  A    between atoms: CD_28  and  NE_29 
REMARK       I    between atoms: NE_29  and  CZ_30 
REMARK       I    between atoms: CZ_30  and  NH1_31 
REMARK   16  A    between atoms: N_33  and  CA_34 
REMARK   17  A    between atoms: CA_34  and  C_35 
REMARK       I    between atoms: C_35  and  N_37 
REMARK   18  A    between atoms: N_37  and  CA_38 
REMARK   19  A    between atoms: CA_38  and  C_39 
REMARK   20  A    between atoms: CA_38  and  CB_41 
REMARK       I    between atoms: C_39  and  N_46 
REMARK   21  A    between atoms: CB_41  and  CG_42 
REMARK   22  A    between atoms: CG_42  and  CD_43 
REMARK   23  A    between atoms: CD_43  and  CE_44 
REMARK   24  A    between atoms: CE_44  and  NZ_45 
REMARK   25  A    between atoms: N_46  and  CA_47 
REMARK   26  A    between atoms: CA_47  and  C_48 
REMARK   27  A    between atoms: CA_47  and  CB_50 
REMARK       I    between atoms: C_48  and  N_52 
REMARK   28  A    between atoms: CB_50  and  OG_51 
REMARK   29  A    between atoms: N_52  and  CA_53 
REMARK   30  A    between atoms: CA_53  and  C_54 
REMARK   31  A    between atoms: CA_53  and  CB_56 
REMARK       I    between atoms: C_54  and  N_59 
REMARK   32  A    between atoms: CB_56  and  OG1_57 
REMARK   33  A    between atoms: CB_56  and  CG2_58 
REMARK   34  A    between atoms: N_59  and  CA_60 
REMARK   35  A    between atoms: CA_60  and  C_61 
REMARK   36  A    between atoms: CA_60  and  CB_63 
REMARK       I    between atoms: C_61  and  N_66 
REMARK   37  A    between atoms: CB_63  and  CG1_64 
REMARK   38  A    between atoms: CB_63  and  CG2_65 
REMARK   39  A    between atoms: N_66  and  CA_67 
REMARK   40  A    between atoms: CA_67  and  C_68 
REMARK   41  A    between atoms: CA_67  and  CB_70 
REMARK       I    between atoms: C_68  and  N_73 
REMARK   42  A    between atoms: CB_70  and  OG1_71 
REMARK   43  A    between atoms: CB_70  and  CG2_72 
REMARK   44  A    between atoms: N_73  and  CA_74 
REMARK   45  A    between atoms: CA_74  and  C_75 
REMARK       I    between atoms: C_75  and  N_77 
REMARK   46  A    between atoms: N_77  and  CA_78 
REMARK   47  A    between atoms: CA_78  and  C_79 
REMARK   48  A    between atoms: CA_78  and  CB_81 
REMARK       I    between atoms: C_79  and  N_82 
REMARK   49  A    between atoms: N_82  and  CA_83 
REMARK   50  A    between atoms: CA_83  and  C_84 
REMARK   51  A    between atoms: CA_83  and  CB_86 
REMARK       I    between atoms: C_84  and  N_90 
REMARK   52  A    between atoms: CB_86  and  CG_87 
REMARK   53  A    between atoms: CG_87  and  SD_88 
REMARK   54  A    between atoms: SD_88  and  CE_89 
REMARK   55  A    between atoms: N_90  and  CA_91 
REMARK   56  A    between atoms: CA_91  and  C_92 
REMARK   57  A    between atoms: CA_91  and  CB_94 
REMARK       I    between atoms: C_92  and  N_98 
REMARK   58  A    between atoms: CB_94  and  CG1_95 
REMARK   59  A    between atoms: CB_94  and  CG2_96 
REMARK   60  A    between atoms: CG1_95  and  CD1_97 
REMARK   61  A    between atoms: N_98  and  CA_99 
REMARK   62  A    between atoms: CA_99  and  C_100 
REMARK   63  A    between atoms: CA_99  and  CB_102 
REMARK       I    between atoms: C_100  and  N_104 
REMARK   64  A    between atoms: CB_102  and  OG_103 
REMARK   65  A    between atoms: N_104  and  CA_105 
REMARK   66  A    between atoms: CA_105  and  C_106 
REMARK       I    between atoms: C_106  and  N_108 
REMARK   67  A    between atoms: N_108  and  CA_109 
REMARK   68  A    between atoms: CA_109  and  C_110 
REMARK   69  A    between atoms: CA_109  and  CB_112 
REMARK       I    between atoms: C_110  and  N_122 
REMARK   70  A    between atoms: CB_112  and  CG_113 
REMARK   71  A    between atoms: N_122  and  CA_123 
REMARK   72  A    between atoms: CA_123  and  C_124 
REMARK   73  A    between atoms: CA_123  and  CB_126 
REMARK   74  A    between atoms: CB_126  and  CG_127 
REMARK   75  A    between atoms: CG_127  and  CD1_128 
REMARK   76  A    between atoms: CG_127  and  CD2_129 
ROOT
ATOM      1  CA  VAL d   1      15.699 -10.934  13.494  0.00  0.00     0.092 C 
ATOM      2  H63 VAL d   1      15.579 -11.512  14.422  0.00  0.00     0.088 H 
ENDROOT
BRANCH   1   3
ATOM      3  N   VAL d   1      17.127 -10.630  13.358  0.00  0.00    -0.346 N 
ATOM      4  C   THR d   1      18.061 -11.511  13.703  0.00  0.00     0.243 C 
ATOM      5  O   THR d   1      17.798 -12.618  14.180  0.00  0.00    -0.271 OA
ATOM      6  H62 VAL d   1      17.405  -9.740  12.998  0.00  0.00     0.163 HD
BRANCH   4   7
ATOM      7  CA  THR d   1      19.508 -11.080  13.478  0.00  0.00     0.113 C 
ATOM      8  H56 THR d   1      20.056 -11.946  13.077  0.00  0.00     0.091 H 
BRANCH   7   9
ATOM      9  N   THR d   1      19.595 -10.013  12.484  0.00  0.00    -0.344 N 
ATOM     10  C   SER d   1      19.433 -10.277  11.189  0.00  0.00     0.243 C 
ATOM     11  O   SER d   1      19.292 -11.420  10.762  0.00  0.00    -0.271 OA
ATOM     12  H55 THR d   1      19.778  -9.075  12.779  0.00  0.00     0.163 HD
BRANCH  10  13
ATOM     13  CA  SER d   1      19.418  -9.093  10.224  0.00  0.00     0.109 C 
ATOM     14  H51 SER d   1      19.739  -8.189  10.761  0.00  0.00     0.090 H 
BRANCH  13  15
ATOM     15  N   SER d   1      20.312  -9.316   9.098  0.00  0.00    -0.344 N 
ATOM     16  C   LYS d   1      21.635  -9.291   9.220  0.00  0.00     0.241 C 
ATOM     17  O   LYS d   1      22.201  -9.035  10.279  0.00  0.00    -0.271 OA
ATOM     18  H50 SER d   1      19.916  -9.495   8.197  0.00  0.00     0.163 HD
BRANCH  16  19
ATOM     19  CA  LYS d   1      22.433  -9.617   7.956  0.00  0.00     0.089 C 
ATOM     20  H38 LYS d   1      21.713  -9.694   7.128  0.00  0.00     0.087 H 
BRANCH  19  21
ATOM     21  N   LYS d   1      23.403  -8.592   7.593  0.00  0.00    -0.346 N 
ATOM     22  C   GLY d   1      23.038  -7.531   6.884  0.00  0.00     0.236 C 
ATOM     23  O   GLY d   1      21.862  -7.279   6.614  0.00  0.00    -0.272 OA
ATOM     24  H37 LYS d   1      24.355  -8.689   7.882  0.00  0.00     0.163 HD
BRANCH  22  25
ATOM     25  CA  GLY d   1      24.147  -6.614   6.415  0.00  0.00     0.069 C 
ATOM     26  H35 GLY d   1      24.535  -6.042   7.271  0.00  0.00     0.078 H 
ATOM     27  H36 GLY d   1      24.958  -7.215   5.978  0.00  0.00     0.078 H 
BRANCH  25  28
ATOM     28  N   GLY d   1      23.633  -5.696   5.413  0.00  0.00    -0.351 N 
ATOM     29  C   ARG d   1      24.400  -5.243   4.429  0.00  0.00     0.240 C 
ATOM     30  O   ARG d   1      25.583  -5.562   4.306  0.00  0.00    -0.271 OA
ATOM     31  H34 GLY d   1      22.680  -5.399   5.466  0.00  0.00     0.163 HD
BRANCH  29  32
ATOM     32  CA  ARG d   1      23.738  -4.278   3.448  0.00  0.00     0.089 C 
ATOM     33  H22 ARG d   1      22.819  -3.903   3.923  0.00  0.00     0.087 H 
BRANCH  32  34
ATOM     34  N   ARG d   1      24.582  -3.121   3.149  0.00  0.00    -0.346 N 
ATOM     35  C   SER d   1      24.532  -2.035   3.917  0.00  0.00     0.243 C 
ATOM     36  O   SER d   1      23.767  -1.932   4.879  0.00  0.00    -0.271 OA
ATOM     37  H21 ARG d   1      25.200  -3.146   2.363  0.00  0.00     0.163 HD
BRANCH  35  38
ATOM     38  CA  SER d   1      25.489  -0.905   3.551  0.00  0.00     0.109 C 
ATOM     39  H17 SER d   1      25.775  -0.374   4.471  0.00  0.00     0.090 H 
BRANCH  38  40
ATOM     40  N   SER d   1      26.690  -1.466   2.946  0.00  0.00    -0.344 N 
ATOM     41  C   GLY d   1      27.554  -2.146   3.698  0.00  0.00     0.236 C 
ATOM     42  O   GLY d   1      27.360  -2.370   4.894  0.00  0.00    -0.272 OA
ATOM     43  H16 SER d   1      26.865  -1.341   1.969  0.00  0.00     0.163 HD
BRANCH  41  44
ATOM     44  CA  GLY d   1      28.800  -2.663   3.015  0.00  0.00     0.069 C 
ATOM     45  H14 GLY d   1      28.583  -3.654   2.589  0.00  0.00     0.078 H 
ATOM     46  H15 GLY d   1      29.073  -1.968   2.207  0.00  0.00     0.078 H 
BRANCH  44  47
ATOM     47  N   GLY d   1      29.925  -2.784   3.926  0.00  0.00    -0.351 N 
ATOM     48  C   PRO d   1      30.464  -1.712   4.500  0.00  0.00     0.241 C 
ATOM     49  O   PRO d   1      30.029  -0.567   4.345  0.00  0.00    -0.271 OA
ATOM     50  H13 GLY d   1      30.301  -3.689   4.125  0.00  0.00     0.163 HD
BRANCH  48  51
ATOM     51  CA  PRO d   1      31.685  -1.940   5.381  0.00  0.00     0.091 C 
ATOM     52  N   PRO d   1      32.550  -0.757   5.379  0.00  0.00    -0.337 N 
ATOM     53  C   GLY d   1      33.224  -0.458   4.261  0.00  0.00     0.246 C 
ATOM     54  CD  PRO d   1      32.571  -0.066   6.681  0.00  0.00    -0.001 C 
ATOM     55  O   GLY d   1      33.170  -1.151   3.243  0.00  0.00    -0.272 OA
ATOM     56  CG  PRO d   1      31.441  -0.710   7.438  0.00  0.00    -0.048 C 
ATOM     57  H11 PRO d   1      32.397   1.013   6.556  0.00  0.00     0.064 H 
ATOM     58  H12 PRO d   1      33.530  -0.225   7.195  0.00  0.00     0.064 H 
ATOM     59  CB  PRO d   1      31.279  -2.084   6.851  0.00  0.00    -0.036 C 
ATOM     60  H9  PRO d   1      31.688  -0.778   8.508  0.00  0.00     0.035 H 
ATOM     61  H10 PRO d   1      30.516  -0.129   7.311  0.00  0.00     0.035 H 
ATOM     62  H7  PRO d   1      31.935  -2.803   7.364  0.00  0.00     0.036 H 
ATOM     63  H8  PRO d   1      30.234  -2.418   6.932  0.00  0.00     0.036 H 
ATOM     64  H6  PRO d   1      32.230  -2.830   5.033  0.00  0.00     0.087 H 
BRANCH  53  65
ATOM     65  CA  GLY d   1      34.088   0.785   4.291  0.00  0.00     0.152 C 
ATOM     66  H4  GLY d   1      33.440   1.674   4.295  0.00  0.00     0.090 H 
ATOM     67  H5  GLY d   1      34.702   0.775   5.204  0.00  0.00     0.090 H 
BRANCH  65  68
ATOM     68  N   GLY d   1      34.961   0.839   3.132  0.00  0.00    -0.071 N 
ATOM     69  H1  GLY d   1      35.525   1.673   3.175  0.00  0.00     0.274 HD
ATOM     70  H2  GLY d   1      34.404   0.853   2.292  0.00  0.00     0.274 HD
ATOM     71  H3  GLY d   1      35.560   0.029   3.125  0.00  0.00     0.274 HD
ENDBRANCH  65  68
ENDBRANCH  53  65
ENDBRANCH  48  51
ENDBRANCH  44  47
ENDBRANCH  41  44
ENDBRANCH  38  40
BRANCH  38  72
ATOM     72  CB  SER d   1      24.811   0.092   2.611  0.00  0.00     0.044 C 
ATOM     73  H18 SER d   1      25.574   0.762   2.188  0.00  0.00     0.077 H 
ATOM     74  H19 SER d   1      24.080   0.683   3.183  0.00  0.00     0.077 H 
BRANCH  72  75
ATOM     75  OG  SER d   1      24.140  -0.571   1.550  0.00  0.00    -0.398 OA
ATOM     76  H20 SER d   1      23.730   0.073   0.985  0.00  0.00     0.209 HD
ENDBRANCH  72  75
ENDBRANCH  38  72
ENDBRANCH  35  38
ENDBRANCH  32  34
BRANCH  32  77
ATOM     77  CB  ARG d   1      23.338  -5.001   2.162  0.00  0.00    -0.036 C 
ATOM     78  H23 ARG d   1      22.877  -5.964   2.426  0.00  0.00     0.036 H 
ATOM     79  H24 ARG d   1      24.241  -5.179   1.560  0.00  0.00     0.036 H 
BRANCH  77  80
ATOM     80  CG  ARG d   1      22.354  -4.200   1.338  0.00  0.00    -0.048 C 
ATOM     81  H25 ARG d   1      22.828  -3.252   1.046  0.00  0.00     0.035 H 
ATOM     82  H26 ARG d   1      21.466  -3.992   1.953  0.00  0.00     0.035 H 
BRANCH  80  83
ATOM     83  CD  ARG d   1      21.916  -4.933   0.082  0.00  0.00     0.009 C 
ATOM     84  H27 ARG d   1      21.146  -4.335  -0.428  0.00  0.00     0.064 H 
ATOM     85  H28 ARG d   1      21.493  -5.907   0.369  0.00  0.00     0.064 H 
BRANCH  83  86
ATOM     86  NE  ARG d   1      23.027  -5.155  -0.839  0.00  0.00    -0.227 N 
ATOM     87  CZ  ARG d   1      23.637  -4.195  -1.534  0.00  0.00     0.665 C 
ATOM     88  NH1 ARG d   1      23.263  -2.926  -1.407  0.00  0.00    -0.235 N 
ATOM     89  NH2 ARG d   1      24.634  -4.505  -2.352  0.00  0.00    -0.235 N 
ATOM     90  H30 ARG d   1      23.741  -2.192  -1.949  0.00  0.00     0.174 HD
ATOM     91  H31 ARG d   1      22.495  -2.677  -0.767  0.00  0.00     0.174 HD
ATOM     92  H32 ARG d   1      24.929  -5.486  -2.455  0.00  0.00     0.174 HD
ATOM     93  H33 ARG d   1      25.113  -3.764  -2.884  0.00  0.00     0.174 HD
ATOM     94  H29 ARG d   1      23.363  -6.121  -0.960  0.00  0.00     0.177 HD
ENDBRANCH  83  86
ENDBRANCH  80  83
ENDBRANCH  77  80
ENDBRANCH  32  77
ENDBRANCH  29  32
ENDBRANCH  25  28
ENDBRANCH  22  25
ENDBRANCH  19  21
BRANCH  19  95
ATOM     95  CB  LYS d   1      23.133 -10.968   8.100  0.00  0.00    -0.038 C 
ATOM     96  H39 LYS d   1      23.767 -10.936   8.998  0.00  0.00     0.036 H 
ATOM     97  H40 LYS d   1      23.763 -11.128   7.212  0.00  0.00     0.036 H 
BRANCH  95  98
ATOM     98  CG  LYS d   1      22.180 -12.143   8.229  0.00  0.00    -0.061 C 
ATOM     99  H41 LYS d   1      21.360 -12.022   7.505  0.00  0.00     0.033 H 
ATOM    100  H42 LYS d   1      21.769 -12.162   9.249  0.00  0.00     0.033 H 
BRANCH  98 101
ATOM    101  CD  LYS d   1      22.892 -13.456   7.957  0.00  0.00    -0.043 C 
ATOM    102  H43 LYS d   1      23.967 -13.334   8.156  0.00  0.00     0.035 H 
ATOM    103  H44 LYS d   1      22.744 -13.738   6.904  0.00  0.00     0.035 H 
BRANCH 101 104
ATOM    104  CE  LYS d   1      22.339 -14.547   8.849  0.00  0.00     0.080 C 
ATOM    105  H45 LYS d   1      22.978 -15.439   8.769  0.00  0.00     0.075 H 
ATOM    106  H46 LYS d   1      21.318 -14.797   8.524  0.00  0.00     0.075 H 
BRANCH 104 107
ATOM    107  NZ  LYS d   1      22.305 -14.091  10.274  0.00  0.00    -0.079 N 
ATOM    108  H47 LYS d   1      21.935 -14.828  10.854  0.00  0.00     0.274 HD
ATOM    109  H48 LYS d   1      21.718 -13.275  10.352  0.00  0.00     0.274 HD
ATOM    110  H49 LYS d   1      23.239 -13.863  10.576  0.00  0.00     0.274 HD
ENDBRANCH 104 107
ENDBRANCH 101 104
ENDBRANCH  98 101
ENDBRANCH  95  98
ENDBRANCH  19  95
ENDBRANCH  16  19
ENDBRANCH  13  15
BRANCH  13 111
ATOM    111  CB  SER d   1      17.989  -8.896   9.702  0.00  0.00     0.044 C 
ATOM    112  H52 SER d   1      17.761  -9.684   8.969  0.00  0.00     0.077 H 
ATOM    113  H53 SER d   1      17.915  -7.912   9.217  0.00  0.00     0.077 H 
BRANCH 111 114
ATOM    114  OG  SER d   1      17.053  -8.963  10.761  0.00  0.00    -0.398 OA
ATOM    115  H54 SER d   1      17.244  -8.282  11.395  0.00  0.00     0.209 HD
ENDBRANCH 111 114
ENDBRANCH  13 111
ENDBRANCH  10  13
ENDBRANCH   7   9
BRANCH   7 116
ATOM    116  CB  THR d   1      20.178 -10.688  14.829  0.00  0.00     0.060 C 
ATOM    117  H57 THR d   1      19.919 -11.439  15.590  0.00  0.00     0.086 H 
BRANCH 116 118
ATOM    118  OG1 THR d   1      19.709  -9.405  15.253  0.00  0.00    -0.393 OA
ATOM    119  H58 THR d   1      19.928  -8.756  14.595  0.00  0.00     0.210 HD
ENDBRANCH 116 118
BRANCH 116 120
ATOM    120  CG2 THR d   1      21.684 -10.636  14.670  0.00  0.00    -0.050 C 
ATOM    121  H59 THR d   1      22.145 -10.358  15.630  0.00  0.00     0.031 H 
ATOM    122  H60 THR d   1      21.947  -9.888  13.907  0.00  0.00     0.031 H 
ATOM    123  H61 THR d   1      22.054 -11.624  14.358  0.00  0.00     0.031 H 
ENDBRANCH 116 120
ENDBRANCH   7 116
ENDBRANCH   4   7
ENDBRANCH   1   3
BRANCH   1 124
ATOM    124  C   VAL d   1      15.161 -11.795  12.350  0.00  0.00     0.241 C 
ATOM    125  O   VAL d   1      14.460 -12.782  12.587  0.00  0.00    -0.271 OA
ATOM    126  N   THR d   1      15.496 -11.436  11.113  0.00  0.00    -0.344 N 
ATOM    127  H71 THR d   1      16.144 -10.687  10.976  0.00  0.00     0.163 HD
BRANCH 126 128
ATOM    128  CA  THR d   1      14.931 -12.121   9.951  0.00  0.00     0.113 C 
ATOM    129  H72 THR d   1      14.095 -12.738  10.312  0.00  0.00     0.091 H 
BRANCH 128 130
ATOM    130  C   THR d   1      15.914 -13.039   9.224  0.00  0.00     0.243 C 
ATOM    131  O   THR d   1      15.501 -13.942   8.492  0.00  0.00    -0.271 OA
ATOM    132  N   GLY d   1      17.209 -12.798   9.403  0.00  0.00    -0.350 N 
ATOM    133  H78 GLY d   1      17.491 -12.091  10.052  0.00  0.00     0.163 HD
BRANCH 132 134
ATOM    134  CA  GLY d   1      18.224 -13.541   8.675  0.00  0.00     0.069 C 
ATOM    135  H79 GLY d   1      17.913 -14.594   8.606  0.00  0.00     0.078 H 
ATOM    136  H80 GLY d   1      19.175 -13.475   9.223  0.00  0.00     0.078 H 
BRANCH 134 137
ATOM    137  C   GLY d   1      18.427 -12.994   7.269  0.00  0.00     0.236 C 
ATOM    138  O   GLY d   1      19.262 -13.492   6.512  0.00  0.00    -0.272 OA
ATOM    139  N   ARG d   1      17.663 -11.964   6.916  0.00  0.00    -0.347 N 
ATOM    140  H81 ARG d   1      17.017 -11.585   7.578  0.00  0.00     0.163 HD
BRANCH 139 141
ATOM    141  CA  ARG d   1      17.747 -11.374   5.581  0.00  0.00     0.086 C 
ATOM    142  H82 ARG d   1      17.994 -12.175   4.869  0.00  0.00     0.086 H 
BRANCH 141 143
ATOM    143  C   ARG d   1      18.844 -10.314   5.507  0.00  0.00     0.240 C 
ATOM    144  O   ARG d   1      19.207  -9.706   6.516  0.00  0.00    -0.271 OA
ATOM    145  N   MET d   1      19.369 -10.104   4.304  0.00  0.00    -0.346 N 
ATOM    146  H86 MET d   1      19.070 -10.677   3.541  0.00  0.00     0.163 HD
BRANCH 145 147
ATOM    147  CA  MET d   1      20.367  -9.067   4.057  0.00  0.00     0.090 C 
ATOM    148  H87 MET d   1      20.988  -8.929   4.955  0.00  0.00     0.087 H 
BRANCH 147 149
ATOM    149  C   MET d   1      19.635  -7.773   3.733  0.00  0.00     0.241 C 
ATOM    150  O   MET d   1      18.995  -7.659   2.688  0.00  0.00    -0.271 OA
ATOM    151  N   ILE d   1      19.720  -6.798   4.632  0.00  0.00    -0.346 N 
ATOM    152  H95 ILE d   1      20.307  -6.921   5.432  0.00  0.00     0.163 HD
BRANCH 151 153
ATOM    153  CA  ILE d   1      18.977  -5.552   4.479  0.00  0.00     0.092 C 
ATOM    154  H96 ILE d   1      18.562  -5.517   3.461  0.00  0.00     0.088 H 
BRANCH 153 155
ATOM    155  C   ILE d   1      19.889  -4.340   4.681  0.00  0.00     0.241 C 
ATOM    156  O   ILE d   1      20.982  -4.465   5.233  0.00  0.00    -0.271 OA
ATOM    157  N   SER d   1      19.438  -3.168   4.241  0.00  0.00    -0.344 N 
ATOM    158 6H10 SER d   1      18.577  -3.133   3.734  0.00  0.00     0.163 HD
BRANCH 157 159
ATOM    159  CA  SER d   1      20.177  -1.929   4.484  0.00  0.00     0.109 C 
ATOM    160 7H10 SER d   1      21.159  -2.175   4.915  0.00  0.00     0.090 H 
BRANCH 159 161
ATOM    161  C   SER d   1      19.392  -1.083   5.485  0.00  0.00     0.242 C 
ATOM    162  O   SER d   1      18.429  -1.570   6.090  0.00  0.00    -0.271 OA
ATOM    163  N   GLY d   1      19.790   0.172   5.671  0.00  0.00    -0.350 N 
ATOM    164 1H11 GLY d   1      20.591   0.515   5.181  0.00  0.00     0.163 HD
BRANCH 163 165
ATOM    165  CA  GLY d   1      19.071   1.052   6.582  0.00  0.00     0.069 C 
ATOM    166 2H11 GLY d   1      18.003   0.792   6.554  0.00  0.00     0.078 H 
ATOM    167 3H11 GLY d   1      19.204   2.091   6.247  0.00  0.00     0.078 H 
BRANCH 165 168
ATOM    168  C   GLY d   1      19.562   0.936   8.011  0.00  0.00     0.236 C 
ATOM    169  O   GLY d   1      18.845   1.254   8.968  0.00  0.00    -0.272 OA
ATOM    170  N   TRP d   1      20.796   0.476   8.166  0.00  0.00    -0.346 N 
ATOM    171 4H11 TRP d   1      21.331   0.211   7.364  0.00  0.00     0.163 HD
BRANCH 170 172
ATOM    172  CA  TRP d   1      21.380   0.353   9.496  0.00  0.00     0.093 C 
ATOM    173 5H11 TRP d   1      20.615  -0.072  10.162  0.00  0.00     0.088 H 
BRANCH 172 174
ATOM    174  C   TRP d   1      21.798   1.697  10.062  0.00  0.00     0.241 C 
ATOM    175  O   TRP d   1      22.354   2.540   9.351  0.00  0.00    -0.271 OA
ATOM    176  N   LEU d   1      21.525   1.890  11.349  0.00  0.00    -0.345 N 
ATOM    177 4H12 LEU d   1      20.948   1.227  11.826  0.00  0.00     0.163 HD
BRANCH 176 178
ATOM    178  CA  LEU d   1      22.038   3.035  12.086  0.00  0.00     0.096 C 
ATOM    179 5H12 LEU d   1      22.213   3.876  11.398  0.00  0.00     0.089 H 
BRANCH 178 180
ATOM    180  C   LEU d   1      23.349   2.616  12.733  0.00  0.00     0.196 C 
ATOM    181  O   LEU d   1      24.294   3.403  12.893  0.00  0.00    -0.646 OA
ATOM    182  OXT LEU d   1      23.489   1.437  13.084  0.00  0.00    -0.646 OA
ENDBRANCH 178 180
BRANCH 178 183
ATOM    183  CB  LEU d   1      21.029   3.456  13.155  0.00  0.00    -0.034 C 
ATOM    184 6H12 LEU d   1      21.446   4.306  13.715  0.00  0.00     0.037 H 
ATOM    185 7H12 LEU d   1      20.869   2.609  13.839  0.00  0.00     0.037 H 
BRANCH 183 186
ATOM    186  CG  LEU d   1      19.683   3.871  12.573  0.00  0.00    -0.059 C 
ATOM    187 8H12 LEU d   1      19.265   3.024  12.009  0.00  0.00     0.038 H 
BRANCH 186 188
ATOM    188  CD1 LEU d   1      18.708   4.241  13.675  0.00  0.00    -0.073 C 
ATOM    189 9H12 LEU d   1      17.746   4.536  13.230  0.00  0.00     0.028 H 
ATOM    190 0H13 LEU d   1      19.115   5.080  14.258  0.00  0.00     0.028 H 
ATOM    191 1H13 LEU d   1      18.556   3.375  14.336  0.00  0.00     0.028 H 
ENDBRANCH 186 188
BRANCH 186 192
ATOM    192  CD2 LEU d   1      19.886   5.027  11.629  0.00  0.00    -0.073 C 
ATOM    193 2H13 LEU d   1      20.595   4.736  10.840  0.00  0.00     0.028 H 
ATOM    194 3H13 LEU d   1      20.288   5.888  12.184  0.00  0.00     0.028 H 
ATOM    195 4H13 LEU d   1      18.923   5.302  11.173  0.00  0.00     0.028 H 
ENDBRANCH 186 192
ENDBRANCH 183 186
ENDBRANCH 178 183
ENDBRANCH 176 178
ENDBRANCH 172 174
BRANCH 172 196
ATOM    196  CB  TRP d   1      22.581  -0.604   9.470  0.00  0.00    -0.012 C 
ATOM    197 6H11 TRP d   1      23.065  -0.599  10.458  0.00  0.00     0.044 H 
ATOM    198 7H11 TRP d   1      23.297  -0.260   8.709  0.00  0.00     0.044 H 
BRANCH 196 199
ATOM    199  CG  TRP d   1      22.153  -2.005   9.142  0.00  0.00    -0.028 A 
ATOM    200  CD1 TRP d   1      22.279  -2.656   7.943  0.00  0.00    -0.015 A 
ATOM    201  NE1 TRP d   1      21.732  -3.919   8.034  0.00  0.00    -0.365 N 
ATOM    202 8H11 TRP d   1      22.742  -2.238   7.050  0.00  0.00     0.112 H 
ATOM    203  CE2 TRP d   1      21.233  -4.100   9.301  0.00  0.00     0.042 A 
ATOM    204 9H11 TRP d   1      21.703  -4.614   7.274  0.00  0.00     0.165 HD
ATOM    205  CD2 TRP d   1      21.480  -2.913  10.023  0.00  0.00    -0.002 A 
ATOM    206  CZ2 TRP d   1      20.586  -5.208   9.871  0.00  0.00    -0.056 A 
ATOM    207  CE3 TRP d   1      21.062  -2.832  11.364  0.00  0.00    -0.070 A 
ATOM    208  CZ3 TRP d   1      20.418  -3.930  11.931  0.00  0.00    -0.082 A 
ATOM    209 0H12 TRP d   1      21.237  -1.933  11.944  0.00  0.00     0.084 H 
ATOM    210  CH2 TRP d   1      20.191  -5.101  11.186  0.00  0.00    -0.081 A 
ATOM    211 2H12 TRP d   1      20.087  -3.881  12.962  0.00  0.00     0.083 H 
ATOM    212 3H12 TRP d   1      19.693  -5.940  11.658  0.00  0.00     0.083 H 
ATOM    213 1H12 TRP d   1      20.405  -6.111   9.299  0.00  0.00     0.086 H 
ENDBRANCH 196 199
ENDBRANCH 172 196
ENDBRANCH 170 172
ENDBRANCH 165 168
ENDBRANCH 163 165
ENDBRANCH 159 161
BRANCH 159 214
ATOM    214  CB  SER d   1      20.395  -1.165   3.173  0.00  0.00     0.044 C 
ATOM    215 8H10 SER d   1      20.884  -1.830   2.446  0.00  0.00     0.077 H 
ATOM    216 9H10 SER d   1      21.040  -0.295   3.366  0.00  0.00     0.077 H 
BRANCH 214 217
ATOM    217  OG  SER d   1      19.158  -0.717   2.635  0.00  0.00    -0.398 OA
ATOM    218 0H11 SER d   1      18.599  -1.466   2.463  0.00  0.00     0.209 HD
ENDBRANCH 214 217
ENDBRANCH 159 214
ENDBRANCH 157 159
ENDBRANCH 153 155
BRANCH 153 219
ATOM    219  CB  ILE d   1      17.813  -5.480   5.497  0.00  0.00    -0.030 C 
ATOM    220  H97 ILE d   1      17.277  -4.532   5.340  0.00  0.00     0.043 H 
BRANCH 219 221
ATOM    221  CG1 ILE d   1      18.349  -5.496   6.927  0.00  0.00    -0.063 C 
ATOM    222  H98 ILE d   1      18.950  -4.588   7.084  0.00  0.00     0.033 H 
ATOM    223  H99 ILE d   1      18.987  -6.384   7.050  0.00  0.00     0.033 H 
BRANCH 221 224
ATOM    224  CD1 ILE d   1      17.246  -5.539   7.994  0.00  0.00    -0.076 C 
ATOM    225 3H10 ILE d   1      17.704  -5.548   8.994  0.00  0.00     0.027 H 
ATOM    226 4H10 ILE d   1      16.641  -6.447   7.859  0.00  0.00     0.027 H 
ATOM    227 5H10 ILE d   1      16.604  -4.652   7.893  0.00  0.00     0.027 H 
ENDBRANCH 221 224
ENDBRANCH 219 221
BRANCH 219 228
ATOM    228  CG2 ILE d   1      16.821  -6.634   5.282  0.00  0.00    -0.071 C 
ATOM    229 0H10 ILE d   1      16.446  -6.607   4.248  0.00  0.00     0.028 H 
ATOM    230 1H10 ILE d   1      15.978  -6.528   5.981  0.00  0.00     0.028 H 
ATOM    231 2H10 ILE d   1      17.329  -7.593   5.463  0.00  0.00     0.028 H 
ENDBRANCH 219 228
ENDBRANCH 153 219
ENDBRANCH 151 153
ENDBRANCH 147 149
BRANCH 147 232
ATOM    232  CB  MET d   1      21.260  -9.464   2.879  0.00  0.00    -0.030 C 
ATOM    233  H88 MET d   1      21.947  -8.631   2.669  0.00  0.00     0.037 H 
ATOM    234  H89 MET d   1      20.619  -9.640   2.003  0.00  0.00     0.037 H 
BRANCH 232 235
ATOM    235  CG  MET d   1      22.092 -10.721   3.126  0.00  0.00    -0.021 C 
ATOM    236  H90 MET d   1      22.548 -11.038   2.177  0.00  0.00     0.049 H 
ATOM    237  H91 MET d   1      21.431 -11.517   3.500  0.00  0.00     0.049 H 
BRANCH 235 238
ATOM    238  SD  MET d   1      23.401 -10.433   4.335  0.00  0.00    -0.173 SA
BRANCH 238 239
ATOM    239  CE  MET d   1      24.153  -8.966   3.622  0.00  0.00    -0.035 C 
ATOM    240  H92 MET d   1      24.995  -8.643   4.251  0.00  0.00     0.041 H 
ATOM    241  H93 MET d   1      23.406  -8.160   3.568  0.00  0.00     0.041 H 
ATOM    242  H94 MET d   1      24.518  -9.196   2.610  0.00  0.00     0.041 H 
ENDBRANCH 238 239
ENDBRANCH 235 238
ENDBRANCH 232 235
ENDBRANCH 147 232
ENDBRANCH 145 147
ENDBRANCH 141 143
BRANCH 141 243
ATOM    243  CB  ARG d   1      16.401 -10.764   5.174  0.00  0.00    -0.049 C 
ATOM    244  H83 ARG d   1      16.486 -10.326   4.168  0.00  0.00     0.030 H 
ATOM    245  H84 ARG d   1      16.122  -9.980   5.893  0.00  0.00     0.030 H 
ATOM    246  H85 ARG d   1      15.630 -11.548   5.169  0.00  0.00     0.030 H 
ENDBRANCH 141 243
ENDBRANCH 139 141
ENDBRANCH 134 137
ENDBRANCH 132 134
ENDBRANCH 128 130
BRANCH 128 247
ATOM    247  CB  THR d   1      14.386 -11.115   8.917  0.00  0.00     0.060 C 
ATOM    248  H73 THR d   1      13.784 -11.656   8.172  0.00  0.00     0.086 H 
BRANCH 247 249
ATOM    249  OG1 THR d   1      15.479 -10.464   8.258  0.00  0.00    -0.393 OA
ATOM    250  H74 THR d   1      16.006 -10.003   8.900  0.00  0.00     0.210 HD
ENDBRANCH 247 249
BRANCH 247 251
ATOM    251  CG2 THR d   1      13.514 -10.074   9.599  0.00  0.00    -0.050 C 
ATOM    252  H75 THR d   1      13.134  -9.365   8.848  0.00  0.00     0.031 H 
ATOM    253  H76 THR d   1      14.109  -9.531  10.348  0.00  0.00     0.031 H 
ATOM    254  H77 THR d   1      12.668 -10.572  10.094  0.00  0.00     0.031 H 
ENDBRANCH 247 251
ENDBRANCH 128 247
ENDBRANCH 126 128
ENDBRANCH   1 124
BRANCH   1 255
ATOM    255  CB  VAL d   1      14.863  -9.646  13.637  0.00  0.00    -0.033 C 
ATOM    256  H64 VAL d   1      15.122  -8.970  12.808  0.00  0.00     0.042 H 
BRANCH 255 257
ATOM    257  CG1 VAL d   1      13.358  -9.953  13.556  0.00  0.00    -0.071 C 
ATOM    258  H65 VAL d   1      12.787  -9.019  13.661  0.00  0.00     0.028 H 
ATOM    259  H66 VAL d   1      13.081 -10.645  14.365  0.00  0.00     0.028 H 
ATOM    260  H67 VAL d   1      13.130 -10.415  12.584  0.00  0.00     0.028 H 
ENDBRANCH 255 257
BRANCH 255 261
ATOM    261  CG2 VAL d   1      15.202  -8.950  14.951  0.00  0.00    -0.071 C 
ATOM    262  H68 VAL d   1      16.281  -8.741  14.987  0.00  0.00     0.028 H 
ATOM    263  H69 VAL d   1      14.927  -9.602  15.793  0.00  0.00     0.028 H 
ATOM    264  H70 VAL d   1      14.643  -8.005  15.021  0.00  0.00     0.028 H 
ENDBRANCH 255 261
ENDBRANCH   1 255
TORSDOF 76
