REMARK  0 active torsions:
REMARK  status: ('A' for Active; 'I' for Inactive)
ROOT
ATOM      1  OAA 5VJ d   1     -12.729  14.551 -24.501  0.00  0.00    -0.200 OA
ATOM      2  SAP 5VJ d   1     -11.719  14.547 -23.380  0.00  0.00     0.264 S 
ATOM      3  OAB 5VJ d   1     -12.404  15.150 -22.188  0.00  0.00    -0.200 OA
ATOM      4  CAO 5VJ d   1     -11.353  12.945 -23.012  0.00  0.00     0.090 A 
ATOM      5  CAJ 5VJ d   1     -12.375  12.054 -22.635  0.00  0.00    -0.059 A 
ATOM      6  CAF 5VJ d   1     -12.073  10.729 -22.327  0.00  0.00    -0.081 A 
ATOM      7  CAE 5VJ d   1     -10.753  10.283 -22.395  0.00  0.00    -0.082 A 
ATOM      8  CAI 5VJ d   1      -9.741  11.156 -22.768  0.00  0.00    -0.071 A 
ATOM      9  CAN 5VJ d   1     -10.048  12.502 -23.076  0.00  0.00    -0.000 A 
ATOM     10  CAM 5VJ d   1      -8.967  13.512 -23.494  0.00  0.00     0.003 A 
ATOM     11  CAH 5VJ d   1      -7.670  13.013 -23.540  0.00  0.00    -0.070 A 
ATOM     12  CAD 5VJ d   1      -6.597  13.878 -23.917  0.00  0.00    -0.082 A 
ATOM     13  CAC 5VJ d   1      -6.859  15.288 -24.248  0.00  0.00    -0.081 A 
ATOM     14  CAG 5VJ d   1      -8.190  15.800 -24.204  0.00  0.00    -0.056 A 
ATOM     15  CAL 5VJ d   1      -9.237  14.971 -23.843  0.00  0.00     0.053 A 
ATOM     16  NAK 5VJ d   1     -10.586  15.491 -23.793  0.00  0.00    -0.280 N 
ATOM     17  H1  5VJ d   1     -13.401  12.400 -22.584  0.00  0.00     0.085 H 
ATOM     18  H2  5VJ d   1     -12.863  10.046 -22.035  0.00  0.00     0.083 H 
ATOM     19  H3  5VJ d   1     -10.517   9.252 -22.156  0.00  0.00     0.083 H 
ATOM     20  H4  5VJ d   1      -8.716  10.807 -22.823  0.00  0.00     0.084 H 
ATOM     21  H5  5VJ d   1      -7.474  11.976 -23.292  0.00  0.00     0.084 H 
ATOM     22  H6  5VJ d   1      -5.584  13.494 -23.959  0.00  0.00     0.083 H 
ATOM     23  H7  5VJ d   1      -6.038  15.939 -24.526  0.00  0.00     0.083 H 
ATOM     24  H8  5VJ d   1      -8.381  16.838 -24.453  0.00  0.00     0.087 H 
ATOM     25  H9  5VJ d   1     -10.774  16.446 -24.023  0.00  0.00     0.179 HD
ENDROOT
TORSDOF 0
