REMARK  9 active torsions:
REMARK  status: ('A' for Active; 'I' for Inactive)
REMARK    1  A    between atoms: CAA_1  and  CAL_2 
REMARK    2  A    between atoms: CAL_2  and  OAO_3 
REMARK    3  A    between atoms: OAO_3  and  CAP_4 
REMARK    4  A    between atoms: CAP_4  and  CAM_6 
REMARK    5  A    between atoms: CAM_6  and  CAN_7 
REMARK    6  A    between atoms: CAN_7  and  CAQ_8 
REMARK    7  A    between atoms: CAS_10  and  OAD_11 
REMARK    8  A    between atoms: CAU_14  and  CAT_15 
REMARK    9  A    between atoms: CAR_20  and  OAC_21 
ROOT
ATOM      1  CAQ 5VK d   1     -11.810  11.666 -21.968  0.00  0.00    -0.055 A 
ATOM      2  CAK 5VK d   1     -11.977  13.033 -22.026  0.00  0.00    -0.044 A 
ATOM      3  CAS 5VK d   1     -10.953  13.857 -22.548  0.00  0.00     0.077 A 
ATOM      4  CAI 5VK d   1     -10.610  11.093 -22.446  0.00  0.00    -0.076 A 
ATOM      5  CAJ 5VK d   1      -9.620  11.889 -22.960  0.00  0.00    -0.069 A 
ATOM      6  CAU 5VK d   1      -9.774  13.286 -23.034  0.00  0.00     0.010 A 
ATOM      7  H10 5VK d   1     -12.898  13.479 -21.669  0.00  0.00     0.088 H 
ATOM      8  H12 5VK d   1     -10.472  10.019 -22.406  0.00  0.00     0.084 H 
ATOM      9  H13 5VK d   1      -8.702  11.435 -23.316  0.00  0.00     0.085 H 
ENDROOT
BRANCH   1  10
ATOM     10  CAN 5VK d   1     -12.957  10.740 -21.373  0.00  0.00    -0.033 C 
ATOM     11  H8  5VK d   1     -12.642   9.690 -21.462  0.00  0.00     0.040 H 
ATOM     12  H9  5VK d   1     -13.097  10.992 -20.311  0.00  0.00     0.040 H 
BRANCH  10  13
ATOM     13  CAM 5VK d   1     -14.293  10.912 -22.095  0.00  0.00     0.019 C 
ATOM     14  H6  5VK d   1     -15.055  10.295 -21.596  0.00  0.00     0.048 H 
ATOM     15  H7  5VK d   1     -14.592  11.970 -22.053  0.00  0.00     0.048 H 
BRANCH  13  16
ATOM     16  CAP 5VK d   1     -14.173  10.468 -23.599  0.00  0.00     0.259 C 
ATOM     17  OAB 5VK d   1     -13.923   9.312 -23.859  0.00  0.00    -0.265 OA
BRANCH  16  18
ATOM     18  OAO 5VK d   1     -14.039  11.467 -24.580  0.00  0.00    -0.322 OA
BRANCH  18  19
ATOM     19  CAL 5VK d   1     -13.596  11.007 -25.871  0.00  0.00     0.025 C 
ATOM     20  H4  5VK d   1     -13.973   9.990 -26.051  0.00  0.00     0.074 H 
ATOM     21  H5  5VK d   1     -13.973  11.682 -26.654  0.00  0.00     0.074 H 
BRANCH  19  22
ATOM     22  CAA 5VK d   1     -12.095  11.000 -25.889  0.00  0.00    -0.056 C 
ATOM     23  H1  5VK d   1     -11.742  10.650 -26.870  0.00  0.00     0.030 H 
ATOM     24  H2  5VK d   1     -11.722  10.326 -25.104  0.00  0.00     0.030 H 
ATOM     25  H3  5VK d   1     -11.721  12.018 -25.706  0.00  0.00     0.030 H 
ENDBRANCH  19  22
ENDBRANCH  18  19
ENDBRANCH  16  18
ENDBRANCH  13  16
ENDBRANCH  10  13
ENDBRANCH   1  10
BRANCH   3  26
ATOM     26  OAD 5VK d   1     -11.154  15.256 -22.596  0.00  0.00    -0.360 OA
ATOM     27  H11 5VK d   1     -10.386  15.673 -22.968  0.00  0.00     0.217 HD
ENDBRANCH   3  26
BRANCH   6  28
ATOM     28  CAT 5VK d   1      -8.615  14.072 -23.577  0.00  0.00     0.010 A 
ATOM     29  CAH 5VK d   1      -7.393  13.507 -23.388  0.00  0.00    -0.069 A 
ATOM     30  CAF 5VK d   1      -6.226  14.162 -23.842  0.00  0.00    -0.082 A 
ATOM     31  H14 5VK d   1      -7.313  12.549 -22.887  0.00  0.00     0.085 H 
ATOM     32  CAE 5VK d   1      -6.300  15.393 -24.475  0.00  0.00    -0.080 A 
ATOM     33  H15 5VK d   1      -5.259  13.695 -23.693  0.00  0.00     0.083 H 
ATOM     34  CAG 5VK d   1      -7.509  15.967 -24.667  0.00  0.00    -0.050 A 
ATOM     35  H16 5VK d   1      -5.398  15.890 -24.813  0.00  0.00     0.083 H 
ATOM     36  CAR 5VK d   1      -8.686  15.318 -24.217  0.00  0.00     0.076 A 
ATOM     37  H17 5VK d   1      -7.578  16.927 -25.167  0.00  0.00     0.087 H 
BRANCH  36  38
ATOM     38  OAC 5VK d   1      -9.905  15.973 -24.443  0.00  0.00    -0.360 OA
ATOM     39  H18 5VK d   1     -10.616  15.444 -24.100  0.00  0.00     0.217 HD
ENDBRANCH  36  38
ENDBRANCH   6  28
TORSDOF 9
