REMARK  3 active torsions:
REMARK  status: ('A' for Active; 'I' for Inactive)
REMARK    1  A    between atoms: C7_4  and  C8_5 
REMARK    2  A    between atoms: C13_7  and  O14_14 
REMARK    3  A    between atoms: C2_9  and  O1_8 
ROOT
ATOM      1  C4  5VL d   1      15.394  11.408 109.917  0.00  0.00    -0.080 A 
ATOM      2  C5  5VL d   1      15.676  10.148 110.423  0.00  0.00    -0.082 A 
ATOM      3  C6  5VL d   1      14.642   9.288 110.762  0.00  0.00    -0.069 A 
ATOM      4  C7  5VL d   1      13.317   9.676 110.595  0.00  0.00     0.010 A 
ATOM      5  C2  5VL d   1      13.042  10.944 110.079  0.00  0.00     0.076 A 
ATOM      6  C3  5VL d   1      14.078  11.805 109.745  0.00  0.00    -0.050 A 
ATOM      7  H1  5VL d   1      16.202  12.082 109.656  0.00  0.00     0.083 H 
ATOM      8  H2  5VL d   1      16.706   9.835 110.554  0.00  0.00     0.083 H 
ATOM      9  H3  5VL d   1      14.868   8.306 111.160  0.00  0.00     0.085 H 
ATOM     10  H6  5VL d   1      13.857  12.790 109.349  0.00  0.00     0.087 H 
ENDROOT
BRANCH   4  11
ATOM     11  C8  5VL d   1      12.272   8.673 110.992  0.00  0.00     0.010 A 
ATOM     12  C13 5VL d   1      10.985   9.003 111.418  0.00  0.00     0.076 A 
ATOM     13  C12 5VL d   1      10.091   8.003 111.779  0.00  0.00    -0.050 A 
ATOM     14  C11 5VL d   1      10.470   6.672 111.730  0.00  0.00    -0.080 A 
ATOM     15  H9  5VL d   1       9.090   8.266 112.101  0.00  0.00     0.087 H 
ATOM     16  C10 5VL d   1      11.753   6.342 111.319  0.00  0.00    -0.082 A 
ATOM     17  H8  5VL d   1       9.769   5.894 112.011  0.00  0.00     0.083 H 
ATOM     18  C9  5VL d   1      12.645   7.337 110.953  0.00  0.00    -0.069 A 
ATOM     19  H4  5VL d   1      12.059   5.303 111.284  0.00  0.00     0.083 H 
ATOM     20  H7  5VL d   1      13.645   7.069 110.633  0.00  0.00     0.085 H 
BRANCH  12  21
ATOM     21  O14 5VL d   1      10.561  10.313 111.480  0.00  0.00    -0.360 OA
ATOM     22  H10 5VL d   1      11.268  10.887 111.208  0.00  0.00     0.217 HD
ENDBRANCH  12  21
ENDBRANCH   4  11
BRANCH   5  23
ATOM     23  O1  5VL d   1      11.753  11.385 109.892  0.00  0.00    -0.360 OA
ATOM     24  H5  5VL d   1      11.297  11.388 110.725  0.00  0.00     0.217 HD
ENDBRANCH   5  23
TORSDOF 3
