REMARK WARNING: 32 MAX_TORS EXCEEDED!!!
REMARK  34 active torsions:
REMARK  status: ('A' for Active; 'I' for Inactive)
REMARK    1  A    between atoms: N_1  and  CA_2 
REMARK    2  A    between atoms: CA_8  and  CB_11 
REMARK    3  A    between atoms: CB_11  and  CG_12 
REMARK    4  A    between atoms: CG_12  and  CD_13 
REMARK       I    between atoms: CD_13  and  NE2_15 
REMARK    5  A    between atoms: CA_17  and  CB_20 
REMARK    6  A    between atoms: CB_20  and  CG_21 
REMARK    7  A    between atoms: CA_28  and  CB_31 
REMARK    8  A    between atoms: CB_31  and  CG_32 
REMARK    9  A    between atoms: CA_36  and  CB_39 
REMARK   10  A    between atoms: CB_39  and  CG_40 
REMARK   11  A    between atoms: CZ_45  and  OH_46 
REMARK   12  A    between atoms: CA_48  and  CB_51 
REMARK   13  A    between atoms: CB_51  and  OG_52 
REMARK   14  A    between atoms: CA_54  and  CB_57 
REMARK   15  A    between atoms: CB_57  and  OG1_58 
REMARK   16  A    between atoms: CB_57  and  CG2_59 
REMARK   17  A    between atoms: CA_61  and  CB_64 
REMARK   18  A    between atoms: CB_64  and  CG_65 
REMARK   19  A    between atoms: CG_65  and  CD_66 
REMARK   20  A    between atoms: CD_66  and  NE_67 
REMARK       I    between atoms: NE_67  and  CZ_68 
REMARK       I    between atoms: CZ_68  and  NH1_69 
REMARK       I    between atoms: CZ_68  and  NH2_70 
REMARK   21  A    between atoms: CA_72  and  CB_75 
REMARK   22  A    between atoms: CB_75  and  CG_76 
REMARK   23  A    between atoms: CG_76  and  CD_77 
REMARK   24  A    between atoms: CD_77  and  NE_78 
REMARK       I    between atoms: NE_78  and  CZ_79 
REMARK       I    between atoms: CZ_79  and  NH1_80 
REMARK   25  A    between atoms: CA_83  and  CB_86 
REMARK   26  A    between atoms: CB_86  and  CG_87 
REMARK   27  A    between atoms: CG_87  and  CD1_88 
REMARK   28  A    between atoms: CG_87  and  CD2_89 
REMARK   29  A    between atoms: CA_91  and  CB_94 
REMARK   30  A    between atoms: CB_94  and  CG_95 
REMARK   31  A    between atoms: CG_95  and  CD_96 
REMARK   32  A    between atoms: CD_96  and  CE_97 
REMARK   33  A    between atoms: CE_97  and  NZ_98 
REMARK   34  A    between atoms: CA_100  and  C_101 
ROOT
ATOM      1  CA  CYS d   1      16.429 -32.590 -28.165  0.00  0.00     0.184 C 
ATOM      2  C   CYS d   1      16.904 -34.007 -27.853  0.00  0.00     0.249 C 
ATOM      3  O   CYS d   1      16.533 -34.591 -26.832  0.00  0.00    -0.271 OA
ATOM      4  CB  CYS d   1      17.593 -31.615 -27.951  0.00  0.00     0.021 C 
ATOM      5  SG  CYS d   1      17.324 -29.878 -28.353  0.00  0.00    -0.095 SA
ATOM      6  N   CYS d   1      18.419 -31.207 -32.432  0.00  0.00    -0.344 N 
ATOM      7  CA  CYS d   1      17.007 -30.923 -32.257  0.00  0.00     0.105 C 
ATOM      8  CB  CYS d   1      16.835 -29.742 -31.332  0.00  0.00     0.015 C 
ATOM      9  SG  CYS d   1      18.187 -29.650 -30.169  0.00  0.00    -0.095 SA
ATOM     10  H4  CYS d   1      16.124 -32.547 -29.221  0.00  0.00     0.100 H 
ATOM     11  H5  CYS d   1      18.433 -31.968 -28.567  0.00  0.00     0.054 H 
ATOM     12  H6  CYS d   1      17.872 -31.666 -26.888  0.00  0.00     0.054 H 
ATOM     13  H99 CYS d   1      19.024 -30.513 -32.821  0.00  0.00     0.163 HD
ATOM     14 0H10 CYS d   1      16.533 -31.802 -31.795  0.00  0.00     0.090 H 
ATOM     15 1H10 CYS d   1      15.890 -29.851 -30.779  0.00  0.00     0.054 H 
ATOM     16 2H10 CYS d   1      16.807 -28.818 -31.928  0.00  0.00     0.054 H 
ATOM     17  N   GLN d   1      17.750 -34.544 -28.729  0.00  0.00    -0.346 N 
ATOM     18  CA  GLN d   1      18.247 -35.904 -28.598  0.00  0.00     0.090 C 
ATOM     19  C   GLN d   1      19.745 -35.923 -28.861  0.00  0.00     0.241 C 
ATOM     20  O   GLN d   1      20.233 -35.242 -29.768  0.00  0.00    -0.271 OA
ATOM     21  H7  GLN d   1      18.055 -33.992 -29.505  0.00  0.00     0.163 HD
ATOM     22  H8  GLN d   1      18.063 -36.248 -27.570  0.00  0.00     0.087 H 
ATOM     23  N   PHE d   1      20.468 -36.700 -28.057  0.00  0.00    -0.346 N 
ATOM     24  CA  PHE d   1      21.912 -36.808 -28.205  0.00  0.00     0.093 C 
ATOM     25  C   PHE d   1      22.261 -37.584 -29.467  0.00  0.00     0.241 C 
ATOM     26  O   PHE d   1      21.720 -38.666 -29.715  0.00  0.00    -0.271 OA
ATOM     27  H15 PHE d   1      20.009 -37.220 -27.337  0.00  0.00     0.163 HD
ATOM     28  H16 PHE d   1      22.333 -35.795 -28.287  0.00  0.00     0.088 H 
ATOM     29  N   ASP d   1      23.178 -37.027 -30.257  0.00  0.00    -0.345 N 
ATOM     30  CA  ASP d   1      23.667 -37.629 -31.493  0.00  0.00     0.098 C 
ATOM     31  C   ASP d   1      25.093 -38.106 -31.241  0.00  0.00     0.241 C 
ATOM     32  O   ASP d   1      25.999 -37.288 -31.046  0.00  0.00    -0.271 OA
ATOM     33  H24 ASP d   1      23.555 -36.141 -29.986  0.00  0.00     0.163 HD
ATOM     34  H25 ASP d   1      23.039 -38.493 -31.753  0.00  0.00     0.088 H 
ATOM     35  N   TYR d   1      25.295 -39.428 -31.252  0.00  0.00    -0.346 N 
ATOM     36  CA  TYR d   1      26.599 -39.985 -30.910  0.00  0.00     0.093 C 
ATOM     37  C   TYR d   1      27.634 -39.820 -32.015  0.00  0.00     0.241 C 
ATOM     38  O   TYR d   1      28.806 -40.142 -31.790  0.00  0.00    -0.271 OA
ATOM     39  H28 TYR d   1      24.544 -40.041 -31.497  0.00  0.00     0.163 HD
ATOM     40  H29 TYR d   1      26.967 -39.437 -30.030  0.00  0.00     0.088 H 
ATOM     41  N   SER d   1      27.242 -39.331 -33.194  0.00  0.00    -0.344 N 
ATOM     42  CA  SER d   1      28.225 -39.032 -34.232  0.00  0.00     0.109 C 
ATOM     43  C   SER d   1      28.988 -37.749 -33.928  0.00  0.00     0.243 C 
ATOM     44  O   SER d   1      30.205 -37.686 -34.133  0.00  0.00    -0.271 OA
ATOM     45  H37 SER d   1      26.271 -39.169 -33.367  0.00  0.00     0.163 HD
ATOM     46  H38 SER d   1      28.947 -39.861 -34.269  0.00  0.00     0.090 H 
ATOM     47  N   THR d   1      28.291 -36.718 -33.449  0.00  0.00    -0.344 N 
ATOM     48  CA  THR d   1      28.903 -35.432 -33.147  0.00  0.00     0.113 C 
ATOM     49  C   THR d   1      29.057 -35.171 -31.656  0.00  0.00     0.243 C 
ATOM     50  O   THR d   1      29.708 -34.188 -31.283  0.00  0.00    -0.271 OA
ATOM     51  H42 THR d   1      27.310 -36.833 -33.291  0.00  0.00     0.163 HD
ATOM     52  H43 THR d   1      29.906 -35.424 -33.599  0.00  0.00     0.091 H 
ATOM     53  N   ARG d   1      28.486 -36.026 -30.804  0.00  0.00    -0.346 N 
ATOM     54  CA  ARG d   1      28.423 -35.814 -29.356  0.00  0.00     0.089 C 
ATOM     55  C   ARG d   1      27.735 -34.497 -29.011  0.00  0.00     0.241 C 
ATOM     56  O   ARG d   1      28.109 -33.817 -28.053  0.00  0.00    -0.271 OA
ATOM     57  N   ARG d   1      26.722 -34.130 -29.788  0.00  0.00    -0.346 N 
ATOM     58  CA  ARG d   1      25.981 -32.898 -29.575  0.00  0.00     0.089 C 
ATOM     59  C   ARG d   1      24.489 -33.189 -29.598  0.00  0.00     0.241 C 
ATOM     60  O   ARG d   1      24.039 -34.157 -30.218  0.00  0.00    -0.271 OA
ATOM     61  H49 ARG d   1      28.078 -36.859 -31.176  0.00  0.00     0.163 HD
ATOM     62  H50 ARG d   1      27.817 -36.628 -28.931  0.00  0.00     0.087 H 
ATOM     63  H62 ARG d   1      26.459 -34.724 -30.548  0.00  0.00     0.163 HD
ATOM     64  H63 ARG d   1      26.250 -32.494 -28.588  0.00  0.00     0.087 H 
ATOM     65  N   LEU d   1      23.726 -32.340 -28.914  0.00  0.00    -0.346 N 
ATOM     66  CA  LEU d   1      22.273 -32.443 -28.948  0.00  0.00     0.089 C 
ATOM     67  C   LEU d   1      21.754 -31.993 -30.306  0.00  0.00     0.241 C 
ATOM     68  O   LEU d   1      22.059 -30.889 -30.769  0.00  0.00    -0.271 OA
ATOM     69  H75 LEU d   1      24.156 -31.621 -28.369  0.00  0.00     0.163 HD
ATOM     70  H76 LEU d   1      21.990 -33.494 -28.791  0.00  0.00     0.087 H 
ATOM     71  N   LYS d   1      20.974 -32.854 -30.946  0.00  0.00    -0.346 N 
ATOM     72  CA  LYS d   1      20.399 -32.581 -32.255  0.00  0.00     0.089 C 
ATOM     73  C   LYS d   1      18.905 -32.385 -32.077  0.00  0.00     0.241 C 
ATOM     74  O   LYS d   1      18.205 -33.297 -31.625  0.00  0.00    -0.271 OA
ATOM     75  H86 LYS d   1      20.772 -33.731 -30.509  0.00  0.00     0.163 HD
ATOM     76  H87 LYS d   1      20.841 -31.657 -32.656  0.00  0.00     0.087 H 
ENDROOT
BRANCH  54  77
ATOM     77  CB  ARG d   1      29.808 -35.882 -28.706  0.00  0.00    -0.036 C 
ATOM     78  H51 ARG d   1      29.681 -35.847 -27.614  0.00  0.00     0.036 H 
ATOM     79  H52 ARG d   1      30.389 -35.008 -29.036  0.00  0.00     0.036 H 
BRANCH  77  80
ATOM     80  CG  ARG d   1      30.587 -37.133 -29.056  0.00  0.00    -0.048 C 
ATOM     81  H53 ARG d   1      30.995 -37.027 -30.072  0.00  0.00     0.035 H 
ATOM     82  H54 ARG d   1      29.908 -37.998 -29.022  0.00  0.00     0.035 H 
BRANCH  80  83
ATOM     83  CD  ARG d   1      31.728 -37.366 -28.091  0.00  0.00     0.009 C 
ATOM     84  H55 ARG d   1      31.322 -37.455 -27.073  0.00  0.00     0.064 H 
ATOM     85  H56 ARG d   1      32.416 -36.509 -28.138  0.00  0.00     0.064 H 
BRANCH  83  86
ATOM     86  NE  ARG d   1      32.463 -38.583 -28.416  0.00  0.00    -0.227 N 
ATOM     87  CZ  ARG d   1      33.513 -39.023 -27.733  0.00  0.00     0.665 C 
ATOM     88  NH1 ARG d   1      33.951 -38.345 -26.682  0.00  0.00    -0.235 N 
ATOM     89  NH2 ARG d   1      34.121 -40.142 -28.100  0.00  0.00    -0.235 N 
ATOM     90  H58 ARG d   1      34.766 -38.686 -26.152  0.00  0.00     0.174 HD
ATOM     91  H59 ARG d   1      33.477 -37.477 -26.395  0.00  0.00     0.174 HD
ATOM     92  H60 ARG d   1      33.781 -40.669 -28.917  0.00  0.00     0.174 HD
ATOM     93  H61 ARG d   1      34.934 -40.485 -27.568  0.00  0.00     0.174 HD
ATOM     94  H57 ARG d   1      32.148 -39.136 -29.226  0.00  0.00     0.177 HD
ENDBRANCH  83  86
ENDBRANCH  80  83
ENDBRANCH  77  80
ENDBRANCH  54  77
BRANCH  48  95
ATOM     95  CB  THR d   1      28.077 -34.293 -33.766  0.00  0.00     0.060 C 
ATOM     96  H44 THR d   1      28.571 -33.334 -33.552  0.00  0.00     0.086 H 
BRANCH  95  97
ATOM     97  OG1 THR d   1      26.763 -34.289 -33.194  0.00  0.00    -0.393 OA
ATOM     98  H45 THR d   1      26.254 -33.585 -33.578  0.00  0.00     0.210 HD
ENDBRANCH  95  97
BRANCH  95  99
ATOM     99  CG2 THR d   1      27.965 -34.471 -35.274  0.00  0.00    -0.050 C 
ATOM    100  H46 THR d   1      27.371 -33.647 -35.697  0.00  0.00     0.031 H 
ATOM    101  H47 THR d   1      27.472 -35.429 -35.495  0.00  0.00     0.031 H 
ATOM    102  H48 THR d   1      28.971 -34.465 -35.720  0.00  0.00     0.031 H 
ENDBRANCH  95  99
ENDBRANCH  48  95
BRANCH  58 103
ATOM    103  CB  ARG d   1      26.323 -31.849 -30.641  0.00  0.00    -0.036 C 
ATOM    104  H64 ARG d   1      25.656 -30.986 -30.500  0.00  0.00     0.036 H 
ATOM    105  H65 ARG d   1      26.143 -32.294 -31.631  0.00  0.00     0.036 H 
BRANCH 103 106
ATOM    106  CG  ARG d   1      27.759 -31.352 -30.597  0.00  0.00    -0.048 C 
ATOM    107  H66 ARG d   1      27.919 -30.649 -31.428  0.00  0.00     0.035 H 
ATOM    108  H67 ARG d   1      28.438 -32.211 -30.707  0.00  0.00     0.035 H 
BRANCH 106 109
ATOM    109  CD  ARG d   1      28.066 -30.643 -29.283  0.00  0.00     0.009 C 
ATOM    110  H68 ARG d   1      29.051 -30.159 -29.360  0.00  0.00     0.064 H 
ATOM    111  H69 ARG d   1      28.085 -31.386 -28.472  0.00  0.00     0.064 H 
BRANCH 109 112
ATOM    112  NE  ARG d   1      27.064 -29.630 -28.972  0.00  0.00    -0.227 N 
ATOM    113  CZ  ARG d   1      27.026 -28.419 -29.520  0.00  0.00     0.665 C 
ATOM    114  NH1 ARG d   1      27.937 -28.058 -30.415  0.00  0.00    -0.235 N 
ATOM    115  NH2 ARG d   1      26.070 -27.569 -29.175  0.00  0.00    -0.235 N 
ATOM    116  H71 ARG d   1      27.902 -27.118 -30.836  0.00  0.00     0.174 HD
ATOM    117  H72 ARG d   1      28.679 -28.717 -30.689  0.00  0.00     0.174 HD
ATOM    118  H73 ARG d   1      25.361 -27.845 -28.481  0.00  0.00     0.174 HD
ATOM    119  H74 ARG d   1      26.036 -26.632 -29.601  0.00  0.00     0.174 HD
ATOM    120  H70 ARG d   1      26.337 -29.868 -28.282  0.00  0.00     0.177 HD
ENDBRANCH 109 112
ENDBRANCH 106 109
ENDBRANCH 103 106
ENDBRANCH  58 103
BRANCH  42 121
ATOM    121  CB  SER d   1      27.546 -38.921 -35.597  0.00  0.00     0.044 C 
ATOM    122  H39 SER d   1      28.206 -38.366 -36.280  0.00  0.00     0.077 H 
ATOM    123  H40 SER d   1      26.597 -38.377 -35.481  0.00  0.00     0.077 H 
BRANCH 121 124
ATOM    124  OG  SER d   1      27.280 -40.194 -36.149  0.00  0.00    -0.398 OA
ATOM    125  H41 SER d   1      28.096 -40.668 -36.257  0.00  0.00     0.209 HD
ENDBRANCH 121 124
ENDBRANCH  42 121
BRANCH  66 126
ATOM    126  CB  LEU d   1      21.649 -31.598 -27.841  0.00  0.00    -0.035 C 
ATOM    127  H77 LEU d   1      20.558 -31.625 -27.977  0.00  0.00     0.037 H 
ATOM    128  H78 LEU d   1      22.009 -30.566 -27.968  0.00  0.00     0.037 H 
BRANCH 126 129
ATOM    129  CG  LEU d   1      21.945 -32.016 -26.403  0.00  0.00    -0.059 C 
ATOM    130  H79 LEU d   1      23.034 -32.111 -26.284  0.00  0.00     0.038 H 
BRANCH 129 131
ATOM    131  CD1 LEU d   1      21.445 -30.953 -25.438  0.00  0.00    -0.073 C 
ATOM    132  H80 LEU d   1      21.663 -31.264 -24.405  0.00  0.00     0.028 H 
ATOM    133  H81 LEU d   1      20.359 -30.827 -25.562  0.00  0.00     0.028 H 
ATOM    134  H82 LEU d   1      21.951 -29.999 -25.649  0.00  0.00     0.028 H 
ENDBRANCH 129 131
BRANCH 129 135
ATOM    135  CD2 LEU d   1      21.310 -33.362 -26.097  0.00  0.00    -0.073 C 
ATOM    136  H83 LEU d   1      21.686 -34.114 -26.806  0.00  0.00     0.028 H 
ATOM    137  H84 LEU d   1      20.217 -33.282 -26.192  0.00  0.00     0.028 H 
ATOM    138  H85 LEU d   1      21.568 -33.664 -25.071  0.00  0.00     0.028 H 
ENDBRANCH 129 135
ENDBRANCH 126 129
ENDBRANCH  66 126
BRANCH  36 139
ATOM    139  CB  TYR d   1      26.474 -41.468 -30.524  0.00  0.00    -0.014 C 
ATOM    140  H30 TYR d   1      25.847 -41.528 -29.622  0.00  0.00     0.043 H 
ATOM    141  H31 TYR d   1      27.483 -41.841 -30.295  0.00  0.00     0.043 H 
BRANCH 139 142
ATOM    142  CG  TYR d   1      25.868 -42.384 -31.571  0.00  0.00    -0.056 A 
ATOM    143  CD1 TYR d   1      26.584 -42.755 -32.703  0.00  0.00    -0.074 A 
ATOM    144  CE1 TYR d   1      26.037 -43.602 -33.655  0.00  0.00    -0.051 A 
ATOM    145  H32 TYR d   1      27.589 -42.375 -32.844  0.00  0.00     0.084 H 
ATOM    146  CZ  TYR d   1      24.765 -44.101 -33.475  0.00  0.00     0.065 A 
ATOM    147  H34 TYR d   1      26.607 -43.870 -34.537  0.00  0.00     0.087 H 
ATOM    148  CE2 TYR d   1      24.037 -43.759 -32.354  0.00  0.00    -0.051 A 
ATOM    149  CD2 TYR d   1      24.593 -42.910 -31.405  0.00  0.00    -0.074 A 
ATOM    150  H35 TYR d   1      23.036 -44.151 -32.214  0.00  0.00     0.087 H 
ATOM    151  H33 TYR d   1      24.022 -42.654 -30.520  0.00  0.00     0.084 H 
BRANCH 146 152
ATOM    152  OH  TYR d   1      24.224 -44.945 -34.419  0.00  0.00    -0.361 OA
ATOM    153  H36 TYR d   1      24.851 -45.077 -35.121  0.00  0.00     0.217 HD
ENDBRANCH 146 152
ENDBRANCH 139 142
ENDBRANCH  36 139
BRANCH  72 154
ATOM    154  CB  LYS d   1      20.675 -33.719 -33.238  0.00  0.00    -0.038 C 
ATOM    155  H88 LYS d   1      20.080 -34.592 -32.931  0.00  0.00     0.036 H 
ATOM    156  H89 LYS d   1      21.745 -33.968 -33.186  0.00  0.00     0.036 H 
BRANCH 154 157
ATOM    157  CG  LYS d   1      20.331 -33.392 -34.681  0.00  0.00    -0.061 C 
ATOM    158  H90 LYS d   1      20.771 -32.419 -34.945  0.00  0.00     0.033 H 
ATOM    159  H91 LYS d   1      19.238 -33.341 -34.788  0.00  0.00     0.033 H 
BRANCH 157 160
ATOM    160  CD  LYS d   1      20.875 -34.458 -35.622  0.00  0.00    -0.043 C 
ATOM    161  H92 LYS d   1      20.421 -35.427 -35.367  0.00  0.00     0.035 H 
ATOM    162  H93 LYS d   1      21.966 -34.521 -35.500  0.00  0.00     0.035 H 
BRANCH 160 163
ATOM    163  CE  LYS d   1      20.556 -34.128 -37.072  0.00  0.00     0.080 C 
ATOM    164  H94 LYS d   1      19.463 -34.088 -37.194  0.00  0.00     0.075 H 
ATOM    165  H95 LYS d   1      20.968 -34.920 -37.714  0.00  0.00     0.075 H 
BRANCH 163 166
ATOM    166  NZ  LYS d   1      21.134 -32.819 -37.493  0.00  0.00    -0.079 N 
ATOM    167  H96 LYS d   1      20.898 -32.642 -38.457  0.00  0.00     0.274 HD
ATOM    168  H97 LYS d   1      22.137 -32.846 -37.392  0.00  0.00     0.274 HD
ATOM    169  H98 LYS d   1      20.758 -32.084 -36.915  0.00  0.00     0.274 HD
ENDBRANCH 163 166
ENDBRANCH 160 163
ENDBRANCH 157 160
ENDBRANCH 154 157
ENDBRANCH  72 154
BRANCH  30 170
ATOM    170  CB  ASP d   1      23.599 -36.614 -32.635  0.00  0.00     0.043 C 
ATOM    171  H26 ASP d   1      24.189 -35.730 -32.352  0.00  0.00     0.052 H 
ATOM    172  H27 ASP d   1      22.549 -36.322 -32.781  0.00  0.00     0.052 H 
BRANCH 170 173
ATOM    173  CG  ASP d   1      24.137 -37.153 -33.948  0.00  0.00     0.175 C 
ATOM    174  OD1 ASP d   1      24.388 -38.371 -34.054  0.00  0.00    -0.648 OA
ATOM    175  OD2 ASP d   1      24.295 -36.347 -34.888  0.00  0.00    -0.648 OA
ENDBRANCH 170 173
ENDBRANCH  30 170
BRANCH   7 176
ATOM    176  C   CYS d   1      16.319 -30.655 -33.578  0.00  0.00     0.197 C 
ATOM    177  O   CYS d   1      16.963 -30.194 -34.522  0.00  0.00    -0.646 OA
ATOM    178  OXT CYS d   1      15.118 -30.884 -33.719  0.00  0.00    -0.646 OA
ENDBRANCH   7 176
BRANCH  24 179
ATOM    179  CB  PHE d   1      22.520 -37.494 -26.983  0.00  0.00    -0.014 C 
ATOM    180  H17 PHE d   1      22.038 -38.475 -26.860  0.00  0.00     0.043 H 
ATOM    181  H18 PHE d   1      22.316 -36.872 -26.099  0.00  0.00     0.043 H 
BRANCH 179 182
ATOM    182  CG  PHE d   1      24.006 -37.704 -27.083  0.00  0.00    -0.056 A 
ATOM    183  CD1 PHE d   1      24.880 -36.650 -26.879  0.00  0.00    -0.077 A 
ATOM    184  CE1 PHE d   1      26.242 -36.837 -26.968  0.00  0.00    -0.082 A 
ATOM    185  H19 PHE d   1      24.488 -35.666 -26.647  0.00  0.00     0.084 H 
ATOM    186  CZ  PHE d   1      26.752 -38.089 -27.259  0.00  0.00    -0.083 A 
ATOM    187  H21 PHE d   1      26.915 -36.002 -26.810  0.00  0.00     0.083 H 
ATOM    188  CE2 PHE d   1      25.896 -39.149 -27.464  0.00  0.00    -0.082 A 
ATOM    189  H23 PHE d   1      27.824 -38.236 -27.326  0.00  0.00     0.083 H 
ATOM    190  CD2 PHE d   1      24.528 -38.955 -27.374  0.00  0.00    -0.077 A 
ATOM    191  H22 PHE d   1      26.292 -40.131 -27.695  0.00  0.00     0.083 H 
ATOM    192  H20 PHE d   1      23.857 -39.791 -27.533  0.00  0.00     0.084 H 
ENDBRANCH 179 182
ENDBRANCH  24 179
BRANCH   1 193
ATOM    193  N   CYS d   1      15.277 -32.225 -27.343  0.00  0.00    -0.066 N 
ATOM    194  H1  CYS d   1      14.986 -31.287 -27.570  0.00  0.00     0.275 HD
ATOM    195  H2  CYS d   1      15.531 -32.271 -26.369  0.00  0.00     0.275 HD
ATOM    196  H3  CYS d   1      14.519 -32.865 -27.523  0.00  0.00     0.275 HD
ENDBRANCH   1 193
BRANCH  18 197
ATOM    197  CB  GLN d   1      17.529 -36.853 -29.563  0.00  0.00    -0.030 C 
ATOM    198  H9  GLN d   1      18.182 -37.028 -30.431  0.00  0.00     0.037 H 
ATOM    199  H10 GLN d   1      16.597 -36.373 -29.896  0.00  0.00     0.037 H 
BRANCH 197 200
ATOM    200  CG  GLN d   1      17.185 -38.190 -28.943  0.00  0.00     0.011 C 
ATOM    201  H11 GLN d   1      16.380 -38.039 -28.209  0.00  0.00     0.047 H 
ATOM    202  H12 GLN d   1      18.078 -38.579 -28.432  0.00  0.00     0.047 H 
BRANCH 200 203
ATOM    203  CD  GLN d   1      16.725 -39.216 -29.959  0.00  0.00     0.215 C 
ATOM    204  OE1 GLN d   1      15.890 -40.070 -29.660  0.00  0.00    -0.274 OA
ATOM    205  NE2 GLN d   1      17.280 -39.148 -31.164  0.00  0.00    -0.370 N 
ATOM    206  H13 GLN d   1      17.014 -39.800 -31.874  0.00  0.00     0.159 HD
ATOM    207  H14 GLN d   1      17.963 -38.445 -31.361  0.00  0.00     0.159 HD
ENDBRANCH 200 203
ENDBRANCH 197 200
ENDBRANCH  18 197
TORSDOF 34
