REMARK  21 active torsions:
REMARK  status: ('A' for Active; 'I' for Inactive)
REMARK    1  A    between atoms: O4_20  and  C1_1 
REMARK    2  A    between atoms: C2_2  and  O2_7 
REMARK    3  A    between atoms: C3_3  and  O3_8 
REMARK    4  A    between atoms: C4_4  and  O4_9 
REMARK    5  A    between atoms: C5_5  and  C6_6 
REMARK    6  A    between atoms: C6_6  and  O6_11 
REMARK    7  A    between atoms: O4_31  and  C1_12 
REMARK    8  A    between atoms: C2_13  and  O2_18 
REMARK    9  A    between atoms: C3_14  and  O3_19 
REMARK   10  A    between atoms: C4_15  and  O4_20 
REMARK   11  A    between atoms: C5_16  and  C6_17 
REMARK   12  A    between atoms: C6_17  and  O6_22 
REMARK   13  A    between atoms: C2_23  and  O2_29 
REMARK   14  A    between atoms: C3_24  and  O3_30 
REMARK   15  A    between atoms: C4_25  and  O4_31 
REMARK   16  A    between atoms: C5_26  and  C6_27 
REMARK   17  A    between atoms: C6_27  and  O6_33 
REMARK   18  A    between atoms: C1_28  and  O_34 
REMARK   19  A    between atoms: O_34  and  C1_35 
REMARK   20  A    between atoms: C1_35  and  C2_36 
REMARK   21  A    between atoms: C2_36  and  C3_37 
ROOT
ATOM      1  H12 GLA d   1     -23.602  12.565  45.605  0.00  0.00     0.133 H 
ATOM      2  H13 GLA d   1     -21.411  11.531  43.717  0.00  0.00     0.094 H 
ATOM      3  H14 GLA d   1     -24.261  12.557  43.172  0.00  0.00     0.091 H 
ATOM      4  H15 GLA d   1     -24.725  10.212  42.456  0.00  0.00     0.091 H 
ATOM      5  H16 GLA d   1     -25.126  11.060  44.799  0.00  0.00     0.090 H 
ATOM      6  C1  GAL d   1     -22.764  11.901  45.347  0.00  0.00     0.159 C 
ATOM      7  C2  GAL d   1     -22.278  12.166  43.951  0.00  0.00     0.110 C 
ATOM      8  C3  GAL d   1     -23.422  11.876  42.969  0.00  0.00     0.092 C 
ATOM      9  C4  GAL d   1     -23.900  10.436  43.148  0.00  0.00     0.096 C 
ATOM     10  C5  GAL d   1     -24.361  10.298  44.589  0.00  0.00     0.089 C 
ATOM     11  O5  GAL d   1     -23.200  10.531  45.410  0.00  0.00    -0.348 OA
ENDROOT
BRANCH   6  12
ATOM     12  O4  BGC d   1     -21.618  12.178  46.222  0.00  0.00    -0.348 OA
BRANCH  12  13
ATOM     13  C4  BGC d   1     -21.642  12.580  47.641  0.00  0.00     0.096 C 
ATOM     14  C3  BGC d   1     -22.770  13.513  48.029  0.00  0.00     0.092 C 
ATOM     15  C2  BGC d   1     -22.560  14.004  49.453  0.00  0.00     0.110 C 
ATOM     16  H23 GLA d   1     -23.727  12.975  47.959  0.00  0.00     0.091 H 
ATOM     17  C1  BGC d   1     -21.667  13.089  50.347  0.00  0.00     0.158 C 
ATOM     18  H22 GLA d   1     -22.068  14.986  49.392  0.00  0.00     0.094 H 
ATOM     19  O5  BGC d   1     -21.609  11.692  49.946  0.00  0.00    -0.348 OA
ATOM     20  H28 GLA d   1     -22.081  13.120  51.365  0.00  0.00     0.133 H 
ATOM     21  C5  BGC d   1     -21.674  11.354  48.463  0.00  0.00     0.089 C 
ATOM     22  H25 GLA d   1     -22.598  10.795  48.255  0.00  0.00     0.090 H 
ATOM     23  H24 GLA d   1     -20.701  13.111  47.849  0.00  0.00     0.091 H 
BRANCH  14  24
ATOM     24  O3  BGC d   1     -22.796  14.661  47.155  0.00  0.00    -0.390 OA
ATOM     25  H30 GLA d   1     -22.926  14.373  46.259  0.00  0.00     0.210 HD
ENDBRANCH  14  24
BRANCH  15  26
ATOM     26  O2  BGC d   1     -23.855  14.173  50.099  0.00  0.00    -0.388 OA
ATOM     27  H29 GLA d   1     -24.406  14.729  49.561  0.00  0.00     0.210 HD
ENDBRANCH  15  26
BRANCH  17  28
ATOM     28  O   GLA d   1     -20.332  13.626  50.378  0.00  0.00    -0.359 OA
BRANCH  28  29
ATOM     29  C1  GLA d   1     -20.140  14.631  51.399  0.00  0.00     0.022 C 
ATOM     30  H32 GLA d   1     -21.107  15.095  51.642  0.00  0.00     0.074 H 
ATOM     31  H33 GLA d   1     -19.447  15.401  51.029  0.00  0.00     0.074 H 
BRANCH  29  32
ATOM     32  C2  GLA d   1     -19.555  13.983  52.660  0.00  0.00    -0.048 C 
ATOM     33  H34 GLA d   1     -19.189  12.975  52.416  0.00  0.00     0.035 H 
ATOM     34  H35 GLA d   1     -20.336  13.913  53.431  0.00  0.00     0.035 H 
BRANCH  32  35
ATOM     35  C3  GLA d   1     -18.391  14.834  53.189  0.00  0.00    -0.075 C 
ATOM     36  H36 GLA d   1     -17.975  14.365  54.093  0.00  0.00     0.027 H 
ATOM     37  H37 GLA d   1     -18.756  15.842  53.434  0.00  0.00     0.027 H 
ATOM     38  H38 GLA d   1     -17.608  14.904  52.419  0.00  0.00     0.027 H 
ENDBRANCH  32  35
ENDBRANCH  29  32
ENDBRANCH  28  29
ENDBRANCH  17  28
BRANCH  21  39
ATOM     39  C6  BGC d   1     -20.481  10.523  48.105  0.00  0.00     0.043 C 
ATOM     40  H26 GLA d   1     -19.702  10.605  48.877  0.00  0.00     0.078 H 
ATOM     41  H27 GLA d   1     -20.068  10.831  47.133  0.00  0.00     0.078 H 
BRANCH  39  42
ATOM     42  O6  BGC d   1     -20.989   9.199  48.040  0.00  0.00    -0.398 OA
ATOM     43  H31 GLA d   1     -20.285   8.602  47.815  0.00  0.00     0.209 HD
ENDBRANCH  39  42
ENDBRANCH  21  39
ENDBRANCH  12  13
ENDBRANCH   6  12
BRANCH   7  44
ATOM     44  O2  GAL d   1     -21.915  13.539  43.884  0.00  0.00    -0.388 OA
ATOM     45  H19 GLA d   1     -21.207  13.708  44.495  0.00  0.00     0.210 HD
ENDBRANCH   7  44
BRANCH   8  46
ATOM     46  O3  GAL d   1     -22.952  12.101  41.665  0.00  0.00    -0.390 OA
ATOM     47  H20 GLA d   1     -22.663  13.002  41.585  0.00  0.00     0.210 HD
ENDBRANCH   8  46
BRANCH  10  48
ATOM     48  C6  GAL d   1     -24.944   8.932  44.897  0.00  0.00     0.043 C 
ATOM     49  H17 GLA d   1     -24.209   8.151  44.652  0.00  0.00     0.078 H 
ATOM     50  H18 GLA d   1     -25.857   8.776  44.304  0.00  0.00     0.078 H 
BRANCH  48  51
ATOM     51  O6  GAL d   1     -25.267   8.878  46.331  0.00  0.00    -0.398 OA
ATOM     52  H21 GLA d   1     -24.476   9.016  46.838  0.00  0.00     0.209 HD
ENDBRANCH  48  51
ENDBRANCH  10  48
BRANCH   9  53
ATOM     53  O4  GAL d   1     -22.777   9.531  42.903  0.00  0.00    -0.348 OA
BRANCH  53  54
ATOM     54  C1  GLA d   1     -22.995   8.706  41.784  0.00  0.00     0.159 C 
ATOM     55  C2  GLA d   1     -22.028   7.474  41.916  0.00  0.00     0.110 C 
ATOM     56  C3  GLA d   1     -20.541   7.900  41.590  0.00  0.00     0.092 C 
ATOM     57  H2  GLA d   1     -22.340   6.728  41.170  0.00  0.00     0.094 H 
ATOM     58  C4  GLA d   1     -20.492   8.509  40.203  0.00  0.00     0.090 C 
ATOM     59  H3  GLA d   1     -20.209   8.650  42.323  0.00  0.00     0.091 H 
ATOM     60  C5  GLA d   1     -21.517   9.626  40.155  0.00  0.00     0.089 C 
ATOM     61  H4  GLA d   1     -19.489   8.917  40.010  0.00  0.00     0.091 H 
ATOM     62  O5  GLA d   1     -22.863   9.094  40.430  0.00  0.00    -0.348 OA
ATOM     63  H5  GLA d   1     -21.262  10.402  40.891  0.00  0.00     0.090 H 
ATOM     64  H1  GLA d   1     -24.035   8.363  41.888  0.00  0.00     0.133 H 
BRANCH  55  65
ATOM     65  O2  GLA d   1     -22.088   6.854  43.191  0.00  0.00    -0.388 OA
ATOM     66  H8  GLA d   1     -21.534   6.082  43.193  0.00  0.00     0.210 HD
ENDBRANCH  55  65
BRANCH  56  67
ATOM     67  O3  GLA d   1     -19.694   6.767  41.676  0.00  0.00    -0.390 OA
ATOM     68  H9  GLA d   1     -19.975   6.114  41.045  0.00  0.00     0.210 HD
ENDBRANCH  56  67
BRANCH  58  69
ATOM     69  O4  GLA d   1     -20.803   7.480  39.191  0.00  0.00    -0.390 OA
ATOM     70  H10 GLA d   1     -20.153   6.789  39.234  0.00  0.00     0.210 HD
ENDBRANCH  58  69
BRANCH  60  71
ATOM     71  C6  GLA d   1     -21.520  10.208  38.751  0.00  0.00     0.043 C 
ATOM     72  H6  GLA d   1     -21.866   9.454  38.028  0.00  0.00     0.078 H 
ATOM     73  H7  GLA d   1     -20.509  10.543  38.476  0.00  0.00     0.078 H 
BRANCH  71  74
ATOM     74  O6  GLA d   1     -22.418  11.319  38.773  0.00  0.00    -0.398 OA
ATOM     75  H11 GLA d   1     -22.113  11.959  39.405  0.00  0.00     0.209 HD
ENDBRANCH  71  74
ENDBRANCH  60  71
ENDBRANCH  53  54
ENDBRANCH   9  53
TORSDOF 21
