REMARK  7 active torsions:
REMARK  status: ('A' for Active; 'I' for Inactive)
REMARK    1  A    between atoms: C1_3  and  N_23 
REMARK    2  A    between atoms: C2_4  and  O1_25 
REMARK    3  A    between atoms: O1_25  and  C3_5 
REMARK    4  A    between atoms: S_26  and  C6_8 
REMARK    5  A    between atoms: C14_20  and  C15_19 
REMARK    6  A    between atoms: C_21  and  C14_20 
REMARK       I    between atoms: N_23  and  C_21 
REMARK    7  A    between atoms: N1_29  and  S_26 
ROOT
ATOM      1  C1  5WJ d   1     169.858 -10.016  32.063  0.00  0.00     0.070 A 
ATOM      2  C2  5WJ d   1     170.144  -8.675  31.695  0.00  0.00     0.095 A 
ATOM      3  C4  5WJ d   1     169.089  -7.777  31.502  0.00  0.00    -0.047 A 
ATOM      4  C5  5WJ d   1     167.771  -8.192  31.678  0.00  0.00    -0.058 A 
ATOM      5  C6  5WJ d   1     167.438  -9.497  32.044  0.00  0.00     0.082 A 
ATOM      6  C13 5WJ d   1     168.507 -10.412  32.211  0.00  0.00    -0.032 A 
ATOM      7  H8  5WJ d   1     169.298  -6.753  31.214  0.00  0.00     0.087 H 
ATOM      8  H9  5WJ d   1     166.974  -7.474  31.525  0.00  0.00     0.086 H 
ATOM      9  H18 5WJ d   1     168.284 -11.444  32.459  0.00  0.00     0.089 H 
ENDROOT
BRANCH   1  10
ATOM     10  N   5WJ d   1     170.882 -10.939  32.375  0.00  0.00    -0.325 N 
ATOM     11  C   5WJ d   1     170.895 -12.283  32.045  0.00  0.00     0.224 C 
ATOM     12  O   5WJ d   1     169.997 -12.820  31.391  0.00  0.00    -0.273 OA
ATOM     13  H17 5WJ d   1     171.670 -10.588  32.881  0.00  0.00     0.169 HD
BRANCH  11  14
ATOM     14  C14 5WJ d   1     172.095 -13.109  32.492  0.00  0.00     0.036 C 
ATOM     15  H15 5WJ d   1     172.998 -12.505  32.319  0.00  0.00     0.051 H 
ATOM     16  H16 5WJ d   1     171.983 -13.302  33.569  0.00  0.00     0.051 H 
BRANCH  14  17
ATOM     17  C15 5WJ d   1     172.296 -14.424  31.816  0.00  0.00     0.087 A 
ATOM     18  N2  5WJ d   1     172.005 -15.500  32.520  0.00  0.00    -0.179 NA
ATOM     19  N3  5WJ d   1     172.100 -16.697  31.935  0.00  0.00    -0.111 NA
ATOM     20  C16 5WJ d   1     172.487 -16.941  30.601  0.00  0.00     0.295 A 
ATOM     21  O4  5WJ d   1     172.532 -18.098  30.231  0.00  0.00    -0.264 OA
ATOM     22  C17 5WJ d   1     172.816 -15.736  29.811  0.00  0.00     0.044 A 
ATOM     23  C22 5WJ d   1     172.735 -14.469  30.417  0.00  0.00    -0.015 A 
ATOM     24  C18 5WJ d   1     173.201 -15.867  28.467  0.00  0.00    -0.067 A 
ATOM     25  C21 5WJ d   1     173.058 -13.324  29.670  0.00  0.00    -0.074 A 
ATOM     26  C20 5WJ d   1     173.438 -13.455  28.332  0.00  0.00    -0.082 A 
ATOM     27  H10 5WJ d   1     173.013 -12.343  30.130  0.00  0.00     0.084 H 
ATOM     28  C19 5WJ d   1     173.505 -14.720  27.738  0.00  0.00    -0.082 A 
ATOM     29  H11 5WJ d   1     173.682 -12.573  27.752  0.00  0.00     0.083 H 
ATOM     30  H12 5WJ d   1     173.797 -14.808  26.698  0.00  0.00     0.083 H 
ATOM     31  H13 5WJ d   1     173.261 -16.845  28.004  0.00  0.00     0.085 H 
ATOM     32  H14 5WJ d   1     173.343 -14.469  32.150  0.00  0.00     0.087 H 
ENDBRANCH  14  17
ENDBRANCH  11  14
ENDBRANCH   1  10
BRANCH   2  33
ATOM     33  O1  5WJ d   1     171.451  -8.340  31.555  0.00  0.00    -0.354 OA
BRANCH  33  34
ATOM     34  C3  5WJ d   1     171.764  -6.948  31.430  0.00  0.00     0.010 C 
ATOM     35  H5  5WJ d   1     172.852  -6.825  31.324  0.00  0.00     0.066 H 
ATOM     36  H6  5WJ d   1     171.420  -6.413  32.327  0.00  0.00     0.066 H 
ATOM     37  H7  5WJ d   1     171.261  -6.537  30.542  0.00  0.00     0.066 H 
ENDBRANCH  33  34
ENDBRANCH   2  33
BRANCH   5  38
ATOM     38  S   5WJ d   1     165.846  -9.952  32.376  0.00  0.00     0.260 S 
ATOM     39  O2  5WJ d   1     164.956  -8.933  31.945  0.00  0.00    -0.200 OA
ATOM     40  O3  5WJ d   1     165.765 -10.342  33.758  0.00  0.00    -0.200 OA
BRANCH  38  41
ATOM     41  N1  5WJ d   1     165.625 -11.332  31.493  0.00  0.00    -0.307 N 
ATOM     42  C7  5WJ d   1     165.513 -11.289  30.013  0.00  0.00     0.005 C 
ATOM     43  C8  5WJ d   1     165.775 -12.620  29.294  0.00  0.00    -0.049 C 
ATOM     44  H3  5WJ d   1     166.239 -10.553  29.639  0.00  0.00     0.065 H 
ATOM     45  H4  5WJ d   1     164.494 -10.961  29.759  0.00  0.00     0.065 H 
ATOM     46  C9  5WJ d   1     164.581 -13.572  29.392  0.00  0.00    -0.064 C 
ATOM     47  H25 5WJ d   1     166.652 -13.103  29.750  0.00  0.00     0.035 H 
ATOM     48  H26 5WJ d   1     165.979 -12.416  28.233  0.00  0.00     0.035 H 
ATOM     49  C10 5WJ d   1     164.543 -14.371  30.695  0.00  0.00    -0.064 C 
ATOM     50  H23 5WJ d   1     163.657 -12.980  29.320  0.00  0.00     0.033 H 
ATOM     51  H24 5WJ d   1     164.630 -14.280  28.551  0.00  0.00     0.033 H 
ATOM     52  C11 5WJ d   1     164.345 -13.465  31.908  0.00  0.00    -0.049 C 
ATOM     53  H1  5WJ d   1     163.712 -15.090  30.648  0.00  0.00     0.033 H 
ATOM     54  H2  5WJ d   1     165.493 -14.915  30.807  0.00  0.00     0.033 H 
ATOM     55  C12 5WJ d   1     165.601 -12.635  32.187  0.00  0.00     0.005 C 
ATOM     56  H21 5WJ d   1     164.122 -14.086  32.788  0.00  0.00     0.035 H 
ATOM     57  H22 5WJ d   1     163.501 -12.786  31.715  0.00  0.00     0.035 H 
ATOM     58  H19 5WJ d   1     165.661 -12.451  33.270  0.00  0.00     0.065 H 
ATOM     59  H20 5WJ d   1     166.478 -13.215  31.864  0.00  0.00     0.065 H 
ENDBRANCH  38  41
ENDBRANCH   5  38
TORSDOF 7
