REMARK  5 active torsions:
REMARK  status: ('A' for Active; 'I' for Inactive)
REMARK    1  A    between atoms: C1_1  and  C7_7 
REMARK    2  A    between atoms: C3_3  and  N8_8 
REMARK       I    between atoms: C7_7  and  N9_9 
REMARK       I    between atoms: N8_8  and  C11_11 
REMARK    3  A    between atoms: N9_9  and  C16_16 
REMARK    4  A    between atoms: C11_11  and  C12_12 
REMARK    5  A    between atoms: C21_21  and  C22_22 
ROOT
ATOM      1  C7  3UP d   1      76.444  -2.380 141.512  0.00  0.00     0.256 C 
ATOM      2  N9  3UP d   1      76.091  -1.949 142.743  0.00  0.00    -0.321 N 
ATOM      3  O10 3UP d   1      76.059  -3.445 141.036  0.00  0.00    -0.267 OA
ATOM      4  H5  3UP d   1      76.580  -1.151 143.095  0.00  0.00     0.169 HD
ENDROOT
BRANCH   2   5
ATOM      5  C16 3UP d   1      75.102  -2.508 143.587  0.00  0.00     0.063 A 
ATOM      6  C17 3UP d   1      74.621  -3.812 143.506  0.00  0.00     0.028 A 
ATOM      7  N18 3UP d   1      73.655  -4.314 144.276  0.00  0.00    -0.271 NA
ATOM      8  H9  3UP d   1      75.064  -4.466 142.764  0.00  0.00     0.118 H 
ATOM      9  C19 3UP d   1      73.127  -3.497 145.184  0.00  0.00     0.003 A 
ATOM     10  C20 3UP d   1      73.522  -2.187 145.363  0.00  0.00    -0.053 A 
ATOM     11  H10 3UP d   1      72.340  -3.884 145.821  0.00  0.00     0.114 H 
ATOM     12  C21 3UP d   1      74.529  -1.671 144.554  0.00  0.00     0.004 A 
ATOM     13  H11 3UP d   1      73.055  -1.570 146.122  0.00  0.00     0.087 H 
BRANCH  12  14
ATOM     14  C22 3UP d   1      74.955  -0.253 144.715  0.00  0.00    -0.024 A 
ATOM     15  C23 3UP d   1      74.514   0.727 143.827  0.00  0.00    -0.072 A 
ATOM     16  C24 3UP d   1      74.937   2.039 143.955  0.00  0.00    -0.082 A 
ATOM     17  H12 3UP d   1      73.833   0.459 143.028  0.00  0.00     0.084 H 
ATOM     18  C25 3UP d   1      75.805   2.391 144.969  0.00  0.00    -0.083 A 
ATOM     19  H13 3UP d   1      74.586   2.791 143.258  0.00  0.00     0.083 H 
ATOM     20  C26 3UP d   1      76.252   1.428 145.857  0.00  0.00    -0.082 A 
ATOM     21  H14 3UP d   1      76.135   3.418 145.070  0.00  0.00     0.083 H 
ATOM     22  C27 3UP d   1      75.830   0.117 145.734  0.00  0.00    -0.072 A 
ATOM     23  H15 3UP d   1      76.936   1.703 146.652  0.00  0.00     0.083 H 
ATOM     24  H16 3UP d   1      76.183  -0.629 146.436  0.00  0.00     0.084 H 
ENDBRANCH  12  14
ENDBRANCH   2   5
BRANCH   1  25
ATOM     25  C1  3UP d   1      77.315  -1.459 140.723  0.00  0.00     0.037 A 
ATOM     26  C2  3UP d   1      77.614  -0.162 141.133  0.00  0.00    -0.023 A 
ATOM     27  C3  3UP d   1      78.376   0.638 140.277  0.00  0.00     0.130 A 
ATOM     28  H1  3UP d   1      77.266   0.216 142.088  0.00  0.00     0.090 H 
ATOM     29  N4  3UP d   1      78.830   0.213 139.088  0.00  0.00    -0.243 NA
ATOM     30  C5  3UP d   1      78.536  -1.040 138.725  0.00  0.00     0.005 A 
ATOM     31  C6  3UP d   1      77.793  -1.902 139.498  0.00  0.00    -0.051 A 
ATOM     32  H2  3UP d   1      78.903  -1.396 137.769  0.00  0.00     0.114 H 
ATOM     33  H3  3UP d   1      77.585  -2.909 139.156  0.00  0.00     0.087 H 
BRANCH  27  34
ATOM     34  N8  3UP d   1      78.792   1.957 140.524  0.00  0.00    -0.311 N 
ATOM     35  C11 3UP d   1      78.596   2.743 141.608  0.00  0.00     0.234 C 
ATOM     36  O13 3UP d   1      78.195   2.329 142.689  0.00  0.00    -0.272 OA
ATOM     37  H4  3UP d   1      79.314   2.381 139.784  0.00  0.00     0.170 HD
BRANCH  35  38
ATOM     38  C12 3UP d   1      78.864   4.213 141.373  0.00  0.00     0.056 A 
ATOM     39  C14 3UP d   1      79.940   4.871 142.187  0.00  0.00    -0.089 A 
ATOM     40  C15 3UP d   1      78.525   5.170 142.478  0.00  0.00    -0.089 A 
ATOM     41  H7  3UP d   1      80.997   5.020 142.405  0.00  0.00     0.078 H 
ATOM     42  H8  3UP d   1      77.778   5.700 143.067  0.00  0.00     0.078 H 
ATOM     43  H6  3UP d   1      78.704   4.477 140.317  0.00  0.00     0.067 H 
ENDBRANCH  35  38
ENDBRANCH  27  34
ENDBRANCH   1  25
TORSDOF 5
