REMARK  5 active torsions:
REMARK  status: ('A' for Active; 'I' for Inactive)
REMARK    1  A    between atoms: C10_4  and  N21_23 
REMARK    2  A    between atoms: C14_19  and  C15_5 
REMARK    3  A    between atoms: C2_11  and  C1_10 
REMARK    4  A    between atoms: C2_11  and  C3_12 
REMARK    5  A    between atoms: N13_18  and  C14_19 
ROOT
ATOM      1  C5  5VS d   1      27.571  75.942  26.111  0.00  0.00     0.255 C 
ATOM      2  C7  5VS d   1      26.778  76.172  27.355  0.00  0.00     0.058 A 
ATOM      3  C8  5VS d   1      25.871  75.211  27.838  0.00  0.00    -0.063 A 
ATOM      4  C10 5VS d   1      25.279  76.679  29.648  0.00  0.00     0.046 A 
ATOM      5  C2  5VS d   1      28.913  77.924  26.581  0.00  0.00     0.101 C 
ATOM      6  N4  5VS d   1      28.536  76.790  25.760  0.00  0.00    -0.331 N 
ATOM      7  O6  5VS d   1      27.365  75.035  25.341  0.00  0.00    -0.268 OA
ATOM      8  C9  5VS d   1      25.129  75.471  28.966  0.00  0.00    -0.055 A 
ATOM      9  C11 5VS d   1      26.202  77.628  29.186  0.00  0.00    -0.030 A 
ATOM     10  C12 5VS d   1      26.946  77.400  28.042  0.00  0.00     0.050 A 
ATOM     11  N13 5VS d   1      27.852  78.346  27.525  0.00  0.00    -0.350 N 
ATOM     12  H1  5VS d   1      25.757  74.265  27.321  0.00  0.00     0.085 H 
ATOM     13  H11 5VS d   1      29.019  76.639  24.898  0.00  0.00     0.165 HD
ATOM     14  H12 5VS d   1      24.423  74.733  29.328  0.00  0.00     0.087 H 
ATOM     15  H13 5VS d   1      26.335  78.554  29.733  0.00  0.00     0.090 H 
ENDROOT
BRANCH   4  16
ATOM     16  N21 5VS d   1      24.565  76.952  30.825  0.00  0.00    -0.261 N 
ATOM     17  C22 5VS d   1      24.077  78.213  31.223  0.00  0.00     0.090 A 
ATOM     18  C23 5VS d   1      24.098  79.466  30.651  0.00  0.00    -0.051 A 
ATOM     19  C27 5VS d   1      23.455  78.040  32.479  0.00  0.00     0.158 A 
ATOM     20  C24 5VS d   1      23.498  80.535  31.335  0.00  0.00    -0.064 A 
ATOM     21  H19 5VS d   1      24.570  79.624  29.688  0.00  0.00     0.087 H 
ATOM     22  C25 5VS d   1      22.899  80.308  32.577  0.00  0.00     0.005 A 
ATOM     23  H4  5VS d   1      23.499  81.529  30.903  0.00  0.00     0.085 H 
ATOM     24  N26 5VS d   1      22.894  79.079  33.111  0.00  0.00    -0.241 NA
ATOM     25  H20 5VS d   1      22.436  81.130  33.111  0.00  0.00     0.114 H 
ATOM     26  N28 5VS d   1      23.571  76.681  32.803  0.00  0.00    -0.291 N 
ATOM     27  C30 5VS d   1      24.240  76.059  31.805  0.00  0.00     0.333 A 
ATOM     28  H21 5VS d   1      23.219  76.245  33.631  0.00  0.00     0.172 HD
ATOM     29  O31 5VS d   1      24.501  74.868  31.794  0.00  0.00    -0.246 OA
ENDBRANCH   4  16
BRANCH  11  30
ATOM     30  C14 5VS d   1      27.970  79.726  28.014  0.00  0.00     0.021 C 
ATOM     31  H14 5VS d   1      28.305  79.670  29.060  0.00  0.00     0.071 H 
ATOM     32  H15 5VS d   1      28.744  80.219  27.407  0.00  0.00     0.071 H 
BRANCH  30  33
ATOM     33  C15 5VS d   1      26.753  80.615  27.986  0.00  0.00    -0.040 A 
ATOM     34  C20 5VS d   1      25.703  80.385  27.135  0.00  0.00    -0.075 A 
ATOM     35  C19 5VS d   1      24.602  81.236  27.145  0.00  0.00    -0.082 A 
ATOM     36  H3  5VS d   1      25.730  79.541  26.455  0.00  0.00     0.084 H 
ATOM     37  C18 5VS d   1      24.582  82.316  28.017  0.00  0.00    -0.083 A 
ATOM     38  H18 5VS d   1      23.767  81.057  26.477  0.00  0.00     0.083 H 
ATOM     39  C17 5VS d   1      25.635  82.546  28.884  0.00  0.00    -0.082 A 
ATOM     40  H17 5VS d   1      23.731  82.987  28.018  0.00  0.00     0.083 H 
ATOM     41  C16 5VS d   1      26.732  81.693  28.870  0.00  0.00    -0.075 A 
ATOM     42  H2  5VS d   1      25.605  83.385  29.569  0.00  0.00     0.083 H 
ATOM     43  H16 5VS d   1      27.565  81.865  29.542  0.00  0.00     0.084 H 
ENDBRANCH  30  33
ENDBRANCH  11  30
BRANCH   5  44
ATOM     44  C1  5VS d   1      30.124  77.407  27.308  0.00  0.00    -0.036 C 
ATOM     45  H5  5VS d   1      30.889  77.104  26.578  0.00  0.00     0.033 H 
ATOM     46  H6  5VS d   1      29.840  76.540  27.923  0.00  0.00     0.033 H 
ATOM     47  H7  5VS d   1      30.529  78.199  27.955  0.00  0.00     0.033 H 
ENDBRANCH   5  44
BRANCH   5  48
ATOM     48  C3  5VS d   1      29.340  79.122  25.680  0.00  0.00    -0.036 C 
ATOM     49  H8  5VS d   1      28.461  79.508  25.143  0.00  0.00     0.033 H 
ATOM     50  H9  5VS d   1      30.094  78.784  24.954  0.00  0.00     0.033 H 
ATOM     51  H10 5VS d   1      29.766  79.919  26.307  0.00  0.00     0.033 H 
ENDBRANCH   5  48
TORSDOF 5
