REMARK  8 active torsions:
REMARK  status: ('A' for Active; 'I' for Inactive)
REMARK    1  A    between atoms: SAI_2  and  OAH_5 
REMARK    2  A    between atoms: OAH_5  and  NAG_6 
REMARK    3  A    between atoms: NAG_6  and  CAE_7 
REMARK    4  A    between atoms: N_11  and  CAM_12 
REMARK    5  A    between atoms: CAM_12  and  OAN_13 
REMARK    6  A    between atoms: CA_14  and  C_15 
REMARK       I    between atoms: C_15  and  NAQ_17 
REMARK    7  A    between atoms: NAQ_17  and  NAR_18 
REMARK       I    between atoms: NAR_18  and  CAS_19 
REMARK    8  A    between atoms: CAS_19  and  CAT_21 
ROOT
ATOM      1  CAE 5VR d   1      27.066  -4.451  22.651  0.00  0.00     0.154 C 
ATOM      2  CAF 5VR d   1      28.374  -4.172  21.945  0.00  0.00    -0.032 C 
ATOM      3  CB  5VR d   1      28.233  -4.284  20.448  0.00  0.00    -0.028 C 
ATOM      4  CAD 5VR d   1      26.700  -5.876  22.282  0.00  0.00     0.116 C 
ATOM      5  N   5VR d   1      26.518  -5.859  20.841  0.00  0.00    -0.035 N 
ATOM      6  CA  5VR d   1      27.728  -5.605  20.074  0.00  0.00     0.183 C 
ATOM      7  H3  5VR d   1      27.207  -4.372  23.739  0.00  0.00     0.091 H 
ATOM      8  H4  5VR d   1      29.126  -4.898  22.288  0.00  0.00     0.036 H 
ATOM      9  H5  5VR d   1      28.705  -3.154  22.197  0.00  0.00     0.036 H 
ATOM     10  H6  5VR d   1      29.216  -4.127  19.980  0.00  0.00     0.036 H 
ATOM     11  H7  5VR d   1      27.531  -3.515  20.093  0.00  0.00     0.036 H 
ATOM     12  H8  5VR d   1      25.770  -6.178  22.785  0.00  0.00     0.079 H 
ATOM     13  H9  5VR d   1      27.509  -6.567  22.561  0.00  0.00     0.079 H 
ATOM     14  H10 5VR d   1      26.570  -6.862  20.753  0.00  0.00     0.283 HD
ATOM     15  H14 5VR d   1      27.445  -5.589  19.011  0.00  0.00     0.100 H 
ENDROOT
BRANCH   6  16
ATOM     16  C   5VR d   1      28.852  -6.626  20.225  0.00  0.00     0.267 C 
ATOM     17  O   5VR d   1      28.809  -7.548  20.992  0.00  0.00    -0.269 OA
ATOM     18  NAQ 5VR d   1      29.874  -6.387  19.413  0.00  0.00    -0.266 N 
ATOM     19  H15 5VR d   1      29.798  -5.620  18.775  0.00  0.00     0.190 HD
BRANCH  18  20
ATOM     20  NAR 5VR d   1      31.037  -7.133  19.395  0.00  0.00    -0.268 N 
ATOM     21  CAS 5VR d   1      31.107  -8.335  18.830  0.00  0.00     0.232 C 
ATOM     22  OAU 5VR d   1      30.170  -8.856  18.313  0.00  0.00    -0.272 OA
ATOM     23  H16 5VR d   1      31.858  -6.755  19.823  0.00  0.00     0.190 HD
BRANCH  21  24
ATOM     24  CAT 5VR d   1      32.448  -9.006  18.903  0.00  0.00    -0.001 C 
ATOM     25  H17 5VR d   1      32.394  -9.987  18.409  0.00  0.00     0.040 H 
ATOM     26  H18 5VR d   1      32.733  -9.141  19.957  0.00  0.00     0.040 H 
ATOM     27  H19 5VR d   1      33.199  -8.381  18.397  0.00  0.00     0.040 H 
ENDBRANCH  21  24
ENDBRANCH  18  20
ENDBRANCH   6  16
BRANCH   5  28
ATOM     28  CAM 5VR d   1      25.211  -5.790  20.178  0.00  0.00     0.164 C 
ATOM     29  H11 5VR d   1      24.536  -5.191  20.807  0.00  0.00     0.118 H 
ATOM     30  H12 5VR d   1      24.816  -6.813  20.087  0.00  0.00     0.118 H 
BRANCH  28  31
ATOM     31  OAN 5VR d   1      25.238  -5.310  19.108  0.00  0.00    -0.374 OA
ATOM     32  H13 5VR d   1      25.809  -5.822  18.547  0.00  0.00     0.211 HD
ENDBRANCH  28  31
ENDBRANCH   5  28
BRANCH   1  33
ATOM     33  NAG 5VR d   1      26.038  -3.524  22.252  0.00  0.00     0.061 N 
ATOM     34  H1  5VR d   1      25.956  -3.587  21.249  0.00  0.00     0.316 HD
ATOM     35  H2  5VR d   1      25.179  -3.833  22.680  0.00  0.00     0.316 HD
BRANCH  33  36
ATOM     36  OAH 5VR d   1      26.169  -2.358  22.523  0.00  0.00    -0.054 OA
BRANCH  36  37
ATOM     37  SAI 5VR d   1      25.452  -1.148  21.516  0.00  0.00     0.279 S 
ATOM     38  OAL 5VR d   1      26.025  -1.227  20.351  0.00  0.00    -0.571 OA
ATOM     39  OAJ 5VR d   1      24.113  -1.556  21.521  0.00  0.00    -0.571 OA
ATOM     40  OAK 5VR d   1      25.704   0.045  22.163  0.00  0.00    -0.571 OA
ENDBRANCH  36  37
ENDBRANCH  33  36
ENDBRANCH   1  33
TORSDOF 8
