REMARK  8 active torsions:
REMARK  status: ('A' for Active; 'I' for Inactive)
REMARK    1  A    between atoms: C2_1  and  C24_14 
REMARK    2  A    between atoms: N1_21  and  C2_1 
REMARK       I    between atoms: C3_2  and  N1_21 
REMARK    3  A    between atoms: C4_22  and  C3_2 
REMARK    4  A    between atoms: C13_3  and  C14_4 
REMARK    5  A    between atoms: N12_30  and  C13_3 
REMARK    6  A    between atoms: C24_14  and  C25_15 
REMARK    7  A    between atoms: C27_17  and  O31_31 
REMARK       I    between atoms: C10_28  and  N5_23 
REMARK       I    between atoms: C10_28  and  N12_30 
REMARK    8  A    between atoms: O31_31  and  C32_32 
ROOT
ATOM      1  C4  5VT d   1      16.475  11.850  38.227  0.00  0.00     0.093 C 
ATOM      2  N5  5VT d   1      16.979  12.073  36.888  0.00  0.00    -0.321 N 
ATOM      3  C6  5VT d   1      17.743  11.408  39.003  0.00  0.00    -0.036 C 
ATOM      4  C7  5VT d   1      18.390  11.731  36.729  0.00  0.00     0.000 C 
ATOM      5  C8  5VT d   1      18.644  10.794  37.933  0.00  0.00    -0.048 C 
ATOM      6  C10 5VT d   1      16.093  12.282  35.871  0.00  0.00     0.319 C 
ATOM      7  O11 5VT d   1      14.872  12.233  36.060  0.00  0.00    -0.247 OA
ATOM      8  N12 5VT d   1      16.616  12.504  34.650  0.00  0.00    -0.339 N 
ATOM      9  H19 5VT d   1      15.717  11.053  38.230  0.00  0.00     0.087 H 
ATOM     10  H20 5VT d   1      17.489  10.664  39.773  0.00  0.00     0.036 H 
ATOM     11  H21 5VT d   1      18.232  12.273  39.475  0.00  0.00     0.036 H 
ATOM     12  H22 5VT d   1      19.025  12.628  36.782  0.00  0.00     0.064 H 
ATOM     13  H23 5VT d   1      18.568  11.211  35.776  0.00  0.00     0.064 H 
ATOM     14  H24 5VT d   1      18.347   9.760  37.705  0.00  0.00     0.035 H 
ATOM     15  H25 5VT d   1      19.700  10.813  38.240  0.00  0.00     0.035 H 
ATOM     16  H26 5VT d   1      17.609  12.585  34.562  0.00  0.00     0.164 HD
ENDROOT
BRANCH   1  17
ATOM     17  C3  5VT d   1      15.875  13.103  38.818  0.00  0.00     0.240 C 
ATOM     18  N1  5VT d   1      15.130  12.937  39.894  0.00  0.00    -0.359 N 
ATOM     19  H18 5VT d   1      14.973  12.007  40.225  0.00  0.00     0.162 HD
ATOM     20  O9  5VT d   1      16.075  14.228  38.317  0.00  0.00    -0.271 OA
BRANCH  18  21
ATOM     21  C2  5VT d   1      14.520  14.051  40.629  0.00  0.00    -0.001 C 
ATOM     22  H1  5VT d   1      14.178  14.811  39.911  0.00  0.00     0.064 H 
ATOM     23  H2  5VT d   1      13.660  13.675  41.203  0.00  0.00     0.064 H 
BRANCH  21  24
ATOM     24  C24 5VT d   1      15.534  14.693  41.600  0.00  0.00    -0.026 C 
ATOM     25  H12 5VT d   1      16.455  14.950  41.056  0.00  0.00     0.042 H 
ATOM     26  H13 5VT d   1      15.771  13.985  42.407  0.00  0.00     0.042 H 
BRANCH  24  27
ATOM     27  C25 5VT d   1      14.917  15.963  42.195  0.00  0.00    -0.057 A 
ATOM     28  C26 5VT d   1      15.137  17.213  41.607  0.00  0.00    -0.074 A 
ATOM     29  C29 5VT d   1      14.536  18.366  42.160  0.00  0.00    -0.050 A 
ATOM     30  H14 5VT d   1      15.767  17.297  40.729  0.00  0.00     0.084 H 
ATOM     31  C27 5VT d   1      13.711  18.257  43.296  0.00  0.00     0.068 A 
ATOM     32  H16 5VT d   1      14.710  19.336  41.709  0.00  0.00     0.087 H 
ATOM     33  C28 5VT d   1      13.487  17.005  43.880  0.00  0.00    -0.050 A 
ATOM     34  C30 5VT d   1      14.091  15.868  43.317  0.00  0.00    -0.074 A 
ATOM     35  H15 5VT d   1      12.855  16.913  44.756  0.00  0.00     0.087 H 
ATOM     36  H17 5VT d   1      13.912  14.896  43.763  0.00  0.00     0.084 H 
BRANCH  31  37
ATOM     37  O31 5VT d   1      13.100  19.403  43.860  0.00  0.00    -0.356 OA
BRANCH  37  38
ATOM     38  C32 5VT d   1      12.388  19.421  45.112  0.00  0.00     0.010 C 
ATOM     39  H27 5VT d   1      12.018  20.438  45.309  0.00  0.00     0.066 H 
ATOM     40  H28 5VT d   1      13.065  19.114  45.923  0.00  0.00     0.066 H 
ATOM     41  H29 5VT d   1      11.538  18.725  45.060  0.00  0.00     0.066 H 
ENDBRANCH  37  38
ENDBRANCH  31  37
ENDBRANCH  24  27
ENDBRANCH  21  24
ENDBRANCH  18  21
ENDBRANCH   1  17
BRANCH   8  42
ATOM     42  C13 5VT d   1      15.801  12.630  33.456  0.00  0.00     0.021 C 
ATOM     43  H3  5VT d   1      16.229  11.977  32.681  0.00  0.00     0.071 H 
ATOM     44  H4  5VT d   1      14.784  12.291  33.700  0.00  0.00     0.071 H 
BRANCH  42  45
ATOM     45  C14 5VT d   1      15.703  14.055  32.879  0.00  0.00    -0.029 A 
ATOM     46  C17 5VT d   1      16.163  15.156  33.614  0.00  0.00    -0.074 A 
ATOM     47  C16 5VT d   1      16.069  16.460  33.072  0.00  0.00    -0.082 A 
ATOM     48  H7  5VT d   1      16.591  15.009  34.599  0.00  0.00     0.084 H 
ATOM     49  C15 5VT d   1      15.550  16.657  31.791  0.00  0.00    -0.072 A 
ATOM     50  H6  5VT d   1      16.402  17.311  33.655  0.00  0.00     0.083 H 
ATOM     51  C18 5VT d   1      15.119  15.551  31.025  0.00  0.00    -0.025 A 
ATOM     52  H5  5VT d   1      15.478  17.659  31.384  0.00  0.00     0.084 H 
ATOM     53  C19 5VT d   1      15.186  14.238  31.582  0.00  0.00    -0.018 A 
ATOM     54  C23 5VT d   1      14.542  15.769  29.762  0.00  0.00    -0.072 A 
ATOM     55  C20 5VT d   1      14.703  13.182  30.790  0.00  0.00    -0.072 A 
ATOM     56  C21 5VT d   1      14.147  13.395  29.523  0.00  0.00    -0.082 A 
ATOM     57  H8  5VT d   1      14.763  12.170  31.173  0.00  0.00     0.084 H 
ATOM     58  C22 5VT d   1      14.095  14.690  29.004  0.00  0.00    -0.082 A 
ATOM     59  H9  5VT d   1      13.760  12.561  28.949  0.00  0.00     0.083 H 
ATOM     60  H10 5VT d   1      13.705  14.856  28.006  0.00  0.00     0.083 H 
ATOM     61  H11 5VT d   1      14.445  16.778  29.378  0.00  0.00     0.084 H 
ENDBRANCH  42  45
ENDBRANCH   8  42
TORSDOF 8
