REMARK  6 active torsions:
REMARK  status: ('A' for Active; 'I' for Inactive)
REMARK    1  A    between atoms: SAI_2  and  OAH_5 
REMARK    2  A    between atoms: OAH_5  and  NAG_6 
REMARK    3  A    between atoms: NAG_6  and  CAE_7 
REMARK       I    between atoms: N_11  and  CAP_12 
REMARK    4  A    between atoms: CA_14  and  C_15 
REMARK       I    between atoms: C_15  and  NAN_17 
REMARK    5  A    between atoms: NAN_17  and  OAR_18 
REMARK    6  A    between atoms: OAR_18  and  CAS_19 
ROOT
ATOM      1  CAE 5VW d   1     -14.470 -15.224  38.250  0.00  0.00     0.147 C 
ATOM      2  CAF 5VW d   1     -14.678 -16.420  39.181  0.00  0.00    -0.032 C 
ATOM      3  CB  5VW d   1     -13.920 -16.252  40.491  0.00  0.00    -0.036 C 
ATOM      4  CAD 5VW d   1     -12.973 -14.978  38.009  0.00  0.00     0.027 C 
ATOM      5  N   5VW d   1     -12.535 -14.749  39.372  0.00  0.00    -0.344 N 
ATOM      6  CAP 5VW d   1     -12.194 -13.520  39.771  0.00  0.00     0.171 C 
ATOM      7  OAQ 5VW d   1     -11.818 -13.319  40.937  0.00  0.00    -0.284 OA
ATOM      8  CA  5VW d   1     -12.473 -15.861  40.287  0.00  0.00     0.093 C 
ATOM      9  H3  5VW d   1     -14.960 -15.430  37.287  0.00  0.00     0.091 H 
ATOM     10  H4  5VW d   1     -14.322 -17.330  38.677  0.00  0.00     0.036 H 
ATOM     11  H5  5VW d   1     -15.751 -16.519  39.400  0.00  0.00     0.036 H 
ATOM     12  H6  5VW d   1     -13.952 -17.205  41.040  0.00  0.00     0.036 H 
ATOM     13  H7  5VW d   1     -14.415 -15.470  41.085  0.00  0.00     0.036 H 
ATOM     14  H8  5VW d   1     -12.801 -14.098  37.371  0.00  0.00     0.067 H 
ATOM     15  H9  5VW d   1     -12.481 -15.855  37.564  0.00  0.00     0.067 H 
ATOM     16  H10 5VW d   1     -12.246 -12.689  39.069  0.00  0.00     0.180 H 
ATOM     17  H11 5VW d   1     -12.034 -15.537  41.242  0.00  0.00     0.087 H 
ENDROOT
BRANCH   8  18
ATOM     18  C   5VW d   1     -11.646 -16.999  39.748  0.00  0.00     0.264 C 
ATOM     19  O   5VW d   1     -11.738 -17.313  38.591  0.00  0.00    -0.269 OA
ATOM     20  NAN 5VW d   1     -10.750 -17.708  40.612  0.00  0.00    -0.233 N 
ATOM     21  H12 5VW d   1     -10.672 -17.448  41.575  0.00  0.00     0.197 HD
BRANCH  20  22
ATOM     22  OAR 5VW d   1      -9.985 -18.763  40.108  0.00  0.00    -0.271 OA
BRANCH  22  23
ATOM     23  CAS 5VW d   1      -8.652 -18.742  40.707  0.00  0.00     0.090 C 
ATOM     24  CAW 5VW d   1      -8.772 -18.819  42.170  0.00  0.00    -0.015 C 
ATOM     25  CAV 5VW d   1      -8.221 -20.223  42.556  0.00  0.00     0.084 C 
ATOM     26  H14 5VW d   1      -9.824 -18.721  42.476  0.00  0.00     0.039 H 
ATOM     27  H15 5VW d   1      -8.176 -18.027  42.647  0.00  0.00     0.039 H 
ATOM     28  NAU 5VW d   1      -7.308 -20.567  41.400  0.00  0.00    -0.073 N 
ATOM     29  H16 5VW d   1      -9.037 -20.956  42.646  0.00  0.00     0.075 H 
ATOM     30  H17 5VW d   1      -7.661 -20.180  43.502  0.00  0.00     0.075 H 
ATOM     31  CAT 5VW d   1      -7.870 -19.904  40.218  0.00  0.00     0.107 C 
ATOM     32  H18 5VW d   1      -7.282 -21.565  41.261  0.00  0.00     0.277 HD
ATOM     33  H19 5VW d   1      -6.376 -20.229  41.579  0.00  0.00     0.277 HD
ATOM     34  H20 5VW d   1      -7.061 -19.564  39.555  0.00  0.00     0.079 H 
ATOM     35  H21 5VW d   1      -8.525 -20.598  39.671  0.00  0.00     0.079 H 
ATOM     36  H13 5VW d   1      -8.139 -17.810  40.428  0.00  0.00     0.089 H 
ENDBRANCH  22  23
ENDBRANCH  20  22
ENDBRANCH   8  18
BRANCH   1  37
ATOM     37  NAG 5VW d   1     -15.047 -14.069  38.831  0.00  0.00     0.061 N 
ATOM     38  H1  5VW d   1     -14.862 -14.063  39.822  0.00  0.00     0.316 HD
ATOM     39  H2  5VW d   1     -14.646 -13.246  38.410  0.00  0.00     0.316 HD
BRANCH  37  40
ATOM     40  OAH 5VW d   1     -16.409 -14.077  38.619  0.00  0.00    -0.054 OA
BRANCH  40  41
ATOM     41  SAI 5VW d   1     -17.069 -13.375  39.797  0.00  0.00     0.279 S 
ATOM     42  OAL 5VW d   1     -17.039 -11.942  39.719  0.00  0.00    -0.571 OA
ATOM     43  OAJ 5VW d   1     -16.478 -13.675  41.061  0.00  0.00    -0.571 OA
ATOM     44  OAK 5VW d   1     -18.462 -13.695  39.969  0.00  0.00    -0.571 OA
ENDBRANCH  40  41
ENDBRANCH  37  40
ENDBRANCH   1  37
TORSDOF 6
