REMARK  6 active torsions:
REMARK  status: ('A' for Active; 'I' for Inactive)
REMARK    1  A    between atoms: SAI_2  and  OAH_5 
REMARK    2  A    between atoms: OAH_5  and  NAG_6 
REMARK    3  A    between atoms: NAG_6  and  CAE_7 
REMARK       I    between atoms: N_11  and  CAM_12 
REMARK    4  A    between atoms: CA_14  and  C_15 
REMARK       I    between atoms: C_15  and  NAQ_17 
REMARK    5  A    between atoms: NAQ_17  and  NAR_18 
REMARK       I    between atoms: NAR_18  and  CAS_19 
REMARK    6  A    between atoms: CAS_19  and  CAT_21 
ROOT
ATOM      1  CAE 602 d   1      11.734   3.658  23.760  0.00  0.00     0.147 C 
ATOM      2  CAF 602 d   1      10.450   3.371  22.989  0.00  0.00    -0.032 C 
ATOM      3  CB  602 d   1      10.525   3.689  21.497  0.00  0.00    -0.036 C 
ATOM      4  CAD 602 d   1      12.406   4.972  23.406  0.00  0.00     0.027 C 
ATOM      5  N   602 d   1      12.491   4.979  21.965  0.00  0.00    -0.344 N 
ATOM      6  CAM 602 d   1      13.705   4.923  21.343  0.00  0.00     0.171 C 
ATOM      7  OAN 602 d   1      13.686   4.815  20.207  0.00  0.00    -0.284 OA
ATOM      8  CA  602 d   1      11.210   4.985  21.235  0.00  0.00     0.093 C 
ATOM      9  H3  602 d   1      11.403   3.817  24.797  0.00  0.00     0.091 H 
ATOM     10  H4  602 d   1       9.642   3.974  23.429  0.00  0.00     0.036 H 
ATOM     11  H5  602 d   1      10.213   2.303  23.102  0.00  0.00     0.036 H 
ATOM     12  H6  602 d   1       9.503   3.740  21.093  0.00  0.00     0.036 H 
ATOM     13  H7  602 d   1      11.080   2.886  20.990  0.00  0.00     0.036 H 
ATOM     14  H8  602 d   1      13.410   5.024  23.852  0.00  0.00     0.067 H 
ATOM     15  H9  602 d   1      11.803   5.821  23.761  0.00  0.00     0.067 H 
ATOM     16  H10 602 d   1      14.639   4.978  21.900  0.00  0.00     0.180 H 
ATOM     17  H11 602 d   1      11.441   5.077  20.163  0.00  0.00     0.087 H 
ENDROOT
BRANCH   8  18
ATOM     18  C   602 d   1      10.192   6.068  21.591  0.00  0.00     0.259 C 
ATOM     19  O   602 d   1      10.484   7.000  22.303  0.00  0.00    -0.269 OA
ATOM     20  NAQ 602 d   1       8.956   5.931  21.144  0.00  0.00    -0.266 N 
ATOM     21  H12 602 d   1       8.340   5.358  21.684  0.00  0.00     0.190 HD
BRANCH  20  22
ATOM     22  NAR 602 d   1       8.438   6.502  20.007  0.00  0.00    -0.267 N 
ATOM     23  CAS 602 d   1       8.086   7.766  19.835  0.00  0.00     0.243 C 
ATOM     24  OAU 602 d   1       8.653   8.468  19.024  0.00  0.00    -0.271 OA
ATOM     25  H13 602 d   1       8.313   5.895  19.222  0.00  0.00     0.190 HD
BRANCH  23  26
ATOM     26  CAT 602 d   1       6.901   8.253  20.592  0.00  0.00     0.071 C 
ATOM     27  CAV 602 d   1       6.793   9.747  20.979  0.00  0.00     0.095 C 
ATOM     28  NAW 602 d   1       5.366   9.732  20.509  0.00  0.00    -0.073 N 
ATOM     29  H15 602 d   1       7.453  10.414  20.404  0.00  0.00     0.077 H 
ATOM     30  H16 602 d   1       6.915   9.947  22.054  0.00  0.00     0.077 H 
ATOM     31  CAX 602 d   1       5.694   8.533  19.666  0.00  0.00     0.095 C 
ATOM     32  H17 602 d   1       5.092  10.548  19.984  0.00  0.00     0.277 HD
ATOM     33  H18 602 d   1       4.690   9.557  21.236  0.00  0.00     0.277 HD
ATOM     34  H19 602 d   1       4.924   7.748  19.675  0.00  0.00     0.077 H 
ATOM     35  H20 602 d   1       5.965   8.770  18.627  0.00  0.00     0.077 H 
ATOM     36  H14 602 d   1       6.708   7.565  21.429  0.00  0.00     0.059 H 
ENDBRANCH  23  26
ENDBRANCH  20  22
ENDBRANCH   8  18
BRANCH   1  37
ATOM     37  NAG 602 d   1      12.501   2.570  23.832  0.00  0.00     0.061 N 
ATOM     38  H1  602 d   1      13.342   2.802  24.337  0.00  0.00     0.316 HD
ATOM     39  H2  602 d   1      11.997   1.853  24.329  0.00  0.00     0.316 HD
BRANCH  37  40
ATOM     40  OAH 602 d   1      12.826   2.119  22.688  0.00  0.00    -0.054 OA
BRANCH  40  41
ATOM     41  SAI 602 d   1      13.487   0.715  22.649  0.00  0.00     0.279 S 
ATOM     42  OAL 602 d   1      12.775   0.325  21.525  0.00  0.00    -0.571 OA
ATOM     43  OAJ 602 d   1      13.123  -0.007  23.794  0.00  0.00    -0.571 OA
ATOM     44  OAK 602 d   1      14.823   0.859  22.489  0.00  0.00    -0.571 OA
ENDBRANCH  40  41
ENDBRANCH  37  40
ENDBRANCH   1  37
TORSDOF 6
