REMARK  6 active torsions:
REMARK  status: ('A' for Active; 'I' for Inactive)
REMARK    1  A    between atoms: SAI_2  and  OAH_5 
REMARK    2  A    between atoms: OAH_5  and  NAG_6 
REMARK    3  A    between atoms: NAG_6  and  CAE_7 
REMARK       I    between atoms: N_11  and  CAP_12 
REMARK    4  A    between atoms: CA_14  and  C_15 
REMARK       I    between atoms: C_15  and  NAN_17 
REMARK    5  A    between atoms: NAN_17  and  OAR_18 
REMARK    6  A    between atoms: OAR_18  and  CAS_19 
ROOT
ATOM      1  CAE 5VW d   1       7.837  17.140  -1.489  0.00  0.00     0.147 C 
ATOM      2  CAF 5VW d   1       8.357  17.310  -2.867  0.00  0.00    -0.032 C 
ATOM      3  CB  5VW d   1       8.084  18.591  -3.407  0.00  0.00    -0.036 C 
ATOM      4  CAD 5VW d   1       6.344  17.447  -1.456  0.00  0.00     0.027 C 
ATOM      5  N   5VW d   1       6.257  18.779  -1.904  0.00  0.00    -0.344 N 
ATOM      6  CAP 5VW d   1       6.108  19.748  -0.964  0.00  0.00     0.171 C 
ATOM      7  OAQ 5VW d   1       6.206  20.904  -1.267  0.00  0.00    -0.284 OA
ATOM      8  CA  5VW d   1       6.634  18.979  -3.307  0.00  0.00     0.093 C 
ATOM      9  H3  5VW d   1       7.999  16.098  -1.176  0.00  0.00     0.091 H 
ATOM     10  H4  5VW d   1       7.892  16.551  -3.513  0.00  0.00     0.036 H 
ATOM     11  H5  5VW d   1       9.447  17.161  -2.851  0.00  0.00     0.036 H 
ATOM     12  H6  5VW d   1       8.374  18.592  -4.468  0.00  0.00     0.036 H 
ATOM     13  H7  5VW d   1       8.684  19.335  -2.862  0.00  0.00     0.036 H 
ATOM     14  H8  5VW d   1       5.948  17.352  -0.434  0.00  0.00     0.067 H 
ATOM     15  H9  5VW d   1       5.792  16.773  -2.127  0.00  0.00     0.067 H 
ATOM     16  H10 5VW d   1       5.899  19.474   0.069  0.00  0.00     0.180 H 
ATOM     17  H11 5VW d   1       6.555  20.057  -3.513  0.00  0.00     0.087 H 
ENDROOT
BRANCH   8  18
ATOM     18  C   5VW d   1       5.822  18.327  -4.299  0.00  0.00     0.264 C 
ATOM     19  O   5VW d   1       4.651  18.201  -4.096  0.00  0.00    -0.269 OA
ATOM     20  NAN 5VW d   1       6.366  17.989  -5.469  0.00  0.00    -0.233 N 
ATOM     21  H12 5VW d   1       7.346  18.119  -5.618  0.00  0.00     0.197 HD
BRANCH  20  22
ATOM     22  OAR 5VW d   1       5.697  17.538  -6.328  0.00  0.00    -0.271 OA
BRANCH  22  23
ATOM     23  CAS 5VW d   1       5.384  16.174  -6.194  0.00  0.00     0.090 C 
ATOM     24  CAW 5VW d   1       4.516  15.700  -7.294  0.00  0.00    -0.015 C 
ATOM     25  CAV 5VW d   1       5.403  15.093  -8.286  0.00  0.00     0.084 C 
ATOM     26  H14 5VW d   1       3.969  16.545  -7.739  0.00  0.00     0.039 H 
ATOM     27  H15 5VW d   1       3.798  14.956  -6.919  0.00  0.00     0.039 H 
ATOM     28  NAU 5VW d   1       6.729  15.455  -7.855  0.00  0.00    -0.073 N 
ATOM     29  H16 5VW d   1       5.197  15.495  -9.289  0.00  0.00     0.075 H 
ATOM     30  H17 5VW d   1       5.283  14.000  -8.297  0.00  0.00     0.075 H 
ATOM     31  CAT 5VW d   1       6.579  15.300  -6.445  0.00  0.00     0.107 C 
ATOM     32  H18 5VW d   1       6.958  16.404  -8.105  0.00  0.00     0.277 HD
ATOM     33  H19 5VW d   1       7.427  14.831  -8.228  0.00  0.00     0.277 HD
ATOM     34  H20 5VW d   1       6.380  14.253  -6.171  0.00  0.00     0.079 H 
ATOM     35  H21 5VW d   1       7.465  15.659  -5.901  0.00  0.00     0.079 H 
ATOM     36  H13 5VW d   1       4.938  15.992  -5.205  0.00  0.00     0.089 H 
ENDBRANCH  22  23
ENDBRANCH  20  22
ENDBRANCH   8  18
BRANCH   1  37
ATOM     37  NAG 5VW d   1       8.529  18.035  -0.549  0.00  0.00     0.061 N 
ATOM     38  H1  5VW d   1       8.364  18.976  -0.872  0.00  0.00     0.316 HD
ATOM     39  H2  5VW d   1       8.090  17.906   0.349  0.00  0.00     0.316 HD
BRANCH  37  40
ATOM     40  OAH 5VW d   1       9.800  17.927  -0.358  0.00  0.00    -0.054 OA
BRANCH  40  41
ATOM     41  SAI 5VW d   1      10.628  19.142   0.029  0.00  0.00     0.279 S 
ATOM     42  OAL 5VW d   1      12.024  18.836   0.201  0.00  0.00    -0.571 OA
ATOM     43  OAJ 5VW d   1      10.006  19.585   1.271  0.00  0.00    -0.571 OA
ATOM     44  OAK 5VW d   1      10.456  20.340  -0.746  0.00  0.00    -0.571 OA
ENDBRANCH  40  41
ENDBRANCH  37  40
ENDBRANCH   1  37
TORSDOF 6
