REMARK  6 active torsions:
REMARK  status: ('A' for Active; 'I' for Inactive)
REMARK    1  A    between atoms: SAI_2  and  OAH_5 
REMARK    2  A    between atoms: OAH_5  and  NAG_6 
REMARK    3  A    between atoms: NAG_6  and  CAE_7 
REMARK       I    between atoms: N_11  and  CAM_12 
REMARK    4  A    between atoms: CA_14  and  C_15 
REMARK       I    between atoms: C_15  and  NAQ_17 
REMARK    5  A    between atoms: NAQ_17  and  NAR_18 
REMARK       I    between atoms: NAR_18  and  CAS_19 
REMARK    6  A    between atoms: CAS_19  and  CAT_21 
ROOT
ATOM      1  CAE 5VR d   1       7.756  17.083  -1.839  0.00  0.00     0.147 C 
ATOM      2  CAF 5VR d   1       8.202  17.306  -3.274  0.00  0.00    -0.032 C 
ATOM      3  CB  5VR d   1       7.924  18.727  -3.753  0.00  0.00    -0.036 C 
ATOM      4  CAD 5VR d   1       6.289  17.445  -1.640  0.00  0.00     0.027 C 
ATOM      5  N   5VR d   1       6.229  18.862  -2.013  0.00  0.00    -0.344 N 
ATOM      6  CAM 5VR d   1       6.218  19.871  -1.074  0.00  0.00     0.171 C 
ATOM      7  OAN 5VR d   1       6.346  21.026  -1.380  0.00  0.00    -0.284 OA
ATOM      8  CA  5VR d   1       6.514  19.181  -3.417  0.00  0.00     0.093 C 
ATOM      9  H3  5VR d   1       7.930  16.030  -1.571  0.00  0.00     0.091 H 
ATOM     10  H4  5VR d   1       7.664  16.602  -3.925  0.00  0.00     0.036 H 
ATOM     11  H5  5VR d   1       9.283  17.115  -3.342  0.00  0.00     0.036 H 
ATOM     12  H6  5VR d   1       8.058  18.765  -4.844  0.00  0.00     0.036 H 
ATOM     13  H7  5VR d   1       8.640  19.409  -3.272  0.00  0.00     0.036 H 
ATOM     14  H8  5VR d   1       5.988  17.302  -0.592  0.00  0.00     0.067 H 
ATOM     15  H9  5VR d   1       5.643  16.840  -2.293  0.00  0.00     0.067 H 
ATOM     16  H10 5VR d   1       6.090  19.614  -0.024  0.00  0.00     0.180 H 
ATOM     17  H11 5VR d   1       6.475  20.276  -3.520  0.00  0.00     0.087 H 
ENDROOT
BRANCH   8  18
ATOM     18  C   5VR d   1       5.503  18.602  -4.408  0.00  0.00     0.259 C 
ATOM     19  O   5VR d   1       4.682  17.757  -4.060  0.00  0.00    -0.269 OA
ATOM     20  NAQ 5VR d   1       5.832  18.736  -5.698  0.00  0.00    -0.266 N 
ATOM     21  H12 5VR d   1       6.680  19.225  -5.903  0.00  0.00     0.190 HD
BRANCH  20  22
ATOM     22  NAR 5VR d   1       5.100  18.256  -6.780  0.00  0.00    -0.268 N 
ATOM     23  CAS 5VR d   1       3.782  18.437  -6.926  0.00  0.00     0.232 C 
ATOM     24  OAU 5VR d   1       3.184  19.323  -6.315  0.00  0.00    -0.272 OA
ATOM     25  H13 5VR d   1       5.587  17.746  -7.489  0.00  0.00     0.190 HD
BRANCH  23  26
ATOM     26  CAT 5VR d   1       3.171  17.743  -8.111  0.00  0.00    -0.001 C 
ATOM     27  H14 5VR d   1       2.092  17.953  -8.142  0.00  0.00     0.040 H 
ATOM     28  H15 5VR d   1       3.331  16.658  -8.024  0.00  0.00     0.040 H 
ATOM     29  H16 5VR d   1       3.643  18.110  -9.034  0.00  0.00     0.040 H 
ENDBRANCH  23  26
ENDBRANCH  20  22
ENDBRANCH   8  18
BRANCH   1  30
ATOM     30  NAG 5VR d   1       8.473  17.977  -0.909  0.00  0.00     0.061 N 
ATOM     31  H1  5VR d   1       8.235  18.918  -1.180  0.00  0.00     0.316 HD
ATOM     32  H2  5VR d   1       8.102  17.788   0.009  0.00  0.00     0.316 HD
BRANCH  30  33
ATOM     33  OAH 5VR d   1       9.787  17.945  -0.793  0.00  0.00    -0.054 OA
BRANCH  33  34
ATOM     34  SAI 5VR d   1      10.467  19.288  -0.098  0.00  0.00     0.279 S 
ATOM     35  OAL 5VR d   1      10.452  20.390  -0.920  0.00  0.00    -0.571 OA
ATOM     36  OAJ 5VR d   1      11.904  18.909  -0.026  0.00  0.00    -0.571 OA
ATOM     37  OAK 5VR d   1       9.869  19.396   1.239  0.00  0.00    -0.571 OA
ENDBRANCH  33  34
ENDBRANCH  30  33
ENDBRANCH   1  30
TORSDOF 6
