REMARK  6 active torsions:
REMARK  status: ('A' for Active; 'I' for Inactive)
REMARK    1  A    between atoms: SAI_2  and  OAH_5 
REMARK    2  A    between atoms: OAH_5  and  NAG_6 
REMARK    3  A    between atoms: NAG_6  and  CAE_7 
REMARK       I    between atoms: N_11  and  CAM_12 
REMARK    4  A    between atoms: CA_14  and  C_15 
REMARK       I    between atoms: C_15  and  NAQ_17 
REMARK    5  A    between atoms: NAQ_17  and  NAR_18 
REMARK       I    between atoms: NAR_18  and  CAS_19 
REMARK    6  A    between atoms: CAS_19  and  CAT_21 
ROOT
ATOM      1  CAE 602 d   1       7.854  17.018  -1.857  0.00  0.00     0.147 C 
ATOM      2  CAF 602 d   1       8.175  17.144  -3.334  0.00  0.00    -0.032 C 
ATOM      3  CB  602 d   1       8.056  18.593  -3.809  0.00  0.00    -0.036 C 
ATOM      4  CAD 602 d   1       6.415  17.467  -1.660  0.00  0.00     0.027 C 
ATOM      5  N   602 d   1       6.388  18.871  -2.086  0.00  0.00    -0.344 N 
ATOM      6  CAM 602 d   1       6.428  19.901  -1.147  0.00  0.00     0.171 C 
ATOM      7  OAN 602 d   1       6.422  21.059  -1.432  0.00  0.00    -0.284 OA
ATOM      8  CA  602 d   1       6.677  19.136  -3.503  0.00  0.00     0.093 C 
ATOM      9  H3  602 d   1       8.037  15.995  -1.496  0.00  0.00     0.091 H 
ATOM     10  H4  602 d   1       7.473  16.521  -3.907  0.00  0.00     0.036 H 
ATOM     11  H5  602 d   1       9.203  16.794  -3.508  0.00  0.00     0.036 H 
ATOM     12  H6  602 d   1       8.229  18.634  -4.894  0.00  0.00     0.036 H 
ATOM     13  H7  602 d   1       8.810  19.206  -3.294  0.00  0.00     0.036 H 
ATOM     14  H8  602 d   1       6.125  17.379  -0.603  0.00  0.00     0.067 H 
ATOM     15  H9  602 d   1       5.734  16.863  -2.278  0.00  0.00     0.067 H 
ATOM     16  H10 602 d   1       6.467  19.633  -0.092  0.00  0.00     0.180 H 
ATOM     17  H11 602 d   1       6.718  20.228  -3.628  0.00  0.00     0.087 H 
ENDROOT
BRANCH   8  18
ATOM     18  C   602 d   1       5.602  18.635  -4.470  0.00  0.00     0.259 C 
ATOM     19  O   602 d   1       4.675  17.958  -4.049  0.00  0.00    -0.269 OA
ATOM     20  NAQ 602 d   1       5.710  18.905  -5.772  0.00  0.00    -0.266 N 
ATOM     21  H12 602 d   1       6.473  19.488  -6.053  0.00  0.00     0.190 HD
BRANCH  20  22
ATOM     22  NAR 602 d   1       4.860  18.451  -6.775  0.00  0.00    -0.267 N 
ATOM     23  CAS 602 d   1       3.785  17.655  -6.736  0.00  0.00     0.243 C 
ATOM     24  OAU 602 d   1       3.373  17.139  -5.702  0.00  0.00    -0.271 OA
ATOM     25  H13 602 d   1       5.095  18.779  -7.690  0.00  0.00     0.190 HD
BRANCH  23  26
ATOM     26  CAT 602 d   1       3.122  17.388  -8.068  0.00  0.00     0.071 C 
ATOM     27  CAV 602 d   1       3.743  16.179  -8.810  0.00  0.00     0.095 C 
ATOM     28  NAW 602 d   1       4.407  17.171  -9.729  0.00  0.00    -0.073 N 
ATOM     29  H15 602 d   1       3.014  15.517  -9.299  0.00  0.00     0.077 H 
ATOM     30  H16 602 d   1       4.438  15.577  -8.206  0.00  0.00     0.077 H 
ATOM     31  CAX 602 d   1       3.414  18.232  -9.332  0.00  0.00     0.095 C 
ATOM     32  H17 602 d   1       4.366  16.917 -10.704  0.00  0.00     0.277 HD
ATOM     33  H18 602 d   1       5.359  17.387  -9.478  0.00  0.00     0.277 HD
ATOM     34  H19 602 d   1       3.854  19.220  -9.133  0.00  0.00     0.077 H 
ATOM     35  H20 602 d   1       2.561  18.342 -10.018  0.00  0.00     0.077 H 
ATOM     36  H14 602 d   1       2.042  17.294  -7.882  0.00  0.00     0.059 H 
ENDBRANCH  23  26
ENDBRANCH  20  22
ENDBRANCH   8  18
BRANCH   1  37
ATOM     37  NAG 602 d   1       8.584  18.012  -1.092  0.00  0.00     0.061 N 
ATOM     38  H1  602 d   1       8.596  18.852  -1.650  0.00  0.00     0.316 HD
ATOM     39  H2  602 d   1       8.052  18.174  -0.251  0.00  0.00     0.316 HD
BRANCH  37  40
ATOM     40  OAH 602 d   1       9.828  17.796  -0.713  0.00  0.00    -0.054 OA
BRANCH  40  41
ATOM     41  SAI 602 d   1      10.688  19.196  -0.080  0.00  0.00     0.279 S 
ATOM     42  OAL 602 d   1      10.391  20.314  -0.934  0.00  0.00    -0.571 OA
ATOM     43  OAJ 602 d   1      10.074  19.420   1.206  0.00  0.00    -0.571 OA
ATOM     44  OAK 602 d   1      12.067  18.754  -0.112  0.00  0.00    -0.571 OA
ENDBRANCH  40  41
ENDBRANCH  37  40
ENDBRANCH   1  37
TORSDOF 6
