REMARK WARNING: 32 MAX_TORS EXCEEDED!!!
REMARK  52 active torsions:
REMARK  status: ('A' for Active; 'I' for Inactive)
REMARK    1  A    between atoms: N_1  and  CA_2 
REMARK    2  A    between atoms: CA_2  and  C_3 
REMARK    3  A    between atoms: CA_2  and  CB_5 
REMARK       I    between atoms: C_3  and  N_6 
REMARK    4  A    between atoms: N_6  and  CA_7 
REMARK    5  A    between atoms: CA_7  and  C_8 
REMARK    6  A    between atoms: CA_7  and  CB_10 
REMARK       I    between atoms: C_8  and  N_17 
REMARK    7  A    between atoms: CB_10  and  CG_11 
REMARK    8  A    between atoms: CG_11  and  CD_12 
REMARK    9  A    between atoms: CD_12  and  NE_13 
REMARK       I    between atoms: NE_13  and  CZ_14 
REMARK       I    between atoms: CZ_14  and  NH1_15 
REMARK       I    between atoms: CZ_14  and  NH2_16 
REMARK   10  A    between atoms: N_17  and  CA_18 
REMARK   11  A    between atoms: CA_18  and  CB_19 
REMARK   12  A    between atoms: CA_18  and  C_26 
REMARK   13  A    between atoms: CB_19  and  CG2_20 
REMARK   14  A    between atoms: CB_19  and  OG1_21 
REMARK   15  A    between atoms: OG1_21  and  P_22 
REMARK       I    between atoms: C_26  and  N_28 
REMARK   16  A    between atoms: N_28  and  CA_29 
REMARK   17  A    between atoms: CA_29  and  C_30 
REMARK   18  A    between atoms: CA_29  and  CB_32 
REMARK       I    between atoms: C_30  and  N_37 
REMARK   19  A    between atoms: CB_32  and  CG_33 
REMARK   20  A    between atoms: CG_33  and  CD_34 
REMARK   21  A    between atoms: CD_34  and  CE_35 
REMARK   22  A    between atoms: CE_35  and  NZ_36 
REMARK   23  A    between atoms: N_37  and  CA_38 
REMARK   24  A    between atoms: CA_38  and  C_39 
REMARK   25  A    between atoms: CA_38  and  CB_41 
REMARK       I    between atoms: C_39  and  N_46 
REMARK   26  A    between atoms: CB_41  and  CG_42 
REMARK   27  A    between atoms: CG_42  and  CD_43 
REMARK       I    between atoms: CD_43  and  NE2_45 
REMARK   28  A    between atoms: N_46  and  CA_47 
REMARK   29  A    between atoms: CA_47  and  C_48 
REMARK   30  A    between atoms: CA_47  and  CB_50 
REMARK       I    between atoms: C_48  and  N_53 
REMARK   31  A    between atoms: CB_50  and  OG1_51 
REMARK   32  A    between atoms: CB_50  and  CG2_52 
REMARK   33  A    between atoms: N_53  and  CA_54 
REMARK   34  A    between atoms: CA_54  and  C_55 
REMARK   35  A    between atoms: CA_54  and  CB_57 
REMARK       I    between atoms: C_55  and  N_58 
REMARK   36  A    between atoms: N_58  and  CA_59 
REMARK   37  A    between atoms: CA_59  and  C_60 
REMARK   38  A    between atoms: CA_59  and  CB_62 
REMARK       I    between atoms: C_60  and  N_69 
REMARK   39  A    between atoms: CB_62  and  CG_63 
REMARK   40  A    between atoms: CG_63  and  CD_64 
REMARK   41  A    between atoms: CD_64  and  NE_65 
REMARK       I    between atoms: NE_65  and  CZ_66 
REMARK       I    between atoms: CZ_66  and  NH1_67 
REMARK   42  A    between atoms: N_69  and  CA_70 
REMARK   43  A    between atoms: CA_70  and  C_71 
REMARK   44  A    between atoms: CA_70  and  CB_73 
REMARK       I    between atoms: C_71  and  N_78 
REMARK   45  A    between atoms: CB_73  and  CG_74 
REMARK   46  A    between atoms: CG_74  and  CD_75 
REMARK   47  A    between atoms: CD_75  and  CE_76 
REMARK   48  A    between atoms: CE_76  and  NZ_77 
REMARK   49  A    between atoms: N_78  and  CA_79 
REMARK   50  A    between atoms: CA_79  and  C_80 
REMARK   51  A    between atoms: CA_79  and  CB_82 
REMARK   52  A    between atoms: CB_82  and  OG_83 
ROOT
ATOM      1  CA  GLN d   1      28.159  -9.981  -9.903  0.00  0.00     0.090 C 
ATOM      2  H41 GLN d   1      28.283  -9.581  -8.886  0.00  0.00     0.087 H 
ENDROOT
BRANCH   1   3
ATOM      3  N   GLN d   1      26.856 -10.634  -9.995  0.00  0.00    -0.346 N 
ATOM      4  C   LYS d   1      26.118 -10.901  -8.920  0.00  0.00     0.241 C 
ATOM      5  O   LYS d   1      26.464 -10.582  -7.785  0.00  0.00    -0.271 OA
ATOM      6  H40 GLN d   1      26.506 -10.889 -10.896  0.00  0.00     0.163 HD
BRANCH   4   7
ATOM      7  CA  LYS d   1      24.805 -11.646  -9.145  0.00  0.00     0.089 C 
ATOM      8  H28 LYS d   1      25.015 -12.557  -9.724  0.00  0.00     0.087 H 
BRANCH   7   9
ATOM      9  N   LYS d   1      24.239 -12.031  -7.860  0.00  0.00    -0.346 N 
ATOM     10  C   TPO d   1      23.493 -13.121  -7.713  0.00  0.00     0.243 C 
ATOM     11  O   TPO d   1      23.150 -13.839  -8.651  0.00  0.00    -0.271 OA
ATOM     12  H27 LYS d   1      24.418 -11.456  -7.061  0.00  0.00     0.163 HD
BRANCH  10  13
ATOM     13  CA  TPO d   1      23.079 -13.449  -6.288  0.00  0.00     0.114 C 
ATOM     14  H22 TPO d   1      22.791 -12.516  -5.782  0.00  0.00     0.091 H 
BRANCH  13  15
ATOM     15  N   TPO d   1      21.938 -14.352  -6.277  0.00  0.00    -0.344 N 
ATOM     16  C   ARG d   1      20.851 -14.111  -5.553  0.00  0.00     0.241 C 
ATOM     17  O   ARG d   1      20.722 -13.110  -4.846  0.00  0.00    -0.271 OA
ATOM     18  H21 TPO d   1      21.974 -15.182  -6.833  0.00  0.00     0.163 HD
BRANCH  16  19
ATOM     19  CA  ARG d   1      19.743 -15.153  -5.649  0.00  0.00     0.089 C 
ATOM     20  H9  ARG d   1      20.204 -16.128  -5.864  0.00  0.00     0.087 H 
BRANCH  19  21
ATOM     21  N   ARG d   1      19.007 -15.268  -4.394  0.00  0.00    -0.346 N 
ATOM     22  C   ALA d   1      19.525 -15.897  -3.343  0.00  0.00     0.248 C 
ATOM     23  O   ALA d   1      20.647 -16.406  -3.356  0.00  0.00    -0.271 OA
ATOM     24  H8  ARG d   1      18.094 -14.866  -4.323  0.00  0.00     0.163 HD
BRANCH  22  25
ATOM     25  CA  ALA d   1      18.653 -15.967  -2.095  0.00  0.00     0.172 C 
ATOM     26  H4  ALA d   1      17.606 -15.819  -2.397  0.00  0.00     0.098 H 
BRANCH  25  27
ATOM     27  N   ALA d   1      18.765 -17.274  -1.453  0.00  0.00    -0.067 N 
ATOM     28  H1  ALA d   1      18.181 -17.296  -0.632  0.00  0.00     0.275 HD
ATOM     29  H2  ALA d   1      19.724 -17.437  -1.188  0.00  0.00     0.275 HD
ATOM     30  H3  ALA d   1      18.468 -17.991  -2.096  0.00  0.00     0.275 HD
ENDBRANCH  25  27
BRANCH  25  31
ATOM     31  CB  ALA d   1      19.031 -14.862  -1.118  0.00  0.00    -0.042 C 
ATOM     32  H5  ALA d   1      18.942 -13.886  -1.616  0.00  0.00     0.030 H 
ATOM     33  H6  ALA d   1      20.068 -15.008  -0.782  0.00  0.00     0.030 H 
ATOM     34  H7  ALA d   1      18.356 -14.894  -0.250  0.00  0.00     0.030 H 
ENDBRANCH  25  31
ENDBRANCH  22  25
ENDBRANCH  19  21
BRANCH  19  35
ATOM     35  CB  ARG d   1      18.802 -14.799  -6.801  0.00  0.00    -0.036 C 
ATOM     36  H10 ARG d   1      19.401 -14.736  -7.722  0.00  0.00     0.036 H 
ATOM     37  H11 ARG d   1      18.355 -13.817  -6.586  0.00  0.00     0.036 H 
BRANCH  35  38
ATOM     38  CG  ARG d   1      17.674 -15.784  -7.042  0.00  0.00    -0.048 C 
ATOM     39  H12 ARG d   1      17.111 -15.928  -6.108  0.00  0.00     0.035 H 
ATOM     40  H13 ARG d   1      18.096 -16.746  -7.368  0.00  0.00     0.035 H 
BRANCH  38  41
ATOM     41  CD  ARG d   1      16.737 -15.257  -8.116  0.00  0.00     0.009 C 
ATOM     42  H14 ARG d   1      16.021 -16.049  -8.381  0.00  0.00     0.064 H 
ATOM     43  H15 ARG d   1      17.330 -14.987  -9.002  0.00  0.00     0.064 H 
BRANCH  41  44
ATOM     44  NE  ARG d   1      15.993 -14.081  -7.672  0.00  0.00    -0.227 N 
ATOM     45  CZ  ARG d   1      15.603 -13.092  -8.472  0.00  0.00     0.665 C 
ATOM     46  NH1 ARG d   1      15.856 -13.145  -9.774  0.00  0.00    -0.235 N 
ATOM     47  NH2 ARG d   1      14.927 -12.065  -7.975  0.00  0.00    -0.235 N 
ATOM     48  H17 ARG d   1      15.552 -12.377 -10.389  0.00  0.00     0.174 HD
ATOM     49  H18 ARG d   1      16.356 -13.954 -10.169  0.00  0.00     0.174 HD
ATOM     50  H19 ARG d   1      14.728 -12.019  -6.965  0.00  0.00     0.174 HD
ATOM     51  H20 ARG d   1      14.601 -11.313  -8.599  0.00  0.00     0.174 HD
ATOM     52  H16 ARG d   1      15.754 -14.013  -6.672  0.00  0.00     0.177 HD
ENDBRANCH  41  44
ENDBRANCH  38  41
ENDBRANCH  35  38
ENDBRANCH  19  35
ENDBRANCH  16  19
ENDBRANCH  13  15
BRANCH  13  53
ATOM     53  CB  TPO d   1      24.243 -14.065  -5.547  0.00  0.00     0.076 C 
ATOM     54  H23 TPO d   1      25.190 -13.615  -5.879  0.00  0.00     0.087 H 
BRANCH  53  55
ATOM     55  CG2 TPO d   1      24.041 -13.832  -4.055  0.00  0.00    -0.049 C 
ATOM     56  H24 TPO d   1      24.880 -14.274  -3.498  0.00  0.00     0.031 H 
ATOM     57  H25 TPO d   1      23.100 -14.302  -3.735  0.00  0.00     0.031 H 
ATOM     58  H26 TPO d   1      23.997 -12.751  -3.855  0.00  0.00     0.031 H 
ENDBRANCH  53  55
BRANCH  53  59
ATOM     59  OG1 TPO d   1      24.247 -15.472  -5.801  0.00  0.00    -0.275 OA
BRANCH  59  60
ATOM     60  P   TPO d   1      25.740 -16.031  -5.571  0.00  0.00     0.422 P 
ATOM     61  O1P TPO d   1      25.932 -17.235  -6.410  0.00  0.00    -0.617 OA
ATOM     62  O2P TPO d   1      26.812 -14.915  -6.021  0.00  0.00    -0.617 OA
ATOM     63  O3P TPO d   1      25.948 -16.422  -4.024  0.00  0.00    -0.617 OA
ENDBRANCH  59  60
ENDBRANCH  53  59
ENDBRANCH  13  53
ENDBRANCH  10  13
ENDBRANCH   7   9
BRANCH   7  64
ATOM     64  CB  LYS d   1      23.812 -10.793  -9.937  0.00  0.00    -0.038 C 
ATOM     65  H29 LYS d   1      22.824 -11.273  -9.879  0.00  0.00     0.036 H 
ATOM     66  H30 LYS d   1      24.144 -10.764 -10.985  0.00  0.00     0.036 H 
BRANCH  64  67
ATOM     67  CG  LYS d   1      23.673  -9.362  -9.444  0.00  0.00    -0.061 C 
ATOM     68  H31 LYS d   1      24.501  -8.761  -9.849  0.00  0.00     0.033 H 
ATOM     69  H32 LYS d   1      23.718  -9.355  -8.345  0.00  0.00     0.033 H 
BRANCH  67  70
ATOM     70  CD  LYS d   1      22.349  -8.750  -9.891  0.00  0.00    -0.043 C 
ATOM     71  H33 LYS d   1      22.052  -7.978  -9.166  0.00  0.00     0.035 H 
ATOM     72  H34 LYS d   1      21.584  -9.540  -9.919  0.00  0.00     0.035 H 
BRANCH  70  73
ATOM     73  CE  LYS d   1      22.449  -8.116 -11.269  0.00  0.00     0.080 C 
ATOM     74  H35 LYS d   1      22.804  -8.874 -11.982  0.00  0.00     0.075 H 
ATOM     75  H36 LYS d   1      23.171  -7.287 -11.226  0.00  0.00     0.075 H 
BRANCH  73  76
ATOM     76  NZ  LYS d   1      21.138  -7.586 -11.745  0.00  0.00    -0.079 N 
ATOM     77  H37 LYS d   1      21.253  -7.177 -12.659  0.00  0.00     0.274 HD
ATOM     78  H38 LYS d   1      20.806  -6.884 -11.102  0.00  0.00     0.274 HD
ATOM     79  H39 LYS d   1      20.470  -8.339 -11.796  0.00  0.00     0.274 HD
ENDBRANCH  73  76
ENDBRANCH  70  73
ENDBRANCH  67  70
ENDBRANCH  64  67
ENDBRANCH   7  64
ENDBRANCH   4   7
ENDBRANCH   1   3
BRANCH   1  80
ATOM     80  C   GLN d   1      28.200  -8.825 -10.892  0.00  0.00     0.241 C 
ATOM     81  O   GLN d   1      28.179  -9.042 -12.107  0.00  0.00    -0.271 OA
ATOM     82  N   THR d   1      28.248  -7.603 -10.371  0.00  0.00    -0.344 N 
ATOM     83  H48 THR d   1      28.226  -7.509  -9.376  0.00  0.00     0.163 HD
BRANCH  82  84
ATOM     84  CA  THR d   1      28.331  -6.396 -11.178  0.00  0.00     0.113 C 
ATOM     85  H49 THR d   1      28.269  -6.681 -12.239  0.00  0.00     0.091 H 
BRANCH  84  86
ATOM     86  C   THR d   1      29.664  -5.696 -10.941  0.00  0.00     0.243 C 
ATOM     87  O   THR d   1      30.365  -5.961  -9.961  0.00  0.00    -0.271 OA
ATOM     88  N   ALA d   1      30.012  -4.793 -11.857  0.00  0.00    -0.346 N 
ATOM     89  H55 ALA d   1      29.388  -4.599 -12.614  0.00  0.00     0.163 HD
BRANCH  88  90
ATOM     90  CA  ALA d   1      31.280  -4.083 -11.780  0.00  0.00     0.086 C 
ATOM     91  H56 ALA d   1      31.553  -3.973 -10.720  0.00  0.00     0.086 H 
BRANCH  90  92
ATOM     92  C   ALA d   1      31.126  -2.697 -12.390  0.00  0.00     0.240 C 
ATOM     93  O   ALA d   1      30.285  -2.477 -13.267  0.00  0.00    -0.271 OA
ATOM     94  N   ARG d   1      31.951  -1.763 -11.904  0.00  0.00    -0.346 N 
ATOM     95  H60 ARG d   1      32.602  -2.010 -11.187  0.00  0.00     0.163 HD
BRANCH  94  96
ATOM     96  CA  ARG d   1      31.919  -0.389 -12.401  0.00  0.00     0.089 C 
ATOM     97  H61 ARG d   1      30.924   0.030 -12.190  0.00  0.00     0.087 H 
BRANCH  96  98
ATOM     98  C   ARG d   1      32.150  -0.326 -13.907  0.00  0.00     0.241 C 
ATOM     99  O   ARG d   1      31.448   0.401 -14.620  0.00  0.00    -0.271 OA
ATOM    100  N   LYS d   1      33.114  -1.091 -14.413  0.00  0.00    -0.346 N 
ATOM    101  H73 LYS d   1      33.684  -1.629 -13.792  0.00  0.00     0.163 HD
BRANCH 100 102
ATOM    102  CA  LYS d   1      33.362  -1.166 -15.851  0.00  0.00     0.089 C 
ATOM    103  H74 LYS d   1      32.840  -0.333 -16.345  0.00  0.00     0.087 H 
BRANCH 102 104
ATOM    104  C   LYS d   1      32.792  -2.480 -16.383  0.00  0.00     0.241 C 
ATOM    105  O   LYS d   1      33.505  -3.410 -16.764  0.00  0.00    -0.271 OA
ATOM    106  N   SER d   1      31.463  -2.526 -16.395  0.00  0.00    -0.343 N 
ATOM    107  H86 SER d   1      30.954  -1.730 -16.067  0.00  0.00     0.163 HD
BRANCH 106 108
ATOM    108  CA  SER d   1      30.716  -3.685 -16.865  0.00  0.00     0.116 C 
ATOM    109  H87 SER d   1      31.157  -4.026 -17.814  0.00  0.00     0.093 H 
BRANCH 108 110
ATOM    110  C   SER d   1      29.260  -3.305 -17.113  0.00  0.00     0.198 C 
ATOM    111  O   SER d   1      28.673  -2.536 -16.350  0.00  0.00    -0.646 OA
ATOM    112  OXT SER d   1      28.648  -3.761 -18.080  0.00  0.00    -0.646 OA
ENDBRANCH 108 110
BRANCH 108 113
ATOM    113  CB  SER d   1      30.805  -4.827 -15.848  0.00  0.00     0.045 C 
ATOM    114  H88 SER d   1      30.454  -4.464 -14.871  0.00  0.00     0.077 H 
ATOM    115  H89 SER d   1      31.853  -5.151 -15.764  0.00  0.00     0.077 H 
BRANCH 113 116
ATOM    116  OG  SER d   1      30.012  -5.932 -16.241  0.00  0.00    -0.398 OA
ATOM    117  H90 SER d   1      30.088  -6.622 -15.592  0.00  0.00     0.209 HD
ENDBRANCH 113 116
ENDBRANCH 108 113
ENDBRANCH 106 108
ENDBRANCH 102 104
BRANCH 102 118
ATOM    118  CB  LYS d   1      34.855  -1.033 -16.142  0.00  0.00    -0.038 C 
ATOM    119  H75 LYS d   1      35.013  -1.215 -17.215  0.00  0.00     0.036 H 
ATOM    120  H76 LYS d   1      35.388  -1.798 -15.558  0.00  0.00     0.036 H 
BRANCH 118 121
ATOM    121  CG  LYS d   1      35.451   0.329 -15.798  0.00  0.00    -0.061 C 
ATOM    122  H77 LYS d   1      35.220   0.565 -14.749  0.00  0.00     0.033 H 
ATOM    123  H78 LYS d   1      35.003   1.091 -16.453  0.00  0.00     0.033 H 
BRANCH 121 124
ATOM    124  CD  LYS d   1      36.967   0.341 -15.988  0.00  0.00    -0.043 C 
ATOM    125  H79 LYS d   1      37.407  -0.470 -15.389  0.00  0.00     0.035 H 
ATOM    126  H80 LYS d   1      37.361   1.308 -15.641  0.00  0.00     0.035 H 
BRANCH 124 127
ATOM    127  CE  LYS d   1      37.360   0.145 -17.446  0.00  0.00     0.080 C 
ATOM    128  H81 LYS d   1      37.189  -0.907 -17.719  0.00  0.00     0.075 H 
ATOM    129  H82 LYS d   1      38.428   0.384 -17.558  0.00  0.00     0.075 H 
BRANCH 127 130
ATOM    130  NZ  LYS d   1      36.577   1.012 -18.373  0.00  0.00    -0.079 N 
ATOM    131  H83 LYS d   1      36.874   0.844 -19.321  0.00  0.00     0.274 HD
ATOM    132  H84 LYS d   1      36.731   1.980 -18.139  0.00  0.00     0.274 HD
ATOM    133  H85 LYS d   1      35.596   0.797 -18.286  0.00  0.00     0.274 HD
ENDBRANCH 127 130
ENDBRANCH 124 127
ENDBRANCH 121 124
ENDBRANCH 118 121
ENDBRANCH 102 118
ENDBRANCH 100 102
ENDBRANCH  96  98
BRANCH  96 134
ATOM    134  CB  ARG d   1      32.964   0.450 -11.665  0.00  0.00    -0.036 C 
ATOM    135  H62 ARG d   1      33.947  -0.025 -11.802  0.00  0.00     0.036 H 
ATOM    136  H63 ARG d   1      32.708   0.461 -10.595  0.00  0.00     0.036 H 
BRANCH 134 137
ATOM    137  CG  ARG d   1      33.057   1.884 -12.146  0.00  0.00    -0.048 C 
ATOM    138  H64 ARG d   1      32.079   2.370 -12.014  0.00  0.00     0.035 H 
ATOM    139  H65 ARG d   1      33.328   1.888 -13.212  0.00  0.00     0.035 H 
BRANCH 137 140
ATOM    140  CD  ARG d   1      34.104   2.659 -11.367  0.00  0.00     0.009 C 
ATOM    141  H66 ARG d   1      35.006   2.038 -11.267  0.00  0.00     0.064 H 
ATOM    142  H67 ARG d   1      33.706   2.892 -10.368  0.00  0.00     0.064 H 
BRANCH 140 143
ATOM    143  NE  ARG d   1      34.459   3.905 -12.037  0.00  0.00    -0.227 N 
ATOM    144  CZ  ARG d   1      35.299   4.809 -11.543  0.00  0.00     0.665 C 
ATOM    145  NH1 ARG d   1      35.559   5.916 -12.225  0.00  0.00    -0.235 N 
ATOM    146  NH2 ARG d   1      35.876   4.610 -10.366  0.00  0.00    -0.235 N 
ATOM    147  H69 ARG d   1      36.210   6.616 -11.842  0.00  0.00     0.174 HD
ATOM    148  H70 ARG d   1      35.110   6.076 -13.138  0.00  0.00     0.174 HD
ATOM    149  H71 ARG d   1      35.676   3.751  -9.833  0.00  0.00     0.174 HD
ATOM    150  H72 ARG d   1      36.524   5.314  -9.984  0.00  0.00     0.174 HD
ATOM    151  H68 ARG d   1      34.030   4.097 -12.954  0.00  0.00     0.177 HD
ENDBRANCH 140 143
ENDBRANCH 137 140
ENDBRANCH 134 137
ENDBRANCH  96 134
ENDBRANCH  94  96
ENDBRANCH  90  92
BRANCH  90 152
ATOM    152  CB  ALA d   1      32.400  -4.854 -12.487  0.00  0.00    -0.049 C 
ATOM    153  H57 ALA d   1      33.340  -4.289 -12.408  0.00  0.00     0.030 H 
ATOM    154  H58 ALA d   1      32.140  -4.988 -13.547  0.00  0.00     0.030 H 
ATOM    155  H59 ALA d   1      32.523  -5.839 -12.012  0.00  0.00     0.030 H 
ENDBRANCH  90 152
ENDBRANCH  88  90
ENDBRANCH  84  86
BRANCH  84 156
ATOM    156  CB  THR d   1      27.168  -5.450 -10.863  0.00  0.00     0.060 C 
ATOM    157  H50 THR d   1      27.227  -4.569 -11.519  0.00  0.00     0.086 H 
BRANCH 156 158
ATOM    158  OG1 THR d   1      27.243  -5.035  -9.494  0.00  0.00    -0.393 OA
ATOM    159  H51 THR d   1      26.521  -4.449  -9.302  0.00  0.00     0.210 HD
ENDBRANCH 156 158
BRANCH 156 160
ATOM    160  CG2 THR d   1      25.841  -6.164 -11.089  0.00  0.00    -0.050 C 
ATOM    161  H52 THR d   1      25.012  -5.478 -10.861  0.00  0.00     0.031 H 
ATOM    162  H53 THR d   1      25.781  -7.043 -10.431  0.00  0.00     0.031 H 
ATOM    163  H54 THR d   1      25.772  -6.486 -12.139  0.00  0.00     0.031 H 
ENDBRANCH 156 160
ENDBRANCH  84 156
ENDBRANCH  82  84
ENDBRANCH   1  80
BRANCH   1 164
ATOM    164  CB  GLN d   1      29.294 -10.970 -10.172  0.00  0.00    -0.030 C 
ATOM    165  H42 GLN d   1      29.809 -10.661 -11.093  0.00  0.00     0.037 H 
ATOM    166  H43 GLN d   1      28.854 -11.968 -10.315  0.00  0.00     0.037 H 
BRANCH 164 167
ATOM    167  CG  GLN d   1      30.328 -11.060  -9.054  0.00  0.00     0.011 C 
ATOM    168  H44 GLN d   1      31.077 -11.816  -9.331  0.00  0.00     0.047 H 
ATOM    169  H45 GLN d   1      29.818 -11.371  -8.130  0.00  0.00     0.047 H 
BRANCH 167 170
ATOM    170  CD  GLN d   1      31.044  -9.744  -8.791  0.00  0.00     0.215 C 
ATOM    171  OE1 GLN d   1      31.146  -8.884  -9.669  0.00  0.00    -0.274 OA
ATOM    172  NE2 GLN d   1      31.547  -9.583  -7.571  0.00  0.00    -0.370 N 
ATOM    173  H46 GLN d   1      32.029  -8.739  -7.336  0.00  0.00     0.159 HD
ATOM    174  H47 GLN d   1      31.443 -10.306  -6.888  0.00  0.00     0.159 HD
ENDBRANCH 167 170
ENDBRANCH 164 167
ENDBRANCH   1 164
TORSDOF 52
