REMARK WARNING: 32 MAX_TORS EXCEEDED!!!
REMARK  40 active torsions:
REMARK  status: ('A' for Active; 'I' for Inactive)
REMARK    1  A    between atoms: N_1  and  CA_2 
REMARK    2  A    between atoms: CA_2  and  C_3 
REMARK    3  A    between atoms: CA_2  and  CB_5 
REMARK       I    between atoms: C_3  and  N_6 
REMARK    4  A    between atoms: N_6  and  CA_7 
REMARK    5  A    between atoms: CA_7  and  C_8 
REMARK    6  A    between atoms: CA_7  and  CB_10 
REMARK       I    between atoms: C_8  and  N_17 
REMARK    7  A    between atoms: CB_10  and  CG_11 
REMARK    8  A    between atoms: CG_11  and  CD_12 
REMARK    9  A    between atoms: CD_12  and  NE_13 
REMARK       I    between atoms: NE_13  and  CZ_14 
REMARK       I    between atoms: CZ_14  and  NH1_15 
REMARK       I    between atoms: CZ_14  and  NH2_16 
REMARK   10  A    between atoms: N_17  and  CA_18 
REMARK   11  A    between atoms: CA_18  and  C_19 
REMARK   12  A    between atoms: CA_18  and  CB_21 
REMARK       I    between atoms: C_19  and  N_24 
REMARK   13  A    between atoms: CB_21  and  OG1_22 
REMARK   14  A    between atoms: CB_21  and  CG2_23 
REMARK   15  A    between atoms: N_24  and  CA_25 
REMARK   16  A    between atoms: CA_25  and  C_26 
REMARK   17  A    between atoms: CA_25  and  CB_28 
REMARK       I    between atoms: C_26  and  N_33 
REMARK   18  A    between atoms: CB_28  and  CG_29 
REMARK   19  A    between atoms: CG_29  and  CD_30 
REMARK   20  A    between atoms: CD_30  and  CE_31 
REMARK   21  A    between atoms: CE_31  and  NZ_32 
REMARK   22  A    between atoms: N_33  and  CA_34 
REMARK   23  A    between atoms: CA_34  and  C_35 
REMARK   24  A    between atoms: CA_34  and  CB_37 
REMARK       I    between atoms: C_35  and  N_42 
REMARK   25  A    between atoms: CB_37  and  CG_38 
REMARK   26  A    between atoms: CG_38  and  CD_39 
REMARK       I    between atoms: CD_39  and  NE2_41 
REMARK   27  A    between atoms: N_42  and  CA_43 
REMARK   28  A    between atoms: CA_43  and  C_44 
REMARK   29  A    between atoms: CA_43  and  CB_46 
REMARK       I    between atoms: C_44  and  N_49 
REMARK   30  A    between atoms: CB_46  and  OG1_47 
REMARK   31  A    between atoms: CB_46  and  CG2_48 
REMARK   32  A    between atoms: N_49  and  CA_50 
REMARK   33  A    between atoms: CA_50  and  C_51 
REMARK   34  A    between atoms: CA_50  and  CB_53 
REMARK       I    between atoms: C_51  and  N_54 
REMARK   35  A    between atoms: N_54  and  CA_55 
REMARK   36  A    between atoms: CA_55  and  C_56 
REMARK   37  A    between atoms: CA_55  and  CB_58 
REMARK   38  A    between atoms: CB_58  and  CG_59 
REMARK   39  A    between atoms: CG_59  and  CD_60 
REMARK   40  A    between atoms: CD_60  and  NE_61 
REMARK       I    between atoms: NE_61  and  CZ_62 
REMARK       I    between atoms: CZ_62  and  NH1_63 
ROOT
ATOM      1  CA  LYS d   1      -5.036   6.561 -18.890  0.00  0.00     0.089 C 
ATOM      2  H29 LYS d   1      -5.554   5.591 -18.901  0.00  0.00     0.087 H 
ENDROOT
BRANCH   1   3
ATOM      3  N   LYS d   1      -3.770   6.397 -18.186  0.00  0.00    -0.346 N 
ATOM      4  C   THR d   1      -3.672   5.572 -17.142  0.00  0.00     0.243 C 
ATOM      5  O   THR d   1      -4.653   5.049 -16.605  0.00  0.00    -0.271 OA
ATOM      6  H28 LYS d   1      -2.966   6.909 -18.489  0.00  0.00     0.163 HD
BRANCH   4   7
ATOM      7  CA  THR d   1      -2.258   5.319 -16.637  0.00  0.00     0.113 C 
ATOM      8  H22 THR d   1      -1.688   6.256 -16.714  0.00  0.00     0.091 H 
BRANCH   7   9
ATOM      9  N   THR d   1      -2.280   4.912 -15.242  0.00  0.00    -0.344 N 
ATOM     10  C   ARG d   1      -1.358   5.335 -14.383  0.00  0.00     0.241 C 
ATOM     11  O   ARG d   1      -0.499   6.166 -14.687  0.00  0.00    -0.271 OA
ATOM     12  H21 THR d   1      -3.004   4.301 -14.922  0.00  0.00     0.163 HD
BRANCH  10  13
ATOM     13  CA  ARG d   1      -1.453   4.765 -12.972  0.00  0.00     0.089 C 
ATOM     14  H9  ARG d   1      -1.861   3.745 -13.033  0.00  0.00     0.087 H 
BRANCH  13  15
ATOM     15  N   ARG d   1      -0.139   4.700 -12.341  0.00  0.00    -0.346 N 
ATOM     16  C   ALA d   1       0.773   3.825 -12.752  0.00  0.00     0.248 C 
ATOM     17  O   ALA d   1       0.546   2.982 -13.617  0.00  0.00    -0.271 OA
ATOM     18  H8  ARG d   1       0.078   5.322 -11.589  0.00  0.00     0.163 HD
BRANCH  16  19
ATOM     19  CA  ALA d   1       2.141   3.896 -12.089  0.00  0.00     0.172 C 
ATOM     20  H4  ALA d   1       2.037   4.423 -11.129  0.00  0.00     0.098 H 
BRANCH  19  21
ATOM     21  N   ALA d   1       2.649   2.550 -11.827  0.00  0.00    -0.067 N 
ATOM     22  H1  ALA d   1       3.554   2.612 -11.388  0.00  0.00     0.275 HD
ATOM     23  H2  ALA d   1       2.731   2.046 -12.696  0.00  0.00     0.275 HD
ATOM     24  H3  ALA d   1       2.012   2.064 -11.216  0.00  0.00     0.275 HD
ENDBRANCH  19  21
BRANCH  19  25
ATOM     25  CB  ALA d   1       3.121   4.676 -12.965  0.00  0.00    -0.042 C 
ATOM     26  H5  ALA d   1       2.723   5.684 -13.152  0.00  0.00     0.030 H 
ATOM     27  H6  ALA d   1       3.254   4.152 -13.923  0.00  0.00     0.030 H 
ATOM     28  H7  ALA d   1       4.090   4.753 -12.451  0.00  0.00     0.030 H 
ENDBRANCH  19  25
ENDBRANCH  16  19
ENDBRANCH  13  15
BRANCH  13  29
ATOM     29  CB  ARG d   1      -2.402   5.624 -12.132  0.00  0.00    -0.036 C 
ATOM     30  H10 ARG d   1      -3.346   5.748 -12.682  0.00  0.00     0.036 H 
ATOM     31  H11 ARG d   1      -1.939   6.609 -11.973  0.00  0.00     0.036 H 
BRANCH  29  32
ATOM     32  CG  ARG d   1      -2.707   4.997 -10.766  0.00  0.00    -0.048 C 
ATOM     33  H12 ARG d   1      -1.760   4.830 -10.232  0.00  0.00     0.035 H 
ATOM     34  H13 ARG d   1      -3.215   4.034 -10.922  0.00  0.00     0.035 H 
BRANCH  32  35
ATOM     35  CD  ARG d   1      -3.596   5.888  -9.919  0.00  0.00     0.009 C 
ATOM     36  H14 ARG d   1      -3.755   5.414  -8.939  0.00  0.00     0.064 H 
ATOM     37  H15 ARG d   1      -4.564   6.019 -10.425  0.00  0.00     0.064 H 
BRANCH  35  38
ATOM     38  NE  ARG d   1      -2.976   7.194  -9.725  0.00  0.00    -0.227 N 
ATOM     39  CZ  ARG d   1      -3.539   8.358 -10.030  0.00  0.00     0.665 C 
ATOM     40  NH1 ARG d   1      -4.765   8.410 -10.542  0.00  0.00    -0.235 N 
ATOM     41  NH2 ARG d   1      -2.870   9.482  -9.817  0.00  0.00    -0.235 N 
ATOM     42  H17 ARG d   1      -5.188   9.320 -10.773  0.00  0.00     0.174 HD
ATOM     43  H18 ARG d   1      -5.291   7.540 -10.707  0.00  0.00     0.174 HD
ATOM     44  H19 ARG d   1      -1.920   9.449  -9.421  0.00  0.00     0.174 HD
ATOM     45  H20 ARG d   1      -3.300  10.389 -10.048  0.00  0.00     0.174 HD
ATOM     46  H16 ARG d   1      -2.029   7.215  -9.320  0.00  0.00     0.177 HD
ENDBRANCH  35  38
ENDBRANCH  32  35
ENDBRANCH  29  32
ENDBRANCH  13  29
ENDBRANCH  10  13
ENDBRANCH   7   9
BRANCH   7  47
ATOM     47  CB  THR d   1      -1.569   4.261 -17.509  0.00  0.00     0.060 C 
ATOM     48  H23 THR d   1      -0.562   4.070 -17.109  0.00  0.00     0.086 H 
BRANCH  47  49
ATOM     49  OG1 THR d   1      -1.458   4.741 -18.849  0.00  0.00    -0.393 OA
ATOM     50  H24 THR d   1      -0.944   5.540 -18.857  0.00  0.00     0.210 HD
ENDBRANCH  47  49
BRANCH  47  51
ATOM     51  CG2 THR d   1      -2.363   2.953 -17.505  0.00  0.00    -0.050 C 
ATOM     52  H25 THR d   1      -1.851   2.211 -18.136  0.00  0.00     0.031 H 
ATOM     53  H26 THR d   1      -3.373   3.136 -17.901  0.00  0.00     0.031 H 
ATOM     54  H27 THR d   1      -2.436   2.571 -16.476  0.00  0.00     0.031 H 
ENDBRANCH  47  51
ENDBRANCH   7  47
ENDBRANCH   4   7
ENDBRANCH   1   3
BRANCH   1  55
ATOM     55  C   LYS d   1      -4.749   6.978 -20.322  0.00  0.00     0.241 C 
ATOM     56  O   LYS d   1      -3.690   7.516 -20.633  0.00  0.00    -0.271 OA
ATOM     57  N   GLN d   1      -5.720   6.729 -21.187  0.00  0.00    -0.346 N 
ATOM     58  H41 GLN d   1      -6.540   6.261 -20.857  0.00  0.00     0.163 HD
BRANCH  57  59
ATOM     59  CA  GLN d   1      -5.656   7.100 -22.592  0.00  0.00     0.090 C 
ATOM     60  H42 GLN d   1      -4.618   7.349 -22.859  0.00  0.00     0.087 H 
BRANCH  59  61
ATOM     61  C   GLN d   1      -6.542   8.324 -22.801  0.00  0.00     0.241 C 
ATOM     62  O   GLN d   1      -7.729   8.281 -22.481  0.00  0.00    -0.271 OA
ATOM     63  N   THR d   1      -5.966   9.411 -23.318  0.00  0.00    -0.344 N 
ATOM     64  H49 THR d   1      -4.989   9.381 -23.529  0.00  0.00     0.163 HD
BRANCH  63  65
ATOM     65  CA  THR d   1      -6.702  10.641 -23.589  0.00  0.00     0.113 C 
ATOM     66  H50 THR d   1      -7.752  10.486 -23.300  0.00  0.00     0.091 H 
BRANCH  65  67
ATOM     67  C   THR d   1      -6.646  10.956 -25.077  0.00  0.00     0.243 C 
ATOM     68  O   THR d   1      -5.850  10.387 -25.827  0.00  0.00    -0.271 OA
ATOM     69  N   ALA d   1      -7.493  11.891 -25.504  0.00  0.00    -0.346 N 
ATOM     70  H56 ALA d   1      -8.012  12.424 -24.836  0.00  0.00     0.163 HD
BRANCH  69  71
ATOM     71  CA  ALA d   1      -7.677  12.152 -26.925  0.00  0.00     0.086 C 
ATOM     72  H57 ALA d   1      -6.707  12.027 -27.428  0.00  0.00     0.086 H 
BRANCH  71  73
ATOM     73  C   ALA d   1      -8.156  13.580 -27.136  0.00  0.00     0.240 C 
ATOM     74  O   ALA d   1      -9.021  14.076 -26.404  0.00  0.00    -0.271 OA
ATOM     75  N   ARG d   1      -7.581  14.229 -28.139  0.00  0.00    -0.345 N 
ATOM     76  H61 ARG d   1      -6.798  13.810 -28.599  0.00  0.00     0.163 HD
BRANCH  75  77
ATOM     77  CA  ARG d   1      -8.047  15.524 -28.592  0.00  0.00     0.096 C 
ATOM     78  H62 ARG d   1      -8.073  16.209 -27.732  0.00  0.00     0.089 H 
BRANCH  77  79
ATOM     79  C   ARG d   1      -9.458  15.417 -29.166  0.00  0.00     0.196 C 
ATOM     80  O   ARG d   1     -10.397  15.991 -28.622  0.00  0.00    -0.646 OA
ATOM     81  OXT ARG d   1      -9.670  14.756 -30.178  0.00  0.00    -0.646 OA
ENDBRANCH  77  79
BRANCH  77  82
ATOM     82  CB  ARG d   1      -7.077  16.082 -29.629  0.00  0.00    -0.035 C 
ATOM     83  H63 ARG d   1      -6.740  15.248 -30.263  0.00  0.00     0.036 H 
ATOM     84  H64 ARG d   1      -6.215  16.507 -29.094  0.00  0.00     0.036 H 
BRANCH  82  85
ATOM     85  CG  ARG d   1      -7.641  17.150 -30.526  0.00  0.00    -0.047 C 
ATOM     86  H65 ARG d   1      -7.904  18.033 -29.925  0.00  0.00     0.035 H 
ATOM     87  H66 ARG d   1      -8.541  16.768 -31.030  0.00  0.00     0.035 H 
BRANCH  85  88
ATOM     88  CD  ARG d   1      -6.610  17.534 -31.560  0.00  0.00     0.009 C 
ATOM     89  H67 ARG d   1      -6.172  16.618 -31.982  0.00  0.00     0.064 H 
ATOM     90  H68 ARG d   1      -5.822  18.127 -31.073  0.00  0.00     0.064 H 
BRANCH  88  91
ATOM     91  NE  ARG d   1      -7.190  18.321 -32.642  0.00  0.00    -0.227 N 
ATOM     92  CZ  ARG d   1      -6.476  18.917 -33.591  0.00  0.00     0.665 C 
ATOM     93  NH1 ARG d   1      -5.150  18.814 -33.587  0.00  0.00    -0.235 N 
ATOM     94  NH2 ARG d   1      -7.085  19.617 -34.541  0.00  0.00    -0.235 N 
ATOM     95  H70 ARG d   1      -4.595  19.276 -34.322  0.00  0.00     0.174 HD
ATOM     96  H71 ARG d   1      -4.678  18.273 -32.849  0.00  0.00     0.174 HD
ATOM     97  H72 ARG d   1      -8.112  19.697 -34.544  0.00  0.00     0.174 HD
ATOM     98  H73 ARG d   1      -6.530  20.080 -35.275  0.00  0.00     0.174 HD
ATOM     99  H69 ARG d   1      -8.215  18.421 -32.672  0.00  0.00     0.177 HD
ENDBRANCH  88  91
ENDBRANCH  85  88
ENDBRANCH  82  85
ENDBRANCH  77  82
ENDBRANCH  75  77
ENDBRANCH  71  73
BRANCH  71 100
ATOM    100  CB  ALA d   1      -8.681  11.175 -27.556  0.00  0.00    -0.049 C 
ATOM    101  H58 ALA d   1      -8.792  11.404 -28.626  0.00  0.00     0.030 H 
ATOM    102  H59 ALA d   1      -9.655  11.277 -27.056  0.00  0.00     0.030 H 
ATOM    103  H60 ALA d   1      -8.314  10.145 -27.438  0.00  0.00     0.030 H 
ENDBRANCH  71 100
ENDBRANCH  69  71
ENDBRANCH  65  67
BRANCH  65 104
ATOM    104  CB  THR d   1      -6.149  11.827 -22.781  0.00  0.00     0.060 C 
ATOM    105  H51 THR d   1      -6.824  12.687 -22.901  0.00  0.00     0.086 H 
BRANCH 104 106
ATOM    106  OG1 THR d   1      -4.844  12.179 -23.263  0.00  0.00    -0.393 OA
ATOM    107  H52 THR d   1      -4.509  12.912 -22.760  0.00  0.00     0.210 HD
ENDBRANCH 104 106
BRANCH 104 108
ATOM    108  CG2 THR d   1      -6.057  11.471 -21.318  0.00  0.00    -0.050 C 
ATOM    109  H53 THR d   1      -5.660  12.329 -20.756  0.00  0.00     0.031 H 
ATOM    110  H54 THR d   1      -5.386  10.608 -21.192  0.00  0.00     0.031 H 
ATOM    111  H55 THR d   1      -7.058  11.216 -20.939  0.00  0.00     0.031 H 
ENDBRANCH 104 108
ENDBRANCH  65 104
ENDBRANCH  63  65
ENDBRANCH  59  61
BRANCH  59 112
ATOM    112  CB  GLN d   1      -6.131   5.940 -23.469  0.00  0.00    -0.030 C 
ATOM    113  H43 GLN d   1      -7.194   5.757 -23.252  0.00  0.00     0.037 H 
ATOM    114  H44 GLN d   1      -5.544   5.047 -23.206  0.00  0.00     0.037 H 
BRANCH 112 115
ATOM    115  CG  GLN d   1      -5.987   6.180 -24.949  0.00  0.00     0.011 C 
ATOM    116  H45 GLN d   1      -6.385   7.177 -25.189  0.00  0.00     0.047 H 
ATOM    117  H46 GLN d   1      -6.562   5.415 -25.492  0.00  0.00     0.047 H 
BRANCH 115 118
ATOM    118  CD  GLN d   1      -4.546   6.111 -25.387  0.00  0.00     0.215 C 
ATOM    119  OE1 GLN d   1      -3.736   5.414 -24.768  0.00  0.00    -0.274 OA
ATOM    120  NE2 GLN d   1      -4.206   6.842 -26.449  0.00  0.00    -0.370 N 
ATOM    121  H47 GLN d   1      -3.263   6.832 -26.781  0.00  0.00     0.159 HD
ATOM    122  H48 GLN d   1      -4.894   7.400 -26.913  0.00  0.00     0.159 HD
ENDBRANCH 115 118
ENDBRANCH 112 115
ENDBRANCH  59 112
ENDBRANCH  57  59
ENDBRANCH   1  55
BRANCH   1 123
ATOM    123  CB  LYS d   1      -5.957   7.583 -18.211  0.00  0.00    -0.038 C 
ATOM    124  H30 LYS d   1      -6.154   7.239 -17.185  0.00  0.00     0.036 H 
ATOM    125  H31 LYS d   1      -6.902   7.619 -18.773  0.00  0.00     0.036 H 
BRANCH 123 126
ATOM    126  CG  LYS d   1      -5.390   9.007 -18.137  0.00  0.00    -0.061 C 
ATOM    127  H32 LYS d   1      -5.080   9.332 -19.141  0.00  0.00     0.033 H 
ATOM    128  H33 LYS d   1      -4.521   9.022 -17.462  0.00  0.00     0.033 H 
BRANCH 126 129
ATOM    129  CD  LYS d   1      -6.468   9.954 -17.604  0.00  0.00    -0.043 C 
ATOM    130  H34 LYS d   1      -6.950   9.481 -16.736  0.00  0.00     0.035 H 
ATOM    131  H35 LYS d   1      -7.215  10.115 -18.396  0.00  0.00     0.035 H 
BRANCH 129 132
ATOM    132  CE  LYS d   1      -5.920  11.305 -17.176  0.00  0.00     0.080 C 
ATOM    133  H36 LYS d   1      -5.398  11.775 -18.023  0.00  0.00     0.075 H 
ATOM    134  H37 LYS d   1      -5.216  11.169 -16.341  0.00  0.00     0.075 H 
BRANCH 132 135
ATOM    135  NZ  LYS d   1      -7.059  12.187 -16.735  0.00  0.00    -0.079 N 
ATOM    136  H38 LYS d   1      -6.698  13.084 -16.450  0.00  0.00     0.274 HD
ATOM    137  H39 LYS d   1      -7.537  11.756 -15.960  0.00  0.00     0.274 HD
ATOM    138  H40 LYS d   1      -7.704  12.311 -17.500  0.00  0.00     0.274 HD
ENDBRANCH 132 135
ENDBRANCH 129 132
ENDBRANCH 126 129
ENDBRANCH 123 126
ENDBRANCH   1 123
TORSDOF 40
