REMARK  15 active torsions:
REMARK  status: ('A' for Active; 'I' for Inactive)
REMARK    1  A    between atoms: C1_1  and  C2_2 
REMARK    2  A    between atoms: C2_2  and  C3_3 
REMARK    3  A    between atoms: C3_3  and  C4_4 
REMARK    4  A    between atoms: C4_4  and  C5_5 
REMARK    5  A    between atoms: C6_6  and  C7_7 
REMARK    6  A    between atoms: C7_7  and  C8_8 
REMARK    7  A    between atoms: C9_9  and  C10_10 
REMARK    8  A    between atoms: C10_10  and  C11_11 
REMARK    9  A    between atoms: C12_12  and  C13_13 
REMARK   10  A    between atoms: C13_13  and  C14_14 
REMARK   11  A    between atoms: C15_15  and  C16_16 
REMARK   12  A    between atoms: C16_16  and  C17_17 
REMARK   13  A    between atoms: C17_17  and  C18_18 
REMARK   14  A    between atoms: C18_18  and  C19_19 
REMARK   15  A    between atoms: C19_19  and  C20_20 
ROOT
ATOM      1  C11 ACD d   1     -24.797  19.132 -13.550  0.00  0.00    -0.103 C 
ATOM      2  C12 ACD d   1     -24.436  20.306 -13.070  0.00  0.00    -0.103 C 
ATOM      3  H15 ACD d   1     -25.468  19.157 -14.408  0.00  0.00     0.076 H 
ATOM      4  H16 ACD d   1     -24.791  21.192 -13.594  0.00  0.00     0.076 H 
ENDROOT
BRANCH   1   5
ATOM      5  C10 ACD d   1     -24.406  17.776 -13.071  0.00  0.00    -0.035 C 
ATOM      6  H13 ACD d   1     -24.218  17.118 -13.932  0.00  0.00     0.044 H 
ATOM      7  H14 ACD d   1     -23.495  17.847 -12.459  0.00  0.00     0.044 H 
BRANCH   5   8
ATOM      8  C9  ACD d   1     -25.531  17.221 -12.244  0.00  0.00    -0.103 C 
ATOM      9  C8  ACD d   1     -25.942  15.985 -12.360  0.00  0.00    -0.103 C 
ATOM     10  H11 ACD d   1     -26.733  15.641 -11.695  0.00  0.00     0.076 H 
ATOM     11  H12 ACD d   1     -26.022  17.872 -11.522  0.00  0.00     0.076 H 
BRANCH   9  12
ATOM     12  C7  ACD d   1     -25.394  15.034 -13.341  0.00  0.00    -0.035 C 
ATOM     13  H9  ACD d   1     -25.415  15.450 -14.359  0.00  0.00     0.044 H 
ATOM     14  H10 ACD d   1     -24.365  14.741 -13.086  0.00  0.00     0.044 H 
BRANCH  12  15
ATOM     15  C6  ACD d   1     -26.326  13.902 -13.202  0.00  0.00    -0.103 C 
ATOM     16  C5  ACD d   1     -27.261  13.584 -14.053  0.00  0.00    -0.106 C 
ATOM     17  H7  ACD d   1     -27.918  12.752 -13.804  0.00  0.00     0.076 H 
ATOM     18  H8  ACD d   1     -26.226  13.279 -12.315  0.00  0.00     0.076 H 
BRANCH  16  19
ATOM     19  C4  ACD d   1     -27.481  14.281 -15.327  0.00  0.00    -0.050 C 
ATOM     20  H5  ACD d   1     -28.545  14.524 -15.465  0.00  0.00     0.038 H 
ATOM     21  H6  ACD d   1     -26.884  15.203 -15.380  0.00  0.00     0.038 H 
BRANCH  19  22
ATOM     22  C3  ACD d   1     -27.020  13.281 -16.351  0.00  0.00    -0.053 C 
ATOM     23  H3  ACD d   1     -26.828  13.820 -17.291  0.00  0.00     0.034 H 
ATOM     24  H4  ACD d   1     -26.084  12.829 -15.989  0.00  0.00     0.034 H 
BRANCH  22  25
ATOM     25  C2  ACD d   1     -27.992  12.170 -16.641  0.00  0.00     0.016 C 
ATOM     26  H1  ACD d   1     -27.430  11.315 -17.045  0.00  0.00     0.049 H 
ATOM     27  H2  ACD d   1     -28.475  11.878 -15.697  0.00  0.00     0.049 H 
BRANCH  25  28
ATOM     28  C1  ACD d   1     -29.063  12.539 -17.625  0.00  0.00     0.172 C 
ATOM     29  O1  ACD d   1     -29.814  11.628 -18.040  0.00  0.00    -0.648 OA
ATOM     30  O2  ACD d   1     -29.131  13.718 -17.977  0.00  0.00    -0.648 OA
ENDBRANCH  25  28
ENDBRANCH  22  25
ENDBRANCH  19  22
ENDBRANCH  16  19
ENDBRANCH  12  15
ENDBRANCH   9  12
ENDBRANCH   5   8
ENDBRANCH   1   5
BRANCH   2  31
ATOM     31  C13 ACD d   1     -23.594  20.512 -11.886  0.00  0.00    -0.035 C 
ATOM     32  H17 ACD d   1     -22.567  20.757 -12.193  0.00  0.00     0.044 H 
ATOM     33  H18 ACD d   1     -23.584  19.602 -11.269  0.00  0.00     0.044 H 
BRANCH  31  34
ATOM     34  C14 ACD d   1     -24.184  21.655 -11.107  0.00  0.00    -0.103 C 
ATOM     35  C15 ACD d   1     -23.502  22.294 -10.195  0.00  0.00    -0.106 C 
ATOM     36  H20 ACD d   1     -23.968  23.137  -9.688  0.00  0.00     0.076 H 
ATOM     37  H19 ACD d   1     -25.210  21.959 -11.309  0.00  0.00     0.076 H 
BRANCH  35  38
ATOM     38  C16 ACD d   1     -22.103  21.912  -9.820  0.00  0.00    -0.050 C 
ATOM     39  H21 ACD d   1     -21.798  21.040 -10.417  0.00  0.00     0.038 H 
ATOM     40  H22 ACD d   1     -22.078  21.651  -8.752  0.00  0.00     0.038 H 
BRANCH  38  41
ATOM     41  C17 ACD d   1     -21.139  23.037 -10.071  0.00  0.00    -0.062 C 
ATOM     42  H23 ACD d   1     -21.622  23.991  -9.813  0.00  0.00     0.033 H 
ATOM     43  H24 ACD d   1     -20.861  23.043 -11.135  0.00  0.00     0.033 H 
BRANCH  41  44
ATOM     44  C18 ACD d   1     -19.896  22.871  -9.236  0.00  0.00    -0.065 C 
ATOM     45  H25 ACD d   1     -19.612  21.809  -9.195  0.00  0.00     0.033 H 
ATOM     46  H26 ACD d   1     -20.078  23.242  -8.216  0.00  0.00     0.033 H 
BRANCH  44  47
ATOM     47  C19 ACD d   1     -18.797  23.670  -9.883  0.00  0.00    -0.069 C 
ATOM     48  H27 ACD d   1     -19.237  24.449 -10.523  0.00  0.00     0.032 H 
ATOM     49  H28 ACD d   1     -18.170  23.004 -10.494  0.00  0.00     0.032 H 
BRANCH  47  50
ATOM     50  C20 ACD d   1     -17.961  24.309  -8.823  0.00  0.00    -0.077 C 
ATOM     51  H29 ACD d   1     -17.157  24.894  -9.293  0.00  0.00     0.027 H 
ATOM     52  H30 ACD d   1     -17.522  23.530  -8.183  0.00  0.00     0.027 H 
ATOM     53  H31 ACD d   1     -18.589  24.974  -8.212  0.00  0.00     0.027 H 
ENDBRANCH  47  50
ENDBRANCH  44  47
ENDBRANCH  41  44
ENDBRANCH  38  41
ENDBRANCH  35  38
ENDBRANCH  31  34
ENDBRANCH   2  31
TORSDOF 15
