REMARK  9 active torsions:
REMARK  status: ('A' for Active; 'I' for Inactive)
REMARK       I    between atoms: N1_16  and  C2_1 
REMARK       I    between atoms: C2_1  and  N8_21 
REMARK    1  A    between atoms: C4_17  and  C3_2 
REMARK       I    between atoms: C3_2  and  N6_19 
REMARK    2  A    between atoms: N6_19  and  C13_3 
REMARK    3  A    between atoms: C16_6  and  C14_4 
REMARK    4  A    between atoms: N8_21  and  C16_6 
REMARK    5  A    between atoms: C18_7  and  O10_23 
REMARK    6  A    between atoms: O10_23  and  C5_18 
REMARK    7  A    between atoms: C9_22  and  C7_20 
REMARK    8  A    between atoms: C7_20  and  O23_30 
REMARK    9  A    between atoms: O23_30  and  C31_31 
ROOT
ATOM      1  C2  5W5 d   1       7.929   8.552   1.875  0.00  0.00     0.319 C 
ATOM      2  C22 5W5 d   1       8.970  10.100   0.243  0.00  0.00     0.000 C 
ATOM      3  C24 5W5 d   1      10.652  10.951   1.723  0.00  0.00    -0.036 C 
ATOM      4  C25 5W5 d   1      10.477  10.399   0.288  0.00  0.00    -0.048 C 
ATOM      5  N1  5W5 d   1       8.863   9.490   1.565  0.00  0.00    -0.321 N 
ATOM      6  C4  5W5 d   1       9.784   9.996   2.574  0.00  0.00     0.093 C 
ATOM      7  N8  5W5 d   1       7.060   8.139   0.917  0.00  0.00    -0.339 N 
ATOM      8  O12 5W5 d   1       7.891   8.075   3.019  0.00  0.00    -0.247 OA
ATOM      9  H4  5W5 d   1       8.705   9.401  -0.564  0.00  0.00     0.064 H 
ATOM     10  H5  5W5 d   1       8.364  11.013   0.152  0.00  0.00     0.064 H 
ATOM     11  H6  5W5 d   1      10.287  11.986   1.795  0.00  0.00     0.036 H 
ATOM     12  H7  5W5 d   1      11.706  10.911   2.036  0.00  0.00     0.036 H 
ATOM     13  H8  5W5 d   1      10.758  11.149  -0.466  0.00  0.00     0.035 H 
ATOM     14  H9  5W5 d   1      11.071   9.486   0.136  0.00  0.00     0.035 H 
ATOM     15  H15 5W5 d   1      10.384   9.192   3.025  0.00  0.00     0.087 H 
ATOM     16  H17 5W5 d   1       7.082   8.574   0.017  0.00  0.00     0.164 HD
ENDROOT
BRANCH   6  17
ATOM     17  C3  5W5 d   1       9.035  10.740   3.647  0.00  0.00     0.245 C 
ATOM     18  N6  5W5 d   1       9.659  10.747   4.835  0.00  0.00    -0.325 N 
ATOM     19  H16 5W5 d   1      10.543  10.281   4.886  0.00  0.00     0.169 HD
ATOM     20  O11 5W5 d   1       7.950  11.272   3.414  0.00  0.00    -0.271 OA
BRANCH  18  21
ATOM     21  C13 5W5 d   1       9.184  11.350   6.017  0.00  0.00     0.037 A 
ATOM     22  C15 5W5 d   1       9.288  10.634   7.200  0.00  0.00    -0.025 A 
ATOM     23  C18 5W5 d   1       8.815  11.196   8.384  0.00  0.00     0.080 A 
ATOM     24  H1  5W5 d   1       9.733   9.646   7.204  0.00  0.00     0.091 H 
ATOM     25  C29 5W5 d   1       8.285  12.505   8.378  0.00  0.00    -0.050 A 
ATOM     26  C26 5W5 d   1       8.212  13.248   7.198  0.00  0.00    -0.078 A 
ATOM     27  H13 5W5 d   1       7.929  12.940   9.305  0.00  0.00     0.087 H 
ATOM     28  C28 5W5 d   1       8.673  12.665   6.016  0.00  0.00    -0.057 A 
ATOM     29  H10 5W5 d   1       7.807  14.254   7.200  0.00  0.00     0.083 H 
ATOM     30  H12 5W5 d   1       8.638  13.227   5.090  0.00  0.00     0.086 H 
BRANCH  23  31
ATOM     31  O10 5W5 d   1       8.926  10.431   9.541  0.00  0.00    -0.255 OA
BRANCH  31  32
ATOM     32  C5  5W5 d   1       7.840   9.668  10.050  0.00  0.00     0.530 C 
ATOM     33  F19 5W5 d   1       6.754  10.486  10.229  0.00  0.00    -0.144 F 
ATOM     34  F20 5W5 d   1       7.520   8.733   9.124  0.00  0.00    -0.144 F 
ATOM     35  F21 5W5 d   1       8.256   9.035  11.191  0.00  0.00    -0.144 F 
ENDBRANCH  31  32
ENDBRANCH  23  31
ENDBRANCH  18  21
ENDBRANCH   6  17
BRANCH   7  36
ATOM     36  C16 5W5 d   1       6.098   7.078   1.172  0.00  0.00     0.021 C 
ATOM     37  H2  5W5 d   1       6.047   6.449   0.271  0.00  0.00     0.071 H 
ATOM     38  H3  5W5 d   1       6.475   6.481   2.015  0.00  0.00     0.071 H 
BRANCH  36  39
ATOM     39  C14 5W5 d   1       4.671   7.517   1.514  0.00  0.00    -0.024 A 
ATOM     40  C30 5W5 d   1       4.402   8.901   1.653  0.00  0.00    -0.074 A 
ATOM     41  C33 5W5 d   1       3.118   9.354   1.991  0.00  0.00    -0.082 A 
ATOM     42  H14 5W5 d   1       5.199   9.619   1.496  0.00  0.00     0.084 H 
ATOM     43  C32 5W5 d   1       2.097   8.413   2.189  0.00  0.00    -0.082 A 
ATOM     44  H22 5W5 d   1       2.918  10.414   2.097  0.00  0.00     0.083 H 
ATOM     45  C27 5W5 d   1       2.377   7.042   2.080  0.00  0.00    -0.067 A 
ATOM     46  H21 5W5 d   1       1.093   8.744   2.426  0.00  0.00     0.083 H 
ATOM     47  C9  5W5 d   1       3.656   6.552   1.736  0.00  0.00     0.047 A 
ATOM     48  H11 5W5 d   1       1.580   6.331   2.267  0.00  0.00     0.085 H 
BRANCH  47  49
ATOM     49  C7  5W5 d   1       3.813   5.030   1.607  0.00  0.00     0.293 C 
ATOM     50  O17 5W5 d   1       2.818   4.328   1.496  0.00  0.00    -0.259 OA
BRANCH  49  51
ATOM     51  O23 5W5 d   1       5.042   4.451   1.602  0.00  0.00    -0.323 OA
BRANCH  51  52
ATOM     52  C31 5W5 d   1       5.086   3.005   1.614  0.00  0.00     0.013 C 
ATOM     53  H18 5W5 d   1       6.134   2.670   1.608  0.00  0.00     0.067 H 
ATOM     54  H19 5W5 d   1       4.572   2.615   0.723  0.00  0.00     0.067 H 
ATOM     55  H20 5W5 d   1       4.586   2.630   2.519  0.00  0.00     0.067 H 
ENDBRANCH  51  52
ENDBRANCH  49  51
ENDBRANCH  47  49
ENDBRANCH  36  39
ENDBRANCH   7  36
TORSDOF 9
