REMARK  8 active torsions:
REMARK  status: ('A' for Active; 'I' for Inactive)
REMARK    1  A    between atoms: C36_2  and  C37_3 
REMARK       I    between atoms: C36_2  and  N34_8 
REMARK    2  A    between atoms: C37_3  and  C42_4 
REMARK    3  A    between atoms: C29_13  and  C27_14 
REMARK    4  A    between atoms: C23_19  and  N30_20 
REMARK    5  A    between atoms: C24_23  and  C3_24 
REMARK    6  A    between atoms: C6_28  and  C7_30 
REMARK       I    between atoms: C7_30  and  N9_32 
REMARK    7  A    between atoms: N9_32  and  C15_33 
REMARK    8  A    between atoms: C13_36  and  C16_37 
ROOT
ATOM      1  C27 5WF d   1     -17.988  33.891 -19.472  0.00  0.00     0.117 A 
ATOM      2  N26 5WF d   1     -18.638  32.830 -19.925  0.00  0.00    -0.303 N 
ATOM      3  C22 5WF d   1     -19.934  32.638 -20.302  0.00  0.00     0.004 A 
ATOM      4  C21 5WF d   1     -20.316  31.432 -20.796  0.00  0.00     0.020 A 
ATOM      5  C25 5WF d   1     -17.735  31.810 -20.064  0.00  0.00     0.116 A 
ATOM      6  C23 5WF d   1     -18.203  30.567 -20.543  0.00  0.00     0.150 A 
ATOM      7  N20 5WF d   1     -19.478  30.394 -20.901  0.00  0.00    -0.240 NA
ATOM      8  N28 5WF d   1     -16.726  33.569 -19.289  0.00  0.00    -0.231 NA
ATOM      9  C24 5WF d   1     -16.501  32.317 -19.639  0.00  0.00     0.100 A 
ATOM     10  H17 5WF d   1     -20.658  33.446 -20.208  0.00  0.00     0.114 H 
ATOM     11  H18 5WF d   1     -21.348  31.304 -21.120  0.00  0.00     0.117 H 
ENDROOT
BRANCH   1  12
ATOM     12  C29 5WF d   1     -18.656  35.212 -19.189  0.00  0.00     0.020 C 
ATOM     13  C31 5WF d   1     -17.639  36.342 -19.367  0.00  0.00    -0.052 C 
ATOM     14  C32 5WF d   1     -18.229  37.706 -18.959  0.00  0.00    -0.049 C 
ATOM     15  H12 5WF d   1     -16.759  36.132 -18.741  0.00  0.00     0.034 H 
ATOM     16  H13 5WF d   1     -17.336  36.386 -20.423  0.00  0.00     0.034 H 
ATOM     17  C33 5WF d   1     -18.551  37.583 -17.475  0.00  0.00    -0.002 C 
ATOM     18  H10 5WF d   1     -17.495  38.508 -19.128  0.00  0.00     0.035 H 
ATOM     19  H11 5WF d   1     -19.142  37.917 -19.534  0.00  0.00     0.035 H 
ATOM     20  N34 5WF d   1     -19.674  36.586 -17.418  0.00  0.00    -0.351 N 
ATOM     21  H8  5WF d   1     -17.677  37.217 -16.916  0.00  0.00     0.064 H 
ATOM     22  H9  5WF d   1     -18.870  38.552 -17.064  0.00  0.00     0.064 H 
ATOM     23  C36 5WF d   1     -21.053  36.874 -17.166  0.00  0.00     0.232 C 
ATOM     24  C35 5WF d   1     -19.201  35.206 -17.749  0.00  0.00     0.007 C 
ATOM     25  O38 5WF d   1     -21.850  35.980 -17.161  0.00  0.00    -0.272 OA
ATOM     26  H14 5WF d   1     -20.039  34.498 -17.672  0.00  0.00     0.065 H 
ATOM     27  H15 5WF d   1     -18.404  34.909 -17.051  0.00  0.00     0.065 H 
ATOM     28  H16 5WF d   1     -19.489  35.360 -19.892  0.00  0.00     0.054 H 
BRANCH  23  29
ATOM     29  C37 5WF d   1     -21.718  38.215 -16.850  0.00  0.00     0.080 C 
ATOM     30  C41 5WF d   1     -21.017  39.097 -15.759  0.00  0.00     0.036 C 
ATOM     31  O40 5WF d   1     -22.279  39.083 -15.016  0.00  0.00    -0.389 OA
ATOM     32  H4  5WF d   1     -20.703  40.092 -16.108  0.00  0.00     0.076 H 
ATOM     33  H5  5WF d   1     -20.178  38.607 -15.244  0.00  0.00     0.076 H 
ATOM     34  C39 5WF d   1     -22.923  38.075 -15.860  0.00  0.00     0.036 C 
ATOM     35  H6  5WF d   1     -23.019  37.083 -15.395  0.00  0.00     0.076 H 
ATOM     36  H7  5WF d   1     -23.894  38.380 -16.276  0.00  0.00     0.076 H 
BRANCH  29  37
ATOM     37  C42 5WF d   1     -22.225  38.969 -18.111  0.00  0.00    -0.057 C 
ATOM     38  H1  5WF d   1     -22.689  39.919 -17.808  0.00  0.00     0.029 H 
ATOM     39  H2  5WF d   1     -22.967  38.349 -18.635  0.00  0.00     0.029 H 
ATOM     40  H3  5WF d   1     -21.378  39.172 -18.782  0.00  0.00     0.029 H 
ENDBRANCH  29  37
ENDBRANCH  23  29
ENDBRANCH   1  12
BRANCH   9  41
ATOM     41  C3  5WF d   1     -15.157  31.697 -19.596  0.00  0.00    -0.005 A 
ATOM     42  C2  5WF d   1     -14.581  31.264 -20.792  0.00  0.00    -0.070 A 
ATOM     43  C1  5WF d   1     -13.307  30.723 -20.862  0.00  0.00    -0.067 A 
ATOM     44  H21 5WF d   1     -15.156  31.355 -21.706  0.00  0.00     0.084 H 
ATOM     45  C6  5WF d   1     -12.586  30.617 -19.687  0.00  0.00     0.032 A 
ATOM     46  H24 5WF d   1     -12.890  30.394 -21.807  0.00  0.00     0.085 H 
ATOM     47  C5  5WF d   1     -13.162  31.092 -18.478  0.00  0.00    -0.067 A 
ATOM     48  C4  5WF d   1     -14.405  31.650 -18.430  0.00  0.00    -0.070 A 
ATOM     49  H23 5WF d   1     -12.592  31.008 -17.560  0.00  0.00     0.085 H 
ATOM     50  H22 5WF d   1     -14.798  32.048 -17.501  0.00  0.00     0.084 H 
BRANCH  45  51
ATOM     51  C7  5WF d   1     -11.231  30.037 -19.657  0.00  0.00     0.257 C 
ATOM     52  O8  5WF d   1     -10.486  30.212 -20.600  0.00  0.00    -0.267 OA
ATOM     53  N9  5WF d   1     -10.901  29.327 -18.542  0.00  0.00    -0.307 N 
ATOM     54  H25 5WF d   1     -11.606  29.252 -17.837  0.00  0.00     0.170 HD
BRANCH  53  55
ATOM     55  C15 5WF d   1      -9.689  28.694 -18.278  0.00  0.00     0.130 A 
ATOM     56  N10 5WF d   1      -9.601  28.109 -17.053  0.00  0.00    -0.243 NA
ATOM     57  C11 5WF d   1      -8.475  27.481 -16.723  0.00  0.00     0.005 A 
ATOM     58  C12 5WF d   1      -7.366  27.421 -17.586  0.00  0.00    -0.051 A 
ATOM     59  H28 5WF d   1      -8.410  26.998 -15.755  0.00  0.00     0.114 H 
ATOM     60  C13 5WF d   1      -7.416  28.033 -18.840  0.00  0.00     0.052 A 
ATOM     61  H27 5WF d   1      -6.469  26.898 -17.276  0.00  0.00     0.086 H 
ATOM     62  C14 5WF d   1      -8.603  28.661 -19.183  0.00  0.00    -0.024 A 
ATOM     63  H26 5WF d   1      -8.700  29.132 -20.155  0.00  0.00     0.090 H 
BRANCH  60  64
ATOM     64  C16 5WF d   1      -6.254  28.031 -19.842  0.00  0.00     0.417 C 
ATOM     65  F19 5WF d   1      -6.167  29.243 -20.456  0.00  0.00    -0.166 F 
ATOM     66  F18 5WF d   1      -6.497  27.076 -20.782  0.00  0.00    -0.166 F 
ATOM     67  F17 5WF d   1      -5.049  27.775 -19.253  0.00  0.00    -0.166 F 
ENDBRANCH  60  64
ENDBRANCH  53  55
ENDBRANCH  45  51
ENDBRANCH   9  41
BRANCH   6  68
ATOM     68  N30 5WF d   1     -17.350  29.523 -20.650  0.00  0.00    -0.382 N 
ATOM     69  H19 5WF d   1     -17.689  28.615 -20.999  0.00  0.00     0.157 HD
ATOM     70  H20 5WF d   1     -16.362  29.636 -20.382  0.00  0.00     0.157 HD
ENDBRANCH   6  68
TORSDOF 8
