REMARK  8 active torsions:
REMARK  status: ('A' for Active; 'I' for Inactive)
REMARK    1  A    between atoms: C04_4  and  N11_11 
REMARK    2  A    between atoms: C10_10  and  C07_7 
REMARK    3  A    between atoms: C09_9  and  C17_17 
REMARK    4  A    between atoms: C14_14  and  C37_37 
REMARK       I    between atoms: N15_15  and  C38_38 
REMARK    5  A    between atoms: C20_20  and  C24_24 
REMARK       I    between atoms: C24_24  and  N26_26 
REMARK    6  A    between atoms: N26_26  and  C27_27 
REMARK    7  A    between atoms: C31_31  and  C33_33 
REMARK    8  A    between atoms: C38_38  and  C40_40 
ROOT
ATOM      1  N01 5WH d   1     -21.092   4.872 -19.542  0.00  0.00    -0.240 NA
ATOM      2  C02 5WH d   1     -20.140   5.124 -20.448  0.00  0.00     0.020 A 
ATOM      3  C03 5WH d   1     -18.909   5.624 -20.100  0.00  0.00     0.004 A 
ATOM      4  C04 5WH d   1     -20.884   5.065 -18.243  0.00  0.00     0.150 A 
ATOM      5  C05 5WH d   1     -19.615   5.559 -17.770  0.00  0.00     0.116 A 
ATOM      6  N06 5WH d   1     -18.674   5.880 -18.752  0.00  0.00    -0.303 N 
ATOM      7  C07 5WH d   1     -17.535   6.304 -18.127  0.00  0.00     0.117 A 
ATOM      8  N08 5WH d   1     -17.759   6.351 -16.805  0.00  0.00    -0.231 NA
ATOM      9  C09 5WH d   1     -19.035   5.898 -16.597  0.00  0.00     0.103 A 
ATOM     10  H1  5WH d   1     -20.349   4.926 -21.498  0.00  0.00     0.117 H 
ATOM     11  H2  5WH d   1     -18.144   5.813 -20.852  0.00  0.00     0.114 H 
ENDROOT
BRANCH   9  12
ATOM     12  C17 5WH d   1     -19.496   5.802 -15.273  0.00  0.00     0.034 A 
ATOM     13  C18 5WH d   1     -19.755   4.599 -14.640  0.00  0.00     0.130 A 
ATOM     14  C19 5WH d   1     -20.194   4.500 -13.348  0.00  0.00    -0.029 A 
ATOM     15  F23 5WH d   1     -19.643   3.451 -15.354  0.00  0.00    -0.205 F 
ATOM     16  C20 5WH d   1     -20.362   5.666 -12.604  0.00  0.00     0.035 A 
ATOM     17  H13 5WH d   1     -20.407   3.531 -12.911  0.00  0.00     0.089 H 
ATOM     18  C21 5WH d   1     -20.033   6.888 -13.183  0.00  0.00    -0.067 A 
ATOM     19  C22 5WH d   1     -19.630   6.958 -14.503  0.00  0.00    -0.067 A 
ATOM     20  H14 5WH d   1     -20.093   7.795 -12.592  0.00  0.00     0.085 H 
ATOM     21  H15 5WH d   1     -19.415   7.924 -14.946  0.00  0.00     0.085 H 
BRANCH  16  22
ATOM     22  C24 5WH d   1     -20.742   5.492 -11.166  0.00  0.00     0.257 C 
ATOM     23  O25 5WH d   1     -20.732   4.381 -10.647  0.00  0.00    -0.267 OA
ATOM     24  N26 5WH d   1     -21.039   6.623 -10.480  0.00  0.00    -0.307 N 
ATOM     25  H16 5WH d   1     -21.098   7.460 -11.025  0.00  0.00     0.170 HD
BRANCH  24  26
ATOM     26  C27 5WH d   1     -21.275   6.772  -9.104  0.00  0.00     0.130 A 
ATOM     27  N28 5WH d   1     -21.819   7.968  -8.819  0.00  0.00    -0.243 NA
ATOM     28  C29 5WH d   1     -22.088   8.232  -7.531  0.00  0.00     0.005 A 
ATOM     29  C30 5WH d   1     -21.846   7.342  -6.510  0.00  0.00    -0.051 A 
ATOM     30  H17 5WH d   1     -22.518   9.196  -7.282  0.00  0.00     0.114 H 
ATOM     31  C31 5WH d   1     -21.273   6.112  -6.797  0.00  0.00     0.052 A 
ATOM     32  H18 5WH d   1     -22.101   7.600  -5.489  0.00  0.00     0.086 H 
ATOM     33  C32 5WH d   1     -20.982   5.811  -8.126  0.00  0.00    -0.024 A 
ATOM     34  H19 5WH d   1     -20.541   4.859  -8.397  0.00  0.00     0.090 H 
BRANCH  31  35
ATOM     35  C33 5WH d   1     -20.996   5.111  -5.718  0.00  0.00     0.417 C 
ATOM     36  F34 5WH d   1     -20.964   3.844  -6.148  0.00  0.00    -0.166 F 
ATOM     37  F35 5WH d   1     -19.829   5.318  -5.112  0.00  0.00    -0.166 F 
ATOM     38  F36 5WH d   1     -21.935   5.088  -4.782  0.00  0.00    -0.166 F 
ENDBRANCH  31  35
ENDBRANCH  24  26
ENDBRANCH  16  22
ENDBRANCH   9  12
BRANCH   4  39
ATOM     39  N11 5WH d   1     -21.919   4.768 -17.416  0.00  0.00    -0.382 N 
ATOM     40  H4  5WH d   1     -21.819   4.897 -16.399  0.00  0.00     0.157 HD
ATOM     41  H5  5WH d   1     -22.804   4.414 -17.806  0.00  0.00     0.157 HD
ENDBRANCH   4  39
BRANCH   7  42
ATOM     42  C10 5WH d   1     -16.277   6.706 -18.832  0.00  0.00     0.020 C 
ATOM     43  C12 5WH d   1     -16.384   8.197 -19.183  0.00  0.00     0.008 C 
ATOM     44  N15 5WH d   1     -15.167   8.654 -19.878  0.00  0.00    -0.346 N 
ATOM     45  H6  5WH d   1     -16.512   8.778 -18.258  0.00  0.00     0.065 H 
ATOM     46  H7  5WH d   1     -17.254   8.353 -19.837  0.00  0.00     0.065 H 
ATOM     47  C14 5WH d   1     -13.943   8.500 -19.002  0.00  0.00     0.011 C 
ATOM     48  C38 5WH d   1     -15.178   9.051 -21.170  0.00  0.00     0.231 C 
ATOM     49  C13 5WH d   1     -13.791   7.031 -18.623  0.00  0.00    -0.045 C 
ATOM     50  H10 5WH d   1     -13.063   8.780 -19.600  0.00  0.00     0.072 H 
ATOM     51  C16 5WH d   1     -15.040   6.450 -17.965  0.00  0.00    -0.052 C 
ATOM     52  H8  5WH d   1     -12.949   6.936 -17.921  0.00  0.00     0.036 H 
ATOM     53  H9  5WH d   1     -13.575   6.455 -19.535  0.00  0.00     0.036 H 
ATOM     54  H11 5WH d   1     -14.908   5.366 -17.835  0.00  0.00     0.034 H 
ATOM     55  H12 5WH d   1     -15.184   6.923 -16.982  0.00  0.00     0.034 H 
ATOM     56  O39 5WH d   1     -16.168   8.915 -21.851  0.00  0.00    -0.272 OA
ATOM     57  H3  5WH d   1     -16.183   6.121 -19.759  0.00  0.00     0.054 H 
BRANCH  47  58
ATOM     58  C37 5WH d   1     -13.979   9.435 -17.803  0.00  0.00    -0.057 C 
ATOM     59  H20 5WH d   1     -14.090  10.473 -18.151  0.00  0.00     0.030 H 
ATOM     60  H21 5WH d   1     -13.043   9.337 -17.233  0.00  0.00     0.030 H 
ATOM     61  H22 5WH d   1     -14.830   9.172 -17.158  0.00  0.00     0.030 H 
ENDBRANCH  47  58
BRANCH  48  62
ATOM     62  C40 5WH d   1     -13.924   9.601 -21.821  0.00  0.00     0.056 A 
ATOM     63  C41 5WH d   1     -14.016  10.061 -23.258  0.00  0.00    -0.089 A 
ATOM     64  C42 5WH d   1     -13.393   8.753 -22.954  0.00  0.00    -0.089 A 
ATOM     65  H24 5WH d   1     -14.320  10.810 -23.987  0.00  0.00     0.078 H 
ATOM     66  H25 5WH d   1     -12.906   7.842 -23.297  0.00  0.00     0.078 H 
ATOM     67  H23 5WH d   1     -13.270  10.105 -21.094  0.00  0.00     0.067 H 
ENDBRANCH  48  62
ENDBRANCH   7  42
TORSDOF 8
