REMARK  2 active torsions:
REMARK  status: ('A' for Active; 'I' for Inactive)
REMARK    1  A    between atoms: C11_12  and  C3_3 
REMARK       I    between atoms: C17_19  and  N1_15 
REMARK    2  A    between atoms: C14_16  and  C17_19 
ROOT
ATOM      1  C1  5YA d   1      38.845  17.060 123.307  0.00  0.00    -0.081 A 
ATOM      2  C2  5YA d   1      38.504  15.761 122.963  0.00  0.00    -0.071 A 
ATOM      3  C3  5YA d   1      37.192  15.289 123.118  0.00  0.00    -0.015 A 
ATOM      4  C4  5YA d   1      36.204  16.147 123.703  0.00  0.00    -0.015 A 
ATOM      5  C5  5YA d   1      36.552  17.431 124.036  0.00  0.00    -0.025 A 
ATOM      6  C6  5YA d   1      37.885  17.908 123.843  0.00  0.00    -0.072 A 
ATOM      7  C7  5YA d   1      34.865  15.728 123.919  0.00  0.00    -0.071 A 
ATOM      8  C8  5YA d   1      33.924  16.623 124.472  0.00  0.00    -0.082 A 
ATOM      9  C9  5YA d   1      34.287  17.920 124.801  0.00  0.00    -0.082 A 
ATOM     10  C10 5YA d   1      35.591  18.336 124.591  0.00  0.00    -0.072 A 
ATOM     11  H1  5YA d   1      39.859  17.413 123.158  0.00  0.00     0.083 H 
ATOM     12  H2  5YA d   1      39.265  15.098 122.567  0.00  0.00     0.084 H 
ATOM     13  H3  5YA d   1      38.145  18.925 124.113  0.00  0.00     0.084 H 
ATOM     14  H4  5YA d   1      34.565  14.719 123.659  0.00  0.00     0.084 H 
ATOM     15  H5  5YA d   1      32.906  16.292 124.641  0.00  0.00     0.083 H 
ATOM     16  H6  5YA d   1      33.556  18.603 125.219  0.00  0.00     0.083 H 
ATOM     17  H7  5YA d   1      35.885  19.348 124.847  0.00  0.00     0.084 H 
ENDROOT
BRANCH   3  18
ATOM     18  C11 5YA d   1      37.055  13.834 122.758  0.00  0.00    -0.025 A 
ATOM     19  C12 5YA d   1      36.647  12.972 123.789  0.00  0.00    -0.071 A 
ATOM     20  C13 5YA d   1      36.566  11.598 123.575  0.00  0.00    -0.067 A 
ATOM     21  H8  5YA d   1      36.393  13.380 124.761  0.00  0.00     0.084 H 
ATOM     22  C14 5YA d   1      36.899  11.052 122.328  0.00  0.00     0.036 A 
ATOM     23  H9  5YA d   1      36.243  10.946 124.379  0.00  0.00     0.085 H 
ATOM     24  C15 5YA d   1      37.341  11.899 121.301  0.00  0.00    -0.067 A 
ATOM     25  C16 5YA d   1      37.434  13.295 121.524  0.00  0.00    -0.071 A 
ATOM     26  H10 5YA d   1      37.611  11.485 120.336  0.00  0.00     0.085 H 
ATOM     27  H11 5YA d   1      37.799  13.946 120.738  0.00  0.00     0.084 H 
BRANCH  22  28
ATOM     28  C17 5YA d   1      36.804   9.535 122.217  0.00  0.00     0.302 C 
ATOM     29  O1  5YA d   1      36.653   8.944 121.110  0.00  0.00    -0.263 OA
ATOM     30  N1  5YA d   1      36.996   8.784 123.464  0.00  0.00    -0.054 NA
ATOM     31  O2  5YA d   1      36.973   7.503 123.612  0.00  0.00    -0.058 OA
ENDBRANCH  22  28
ENDBRANCH   3  18
TORSDOF 2
