REMARK  8 active torsions:
REMARK  status: ('A' for Active; 'I' for Inactive)
REMARK    1  A    between atoms: C28_1  and  N26_2 
REMARK    2  A    between atoms: N26_2  and  C29_3 
REMARK    3  A    between atoms: N26_2  and  S24_4 
REMARK    4  A    between atoms: S24_4  and  N7_7 
REMARK    5  A    between atoms: N7_7  and  C3_8 
REMARK    6  A    between atoms: C1_15  and  N8_16 
REMARK    7  A    between atoms: N8_16  and  C9_17 
REMARK    8  A    between atoms: C10_22  and  C15_23 
ROOT
ATOM      1  C3  5XJ d   1       8.356  26.939  -3.252  0.00  0.00     0.084 A 
ATOM      2  C2  5XJ d   1       6.999  26.884  -3.117  0.00  0.00     0.173 A 
ATOM      3  F31 5XJ d   1       6.267  27.157  -4.196  0.00  0.00    -0.201 F 
ATOM      4  C4  5XJ d   1       9.175  26.655  -2.172  0.00  0.00    -0.051 A 
ATOM      5  C5  5XJ d   1       8.627  26.331  -0.946  0.00  0.00    -0.041 A 
ATOM      6  C6  5XJ d   1       7.256  26.293  -0.810  0.00  0.00     0.146 A 
ATOM      7  F30 5XJ d   1       6.781  25.994   0.400  0.00  0.00    -0.204 F 
ATOM      8  C1  5XJ d   1       6.419  26.565  -1.898  0.00  0.00     0.114 A 
ATOM      9  H8  5XJ d   1      10.252  26.687  -2.289  0.00  0.00     0.087 H 
ATOM     10  H9  5XJ d   1       9.268  26.109  -0.101  0.00  0.00     0.088 H 
ENDROOT
BRANCH   8  11
ATOM     11  N8  5XJ d   1       5.080  26.558  -1.788  0.00  0.00    -0.335 N 
ATOM     12  H10 5XJ d   1       4.620  27.372  -1.357  0.00  0.00     0.168 HD
BRANCH  11  13
ATOM     13  C9  5XJ d   1       4.309  25.536  -2.215  0.00  0.00     0.140 A 
ATOM     14  N14 5XJ d   1       4.875  24.584  -2.991  0.00  0.00    -0.242 NA
ATOM     15  C13 5XJ d   1       4.208  23.532  -3.429  0.00  0.00     0.004 A 
ATOM     16  C12 5XJ d   1       2.870  23.389  -3.128  0.00  0.00    -0.065 A 
ATOM     17  H11 5XJ d   1       4.713  22.780  -4.026  0.00  0.00     0.114 H 
ATOM     18  C11 5XJ d   1       2.229  24.340  -2.359  0.00  0.00    -0.066 A 
ATOM     19  H12 5XJ d   1       2.321  22.529  -3.495  0.00  0.00     0.085 H 
ATOM     20  C10 5XJ d   1       2.941  25.434  -1.868  0.00  0.00     0.041 A 
ATOM     21  H13 5XJ d   1       1.173  24.236  -2.137  0.00  0.00     0.085 H 
BRANCH  20  22
ATOM     22  C15 5XJ d   1       2.275  26.433  -1.127  0.00  0.00     0.104 A 
ATOM     23  N16 5XJ d   1       2.956  27.497  -0.684  0.00  0.00    -0.239 NA
ATOM     24  C17 5XJ d   1       2.367  28.477  -0.028  0.00  0.00     0.089 A 
ATOM     25  N18 5XJ d   1       1.072  28.473   0.215  0.00  0.00    -0.222 NA
ATOM     26  H14 5XJ d   1       2.966  29.310   0.322  0.00  0.00     0.146 H 
ATOM     27  C19 5XJ d   1       0.312  27.460  -0.204  0.00  0.00     0.161 A 
ATOM     28  C20 5XJ d   1       0.891  26.415  -0.903  0.00  0.00     0.133 A 
ATOM     29  N21 5XJ d   1      -0.994  27.200  -0.102  0.00  0.00    -0.334 N 
ATOM     30  N23 5XJ d   1      -0.097  25.553  -1.184  0.00  0.00    -0.238 NA
ATOM     31  C22 5XJ d   1      -1.243  26.032  -0.703  0.00  0.00     0.066 A 
ATOM     32  H15 5XJ d   1      -2.218  25.553  -0.785  0.00  0.00     0.143 H 
ATOM     33  H16 5XJ d   1      -1.692  27.799   0.362  0.00  0.00     0.168 HD
ENDBRANCH  20  22
ENDBRANCH  11  13
ENDBRANCH   8  11
BRANCH   1  34
ATOM     34  N7  5XJ d   1       8.857  27.216  -4.445  0.00  0.00    -0.269 N 
ATOM     35  H7  5XJ d   1       8.507  26.723  -5.242  0.00  0.00     0.180 HD
BRANCH  34  36
ATOM     36  S24 5XJ d   1      10.021  28.329  -4.660  0.00  0.00     0.302 S 
ATOM     37  O25 5XJ d   1      11.300  27.639  -4.309  0.00  0.00    -0.188 OA
ATOM     38  O27 5XJ d   1      10.095  28.785  -6.074  0.00  0.00    -0.188 OA
BRANCH  36  39
ATOM     39  N26 5XJ d   1       9.772  29.589  -3.635  0.00  0.00    -0.202 NA
BRANCH  39  40
ATOM     40  C28 5XJ d   1      11.055  30.214  -3.280  0.00  0.00    -0.018 C 
ATOM     41  H1  5XJ d   1      10.876  31.055  -2.594  0.00  0.00     0.050 H 
ATOM     42  H2  5XJ d   1      11.548  30.583  -4.192  0.00  0.00     0.050 H 
ATOM     43  H3  5XJ d   1      11.701  29.472  -2.788  0.00  0.00     0.050 H 
ENDBRANCH  39  40
BRANCH  39  44
ATOM     44  C29 5XJ d   1       8.923  30.615  -4.263  0.00  0.00    -0.018 C 
ATOM     45  H4  5XJ d   1       8.771  31.446  -3.559  0.00  0.00     0.050 H 
ATOM     46  H5  5XJ d   1       7.950  30.175  -4.526  0.00  0.00     0.050 H 
ATOM     47  H6  5XJ d   1       9.414  30.990  -5.173  0.00  0.00     0.050 H 
ENDBRANCH  39  44
ENDBRANCH  36  39
ENDBRANCH  34  36
ENDBRANCH   1  34
TORSDOF 8
