REMARK  5 active torsions:
REMARK  status: ('A' for Active; 'I' for Inactive)
REMARK    1  A    between atoms: CAO_2  and  CAM_3 
REMARK    2  A    between atoms: CAN_5  and  OAQ_6 
REMARK    3  A    between atoms: CAL_7  and  NAR_8 
REMARK    4  A    between atoms: CAI_12  and  CAH_13 
REMARK    5  A    between atoms: CAH_13  and  CAB_14 
ROOT
ATOM      1  CAM 4P8 d   1       0.242 -26.885 -15.713  0.00  0.00     0.038 A 
ATOM      2  CAK 4P8 d   1       0.774 -27.511 -14.584  0.00  0.00    -0.061 A 
ATOM      3  CAN 4P8 d   1      -0.798 -27.509 -16.393  0.00  0.00     0.112 A 
ATOM      4  CAL 4P8 d   1      -1.294 -28.737 -15.982  0.00  0.00     0.137 A 
ATOM      5  CAJ 4P8 d   1      -0.773 -29.351 -14.844  0.00  0.00    -0.042 A 
ATOM      6  CAI 4P8 d   1       0.274 -28.743 -14.146  0.00  0.00    -0.050 A 
ATOM      7  H2  4P8 d   1       1.583 -27.038 -14.040  0.00  0.00     0.085 H 
ATOM      8  H4  4P8 d   1      -1.178 -30.296 -14.502  0.00  0.00     0.088 H 
ENDROOT
BRANCH   6   9
ATOM      9  CAH 4P8 d   1       0.822 -29.350 -13.003  0.00  0.00    -0.015 C 
ATOM     10  H5  4P8 d   1       0.023 -29.497 -12.261  0.00  0.00     0.047 H 
ATOM     11  H6  4P8 d   1       1.594 -28.688 -12.585  0.00  0.00     0.047 H 
BRANCH   9  12
ATOM     12  CAB 4P8 d   1       1.401 -30.592 -13.297  0.00  0.00    -0.032 A 
ATOM     13  CAA 4P8 d   1       2.696 -30.668 -13.805  0.00  0.00     0.040 A 
ATOM     14 CLG  4P8 d   1       3.630 -29.225 -14.094  0.00  0.00    -0.084 Cl
ATOM     15  CAF 4P8 d   1       3.254 -31.912 -14.090  0.00  0.00    -0.061 A 
ATOM     16  CAE 4P8 d   1       2.536 -33.083 -13.870  0.00  0.00    -0.081 A 
ATOM     17  H7  4P8 d   1       4.261 -31.968 -14.488  0.00  0.00     0.086 H 
ATOM     18  CAD 4P8 d   1       1.246 -33.013 -13.359  0.00  0.00    -0.082 A 
ATOM     19  H8  4P8 d   1       2.981 -34.045 -14.096  0.00  0.00     0.083 H 
ATOM     20  CAC 4P8 d   1       0.688 -31.770 -13.073  0.00  0.00    -0.075 A 
ATOM     21  H9  4P8 d   1       0.678 -33.920 -13.184  0.00  0.00     0.083 H 
ATOM     22  H10 4P8 d   1      -0.317 -31.717 -12.670  0.00  0.00     0.084 H 
ENDBRANCH   9  12
ENDBRANCH   6   9
BRANCH   1  23
ATOM     23  CAO 4P8 d   1       0.750 -25.667 -16.155  0.00  0.00     0.121 C 
ATOM     24  OAP 4P8 d   1       0.300 -25.119 -17.161  0.00  0.00    -0.301 OA
ATOM     25  H1  4P8 d   1       1.558 -25.191 -15.602  0.00  0.00     0.151 H 
ENDBRANCH   1  23
BRANCH   4  26
ATOM     26  NAR 4P8 d   1      -2.302 -29.257 -16.681  0.00  0.00    -0.113 N 
ATOM     27  OAT 4P8 d   1      -2.942 -28.434 -17.792  0.00  0.00    -0.532 OA
ATOM     28  OAS 4P8 d   1      -2.803 -30.488 -16.276  0.00  0.00    -0.532 OA
ENDBRANCH   4  26
BRANCH   3  29
ATOM     29  OAQ 4P8 d   1      -1.325 -26.916 -17.503  0.00  0.00    -0.357 OA
ATOM     30  H3  4P8 d   1      -2.021 -27.461 -17.851  0.00  0.00     0.217 HD
ENDBRANCH   3  29
TORSDOF 5
