REMARK  9 active torsions:
REMARK  status: ('A' for Active; 'I' for Inactive)
REMARK    1  A    between atoms: C16_7  and  C15_8 
REMARK    2  A    between atoms: C15_8  and  C11_9 
REMARK    3  A    between atoms: C11_9  and  C14_12 
REMARK    4  A    between atoms: C14_12  and  O27_13 
REMARK    5  A    between atoms: C14_12  and  C22_14 
REMARK    6  A    between atoms: C22_14  and  C23_15 
REMARK    7  A    between atoms: C23_15  and  C24_17 
REMARK    8  A    between atoms: N8_22  and  C7_23 
REMARK    9  A    between atoms: C7_23  and  C2_24 
ROOT
ATOM      1  C11 0N8 d   1      -0.747  34.227  15.699  0.00  0.00    -0.007 C 
ATOM      2  C10 0N8 d   1      -1.256  35.172  14.527  0.00  0.00    -0.033 C 
ATOM      3  C9  0N8 d   1      -0.325  36.500  14.308  0.00  0.00     0.085 C 
ATOM      4  C12 0N8 d   1      -0.323  35.374  16.395  0.00  0.00    -0.033 C 
ATOM      5  C13 0N8 d   1       1.049  35.759  15.543  0.00  0.00     0.085 C 
ATOM      6  N8  0N8 d   1       0.951  36.032  14.047  0.00  0.00    -0.067 N 
ATOM      7  H7  0N8 d   1      -2.279  35.499  14.763  0.00  0.00     0.036 H 
ATOM      8  H8  0N8 d   1      -1.263  34.593  13.591  0.00  0.00     0.036 H 
ATOM      9  H9  0N8 d   1      -0.326  37.121  15.216  0.00  0.00     0.076 H 
ATOM     10  H10 0N8 d   1      -0.697  37.091  13.458  0.00  0.00     0.076 H 
ATOM     11  H15 0N8 d   1      -0.097  35.149  17.448  0.00  0.00     0.036 H 
ATOM     12  H16 0N8 d   1      -1.071  36.179  16.344  0.00  0.00     0.036 H 
ATOM     13  H17 0N8 d   1       1.750  34.921  15.670  0.00  0.00     0.076 H 
ATOM     14  H18 0N8 d   1       1.470  36.663  16.006  0.00  0.00     0.076 H 
ATOM     15  H19 0N8 d   1       0.816  35.217  13.470  0.00  0.00     0.280 HD
ENDROOT
BRANCH   1  16
ATOM     16  C15 0N8 d   1      -1.827  33.169  15.686  0.00  0.00    -0.032 C 
ATOM     17  H5  0N8 d   1      -2.814  33.644  15.588  0.00  0.00     0.041 H 
ATOM     18  H6  0N8 d   1      -1.666  32.481  14.843  0.00  0.00     0.041 H 
BRANCH  16  19
ATOM     19  C16 0N8 d   1      -1.755  32.458  16.907  0.00  0.00    -0.057 A 
ATOM     20  C17 0N8 d   1      -1.486  31.090  16.886  0.00  0.00    -0.075 A 
ATOM     21  C18 0N8 d   1      -1.381  30.354  18.059  0.00  0.00    -0.061 A 
ATOM     22  H2  0N8 d   1      -1.356  30.590  15.933  0.00  0.00     0.084 H 
ATOM     23  C19 0N8 d   1      -1.549  30.982  19.283  0.00  0.00     0.034 A 
ATOM     24  H1  0N8 d   1      -1.168  29.292  18.017  0.00  0.00     0.086 H 
ATOM     25 CL2  0N8 d   1      -1.423  30.049  20.724  0.00  0.00    -0.084 Cl
ATOM     26  C20 0N8 d   1      -1.814  32.349  19.329  0.00  0.00    -0.061 A 
ATOM     27  C21 0N8 d   1      -1.914  33.082  18.147  0.00  0.00    -0.075 A 
ATOM     28  H3  0N8 d   1      -1.943  32.843  20.285  0.00  0.00     0.086 H 
ATOM     29  H4  0N8 d   1      -2.117  34.146  18.191  0.00  0.00     0.084 H 
ENDBRANCH  16  19
ENDBRANCH   1  16
BRANCH   1  30
ATOM     30  C14 0N8 d   1       0.305  33.215  15.182  0.00  0.00     0.050 C 
ATOM     31  H11 0N8 d   1       1.009  34.013  14.902  0.00  0.00     0.084 H 
BRANCH  30  32
ATOM     32  O27 0N8 d   1       0.206  32.742  13.892  0.00  0.00    -0.394 OA
ATOM     33  H12 0N8 d   1       0.917  32.135  13.723  0.00  0.00     0.210 HD
ENDBRANCH  30  32
BRANCH  30  34
ATOM     34  C22 0N8 d   1       1.314  32.552  16.126  0.00  0.00     0.025 C 
ATOM     35  H13 0N8 d   1       0.735  32.021  16.896  0.00  0.00     0.049 H 
ATOM     36  H14 0N8 d   1       1.895  33.359  16.596  0.00  0.00     0.049 H 
BRANCH  34  37
ATOM     37  C23 0N8 d   1       2.316  31.554  15.552  0.00  0.00     0.227 C 
ATOM     38  O28 0N8 d   1       2.239  31.058  14.425  0.00  0.00    -0.286 OA
BRANCH  37  39
ATOM     39  C24 0N8 d   1       3.241  30.998  16.625  0.00  0.00     0.246 C 
ATOM     40  O26 0N8 d   1       3.193  31.524  17.756  0.00  0.00    -0.642 OA
ATOM     41  O25 0N8 d   1       4.129  30.158  16.353  0.00  0.00    -0.642 OA
ENDBRANCH  37  39
ENDBRANCH  34  37
ENDBRANCH  30  34
ENDBRANCH   1  30
BRANCH   6  42
ATOM     42  C7  0N8 d   1       2.344  36.427  13.731  0.00  0.00     0.107 C 
ATOM     43  H20 0N8 d   1       2.586  37.293  14.364  0.00  0.00     0.083 H 
ATOM     44  H21 0N8 d   1       2.363  36.729  12.673  0.00  0.00     0.083 H 
BRANCH  42  45
ATOM     45  C2  0N8 d   1       3.364  35.490  13.909  0.00  0.00    -0.033 A 
ATOM     46  C3  0N8 d   1       4.289  35.724  14.936  0.00  0.00    -0.075 A 
ATOM     47  C4  0N8 d   1       5.347  34.858  15.197  0.00  0.00    -0.082 A 
ATOM     48  H22 0N8 d   1       4.176  36.611  15.549  0.00  0.00     0.084 H 
ATOM     49  C5  0N8 d   1       5.502  33.740  14.396  0.00  0.00    -0.083 A 
ATOM     50  H23 0N8 d   1       6.035  35.055  16.011  0.00  0.00     0.083 H 
ATOM     51  C6  0N8 d   1       4.584  33.517  13.369  0.00  0.00    -0.082 A 
ATOM     52  H24 0N8 d   1       6.321  33.050  14.563  0.00  0.00     0.083 H 
ATOM     53  C1  0N8 d   1       3.516  34.375  13.100  0.00  0.00    -0.075 A 
ATOM     54  H25 0N8 d   1       4.706  32.635  12.750  0.00  0.00     0.083 H 
ATOM     55  H26 0N8 d   1       2.829  34.176  12.286  0.00  0.00     0.084 H 
ENDBRANCH  42  45
ENDBRANCH   6  42
TORSDOF 9
