REMARK  10 active torsions:
REMARK  status: ('A' for Active; 'I' for Inactive)
REMARK    1  A    between atoms: C09_14  and  C10_1 
REMARK    2  A    between atoms: C10_1  and  O11_15 
REMARK    3  A    between atoms: C16_20  and  C17_2 
REMARK    4  A    between atoms: C21_4  and  C22_5 
REMARK    5  A    between atoms: C07_12  and  C08_13 
REMARK    6  A    between atoms: C08_13  and  C09_14 
REMARK    7  A    between atoms: O11_15  and  C19_22 
REMARK    8  A    between atoms: C23_23  and  C12_16 
REMARK       I    between atoms: N25_25  and  C23_23 
REMARK    9  A    between atoms: S26_26  and  N25_25 
REMARK   10  A    between atoms: C32_32  and  S26_26 
ROOT
ATOM      1  C01 5X2 d   1      10.228  25.745  -8.483  0.00  0.00     0.020 A 
ATOM      2  C02 5X2 d   1      11.450  24.977  -9.066  0.00  0.00    -0.011 A 
ATOM      3  C03 5X2 d   1      11.212  23.629  -9.662  0.00  0.00    -0.101 A 
ATOM      4  C04 5X2 d   1       9.855  23.043  -9.708  0.00  0.00    -0.102 A 
ATOM      5  C05 5X2 d   1       8.700  23.802  -9.144  0.00  0.00    -0.024 A 
ATOM      6  C06 5X2 d   1       8.942  25.219  -8.510  0.00  0.00    -0.023 A 
ATOM      7  C07 5X2 d   1       8.090  26.128  -7.939  0.00  0.00    -0.017 A 
ATOM      8  C12 5X2 d   1       8.873  27.204  -7.573  0.00  0.00     0.108 A 
ATOM      9  N13 5X2 d   1      10.170  26.971  -7.904  0.00  0.00    -0.354 N 
ATOM     10  H10 5X2 d   1      12.176  24.850  -8.250  0.00  0.00     0.048 H 
ATOM     11  H11 5X2 d   1      11.889  25.609  -9.852  0.00  0.00     0.048 H 
ATOM     12  H12 5X2 d   1      12.052  23.068 -10.070  0.00  0.00     0.076 H 
ATOM     13  H13 5X2 d   1       9.699  22.061 -10.152  0.00  0.00     0.076 H 
ATOM     14  H14 5X2 d   1       8.255  23.172  -8.360  0.00  0.00     0.046 H 
ATOM     15  H15 5X2 d   1       7.976  23.936  -9.961  0.00  0.00     0.046 H 
ATOM     16  H20 5X2 d   1      10.964  27.608  -7.745  0.00  0.00     0.166 HD
ENDROOT
BRANCH   7  17
ATOM     17  C08 5X2 d   1       6.586  25.986  -7.756  0.00  0.00    -0.036 C 
ATOM     18  H16 5X2 d   1       6.173  25.375  -8.572  0.00  0.00     0.040 H 
ATOM     19  H17 5X2 d   1       6.119  26.982  -7.771  0.00  0.00     0.040 H 
BRANCH  17  20
ATOM     20  C09 5X2 d   1       6.301  25.312  -6.424  0.00  0.00    -0.041 C 
ATOM     21  H18 5X2 d   1       6.942  25.753  -5.646  0.00  0.00     0.036 H 
ATOM     22  H19 5X2 d   1       5.245  25.462  -6.157  0.00  0.00     0.036 H 
BRANCH  20  23
ATOM     23  C10 5X2 d   1       6.590  23.818  -6.532  0.00  0.00     0.026 C 
ATOM     24  H1  5X2 d   1       6.410  23.324  -5.566  0.00  0.00     0.075 H 
ATOM     25  H2  5X2 d   1       7.633  23.653  -6.840  0.00  0.00     0.075 H 
BRANCH  23  26
ATOM     26  O11 5X2 d   1       5.722  23.324  -7.492  0.00  0.00    -0.351 OA
BRANCH  26  27
ATOM     27  C19 5X2 d   1       5.821  21.959  -7.705  0.00  0.00     0.069 A 
ATOM     28  C20 5X2 d   1       6.736  21.107  -6.864  0.00  0.00    -0.043 A 
ATOM     29  C21 5X2 d   1       6.798  19.616  -7.138  0.00  0.00    -0.037 A 
ATOM     30  H6  5X2 d   1       7.338  21.550  -6.079  0.00  0.00     0.088 H 
ATOM     31  C14 5X2 d   1       5.958  19.005  -8.230  0.00  0.00     0.046 A 
ATOM     32 CL1  5X2 d   1       6.107  17.250  -8.483  0.00  0.00    -0.083 Cl
ATOM     33  C16 5X2 d   1       5.040  19.867  -9.075  0.00  0.00    -0.037 A 
ATOM     34  C18 5X2 d   1       4.984  21.350  -8.810  0.00  0.00    -0.043 A 
ATOM     35  H21 5X2 d   1       4.342  21.983  -9.413  0.00  0.00     0.088 H 
BRANCH  29  36
ATOM     36  C22 5X2 d   1       7.700  18.703  -6.317  0.00  0.00    -0.050 C 
ATOM     37  H7  5X2 d   1       8.241  19.300  -5.568  0.00  0.00     0.033 H 
ATOM     38  H8  5X2 d   1       8.422  18.207  -6.982  0.00  0.00     0.033 H 
ATOM     39  H9  5X2 d   1       7.088  17.944  -5.808  0.00  0.00     0.033 H 
ENDBRANCH  29  36
BRANCH  33  40
ATOM     40  C17 5X2 d   1       4.203  19.305 -10.215  0.00  0.00    -0.050 C 
ATOM     41  H3  5X2 d   1       3.622  20.116 -10.678  0.00  0.00     0.033 H 
ATOM     42  H4  5X2 d   1       3.517  18.539  -9.823  0.00  0.00     0.033 H 
ATOM     43  H5  5X2 d   1       4.865  18.853 -10.968  0.00  0.00     0.033 H 
ENDBRANCH  33  40
ENDBRANCH  26  27
ENDBRANCH  23  26
ENDBRANCH  20  23
ENDBRANCH  17  20
ENDBRANCH   7  17
BRANCH   8  44
ATOM     44  C23 5X2 d   1       8.556  28.493  -6.895  0.00  0.00     0.282 C 
ATOM     45  O24 5X2 d   1       7.524  28.739  -6.371  0.00  0.00    -0.265 OA
ATOM     46  N25 5X2 d   1       9.709  29.352  -6.936  0.00  0.00    -0.245 N 
ATOM     47  H22 5X2 d   1      10.545  29.031  -7.381  0.00  0.00     0.182 HD
BRANCH  46  48
ATOM     48  S26 5X2 d   1       9.677  30.888  -6.248  0.00  0.00     0.265 S 
ATOM     49  O27 5X2 d   1      10.947  31.576  -6.521  0.00  0.00    -0.200 OA
ATOM     50  O28 5X2 d   1       9.578  30.821  -4.786  0.00  0.00    -0.200 OA
BRANCH  48  51
ATOM     51  C32 5X2 d   1       8.298  31.752  -7.011  0.00  0.00     0.080 A 
ATOM     52  C31 5X2 d   1       8.394  32.024  -8.492  0.00  0.00    -0.060 A 
ATOM     53  C30 5X2 d   1       7.279  32.750  -9.220  0.00  0.00    -0.082 A 
ATOM     54  H25 5X2 d   1       9.269  31.697  -9.042  0.00  0.00     0.085 H 
ATOM     55  C29 5X2 d   1       6.058  33.191  -8.432  0.00  0.00    -0.083 A 
ATOM     56  H24 5X2 d   1       7.352  32.950 -10.283  0.00  0.00     0.083 H 
ATOM     57  C34 5X2 d   1       5.979  32.906  -6.935  0.00  0.00    -0.082 A 
ATOM     58  H23 5X2 d   1       5.245  33.706  -8.931  0.00  0.00     0.083 H 
ATOM     59  C33 5X2 d   1       7.093  32.173  -6.200  0.00  0.00    -0.060 A 
ATOM     60  H27 5X2 d   1       5.107  33.234  -6.380  0.00  0.00     0.083 H 
ATOM     61  H26 5X2 d   1       7.025  31.962  -5.139  0.00  0.00     0.085 H 
ENDBRANCH  48  51
ENDBRANCH  46  48
ENDBRANCH   8  44
TORSDOF 10
