REMARK  8 active torsions:
REMARK  status: ('A' for Active; 'I' for Inactive)
REMARK    1  A    between atoms: NAG_25  and  CAF_4 
REMARK    2  A    between atoms: CAK_8  and  CBI_32 
REMARK    3  A    between atoms: CAQ_14  and  CAN_11 
REMARK       I    between atoms: NAR_26  and  CAQ_14 
REMARK    4  A    between atoms: CAS_15  and  NAR_26 
REMARK    5  A    between atoms: CAU_17  and  CAY_21 
REMARK    6  A    between atoms: CAZ_22  and  CAW_19 
REMARK    7  A    between atoms: NBA_33  and  CAZ_22 
REMARK    8  A    between atoms: NBD_34  and  CBG_31 
ROOT
ATOM      1  CAS 5WR d   1      -4.526   2.633 -40.037  0.00  0.00     0.036 A 
ATOM      2  CAT 5WR d   1      -5.711   2.981 -39.360  0.00  0.00    -0.043 A 
ATOM      3  CAU 5WR d   1      -5.950   2.488 -38.057  0.00  0.00     0.050 A 
ATOM      4  CAV 5WR d   1      -4.999   1.613 -37.442  0.00  0.00    -0.060 A 
ATOM      5  CAW 5WR d   1      -3.823   1.258 -38.128  0.00  0.00    -0.030 A 
ATOM      6  CAX 5WR d   1      -3.608   1.731 -39.456  0.00  0.00    -0.049 A 
ATOM      7  H12 5WR d   1      -6.439   3.626 -39.838  0.00  0.00     0.088 H 
ATOM      8  H13 5WR d   1      -5.185   1.224 -36.447  0.00  0.00     0.085 H 
ATOM      9  H14 5WR d   1      -2.742   1.399 -40.018  0.00  0.00     0.087 H 
ENDROOT
BRANCH   1  10
ATOM     10  NAR 5WR d   1      -4.229   3.142 -41.301  0.00  0.00    -0.323 N 
ATOM     11  CAQ 5WR d   1      -4.655   4.439 -41.754  0.00  0.00     0.256 C 
ATOM     12  OBH 5WR d   1      -5.352   5.182 -41.080  0.00  0.00    -0.267 OA
ATOM     13  H17 5WR d   1      -3.691   2.575 -41.925  0.00  0.00     0.169 HD
BRANCH  11  14
ATOM     14  CAN 5WR d   1      -4.291   4.863 -43.129  0.00  0.00     0.033 A 
ATOM     15  CAM 5WR d   1      -4.888   6.062 -43.627  0.00  0.00    -0.059 A 
ATOM     16  CAI 5WR d   1      -4.616   6.455 -44.976  0.00  0.00    -0.033 A 
ATOM     17  H9  5WR d   1      -5.534   6.662 -42.996  0.00  0.00     0.086 H 
ATOM     18  CAH 5WR d   1      -5.213   7.792 -45.465  0.00  0.00     0.019 C 
ATOM     19  CAJ 5WR d   1      -3.766   5.706 -45.787  0.00  0.00    -0.045 A 
ATOM     20  NAG 5WR d   1      -4.446   8.422 -46.501  0.00  0.00    -0.374 N 
ATOM     21  H4  5WR d   1      -5.271   8.480 -44.609  0.00  0.00     0.071 H 
ATOM     22  H5  5WR d   1      -6.225   7.600 -45.850  0.00  0.00     0.071 H 
ATOM     23  CAL 5WR d   1      -3.323   7.749 -47.138  0.00  0.00     0.002 C 
ATOM     24  CAK 5WR d   1      -3.516   6.250 -47.214  0.00  0.00    -0.016 C 
ATOM     25  H7  5WR d   1      -3.208   8.143 -48.159  0.00  0.00     0.065 H 
ATOM     26  H8  5WR d   1      -2.411   7.959 -46.559  0.00  0.00     0.065 H 
ATOM     27  H6  5WR d   1      -4.424   6.059 -47.804  0.00  0.00     0.049 H 
ATOM     28  CAP 5WR d   1      -3.140   4.485 -45.257  0.00  0.00    -0.075 A 
ATOM     29  CAO 5WR d   1      -3.416   4.081 -43.942  0.00  0.00    -0.067 A 
ATOM     30  H11 5WR d   1      -2.470   3.901 -45.878  0.00  0.00     0.084 H 
ATOM     31  H10 5WR d   1      -2.966   3.178 -43.545  0.00  0.00     0.085 H 
BRANCH  20  32
ATOM     32  CAF 5WR d   1      -4.973   9.687 -46.992  0.00  0.00     0.066 A 
ATOM     33  CAA 5WR d   1      -6.339   9.970 -46.934  0.00  0.00     0.030 A 
ATOM     34  NAB 5WR d   1      -6.785  11.175 -47.311  0.00  0.00    -0.252 NA
ATOM     35  H1  5WR d   1      -7.036   9.217 -46.585  0.00  0.00     0.118 H 
ATOM     36  CAC 5WR d   1      -5.926  12.114 -47.764  0.00  0.00     0.086 A 
ATOM     37  NAD 5WR d   1      -4.637  11.916 -47.850  0.00  0.00    -0.252 NA
ATOM     38  H2  5WR d   1      -6.324  13.075 -48.070  0.00  0.00     0.146 H 
ATOM     39  CAE 5WR d   1      -4.115  10.748 -47.485  0.00  0.00     0.030 A 
ATOM     40  H3  5WR d   1      -3.045  10.588 -47.556  0.00  0.00     0.118 H 
ENDBRANCH  20  32
BRANCH  24  41
ATOM     41  CBI 5WR d   1      -2.356   5.546 -47.942  0.00  0.00    -0.067 C 
ATOM     42  H29 5WR d   1      -2.544   4.463 -47.970  0.00  0.00     0.028 H 
ATOM     43  H30 5WR d   1      -1.415   5.741 -47.407  0.00  0.00     0.028 H 
ATOM     44  H31 5WR d   1      -2.280   5.931 -48.969  0.00  0.00     0.028 H 
ENDBRANCH  24  41
ENDBRANCH  11  14
ENDBRANCH   1  10
BRANCH   3  45
ATOM     45  CAY 5WR d   1      -7.265   2.967 -37.321  0.00  0.00     0.417 C 
ATOM     46  F01 5WR d   1      -7.491   2.200 -36.244  0.00  0.00    -0.166 F 
ATOM     47  F02 5WR d   1      -7.134   4.209 -36.885  0.00  0.00    -0.166 F 
ATOM     48  F03 5WR d   1      -8.325   2.974 -38.151  0.00  0.00    -0.166 F 
ENDBRANCH   3  45
BRANCH   5  49
ATOM     49  CAZ 5WR d   1      -2.795   0.324 -37.498  0.00  0.00     0.107 C 
ATOM     50  H15 5WR d   1      -2.656  -0.525 -38.183  0.00  0.00     0.083 H 
ATOM     51  H16 5WR d   1      -3.215  -0.037 -36.547  0.00  0.00     0.083 H 
BRANCH  49  52
ATOM     52  NBA 5WR d   1      -1.638   0.811 -37.248  0.00  0.00    -0.064 N 
ATOM     53  CBB 5WR d   1      -0.607   0.254 -37.951  0.00  0.00     0.106 C 
ATOM     54  CBC 5WR d   1       0.736   0.528 -37.274  0.00  0.00     0.105 C 
ATOM     55  H18 5WR d   1      -0.762  -0.833 -38.014  0.00  0.00     0.078 H 
ATOM     56  H19 5WR d   1      -0.592   0.681 -38.964  0.00  0.00     0.078 H 
ATOM     57  NBD 5WR d   1       0.892   1.815 -36.825  0.00  0.00    -0.072 N 
ATOM     58  H20 5WR d   1       1.536   0.317 -37.999  0.00  0.00     0.078 H 
ATOM     59  H21 5WR d   1       0.832  -0.151 -36.414  0.00  0.00     0.078 H 
ATOM     60  CBE 5WR d   1      -0.170   2.345 -36.157  0.00  0.00     0.105 C 
ATOM     61  H33 5WR d   1       1.038   2.390 -37.640  0.00  0.00     0.279 HD
ATOM     62  CBF 5WR d   1      -1.477   2.118 -36.906  0.00  0.00     0.106 C 
ATOM     63  H22 5WR d   1      -0.240   1.872 -35.166  0.00  0.00     0.078 H 
ATOM     64  H23 5WR d   1      -0.011   3.427 -36.036  0.00  0.00     0.078 H 
ATOM     65  H24 5WR d   1      -1.475   2.729 -37.821  0.00  0.00     0.078 H 
ATOM     66  H25 5WR d   1      -2.315   2.424 -36.263  0.00  0.00     0.078 H 
ATOM     67  H32 5WR d   1      -1.483   0.393 -36.344  0.00  0.00     0.280 HD
BRANCH  57  68
ATOM     68  CBG 5WR d   1       1.941   1.896 -36.093  0.00  0.00     0.066 C 
ATOM     69  H26 5WR d   1       2.799   1.468 -36.633  0.00  0.00     0.068 H 
ATOM     70  H27 5WR d   1       1.780   1.338 -35.159  0.00  0.00     0.068 H 
ATOM     71  H28 5WR d   1       2.145   2.951 -35.859  0.00  0.00     0.068 H 
ENDBRANCH  57  68
ENDBRANCH  49  52
ENDBRANCH   5  49
TORSDOF 8
