REMARK  14 active torsions:
REMARK  status: ('A' for Active; 'I' for Inactive)
REMARK       I    between atoms: C10_1  and  N09_19 
REMARK    1  A    between atoms: C11_20  and  C10_1 
REMARK    2  A    between atoms: C19_24  and  C20_6 
REMARK    3  A    between atoms: C21_7  and  C22_8 
REMARK    4  A    between atoms: C25_27  and  C26_9 
REMARK    5  A    between atoms: C27_28  and  C28_10 
REMARK    6  A    between atoms: C28_10  and  C29_29 
REMARK    7  A    between atoms: C03_13  and  C02_12 
REMARK    8  A    between atoms: S07_17  and  C06_16 
REMARK    9  A    between atoms: N09_19  and  S07_17 
REMARK   10  A    between atoms: C29_29  and  C30_30 
REMARK   11  A    between atoms: C30_30  and  O31_31 
REMARK   12  A    between atoms: O31_31  and  C32_32 
REMARK   13  A    between atoms: C34_34  and  C35_35 
REMARK   14  A    between atoms: C37_37  and  C38_38 
ROOT
ATOM      1  N12 5X3 d   1      37.241  -0.175  20.615  0.00  0.00    -0.350 N 
ATOM      2  C13 5X3 d   1      36.303   0.737  20.348  0.00  0.00     0.056 A 
ATOM      3  C15 5X3 d   1      35.988   2.695  19.017  0.00  0.00    -0.069 A 
ATOM      4  C17 5X3 d   1      34.188   1.891  20.405  0.00  0.00     0.047 A 
ATOM      5  C11 5X3 d   1      38.337   0.127  19.953  0.00  0.00     0.109 A 
ATOM      6  C14 5X3 d   1      36.816   1.648  19.447  0.00  0.00     0.000 A 
ATOM      7  C16 5X3 d   1      34.676   2.817  19.497  0.00  0.00    -0.060 A 
ATOM      8 CL2  5X3 d   1      32.525   2.044  21.013  0.00  0.00    -0.083 Cl
ATOM      9  C19 5X3 d   1      34.996   0.860  20.836  0.00  0.00     0.028 A 
ATOM     10  C27 5X3 d   1      38.148   1.247  19.163  0.00  0.00    -0.013 A 
ATOM     11  H1  5X3 d   1      37.125  -0.986  21.240  0.00  0.00     0.166 HD
ATOM     12  H2  5X3 d   1      36.367   3.419  18.305  0.00  0.00     0.085 H 
ATOM     13  H14 5X3 d   1      34.046   3.632  19.159  0.00  0.00     0.086 H 
ENDROOT
BRANCH  10  14
ATOM     14  C28 5X3 d   1      39.198   1.870  18.219  0.00  0.00    -0.036 C 
ATOM     15  H9  5X3 d   1      38.683   2.310  17.352  0.00  0.00     0.040 H 
ATOM     16  H10 5X3 d   1      39.883   1.081  17.877  0.00  0.00     0.040 H 
BRANCH  14  17
ATOM     17  C29 5X3 d   1      40.005   2.956  18.917  0.00  0.00    -0.041 C 
ATOM     18  H16 5X3 d   1      40.946   3.131  18.375  0.00  0.00     0.036 H 
ATOM     19  H17 5X3 d   1      40.227   2.652  19.951  0.00  0.00     0.036 H 
BRANCH  17  20
ATOM     20  C30 5X3 d   1      39.168   4.218  18.918  0.00  0.00     0.026 C 
ATOM     21  H18 5X3 d   1      39.800   5.079  19.183  0.00  0.00     0.075 H 
ATOM     22  H19 5X3 d   1      38.355   4.120  19.653  0.00  0.00     0.075 H 
BRANCH  20  23
ATOM     23  O31 5X3 d   1      38.622   4.411  17.633  0.00  0.00    -0.351 OA
BRANCH  23  24
ATOM     24  C32 5X3 d   1      38.010   5.687  17.535  0.00  0.00     0.069 A 
ATOM     25  C33 5X3 d   1      37.844   6.428  18.695  0.00  0.00    -0.043 A 
ATOM     26  C34 5X3 d   1      37.247   7.670  18.649  0.00  0.00    -0.037 A 
ATOM     27  H20 5X3 d   1      38.185   6.029  19.643  0.00  0.00     0.088 H 
ATOM     28  C39 5X3 d   1      36.834   8.166  17.433  0.00  0.00     0.046 A 
ATOM     29  C37 5X3 d   1      37.002   7.436  16.261  0.00  0.00    -0.037 A 
ATOM     30 CL   5X3 d   1      36.083   9.772  17.409  0.00  0.00    -0.083 Cl
ATOM     31  C36 5X3 d   1      37.594   6.188  16.311  0.00  0.00    -0.043 A 
ATOM     32  H24 5X3 d   1      37.731   5.609  15.405  0.00  0.00     0.088 H 
BRANCH  26  33
ATOM     33  C35 5X3 d   1      37.029   8.516  19.912  0.00  0.00    -0.050 C 
ATOM     34  H21 5X3 d   1      37.414   7.973  20.788  0.00  0.00     0.033 H 
ATOM     35  H22 5X3 d   1      35.954   8.708  20.044  0.00  0.00     0.033 H 
ATOM     36  H23 5X3 d   1      37.562   9.473  19.809  0.00  0.00     0.033 H 
ENDBRANCH  26  33
BRANCH  29  37
ATOM     37  C38 5X3 d   1      36.523   8.036  14.937  0.00  0.00    -0.050 C 
ATOM     38  H25 5X3 d   1      36.732   7.332  14.118  0.00  0.00     0.033 H 
ATOM     39  H26 5X3 d   1      37.052   8.982  14.750  0.00  0.00     0.033 H 
ATOM     40  H27 5X3 d   1      35.441   8.226  14.991  0.00  0.00     0.033 H 
ENDBRANCH  29  37
ENDBRANCH  23  24
ENDBRANCH  20  23
ENDBRANCH  17  20
ENDBRANCH  14  17
ENDBRANCH  10  14
BRANCH   5  41
ATOM     41  C10 5X3 d   1      39.566  -0.755  20.008  0.00  0.00     0.282 C 
ATOM     42  N09 5X3 d   1      39.269  -2.017  20.659  0.00  0.00    -0.243 N 
ATOM     43  H13 5X3 d   1      38.350  -2.150  21.032  0.00  0.00     0.182 HD
ATOM     44  O41 5X3 d   1      40.619  -0.456  19.516  0.00  0.00    -0.265 OA
BRANCH  42  45
ATOM     45  S07 5X3 d   1      40.380  -3.271  20.824  0.00  0.00     0.287 S 
ATOM     46  O08 5X3 d   1      39.874  -4.305  22.002  0.00  0.00    -0.198 OA
ATOM     47  O42 5X3 d   1      41.888  -2.728  21.171  0.00  0.00    -0.198 OA
BRANCH  45  48
ATOM     48  C06 5X3 d   1      40.240  -4.185  19.270  0.00  0.00     0.191 A 
ATOM     49  C05 5X3 d   1      39.287  -3.972  18.259  0.00  0.00    -0.034 A 
ATOM     50  C04 5X3 d   1      39.580  -4.963  17.263  0.00  0.00    -0.040 A 
ATOM     51  H12 5X3 d   1      38.499  -3.220  18.236  0.00  0.00     0.089 H 
ATOM     52  C03 5X3 d   1      40.671  -5.674  17.795  0.00  0.00     0.153 A 
ATOM     53  H11 5X3 d   1      39.074  -5.127  16.313  0.00  0.00     0.088 H 
ATOM     54  O43 5X3 d   1      41.003  -5.171  18.949  0.00  0.00    -0.290 OA
BRANCH  52  55
ATOM     55  C02 5X3 d   1      41.409  -6.863  17.172  0.00  0.00     0.234 C 
ATOM     56  O01 5X3 d   1      40.844  -7.603  16.311  0.00  0.00    -0.642 OA
ATOM     57  O44 5X3 d   1      42.577  -7.115  17.572  0.00  0.00    -0.642 OA
ENDBRANCH  52  55
ENDBRANCH  45  48
ENDBRANCH  42  45
ENDBRANCH   5  41
BRANCH   9  58
ATOM     58  C20 5X3 d   1      34.441  -0.185  21.797  0.00  0.00     0.028 A 
ATOM     59  C21 5X3 d   1      34.144  -1.534  21.453  0.00  0.00     0.037 A 
ATOM     60  N23 5X3 d   1      33.663  -2.134  22.514  0.00  0.00    -0.282 N 
ATOM     61  N24 5X3 d   1      33.630  -1.249  23.518  0.00  0.00    -0.179 NA
ATOM     62  H15 5X3 d   1      33.362  -3.118  22.567  0.00  0.00     0.189 HD
ATOM     63  C25 5X3 d   1      34.074  -0.066  23.146  0.00  0.00     0.064 A 
BRANCH  59  64
ATOM     64  C22 5X3 d   1      34.365  -2.178  20.084  0.00  0.00    -0.035 C 
ATOM     65  H3  5X3 d   1      34.043  -3.229  20.117  0.00  0.00     0.035 H 
ATOM     66  H4  5X3 d   1      35.433  -2.130  19.824  0.00  0.00     0.035 H 
ATOM     67  H5  5X3 d   1      33.778  -1.638  19.326  0.00  0.00     0.035 H 
ENDBRANCH  59  64
BRANCH  63  68
ATOM     68  C26 5X3 d   1      34.173   1.196  23.999  0.00  0.00    -0.033 C 
ATOM     69  H6  5X3 d   1      33.812   0.981  25.015  0.00  0.00     0.035 H 
ATOM     70  H7  5X3 d   1      33.558   1.990  23.551  0.00  0.00     0.035 H 
ATOM     71  H8  5X3 d   1      35.221   1.526  24.045  0.00  0.00     0.035 H 
ENDBRANCH  63  68
ENDBRANCH   9  58
TORSDOF 14
