REMARK  8 active torsions:
REMARK  status: ('A' for Active; 'I' for Inactive)
REMARK    1  A    between atoms: CBB_6  and  OAU_7 
REMARK    2  A    between atoms: OAU_7  and  CAZ_8 
REMARK    3  A    between atoms: CBA_9  and  CAW_11 
REMARK       I    between atoms: CAW_11  and  NAQ_13 
REMARK    4  A    between atoms: NAQ_13  and  CAA_14 
REMARK    5  A    between atoms: CAY_17  and  OAT_18 
REMARK    6  A    between atoms: OAT_18  and  CAP_19 
REMARK    7  A    between atoms: CAP_19  and  CAV_20 
REMARK       I    between atoms: CAV_20  and  NAR_22 
REMARK    8  A    between atoms: NAR_22  and  CAX_23 
ROOT
ATOM      1  CAZ 5X0 d   1       0.326   9.270  72.700  0.00  0.00     0.085 A 
ATOM      2  CBA 5X0 d   1       0.371  10.268  71.677  0.00  0.00     0.068 A 
ATOM      3  CAK 5X0 d   1       0.558   9.821  70.351  0.00  0.00    -0.033 A 
ATOM      4  CAJ 5X0 d   1       0.488   7.911  72.348  0.00  0.00    -0.047 A 
ATOM      5  CAI 5X0 d   1       0.658   7.510  71.017  0.00  0.00    -0.048 A 
ATOM      6  CAY 5X0 d   1       0.706   8.476  70.006  0.00  0.00     0.070 A 
ATOM      7  H10 5X0 d   1       0.588  10.561  69.559  0.00  0.00     0.089 H 
ATOM      8  H15 5X0 d   1       0.480   7.159  73.129  0.00  0.00     0.087 H 
ATOM      9  H16 5X0 d   1       0.752   6.458  70.772  0.00  0.00     0.087 H 
ENDROOT
BRANCH   6  10
ATOM     10  OAT 5X0 d   1       0.852   8.189  68.673  0.00  0.00    -0.342 OA
BRANCH  10  11
ATOM     11  CAP 5X0 d   1       1.472   6.968  68.232  0.00  0.00     0.100 C 
ATOM     12  H17 5X0 d   1       0.808   6.118  68.449  0.00  0.00     0.089 H 
ATOM     13  H18 5X0 d   1       2.428   6.830  68.757  0.00  0.00     0.089 H 
BRANCH  11  14
ATOM     14  CAV 5X0 d   1       1.725   7.051  66.711  0.00  0.00     0.246 C 
ATOM     15  OAB 5X0 d   1       2.153   6.073  66.093  0.00  0.00    -0.271 OA
ATOM     16  NAR 5X0 d   1       1.441   8.258  66.166  0.00  0.00    -0.325 N 
ATOM     17  H19 5X0 d   1       1.081   8.990  66.744  0.00  0.00     0.169 HD
BRANCH  16  18
ATOM     18  CAX 5X0 d   1       1.638   8.481  64.860  0.00  0.00     0.034 A 
ATOM     19  CAG 5X0 d   1       0.788   7.918  63.902  0.00  0.00    -0.057 A 
ATOM     20  CAE 5X0 d   1       1.003   8.191  62.545  0.00  0.00    -0.081 A 
ATOM     21  H20 5X0 d   1      -0.030   7.276  64.207  0.00  0.00     0.086 H 
ATOM     22  CAD 5X0 d   1       2.055   9.029  62.147  0.00  0.00    -0.083 A 
ATOM     23  H21 5X0 d   1       0.352   7.752  61.798  0.00  0.00     0.083 H 
ATOM     24  CAF 5X0 d   1       2.897   9.603  63.104  0.00  0.00    -0.081 A 
ATOM     25  H22 5X0 d   1       2.216   9.232  61.094  0.00  0.00     0.083 H 
ATOM     26  CAH 5X0 d   1       2.683   9.331  64.455  0.00  0.00    -0.057 A 
ATOM     27  H23 5X0 d   1       3.709  10.254  62.799  0.00  0.00     0.083 H 
ATOM     28  H24 5X0 d   1       3.329   9.780  65.201  0.00  0.00     0.086 H 
ENDBRANCH  16  18
ENDBRANCH  11  14
ENDBRANCH  10  11
ENDBRANCH   6  10
BRANCH   2  29
ATOM     29  CAW 5X0 d   1       0.247  11.676  71.869  0.00  0.00     0.254 C 
ATOM     30  OAC 5X0 d   1       0.696  12.455  71.032  0.00  0.00    -0.268 OA
ATOM     31  NAQ 5X0 d   1      -0.406  12.118  72.958  0.00  0.00    -0.361 N 
ATOM     32  H11 5X0 d   1      -0.805  11.474  73.611  0.00  0.00     0.162 HD
BRANCH  31  33
ATOM     33  CAA 5X0 d   1      -0.520  13.566  73.168  0.00  0.00    -0.018 C 
ATOM     34  H12 5X0 d   1      -1.078  13.759  74.096  0.00  0.00     0.056 H 
ATOM     35  H13 5X0 d   1      -1.053  14.019  72.319  0.00  0.00     0.056 H 
ATOM     36  H14 5X0 d   1       0.485  14.005  73.247  0.00  0.00     0.056 H 
ENDBRANCH  31  33
ENDBRANCH   2  29
BRANCH   1  37
ATOM     37  OAU 5X0 d   1       0.177   9.676  74.028  0.00  0.00    -0.345 OA
BRANCH  37  38
ATOM     38  CBB 5X0 d   1      -1.042   9.393  74.855  0.00  0.00     0.049 C 
ATOM     39  CAN 5X0 d   1      -0.657   9.568  76.345  0.00  0.00    -0.021 C 
ATOM     40  CAL 5X0 d   1      -1.709   8.991  77.249  0.00  0.00     0.022 C 
ATOM     41  H1  5X0 d   1       0.298   9.054  76.532  0.00  0.00     0.040 H 
ATOM     42  H2  5X0 d   1      -0.545  10.640  76.563  0.00  0.00     0.040 H 
ATOM     43  OAS 5X0 d   1      -2.913   8.750  76.501  0.00  0.00    -0.391 OA
ATOM     44  H3  5X0 d   1      -1.920   9.700  78.063  0.00  0.00     0.074 H 
ATOM     45  H4  5X0 d   1      -1.347   8.043  77.673  0.00  0.00     0.074 H 
ATOM     46  CAM 5X0 d   1      -2.722   7.681  75.592  0.00  0.00     0.022 C 
ATOM     47  CAO 5X0 d   1      -1.608   8.008  74.620  0.00  0.00    -0.021 C 
ATOM     48  H5  5X0 d   1      -3.653   7.511  75.032  0.00  0.00     0.074 H 
ATOM     49  H6  5X0 d   1      -2.459   6.771  76.152  0.00  0.00     0.074 H 
ATOM     50  H7  5X0 d   1      -2.003   7.955  73.595  0.00  0.00     0.040 H 
ATOM     51  H8  5X0 d   1      -0.802   7.269  74.741  0.00  0.00     0.040 H 
ATOM     52  H9  5X0 d   1      -1.819  10.127  74.595  0.00  0.00     0.084 H 
ENDBRANCH  37  38
ENDBRANCH   1  37
TORSDOF 8
