REMARK WARNING: 32 MAX_TORS EXCEEDED!!!
REMARK  34 active torsions:
REMARK  status: ('A' for Active; 'I' for Inactive)
REMARK    1  A    between atoms: N_1  and  CA_2 
REMARK    2  A    between atoms: CA_8  and  CB_11 
REMARK    3  A    between atoms: CB_11  and  CG_12 
REMARK    4  A    between atoms: CG_12  and  CD_13 
REMARK       I    between atoms: CD_13  and  NE2_15 
REMARK    5  A    between atoms: CA_17  and  CB_20 
REMARK    6  A    between atoms: CB_20  and  CG_21 
REMARK    7  A    between atoms: CA_28  and  CB_31 
REMARK    8  A    between atoms: CB_31  and  CG_32 
REMARK    9  A    between atoms: CA_36  and  CB_39 
REMARK   10  A    between atoms: CB_39  and  CG_40 
REMARK   11  A    between atoms: CG_40  and  CD1_41 
REMARK   12  A    between atoms: CG_40  and  CD2_42 
REMARK   13  A    between atoms: CA_44  and  CB_47 
REMARK   14  A    between atoms: CB_47  and  OG_48 
REMARK   15  A    between atoms: CA_50  and  CB_53 
REMARK   16  A    between atoms: CB_53  and  OG1_54 
REMARK   17  A    between atoms: CB_53  and  CG2_55 
REMARK   18  A    between atoms: CA_57  and  CB_60 
REMARK   19  A    between atoms: CB_60  and  CG_61 
REMARK   20  A    between atoms: CG_61  and  CD_62 
REMARK   21  A    between atoms: CD_62  and  NE_63 
REMARK       I    between atoms: NE_63  and  CZ_64 
REMARK       I    between atoms: CZ_64  and  NH1_65 
REMARK       I    between atoms: CZ_64  and  NH2_66 
REMARK   22  A    between atoms: CA_68  and  CB_71 
REMARK   23  A    between atoms: CB_71  and  CG_72 
REMARK   24  A    between atoms: CG_72  and  CD_73 
REMARK   25  A    between atoms: CD_73  and  NE_74 
REMARK       I    between atoms: NE_74  and  CZ_75 
REMARK       I    between atoms: CZ_75  and  NH1_76 
REMARK   26  A    between atoms: CA_79  and  CB_82 
REMARK   27  A    between atoms: CB_82  and  CG_83 
REMARK   28  A    between atoms: CG_83  and  CD_84 
REMARK       I    between atoms: CD_84  and  NE2_86 
REMARK   29  A    between atoms: CA_88  and  CB_91 
REMARK   30  A    between atoms: CB_91  and  CG_92 
REMARK   31  A    between atoms: CG_92  and  CD_93 
REMARK   32  A    between atoms: CD_93  and  CE_94 
REMARK   33  A    between atoms: CE_94  and  NZ_95 
REMARK   34  A    between atoms: CA_97  and  C_98 
ROOT
ATOM      1  CA  CYS d   1      16.328 -32.545 -29.108  0.00  0.00     0.184 C 
ATOM      2  C   CYS d   1      16.808 -33.926 -28.666  0.00  0.00     0.249 C 
ATOM      3  O   CYS d   1      16.451 -34.400 -27.588  0.00  0.00    -0.271 OA
ATOM      4  CB  CYS d   1      17.341 -31.502 -28.627  0.00  0.00     0.021 C 
ATOM      5  SG  CYS d   1      17.017 -29.753 -28.963  0.00  0.00    -0.095 SA
ATOM      6  N   CYS d   1      18.316 -31.119 -32.925  0.00  0.00    -0.344 N 
ATOM      7  CA  CYS d   1      16.933 -30.731 -32.724  0.00  0.00     0.105 C 
ATOM      8  CB  CYS d   1      16.866 -29.391 -31.988  0.00  0.00     0.015 C 
ATOM      9  SG  CYS d   1      18.074 -29.268 -30.637  0.00  0.00    -0.095 SA
ATOM     10  H4  CYS d   1      16.290 -32.520 -30.207  0.00  0.00     0.100 H 
ATOM     11  H5  CYS d   1      18.305 -31.748 -29.095  0.00  0.00     0.054 H 
ATOM     12  H6  CYS d   1      17.425 -31.611 -27.536  0.00  0.00     0.054 H 
ATOM     13  H98 CYS d   1      18.921 -30.512 -33.440  0.00  0.00     0.163 HD
ATOM     14  H99 CYS d   1      16.439 -31.496 -32.107  0.00  0.00     0.090 H 
ATOM     15 0H10 CYS d   1      15.856 -29.271 -31.569  0.00  0.00     0.054 H 
ATOM     16 1H10 CYS d   1      17.062 -28.584 -32.709  0.00  0.00     0.054 H 
ATOM     17  N   GLN d   1      17.641 -34.558 -29.490  0.00  0.00    -0.346 N 
ATOM     18  CA  GLN d   1      18.242 -35.846 -29.171  0.00  0.00     0.090 C 
ATOM     19  C   GLN d   1      19.748 -35.787 -29.367  0.00  0.00     0.241 C 
ATOM     20  O   GLN d   1      20.242 -35.180 -30.325  0.00  0.00    -0.271 OA
ATOM     21  N   GLN d   1      23.762 -32.261 -29.362  0.00  0.00    -0.346 N 
ATOM     22  CA  GLN d   1      22.309 -32.316 -29.345  0.00  0.00     0.090 C 
ATOM     23  C   GLN d   1      21.764 -31.898 -30.712  0.00  0.00     0.241 C 
ATOM     24  O   GLN d   1      22.170 -30.872 -31.274  0.00  0.00    -0.271 OA
ATOM     25  H7  GLN d   1      17.864 -34.130 -30.366  0.00  0.00     0.163 HD
ATOM     26  H8  GLN d   1      18.031 -36.071 -28.115  0.00  0.00     0.087 H 
ATOM     27  H77 GLN d   1      24.218 -31.519 -28.870  0.00  0.00     0.163 HD
ATOM     28  H78 GLN d   1      21.986 -33.346 -29.134  0.00  0.00     0.087 H 
ATOM     29  N   PHE d   1      20.465 -36.428 -28.449  0.00  0.00    -0.346 N 
ATOM     30  CA  PHE d   1      21.902 -36.595 -28.590  0.00  0.00     0.093 C 
ATOM     31  C   PHE d   1      22.221 -37.365 -29.865  0.00  0.00     0.241 C 
ATOM     32  O   PHE d   1      21.577 -38.371 -30.179  0.00  0.00    -0.271 OA
ATOM     33  H15 PHE d   1      20.006 -36.803 -27.644  0.00  0.00     0.163 HD
ATOM     34  H16 PHE d   1      22.372 -35.602 -28.649  0.00  0.00     0.088 H 
ATOM     35  N   ASP d   1      23.228 -36.887 -30.596  0.00  0.00    -0.345 N 
ATOM     36  CA  ASP d   1      23.652 -37.483 -31.859  0.00  0.00     0.098 C 
ATOM     37  C   ASP d   1      25.018 -38.132 -31.663  0.00  0.00     0.241 C 
ATOM     38  O   ASP d   1      25.983 -37.449 -31.301  0.00  0.00    -0.271 OA
ATOM     39  H24 ASP d   1      23.717 -36.081 -30.263  0.00  0.00     0.163 HD
ATOM     40  H25 ASP d   1      22.929 -38.258 -32.151  0.00  0.00     0.088 H 
ATOM     41  N   LEU d   1      25.096 -39.444 -31.919  0.00  0.00    -0.346 N 
ATOM     42  CA  LEU d   1      26.344 -40.183 -31.731  0.00  0.00     0.089 C 
ATOM     43  C   LEU d   1      27.438 -39.714 -32.674  0.00  0.00     0.241 C 
ATOM     44  O   LEU d   1      28.625 -39.796 -32.331  0.00  0.00    -0.271 OA
ATOM     45  H28 LEU d   1      24.284 -39.928 -32.245  0.00  0.00     0.163 HD
ATOM     46  H29 LEU d   1      26.686 -40.017 -30.699  0.00  0.00     0.087 H 
ATOM     47  N   SER d   1      27.064 -39.230 -33.861  0.00  0.00    -0.344 N 
ATOM     48  CA  SER d   1      28.062 -38.815 -34.845  0.00  0.00     0.109 C 
ATOM     49  C   SER d   1      28.838 -37.586 -34.380  0.00  0.00     0.243 C 
ATOM     50  O   SER d   1      30.062 -37.519 -34.542  0.00  0.00    -0.271 OA
ATOM     51  H39 SER d   1      26.091 -39.151 -34.079  0.00  0.00     0.163 HD
ATOM     52  H40 SER d   1      28.776 -39.641 -34.980  0.00  0.00     0.090 H 
ATOM     53  N   THR d   1      28.142 -36.599 -33.813  0.00  0.00    -0.344 N 
ATOM     54  CA  THR d   1      28.739 -35.317 -33.466  0.00  0.00     0.113 C 
ATOM     55  C   THR d   1      28.901 -35.102 -31.970  0.00  0.00     0.243 C 
ATOM     56  O   THR d   1      29.531 -34.116 -31.573  0.00  0.00    -0.271 OA
ATOM     57  H44 THR d   1      27.172 -36.745 -33.619  0.00  0.00     0.163 HD
ATOM     58  H45 THR d   1      29.738 -35.281 -33.924  0.00  0.00     0.091 H 
ATOM     59  N   ARG d   1      28.366 -36.001 -31.140  0.00  0.00    -0.346 N 
ATOM     60  CA  ARG d   1      28.305 -35.822 -29.686  0.00  0.00     0.089 C 
ATOM     61  C   ARG d   1      27.614 -34.514 -29.320  0.00  0.00     0.241 C 
ATOM     62  O   ARG d   1      27.850 -33.937 -28.258  0.00  0.00    -0.271 OA
ATOM     63  N   ARG d   1      26.745 -34.048 -30.202  0.00  0.00    -0.346 N 
ATOM     64  CA  ARG d   1      25.993 -32.837 -29.978  0.00  0.00     0.089 C 
ATOM     65  C   ARG d   1      24.504 -33.145 -29.997  0.00  0.00     0.241 C 
ATOM     66  O   ARG d   1      24.043 -34.142 -30.555  0.00  0.00    -0.271 OA
ATOM     67  H51 ARG d   1      27.987 -36.840 -31.530  0.00  0.00     0.163 HD
ATOM     68  H52 ARG d   1      27.699 -36.644 -29.277  0.00  0.00     0.087 H 
ATOM     69  H64 ARG d   1      26.604 -34.553 -31.054  0.00  0.00     0.163 HD
ATOM     70  H65 ARG d   1      26.257 -32.440 -28.987  0.00  0.00     0.087 H 
ATOM     71  N   LYS d   1      20.858 -32.704 -31.259  0.00  0.00    -0.346 N 
ATOM     72  CA  LYS d   1      20.297 -32.457 -32.582  0.00  0.00     0.089 C 
ATOM     73  C   LYS d   1      18.800 -32.255 -32.446  0.00  0.00     0.241 C 
ATOM     74  O   LYS d   1      18.099 -33.123 -31.920  0.00  0.00    -0.271 OA
ATOM     75  H85 LYS d   1      20.552 -33.506 -30.746  0.00  0.00     0.163 HD
ATOM     76  H86 LYS d   1      20.747 -31.540 -32.989  0.00  0.00     0.087 H 
ENDROOT
BRANCH  60  77
ATOM     77  CB  ARG d   1      29.692 -35.912 -29.049  0.00  0.00    -0.036 C 
ATOM     78  H53 ARG d   1      29.585 -35.812 -27.959  0.00  0.00     0.036 H 
ATOM     79  H54 ARG d   1      30.310 -35.088 -29.434  0.00  0.00     0.036 H 
BRANCH  77  80
ATOM     80  CG  ARG d   1      30.390 -37.220 -29.348  0.00  0.00    -0.048 C 
ATOM     81  H55 ARG d   1      30.739 -37.217 -30.391  0.00  0.00     0.035 H 
ATOM     82  H56 ARG d   1      29.685 -38.051 -29.200  0.00  0.00     0.035 H 
BRANCH  80  83
ATOM     83  CD  ARG d   1      31.561 -37.394 -28.434  0.00  0.00     0.009 C 
ATOM     84  H57 ARG d   1      31.196 -37.507 -27.402  0.00  0.00     0.064 H 
ATOM     85  H58 ARG d   1      32.202 -36.503 -28.500  0.00  0.00     0.064 H 
BRANCH  83  86
ATOM     86  NE  ARG d   1      32.345 -38.569 -28.791  0.00  0.00    -0.227 N 
ATOM     87  CZ  ARG d   1      33.443 -38.955 -28.152  0.00  0.00     0.665 C 
ATOM     88  NH1 ARG d   1      33.877 -38.246 -27.120  0.00  0.00    -0.235 N 
ATOM     89  NH2 ARG d   1      34.103 -40.042 -28.543  0.00  0.00    -0.235 N 
ATOM     90  H60 ARG d   1      34.728 -38.536 -26.617  0.00  0.00     0.174 HD
ATOM     91  H61 ARG d   1      33.364 -37.405 -26.821  0.00  0.00     0.174 HD
ATOM     92  H62 ARG d   1      33.762 -40.590 -29.346  0.00  0.00     0.174 HD
ATOM     93  H63 ARG d   1      34.955 -40.335 -28.043  0.00  0.00     0.174 HD
ATOM     94  H59 ARG d   1      32.027 -39.136 -29.590  0.00  0.00     0.177 HD
ENDBRANCH  83  86
ENDBRANCH  80  83
ENDBRANCH  77  80
ENDBRANCH  60  77
BRANCH  54  95
ATOM     95  CB  THR d   1      27.897 -34.163 -34.032  0.00  0.00     0.060 C 
ATOM     96  H46 THR d   1      28.378 -33.208 -33.773  0.00  0.00     0.086 H 
BRANCH  95  97
ATOM     97  OG1 THR d   1      26.581 -34.199 -33.456  0.00  0.00    -0.393 OA
ATOM     98  H47 THR d   1      26.063 -33.485 -33.808  0.00  0.00     0.210 HD
ENDBRANCH  95  97
BRANCH  95  99
ATOM     99  CG2 THR d   1      27.796 -34.271 -35.556  0.00  0.00    -0.050 C 
ATOM    100  H48 THR d   1      27.191 -33.438 -35.943  0.00  0.00     0.031 H 
ATOM    101  H49 THR d   1      27.321 -35.226 -35.825  0.00  0.00     0.031 H 
ATOM    102  H50 THR d   1      28.804 -34.227 -35.994  0.00  0.00     0.031 H 
ENDBRANCH  95  99
ENDBRANCH  54  95
BRANCH  64 103
ATOM    103  CB  ARG d   1      26.335 -31.780 -31.027  0.00  0.00    -0.036 C 
ATOM    104  H66 ARG d   1      25.612 -30.955 -30.942  0.00  0.00     0.036 H 
ATOM    105  H67 ARG d   1      26.255 -32.237 -32.024  0.00  0.00     0.036 H 
BRANCH 103 106
ATOM    106  CG  ARG d   1      27.729 -31.217 -30.866  0.00  0.00    -0.048 C 
ATOM    107  H68 ARG d   1      27.921 -30.505 -31.682  0.00  0.00     0.035 H 
ATOM    108  H69 ARG d   1      28.454 -32.042 -30.922  0.00  0.00     0.035 H 
BRANCH 106 109
ATOM    109  CD  ARG d   1      27.903 -30.495 -29.528  0.00  0.00     0.009 C 
ATOM    110  H70 ARG d   1      28.866 -29.963 -29.535  0.00  0.00     0.064 H 
ATOM    111  H71 ARG d   1      27.902 -31.242 -28.720  0.00  0.00     0.064 H 
BRANCH 109 112
ATOM    112  NE  ARG d   1      26.835 -29.530 -29.277  0.00  0.00    -0.227 N 
ATOM    113  CZ  ARG d   1      26.746 -28.328 -29.844  0.00  0.00     0.665 C 
ATOM    114  NH1 ARG d   1      27.667 -27.921 -30.711  0.00  0.00    -0.235 N 
ATOM    115  NH2 ARG d   1      25.724 -27.533 -29.549  0.00  0.00    -0.235 N 
ATOM    116  H73 ARG d   1      27.590 -26.990 -31.145  0.00  0.00     0.174 HD
ATOM    117  H74 ARG d   1      28.458 -28.537 -30.949  0.00  0.00     0.174 HD
ATOM    118  H75 ARG d   1      25.007 -27.843 -28.878  0.00  0.00     0.174 HD
ATOM    119  H76 ARG d   1      25.648 -26.606 -29.992  0.00  0.00     0.174 HD
ATOM    120  H72 ARG d   1      26.096 -29.799 -28.612  0.00  0.00     0.177 HD
ENDBRANCH 109 112
ENDBRANCH 106 109
ENDBRANCH 103 106
ENDBRANCH  64 103
BRANCH  48 121
ATOM    121  CB  SER d   1      27.389 -38.531 -36.184  0.00  0.00     0.044 C 
ATOM    122  H41 SER d   1      28.140 -38.148 -36.890  0.00  0.00     0.077 H 
ATOM    123  H42 SER d   1      26.604 -37.775 -36.038  0.00  0.00     0.077 H 
BRANCH 121 124
ATOM    124  OG  SER d   1      26.807 -39.705 -36.719  0.00  0.00    -0.398 OA
ATOM    125  H43 SER d   1      27.482 -40.360 -36.850  0.00  0.00     0.209 HD
ENDBRANCH 121 124
ENDBRANCH  48 121
BRANCH  22 126
ATOM    126  CB  GLN d   1      21.792 -31.394 -28.232  0.00  0.00    -0.030 C 
ATOM    127  H79 GLN d   1      21.651 -30.391 -28.662  0.00  0.00     0.037 H 
ATOM    128  H80 GLN d   1      22.559 -31.351 -27.445  0.00  0.00     0.037 H 
BRANCH 126 129
ATOM    129  CG  GLN d   1      20.503 -31.807 -27.596  0.00  0.00     0.011 C 
ATOM    130  H81 GLN d   1      19.752 -31.939 -28.389  0.00  0.00     0.047 H 
ATOM    131  H82 GLN d   1      20.180 -31.006 -26.914  0.00  0.00     0.047 H 
BRANCH 129 132
ATOM    132  CD  GLN d   1      20.595 -33.092 -26.810  0.00  0.00     0.215 C 
ATOM    133  OE1 GLN d   1      19.662 -33.899 -26.825  0.00  0.00    -0.274 OA
ATOM    134  NE2 GLN d   1      21.702 -33.290 -26.112  0.00  0.00    -0.370 N 
ATOM    135  H83 GLN d   1      21.811 -34.126 -25.575  0.00  0.00     0.159 HD
ATOM    136  H84 GLN d   1      22.429 -32.603 -26.122  0.00  0.00     0.159 HD
ENDBRANCH 129 132
ENDBRANCH 126 129
ENDBRANCH  22 126
BRANCH  42 137
ATOM    137  CB  LEU d   1      26.104 -41.678 -31.929  0.00  0.00    -0.035 C 
ATOM    138  H30 LEU d   1      27.074 -42.196 -31.898  0.00  0.00     0.037 H 
ATOM    139  H31 LEU d   1      25.638 -41.831 -32.913  0.00  0.00     0.037 H 
BRANCH 137 140
ATOM    140  CG  LEU d   1      25.198 -42.282 -30.864  0.00  0.00    -0.059 C 
ATOM    141  H32 LEU d   1      24.339 -41.612 -30.713  0.00  0.00     0.038 H 
BRANCH 140 142
ATOM    142  CD1 LEU d   1      24.673 -43.633 -31.303  0.00  0.00    -0.073 C 
ATOM    143  H33 LEU d   1      24.023 -44.047 -30.518  0.00  0.00     0.028 H 
ATOM    144  H34 LEU d   1      25.518 -44.316 -31.477  0.00  0.00     0.028 H 
ATOM    145  H35 LEU d   1      24.097 -43.518 -32.233  0.00  0.00     0.028 H 
ENDBRANCH 140 142
BRANCH 140 146
ATOM    146  CD2 LEU d   1      25.958 -42.388 -29.562  0.00  0.00    -0.073 C 
ATOM    147  H36 LEU d   1      26.326 -41.393 -29.270  0.00  0.00     0.028 H 
ATOM    148  H37 LEU d   1      26.811 -43.071 -29.690  0.00  0.00     0.028 H 
ATOM    149  H38 LEU d   1      25.291 -42.777 -28.779  0.00  0.00     0.028 H 
ENDBRANCH 140 146
ENDBRANCH 137 140
ENDBRANCH  42 137
BRANCH  72 150
ATOM    150  CB  LYS d   1      20.585 -33.604 -33.548  0.00  0.00    -0.038 C 
ATOM    151  H87 LYS d   1      20.362 -34.556 -33.045  0.00  0.00     0.036 H 
ATOM    152  H88 LYS d   1      21.649 -33.576 -33.825  0.00  0.00     0.036 H 
BRANCH 150 153
ATOM    153  CG  LYS d   1      19.744 -33.509 -34.816  0.00  0.00    -0.061 C 
ATOM    154  H89 LYS d   1      19.678 -32.454 -35.120  0.00  0.00     0.033 H 
ATOM    155  H90 LYS d   1      18.735 -33.893 -34.603  0.00  0.00     0.033 H 
BRANCH 153 156
ATOM    156  CD  LYS d   1      20.342 -34.311 -35.958  0.00  0.00    -0.043 C 
ATOM    157  H91 LYS d   1      19.623 -34.339 -36.790  0.00  0.00     0.035 H 
ATOM    158  H92 LYS d   1      20.541 -35.336 -35.610  0.00  0.00     0.035 H 
BRANCH 156 159
ATOM    159  CE  LYS d   1      21.647 -33.692 -36.450  0.00  0.00     0.080 C 
ATOM    160  H93 LYS d   1      22.429 -33.871 -35.697  0.00  0.00     0.075 H 
ATOM    161  H94 LYS d   1      21.499 -32.609 -36.574  0.00  0.00     0.075 H 
BRANCH 159 162
ATOM    162  NZ  LYS d   1      22.095 -34.266 -37.751  0.00  0.00    -0.079 N 
ATOM    163  H95 LYS d   1      22.957 -33.827 -38.033  0.00  0.00     0.274 HD
ATOM    164  H96 LYS d   1      21.389 -34.101 -38.452  0.00  0.00     0.274 HD
ATOM    165  H97 LYS d   1      22.241 -35.258 -37.648  0.00  0.00     0.274 HD
ENDBRANCH 159 162
ENDBRANCH 156 159
ENDBRANCH 153 156
ENDBRANCH 150 153
ENDBRANCH  72 150
BRANCH  36 166
ATOM    166  CB  ASP d   1      23.696 -36.419 -32.956  0.00  0.00     0.043 C 
ATOM    167  H26 ASP d   1      24.396 -35.628 -32.649  0.00  0.00     0.052 H 
ATOM    168  H27 ASP d   1      22.689 -35.992 -33.071  0.00  0.00     0.052 H 
BRANCH 166 169
ATOM    169  CG  ASP d   1      24.143 -36.964 -34.295  0.00  0.00     0.175 C 
ATOM    170  OD1 ASP d   1      24.255 -38.198 -34.450  0.00  0.00    -0.648 OA
ATOM    171  OD2 ASP d   1      24.372 -36.144 -35.206  0.00  0.00    -0.648 OA
ENDBRANCH 166 169
ENDBRANCH  36 166
BRANCH   7 172
ATOM    172  C   CYS d   1      16.207 -30.641 -34.056  0.00  0.00     0.197 C 
ATOM    173  O   CYS d   1      16.833 -30.404 -35.094  0.00  0.00    -0.646 OA
ATOM    174  OXT CYS d   1      14.973 -30.808 -34.105  0.00  0.00    -0.646 OA
ENDBRANCH   7 172
BRANCH  30 175
ATOM    175  CB  PHE d   1      22.458 -37.334 -27.373  0.00  0.00    -0.014 C 
ATOM    176  H17 PHE d   1      21.977 -38.322 -27.318  0.00  0.00     0.043 H 
ATOM    177  H18 PHE d   1      22.208 -36.754 -26.472  0.00  0.00     0.043 H 
BRANCH 175 178
ATOM    178  CG  PHE d   1      23.941 -37.534 -27.408  0.00  0.00    -0.056 A 
ATOM    179  CD1 PHE d   1      24.808 -36.476 -27.131  0.00  0.00    -0.077 A 
ATOM    180  CE1 PHE d   1      26.188 -36.665 -27.146  0.00  0.00    -0.082 A 
ATOM    181  H19 PHE d   1      24.403 -35.497 -26.902  0.00  0.00     0.084 H 
ATOM    182  CZ  PHE d   1      26.710 -37.929 -27.443  0.00  0.00    -0.083 A 
ATOM    183  H21 PHE d   1      26.854 -35.838 -26.929  0.00  0.00     0.083 H 
ATOM    184  CE2 PHE d   1      25.854 -38.988 -27.715  0.00  0.00    -0.082 A 
ATOM    185  H23 PHE d   1      27.783 -38.081 -27.461  0.00  0.00     0.083 H 
ATOM    186  CD2 PHE d   1      24.477 -38.787 -27.694  0.00  0.00    -0.077 A 
ATOM    187  H22 PHE d   1      26.257 -39.968 -27.943  0.00  0.00     0.083 H 
ATOM    188  H20 PHE d   1      23.812 -39.617 -27.903  0.00  0.00     0.084 H 
ENDBRANCH 175 178
ENDBRANCH  30 175
BRANCH   1 189
ATOM    189  N   CYS d   1      14.987 -32.259 -28.598  0.00  0.00    -0.066 N 
ATOM    190  H1  CYS d   1      14.699 -31.343 -28.906  0.00  0.00     0.275 HD
ATOM    191  H2  CYS d   1      14.998 -32.287 -27.590  0.00  0.00     0.275 HD
ATOM    192  H3  CYS d   1      14.341 -32.949 -28.947  0.00  0.00     0.275 HD
ENDBRANCH   1 189
BRANCH  18 193
ATOM    193  CB  GLN d   1      17.672 -36.979 -30.030  0.00  0.00    -0.030 C 
ATOM    194  H9  GLN d   1      18.439 -37.761 -30.130  0.00  0.00     0.037 H 
ATOM    195  H10 GLN d   1      17.429 -36.575 -31.024  0.00  0.00     0.037 H 
BRANCH 193 196
ATOM    196  CG  GLN d   1      16.427 -37.602 -29.450  0.00  0.00     0.011 C 
ATOM    197  H11 GLN d   1      15.553 -37.024 -29.785  0.00  0.00     0.047 H 
ATOM    198  H12 GLN d   1      16.492 -37.566 -28.352  0.00  0.00     0.047 H 
BRANCH 196 199
ATOM    199  CD  GLN d   1      16.252 -39.042 -29.881  0.00  0.00     0.215 C 
ATOM    200  OE1 GLN d   1      16.930 -39.515 -30.799  0.00  0.00    -0.274 OA
ATOM    201  NE2 GLN d   1      15.341 -39.753 -29.214  0.00  0.00    -0.370 N 
ATOM    202  H13 GLN d   1      15.181 -40.711 -29.454  0.00  0.00     0.159 HD
ATOM    203  H14 GLN d   1      14.819 -39.328 -28.474  0.00  0.00     0.159 HD
ENDBRANCH 196 199
ENDBRANCH 193 196
ENDBRANCH  18 193
TORSDOF 34
