REMARK  3 active torsions:
REMARK  status: ('A' for Active; 'I' for Inactive)
REMARK    1  A    between atoms: C2_1  and  N1_16 
REMARK    2  A    between atoms: C11_6  and  C7_4 
REMARK    3  A    between atoms: N18_23  and  C17_10 
ROOT
ATOM      1  C11 5XG d   1      -6.771 -24.105 144.495  0.00  0.00     0.020 A 
ATOM      2  C12 5XG d   1      -7.961 -24.785 144.238  0.00  0.00     0.015 A 
ATOM      3  N13 5XG d   1      -8.610 -25.418 145.204  0.00  0.00    -0.270 NA
ATOM      4  C15 5XG d   1      -6.990 -24.791 146.803  0.00  0.00     0.079 A 
ATOM      5  C17 5XG d   1      -6.251 -24.110 145.827  0.00  0.00     0.066 A 
ATOM      6  C14 5XG d   1      -8.157 -25.430 146.445  0.00  0.00     0.025 A 
ATOM      7 CL1  5XG d   1      -6.498 -24.871 148.465  0.00  0.00    -0.080 Cl
ATOM      8  H3  5XG d   1      -8.362 -24.796 143.231  0.00  0.00     0.116 H 
ATOM      9  H14 5XG d   1      -8.721 -25.959 147.205  0.00  0.00     0.117 H 
ENDROOT
BRANCH   5  10
ATOM     10  N18 5XG d   1      -5.065 -23.434 146.151  0.00  0.00    -0.379 N 
ATOM     11  C19 5XG d   1      -3.796 -23.804 145.493  0.00  0.00    -0.004 C 
ATOM     12  C20 5XG d   1      -2.609 -23.751 146.442  0.00  0.00    -0.035 C 
ATOM     13  H4  5XG d   1      -3.614 -23.107 144.662  0.00  0.00     0.064 H 
ATOM     14  H5  5XG d   1      -3.888 -24.827 145.100  0.00  0.00     0.064 H 
ATOM     15  C21 5XG d   1      -2.580 -22.437 147.219  0.00  0.00     0.045 C 
ATOM     16  H15 5XG d   1      -1.680 -23.844 145.860  0.00  0.00     0.037 H 
ATOM     17  H16 5XG d   1      -2.681 -24.587 147.154  0.00  0.00     0.037 H 
ATOM     18  C27 5XG d   1      -3.876 -22.247 147.997  0.00  0.00    -0.035 C 
ATOM     19  C22 5XG d   1      -2.260 -21.226 146.313  0.00  0.00    -0.035 C 
ATOM     20  C25 5XG d   1      -1.443 -22.496 148.198  0.00  0.00     0.226 C 
ATOM     21  C28 5XG d   1      -5.103 -22.284 147.078  0.00  0.00    -0.004 C 
ATOM     22  H8  5XG d   1      -3.844 -21.274 148.509  0.00  0.00     0.037 H 
ATOM     23  H9  5XG d   1      -3.965 -23.051 148.742  0.00  0.00     0.037 H 
ATOM     24  H20 5XG d   1      -5.135 -21.355 146.490  0.00  0.00     0.064 H 
ATOM     25  H21 5XG d   1      -6.009 -22.357 147.698  0.00  0.00     0.064 H 
ATOM     26  C23 5XG d   1      -1.375 -20.371 147.256  0.00  0.00    -0.004 C 
ATOM     27  H17 5XG d   1      -3.174 -20.688 146.021  0.00  0.00     0.037 H 
ATOM     28  H18 5XG d   1      -1.710 -21.532 145.411  0.00  0.00     0.037 H 
ATOM     29  N24 5XG d   1      -0.781 -21.321 148.203  0.00  0.00    -0.360 N 
ATOM     30  H6  5XG d   1      -1.987 -19.628 147.789  0.00  0.00     0.064 H 
ATOM     31  H7  5XG d   1      -0.589 -19.856 146.684  0.00  0.00     0.064 H 
ATOM     32  H19 5XG d   1       0.013 -21.123 148.778  0.00  0.00     0.162 HD
ATOM     33  O26 5XG d   1      -1.174 -23.464 148.883  0.00  0.00    -0.273 OA
ENDBRANCH   5  10
BRANCH   1  34
ATOM     34  C7  5XG d   1      -6.056 -23.411 143.387  0.00  0.00    -0.020 A 
ATOM     35  C6  5XG d   1      -6.027 -22.024 143.325  0.00  0.00    -0.044 A 
ATOM     36  C5  5XG d   1      -5.315 -21.373 142.284  0.00  0.00     0.065 A 
ATOM     37  H1  5XG d   1      -6.549 -21.438 144.073  0.00  0.00     0.088 H 
ATOM     38  N4  5XG d   1      -5.106 -20.110 141.940  0.00  0.00    -0.275 N 
ATOM     39  C10 5XG d   1      -4.605 -22.210 141.292  0.00  0.00     0.039 A 
ATOM     40  N3  5XG d   1      -4.303 -20.071 140.802  0.00  0.00    -0.156 NA
ATOM     41  H12 5XG d   1      -5.478 -19.287 142.436  0.00  0.00     0.189 HD
ATOM     42  C2  5XG d   1      -4.001 -21.319 140.401  0.00  0.00     0.153 A 
ATOM     43  C9  5XG d   1      -4.662 -23.624 141.421  0.00  0.00    -0.066 A 
ATOM     44  C8  5XG d   1      -5.356 -24.197 142.446  0.00  0.00    -0.071 A 
ATOM     45  H13 5XG d   1      -4.151 -24.252 140.700  0.00  0.00     0.085 H 
ATOM     46  H2  5XG d   1      -5.370 -25.277 142.540  0.00  0.00     0.084 H 
BRANCH  42  47
ATOM     47  N1  5XG d   1      -3.225 -21.656 139.299  0.00  0.00    -0.382 N 
ATOM     48  H10 5XG d   1      -3.051 -22.646 139.075  0.00  0.00     0.157 HD
ATOM     49  H11 5XG d   1      -2.824 -20.916 138.706  0.00  0.00     0.157 HD
ENDBRANCH  42  47
ENDBRANCH   1  34
TORSDOF 3
