REMARK  2 active torsions:
REMARK  status: ('A' for Active; 'I' for Inactive)
REMARK    1  A    between atoms: NAP_6  and  CAO_7 
REMARK    2  A    between atoms: CAO_7  and  CAN_8 
ROOT
ATOM      1  CAN 5XM d   1      14.166  28.775  19.919  0.00  0.00     0.027 C 
ATOM      2  CAM 5XM d   1      15.329  28.061  19.767  0.00  0.00    -0.038 C 
ATOM      3  CAL 5XM d   1      14.684  26.727  19.793  0.00  0.00     0.002 C 
ATOM      4  NAG 5XM d   1      14.117  26.955  21.134  0.00  0.00    -0.335 N 
ATOM      5  CAH 5XM d   1      13.813  28.277  21.111  0.00  0.00     0.092 A 
ATOM      6  NAI 5XM d   1      13.119  28.798  22.195  0.00  0.00    -0.312 N 
ATOM      7  CAJ 5XM d   1      12.874  27.990  23.306  0.00  0.00     0.259 A 
ATOM      8  OAK 5XM d   1      12.325  28.470  24.291  0.00  0.00    -0.267 OA
ATOM      9  CAE 5XM d   1      13.223  26.647  23.267  0.00  0.00     0.059 A 
ATOM     10  CAD 5XM d   1      13.845  26.132  22.135  0.00  0.00     0.051 A 
ATOM     11  CAC 5XM d   1      14.197  24.777  22.102  0.00  0.00    -0.056 A 
ATOM     12  CAB 5XM d   1      13.924  23.947  23.193  0.00  0.00    -0.081 A 
ATOM     13  CAA 5XM d   1      13.299  24.485  24.313  0.00  0.00    -0.082 A 
ATOM     14  CAF 5XM d   1      12.949  25.829  24.355  0.00  0.00    -0.065 A 
ATOM     15  H14 5XM d   1      13.501  28.244  19.222  0.00  0.00     0.054 H 
ATOM     16  H15 5XM d   1      16.033  28.211  20.599  0.00  0.00     0.036 H 
ATOM     17  H16 5XM d   1      15.837  28.271  18.814  0.00  0.00     0.036 H 
ATOM     18  H17 5XM d   1      15.400  25.892  19.755  0.00  0.00     0.065 H 
ATOM     19  H18 5XM d   1      13.922  26.593  19.011  0.00  0.00     0.065 H 
ATOM     20  H19 5XM d   1      12.797  29.745  22.180  0.00  0.00     0.170 HD
ATOM     21  H20 5XM d   1      14.685  24.369  21.224  0.00  0.00     0.087 H 
ATOM     22  H21 5XM d   1      14.196  22.898  23.167  0.00  0.00     0.083 H 
ATOM     23  H22 5XM d   1      13.082  23.848  25.163  0.00  0.00     0.083 H 
ATOM     24  H23 5XM d   1      12.464  26.238  25.234  0.00  0.00     0.085 H 
ENDROOT
BRANCH   1  25
ATOM     25  CAO 5XM d   1      13.826  30.024  19.539  0.00  0.00     0.093 C 
ATOM     26  H12 5XM d   1      12.727  30.053  19.571  0.00  0.00     0.077 H 
ATOM     27  H13 5XM d   1      14.234  30.689  20.314  0.00  0.00     0.077 H 
BRANCH  25  28
ATOM     28  NAP 5XM d   1      14.167  30.585  18.367  0.00  0.00    -0.070 N 
ATOM     29  CAQ 5XM d   1      15.606  30.906  18.284  0.00  0.00     0.084 C 
ATOM     30  CAR 5XM d   1      15.987  31.550  16.961  0.00  0.00    -0.042 C 
ATOM     31  H1  5XM d   1      15.860  31.600  19.099  0.00  0.00     0.076 H 
ATOM     32  H2  5XM d   1      16.181  29.976  18.401  0.00  0.00     0.076 H 
ATOM     33  CAS 5XM d   1      15.214  32.840  16.780  0.00  0.00    -0.062 C 
ATOM     34  H3  5XM d   1      15.748  30.862  16.137  0.00  0.00     0.035 H 
ATOM     35  H4  5XM d   1      17.066  31.766  16.957  0.00  0.00     0.035 H 
ATOM     36  CAT 5XM d   1      13.751  32.483  16.799  0.00  0.00    -0.042 C 
ATOM     37  H5  5XM d   1      15.477  33.306  15.819  0.00  0.00     0.033 H 
ATOM     38  H6  5XM d   1      15.444  33.536  17.600  0.00  0.00     0.033 H 
ATOM     39  CAU 5XM d   1      13.390  31.819  18.139  0.00  0.00     0.084 C 
ATOM     40  H7  5XM d   1      13.535  31.785  15.977  0.00  0.00     0.035 H 
ATOM     41  H8  5XM d   1      13.151  33.396  16.672  0.00  0.00     0.035 H 
ATOM     42  H9  5XM d   1      12.319  31.569  18.135  0.00  0.00     0.076 H 
ATOM     43  H10 5XM d   1      13.599  32.527  18.955  0.00  0.00     0.076 H 
ATOM     44  H11 5XM d   1      13.949  29.927  17.635  0.00  0.00     0.279 HD
ENDBRANCH  25  28
ENDBRANCH   1  25
TORSDOF 2
