REMARK  9 active torsions:
REMARK  status: ('A' for Active; 'I' for Inactive)
REMARK    1  A    between atoms: C10_1  and  N11_16 
REMARK    2  A    between atoms: C12_17  and  C13_2 
REMARK    3  A    between atoms: C13_2  and  C14_18 
REMARK    4  A    between atoms: C22_5  and  N03_9 
REMARK    5  A    between atoms: C27_28  and  C28_6 
REMARK    6  A    between atoms: C28_6  and  C29_29 
REMARK    7  A    between atoms: C05_11  and  N06_12 
REMARK    8  A    between atoms: N06_12  and  C07_13 
REMARK       I    between atoms: N11_16  and  C12_17 
REMARK    9  A    between atoms: N26_27  and  C25_26 
REMARK       I    between atoms: N26_27  and  C27_28 
ROOT
ATOM      1  C01 5XX d   1     126.879 299.389 176.135  0.00  0.00    -0.026 C 
ATOM      2  C02 5XX d   1     127.691 300.186 177.195  0.00  0.00     0.003 C 
ATOM      3  N03 5XX d   1     128.414 301.286 176.402  0.00  0.00    -0.336 N 
ATOM      4  C04 5XX d   1     128.042 301.116 175.160  0.00  0.00    -0.017 C 
ATOM      5  C05 5XX d   1     126.659 300.263 175.239  0.00  0.00     0.043 C 
ATOM      6  H7  5XX d   1     125.938 299.010 176.559  0.00  0.00     0.038 H 
ATOM      7  H8  5XX d   1     127.466 298.549 175.735  0.00  0.00     0.038 H 
ATOM      8  H9  5XX d   1     128.418 299.531 177.697  0.00  0.00     0.065 H 
ATOM      9  H10 5XX d   1     127.018 300.629 177.944  0.00  0.00     0.065 H 
ATOM     10  H11 5XX d   1     128.550 301.470 174.264  0.00  0.00     0.108 H 
ATOM     11  H12 5XX d   1     126.406 299.814 174.267  0.00  0.00     0.081 H 
ENDROOT
BRANCH   5  12
ATOM     12  N06 5XX d   1     125.591 301.075 175.724  0.00  0.00    -0.358 N 
ATOM     13  H13 5XX d   1     125.533 301.342 176.717  0.00  0.00     0.162 HD
BRANCH  12  14
ATOM     14  C07 5XX d   1     124.592 301.511 174.773  0.00  0.00     0.192 A 
ATOM     15  N08 5XX d   1     124.507 301.191 173.473  0.00  0.00    -0.122 NA
ATOM     16  N09 5XX d   1     123.485 301.729 172.770  0.00  0.00    -0.121 NA
ATOM     17  C10 5XX d   1     122.641 302.539 173.443  0.00  0.00     0.198 A 
ATOM     18  S21 5XX d   1     123.257 302.572 175.055  0.00  0.00    -0.011 SA
BRANCH  17  19
ATOM     19  N11 5XX d   1     121.496 303.230 172.877  0.00  0.00    -0.304 N 
ATOM     20  C12 5XX d   1     120.926 304.452 173.391  0.00  0.00     0.227 C 
ATOM     21  O20 5XX d   1     121.383 304.960 174.382  0.00  0.00    -0.273 OA
ATOM     22  H14 5XX d   1     121.069 302.827 172.067  0.00  0.00     0.171 HD
BRANCH  20  23
ATOM     23  C13 5XX d   1     119.741 305.118 172.689  0.00  0.00     0.033 C 
ATOM     24  H1  5XX d   1     119.581 304.586 171.740  0.00  0.00     0.054 H 
ATOM     25  H2  5XX d   1     120.025 306.160 172.482  0.00  0.00     0.054 H 
BRANCH  23  26
ATOM     26  C14 5XX d   1     118.405 305.148 173.426  0.00  0.00    -0.050 A 
ATOM     27  C15 5XX d   1     117.813 306.372 173.713  0.00  0.00    -0.076 A 
ATOM     28  C16 5XX d   1     116.591 306.420 174.374  0.00  0.00    -0.082 A 
ATOM     29  H3  5XX d   1     118.306 307.292 173.421  0.00  0.00     0.084 H 
ATOM     30  C17 5XX d   1     115.950 305.249 174.747  0.00  0.00    -0.083 A 
ATOM     31  H15 5XX d   1     116.137 307.378 174.599  0.00  0.00     0.083 H 
ATOM     32  C18 5XX d   1     116.529 304.022 174.459  0.00  0.00    -0.082 A 
ATOM     33  H4  5XX d   1     114.998 305.292 175.263  0.00  0.00     0.083 H 
ATOM     34  C19 5XX d   1     117.748 303.976 173.789  0.00  0.00    -0.076 A 
ATOM     35  H16 5XX d   1     116.035 303.104 174.754  0.00  0.00     0.083 H 
ATOM     36  H17 5XX d   1     118.191 303.017 173.547  0.00  0.00     0.084 H 
ENDBRANCH  23  26
ENDBRANCH  20  23
ENDBRANCH  17  19
ENDBRANCH  12  14
ENDBRANCH   5  12
BRANCH   3  37
ATOM     37  C22 5XX d   1     129.562 302.013 176.841  0.00  0.00     0.197 A 
ATOM     38  N23 5XX d   1     130.067 302.094 178.087  0.00  0.00    -0.121 NA
ATOM     39  N24 5XX d   1     131.184 302.850 178.224  0.00  0.00    -0.121 NA
ATOM     40  C25 5XX d   1     131.659 303.421 177.108  0.00  0.00     0.198 A 
ATOM     41  S36 5XX d   1     130.586 302.949 175.835  0.00  0.00    -0.010 SA
BRANCH  40  42
ATOM     42  N26 5XX d   1     132.820 304.255 177.014  0.00  0.00    -0.304 N 
ATOM     43  C27 5XX d   1     132.659 305.662 177.173  0.00  0.00     0.227 C 
ATOM     44  O35 5XX d   1     133.620 306.400 177.127  0.00  0.00    -0.273 OA
ATOM     45  H18 5XX d   1     133.722 303.859 176.841  0.00  0.00     0.171 HD
BRANCH  43  46
ATOM     46  C28 5XX d   1     131.241 306.162 177.448  0.00  0.00     0.033 C 
ATOM     47  H5  5XX d   1     131.293 306.753 178.374  0.00  0.00     0.054 H 
ATOM     48  H6  5XX d   1     130.623 305.268 177.618  0.00  0.00     0.054 H 
BRANCH  46  49
ATOM     49  C29 5XX d   1     130.488 307.024 176.422  0.00  0.00    -0.050 A 
ATOM     50  C30 5XX d   1     130.573 308.410 176.451  0.00  0.00    -0.076 A 
ATOM     51  C31 5XX d   1     129.857 309.167 175.525  0.00  0.00    -0.082 A 
ATOM     52  H19 5XX d   1     131.194 308.901 177.191  0.00  0.00     0.084 H 
ATOM     53  C32 5XX d   1     129.048 308.533 174.588  0.00  0.00    -0.083 A 
ATOM     54  H20 5XX d   1     129.931 310.248 175.535  0.00  0.00     0.083 H 
ATOM     55  C33 5XX d   1     128.953 307.151 174.569  0.00  0.00    -0.082 A 
ATOM     56  H21 5XX d   1     128.490 309.123 173.870  0.00  0.00     0.083 H 
ATOM     57  C34 5XX d   1     129.668 306.393 175.490  0.00  0.00    -0.076 A 
ATOM     58  H22 5XX d   1     128.322 306.661 173.837  0.00  0.00     0.083 H 
ATOM     59  H23 5XX d   1     129.587 305.312 175.482  0.00  0.00     0.084 H 
ENDBRANCH  46  49
ENDBRANCH  43  46
ENDBRANCH  40  42
ENDBRANCH   3  37
TORSDOF 9
