REMARK  9 active torsions:
REMARK  status: ('A' for Active; 'I' for Inactive)
REMARK    1  A    between atoms: N18_23  and  C17_2 
REMARK    2  A    between atoms: C20_3  and  C21_4 
REMARK    3  A    between atoms: C19_24  and  C20_3 
REMARK    4  A    between atoms: C02_9  and  C01_8 
REMARK    5  A    between atoms: C01_8  and  C31_31 
REMARK       I    between atoms: N03_10  and  C02_9 
REMARK    6  A    between atoms: C04_11  and  N03_10 
REMARK    7  A    between atoms: N08_15  and  C07_14 
REMARK    8  A    between atoms: O13_19  and  C11_17 
REMARK    9  A    between atoms: C14_20  and  O13_19 
REMARK       I    between atoms: N18_23  and  C19_24 
ROOT
ATOM      1  C10 5XZ d   1      28.942 -47.062  -0.448  0.00  0.00    -0.024 C 
ATOM      2  N08 5XZ d   1      27.687 -45.333  -1.143  0.00  0.00    -0.356 N 
ATOM      3  C09 5XZ d   1      27.633 -46.287  -0.257  0.00  0.00    -0.001 C 
ATOM      4  C11 5XZ d   1      29.944 -45.936  -0.778  0.00  0.00     0.064 C 
ATOM      5  C12 5XZ d   1      29.252 -45.124  -1.518  0.00  0.00     0.022 C 
ATOM      6  H1  5XZ d   1      28.863 -47.780  -1.277  0.00  0.00     0.039 H 
ATOM      7  H2  5XZ d   1      29.228 -47.593   0.471  0.00  0.00     0.039 H 
ATOM      8  H11 5XZ d   1      27.572 -45.871   0.759  0.00  0.00     0.064 H 
ATOM      9  H12 5XZ d   1      26.765 -46.938  -0.439  0.00  0.00     0.064 H 
ATOM     10  H13 5XZ d   1      30.824 -46.311  -1.321  0.00  0.00     0.086 H 
ATOM     11  H14 5XZ d   1      29.551 -44.085  -1.316  0.00  0.00     0.068 H 
ATOM     12  H15 5XZ d   1      29.417 -45.352  -2.581  0.00  0.00     0.068 H 
ENDROOT
BRANCH   4  13
ATOM     13  O13 5XZ d   1      30.360 -45.318   0.514  0.00  0.00    -0.320 OA
BRANCH  13  14
ATOM     14  C14 5XZ d   1      31.582 -44.633   0.382  0.00  0.00     0.233 A 
ATOM     15  N15 5XZ d   1      32.174 -44.276  -0.766  0.00  0.00    -0.114 NA
ATOM     16  N16 5XZ d   1      33.333 -43.614  -0.655  0.00  0.00    -0.121 NA
ATOM     17  C17 5XZ d   1      33.773 -43.368   0.587  0.00  0.00     0.198 A 
ATOM     18  S28 5XZ d   1      32.601 -44.055   1.648  0.00  0.00    -0.003 SA
BRANCH  17  19
ATOM     19  N18 5XZ d   1      34.990 -42.698   0.885  0.00  0.00    -0.304 N 
ATOM     20  C19 5XZ d   1      35.148 -41.284   0.921  0.00  0.00     0.227 C 
ATOM     21  O27 5XZ d   1      34.207 -40.542   0.727  0.00  0.00    -0.273 OA
ATOM     22  H16 5XZ d   1      35.793 -43.260   1.084  0.00  0.00     0.171 HD
BRANCH  20  23
ATOM     23  C20 5XZ d   1      36.525 -40.722   1.218  0.00  0.00     0.033 C 
ATOM     24  H3  5XZ d   1      36.492 -39.627   1.124  0.00  0.00     0.054 H 
ATOM     25  H4  5XZ d   1      36.807 -40.993   2.246  0.00  0.00     0.054 H 
BRANCH  23  26
ATOM     26  C21 5XZ d   1      37.574 -41.270   0.255  0.00  0.00    -0.050 A 
ATOM     27  C22 5XZ d   1      37.941 -42.614   0.291  0.00  0.00    -0.076 A 
ATOM     28  C23 5XZ d   1      38.892 -43.124  -0.581  0.00  0.00    -0.082 A 
ATOM     29  H5  5XZ d   1      37.475 -43.273   1.014  0.00  0.00     0.084 H 
ATOM     30  C24 5XZ d   1      39.499 -42.283  -1.500  0.00  0.00    -0.083 A 
ATOM     31  H17 5XZ d   1      39.159 -44.174  -0.544  0.00  0.00     0.083 H 
ATOM     32  C25 5XZ d   1      39.137 -40.943  -1.552  0.00  0.00    -0.082 A 
ATOM     33  H6  5XZ d   1      40.253 -42.669  -2.176  0.00  0.00     0.083 H 
ATOM     34  C26 5XZ d   1      38.178 -40.437  -0.678  0.00  0.00    -0.076 A 
ATOM     35  H18 5XZ d   1      39.604 -40.287  -2.278  0.00  0.00     0.083 H 
ATOM     36  H7  5XZ d   1      37.902 -39.390  -0.726  0.00  0.00     0.084 H 
ENDBRANCH  23  26
ENDBRANCH  20  23
ENDBRANCH  17  19
ENDBRANCH  13  14
ENDBRANCH   4  13
BRANCH   2  37
ATOM     37  C07 5XZ d   1      26.582 -44.946  -1.948  0.00  0.00     0.193 A 
ATOM     38  N06 5XZ d   1      26.396 -45.180  -3.258  0.00  0.00    -0.122 NA
ATOM     39  N05 5XZ d   1      25.250 -44.720  -3.799  0.00  0.00    -0.121 NA
ATOM     40  C04 5XZ d   1      24.417 -44.071  -2.962  0.00  0.00     0.198 A 
ATOM     41  S29 5XZ d   1      25.188 -44.092  -1.424  0.00  0.00    -0.011 SA
BRANCH  40  42
ATOM     42  N03 5XZ d   1      23.149 -43.494  -3.276  0.00  0.00    -0.304 N 
ATOM     43  C02 5XZ d   1      22.871 -42.102  -3.165  0.00  0.00     0.227 C 
ATOM     44  O30 5XZ d   1      23.731 -41.335  -2.791  0.00  0.00    -0.273 OA
ATOM     45  H10 5XZ d   1      22.418 -44.099  -3.590  0.00  0.00     0.171 HD
BRANCH  43  46
ATOM     46  C01 5XZ d   1      21.485 -41.606  -3.524  0.00  0.00     0.033 C 
ATOM     47  H8  5XZ d   1      20.761 -42.152  -2.901  0.00  0.00     0.054 H 
ATOM     48  H9  5XZ d   1      21.308 -41.842  -4.584  0.00  0.00     0.054 H 
BRANCH  46  49
ATOM     49  C31 5XZ d   1      21.234 -40.122  -3.332  0.00  0.00    -0.050 A 
ATOM     50  C32 5XZ d   1      20.294 -39.712  -2.395  0.00  0.00    -0.076 A 
ATOM     51  C33 5XZ d   1      20.038 -38.360  -2.209  0.00  0.00    -0.082 A 
ATOM     52  H19 5XZ d   1      19.759 -40.449  -1.808  0.00  0.00     0.084 H 
ATOM     53  C34 5XZ d   1      20.716 -37.416  -2.964  0.00  0.00    -0.083 A 
ATOM     54  H20 5XZ d   1      19.308 -38.043  -1.473  0.00  0.00     0.083 H 
ATOM     55  C35 5XZ d   1      21.651 -37.819  -3.905  0.00  0.00    -0.082 A 
ATOM     56  H21 5XZ d   1      20.515 -36.361  -2.818  0.00  0.00     0.083 H 
ATOM     57  C36 5XZ d   1      21.908 -39.171  -4.091  0.00  0.00    -0.076 A 
ATOM     58  H22 5XZ d   1      22.181 -37.080  -4.495  0.00  0.00     0.083 H 
ATOM     59  H23 5XZ d   1      22.636 -39.486  -4.830  0.00  0.00     0.084 H 
ENDBRANCH  46  49
ENDBRANCH  43  46
ENDBRANCH  40  42
ENDBRANCH   2  37
TORSDOF 9
