REMARK WARNING: 32 MAX_TORS EXCEEDED!!!
REMARK  40 active torsions:
REMARK  status: ('A' for Active; 'I' for Inactive)
REMARK    1  A    between atoms: N_1  and  CA_2 
REMARK    2  A    between atoms: CA_2  and  C_3 
REMARK    3  A    between atoms: CA_2  and  CB_5 
REMARK       I    between atoms: C_3  and  N_9 
REMARK    4  A    between atoms: CB_5  and  CG_6 
REMARK    5  A    between atoms: N_9  and  CA_10 
REMARK    6  A    between atoms: CA_10  and  C_11 
REMARK    7  A    between atoms: CA_10  and  CB_13 
REMARK       I    between atoms: C_11  and  N_17 
REMARK    8  A    between atoms: CB_13  and  CG_14 
REMARK    9  A    between atoms: N_17  and  CA_18 
REMARK   10  A    between atoms: CA_18  and  C_19 
REMARK   11  A    between atoms: CA_18  and  CB_21 
REMARK       I    between atoms: C_19  and  N_31 
REMARK   12  A    between atoms: CB_21  and  CG_22 
REMARK   13  A    between atoms: N_31  and  CA_32 
REMARK   14  A    between atoms: CA_32  and  C_33 
REMARK   15  A    between atoms: CA_32  and  CB_35 
REMARK       I    between atoms: C_33  and  N_39 
REMARK   16  A    between atoms: CB_35  and  CG_36 
REMARK       I    between atoms: CG_36  and  ND2_38 
REMARK   17  A    between atoms: N_39  and  CA_40 
REMARK   18  A    between atoms: CA_40  and  C_41 
REMARK   19  A    between atoms: CA_40  and  CB_43 
REMARK       I    between atoms: C_41  and  N_53 
REMARK   20  A    between atoms: CB_43  and  CG_44 
REMARK   21  A    between atoms: N_53  and  CA_54 
REMARK   22  A    between atoms: CA_54  and  C_55 
REMARK   23  A    between atoms: CA_54  and  CB_57 
REMARK       I    between atoms: C_55  and  N_62 
REMARK   24  A    between atoms: CB_57  and  CG_58 
REMARK   25  A    between atoms: CG_58  and  CD_59 
REMARK   26  A    between atoms: N_62  and  CA_63 
REMARK   27  A    between atoms: CA_63  and  C_64 
REMARK   28  A    between atoms: CA_63  and  CB_66 
REMARK       I    between atoms: C_64  and  N_70 
REMARK   29  A    between atoms: CB_66  and  CG_67 
REMARK   30  A    between atoms: CG_67  and  SE_68 
REMARK   31  A    between atoms: SE_68  and  CE_69 
REMARK   32  A    between atoms: N_70  and  CA_71 
REMARK   33  A    between atoms: CA_71  and  C_72 
REMARK   34  A    between atoms: CA_71  and  CB_74 
REMARK       I    between atoms: C_72  and  N_79 
REMARK   35  A    between atoms: CB_74  and  CG_75 
REMARK   36  A    between atoms: CG_75  and  CD_76 
REMARK   37  A    between atoms: N_79  and  CA_80 
REMARK   38  A    between atoms: CA_80  and  C_81 
REMARK   39  A    between atoms: CA_80  and  CB_83 
REMARK   40  A    between atoms: CB_83  and  CG_84 
ROOT
ATOM      1  CA  TRP d   1      62.220  -0.233 143.988  0.00  0.00     0.093 C 
ATOM      2  H   TRP d   1      62.138   0.744 144.487  0.00  0.00     0.088 H 
ENDROOT
BRANCH   1   3
ATOM      3  N   TRP d   1      63.536  -0.378 143.382  0.00  0.00    -0.346 N 
ATOM      4  C   ASN d   1      64.159   0.620 142.782  0.00  0.00     0.241 C 
ATOM      5  O   ASN d   1      63.653   1.743 142.632  0.00  0.00    -0.271 OA
ATOM      6  H   TRP d   1      63.987  -1.270 143.422  0.00  0.00     0.163 HD
BRANCH   4   7
ATOM      7  CA  ASN d   1      65.549   0.280 142.241  0.00  0.00     0.097 C 
ATOM      8  H   ASN d   1      65.780  -0.757 142.526  0.00  0.00     0.088 H 
BRANCH   7   9
ATOM      9  N   ASN d   1      65.564   0.357 140.773  0.00  0.00    -0.346 N 
ATOM     10  C   TRP d   1      65.962  -0.668 140.018  0.00  0.00     0.241 C 
ATOM     11  O   TRP d   1      66.618  -1.602 140.476  0.00  0.00    -0.271 OA
ATOM     12  H   ASN d   1      65.267   1.202 140.328  0.00  0.00     0.163 HD
BRANCH  10  13
ATOM     13  CA  TRP d   1      65.621  -0.638 138.519  0.00  0.00     0.093 C 
ATOM     14  H   TRP d   1      64.850  -1.399 138.328  0.00  0.00     0.088 H 
BRANCH  13  15
ATOM     15  N   TRP d   1      65.127   0.646 138.053  0.00  0.00    -0.346 N 
ATOM     16  C   ASP d   1      63.840   0.949 137.891  0.00  0.00     0.241 C 
ATOM     17  O   ASP d   1      62.930   0.194 138.239  0.00  0.00    -0.271 OA
ATOM     18  H   TRP d   1      65.801   1.353 137.839  0.00  0.00     0.163 HD
BRANCH  16  19
ATOM     19  CA  ASP d   1      63.537   2.333 137.238  0.00  0.00     0.098 C 
ATOM     20  H   ASP d   1      62.746   2.798 137.844  0.00  0.00     0.088 H 
BRANCH  19  21
ATOM     21  N   ASP d   1      64.697   3.253 137.275  0.00  0.00    -0.345 N 
ATOM     22  C   ASP d   1      65.211   3.693 138.431  0.00  0.00     0.249 C 
ATOM     23  O   ASP d   1      64.665   3.502 139.535  0.00  0.00    -0.271 OA
ATOM     24  H   ASP d   1      65.107   3.554 136.414  0.00  0.00     0.163 HD
BRANCH  22  25
ATOM     25  CA  ASP d   1      66.544   4.460 138.336  0.00  0.00     0.185 C 
ATOM     26  H   ASP d   1      66.939   4.342 137.316  0.00  0.00     0.100 H 
BRANCH  25  27
ATOM     27  N   ASP d   1      66.341   5.904 138.603  0.00  0.00    -0.066 N 
ATOM     28  H   ASP d   1      67.224   6.386 138.536  0.00  0.00     0.275 HD
ATOM     29  H   ASP d   1      65.962   6.024 139.529  0.00  0.00     0.275 HD
ATOM     30  H   ASP d   1      65.699   6.284 137.925  0.00  0.00     0.275 HD
ENDBRANCH  25  27
BRANCH  25  31
ATOM     31  CB  ASP d   1      67.580   3.903 139.332  0.00  0.00     0.050 C 
ATOM     32  H   ASP d   1      67.084   3.743 140.300  0.00  0.00     0.052 H 
ATOM     33  H   ASP d   1      68.385   4.643 139.450  0.00  0.00     0.052 H 
BRANCH  31  34
ATOM     34  CG  ASP d   1      68.198   2.581 138.878  0.00  0.00     0.175 C 
ATOM     35  OD1 ASP d   1      68.121   2.225 137.678  0.00  0.00    -0.648 OA
ATOM     36  OD2 ASP d   1      68.780   1.890 139.740  0.00  0.00    -0.648 OA
ENDBRANCH  31  34
ENDBRANCH  25  31
ENDBRANCH  22  25
ENDBRANCH  19  21
BRANCH  19  37
ATOM     37  CB  ASP d   1      62.971   2.191 135.789  0.00  0.00     0.043 C 
ATOM     38  H   ASP d   1      63.086   3.158 135.278  0.00  0.00     0.052 H 
ATOM     39  H   ASP d   1      61.903   1.938 135.859  0.00  0.00     0.052 H 
BRANCH  37  40
ATOM     40  CG  ASP d   1      63.683   1.088 134.923  0.00  0.00     0.175 C 
ATOM     41  OD1 ASP d   1      64.635   0.421 135.382  0.00  0.00    -0.648 OA
ATOM     42  OD2 ASP d   1      63.270   0.880 133.755  0.00  0.00    -0.648 OA
ENDBRANCH  37  40
ENDBRANCH  19  37
ENDBRANCH  16  19
ENDBRANCH  13  15
BRANCH  13  43
ATOM     43  CB  TRP d   1      66.872  -0.966 137.705  0.00  0.00    -0.012 C 
ATOM     44  H   TRP d   1      67.744  -0.577 138.251  0.00  0.00     0.044 H 
ATOM     45  H   TRP d   1      66.789  -0.454 136.735  0.00  0.00     0.044 H 
BRANCH  43  46
ATOM     46  CG  TRP d   1      67.099  -2.381 137.448  0.00  0.00    -0.028 A 
ATOM     47  CD1 TRP d   1      68.094  -3.140 137.949  0.00  0.00    -0.015 A 
ATOM     48  NE1 TRP d   1      68.001  -4.424 137.467  0.00  0.00    -0.365 N 
ATOM     49  H   TRP d   1      68.861  -2.787 138.637  0.00  0.00     0.112 H 
ATOM     50  CE2 TRP d   1      66.924  -4.505 136.625  0.00  0.00     0.042 A 
ATOM     51  H   TRP d   1      68.638  -5.199 137.701  0.00  0.00     0.165 HD
ATOM     52  CD2 TRP d   1      66.335  -3.226 136.583  0.00  0.00    -0.002 A 
ATOM     53  CZ2 TRP d   1      66.418  -5.592 135.900  0.00  0.00    -0.056 A 
ATOM     54  CE3 TRP d   1      65.201  -3.031 135.789  0.00  0.00    -0.070 A 
ATOM     55  CZ3 TRP d   1      64.705  -4.108 135.056  0.00  0.00    -0.082 A 
ATOM     56  H   TRP d   1      64.717  -2.062 135.744  0.00  0.00     0.084 H 
ATOM     57  CH2 TRP d   1      65.316  -5.370 135.119  0.00  0.00    -0.081 A 
ATOM     58  H   TRP d   1      63.833  -3.969 134.427  0.00  0.00     0.083 H 
ATOM     59  H   TRP d   1      64.906  -6.187 134.536  0.00  0.00     0.083 H 
ATOM     60  H   TRP d   1      66.881  -6.571 135.955  0.00  0.00     0.086 H 
ENDBRANCH  43  46
ENDBRANCH  13  43
ENDBRANCH  10  13
ENDBRANCH   7   9
BRANCH   7  61
ATOM     61  CB  ASN d   1      66.619   1.189 142.872  0.00  0.00     0.036 C 
ATOM     62  H   ASN d   1      66.226   1.592 143.817  0.00  0.00     0.051 H 
ATOM     63  H   ASN d   1      66.831   2.017 142.180  0.00  0.00     0.051 H 
BRANCH  61  64
ATOM     64  CG  ASN d   1      67.920   0.447 143.160  0.00  0.00     0.217 C 
ATOM     65  OD1 ASN d   1      68.199   0.075 144.299  0.00  0.00    -0.274 OA
ATOM     66  ND2 ASN d   1      68.704   0.197 142.114  0.00  0.00    -0.370 N 
ATOM     67  H   ASN d   1      69.570  -0.287 142.242  0.00  0.00     0.159 HD
ATOM     68  H   ASN d   1      68.427   0.493 141.200  0.00  0.00     0.159 HD
ENDBRANCH  61  64
ENDBRANCH   7  61
ENDBRANCH   4   7
ENDBRANCH   1   3
BRANCH   1  69
ATOM     69  C   TRP d   1      62.126  -1.352 145.029  0.00  0.00     0.241 C 
ATOM     70  O   TRP d   1      62.806  -2.362 144.867  0.00  0.00    -0.271 OA
ATOM     71  N   GLU d   1      61.369  -1.181 146.116  0.00  0.00    -0.346 N 
ATOM     72  H   GLU d   1      60.796  -0.367 146.215  0.00  0.00     0.163 HD
BRANCH  71  73
ATOM     73  CA  GLU d   1      61.394  -2.219 147.170  0.00  0.00     0.090 C 
ATOM     74  H   GLU d   1      62.130  -2.971 146.850  0.00  0.00     0.087 H 
BRANCH  73  75
ATOM     75  C   GLU d   1      60.069  -2.903 147.242  0.00  0.00     0.241 C 
ATOM     76  O   GLU d   1      59.056  -2.296 146.984  0.00  0.00    -0.271 OA
ATOM     77  N   MSE d   1      60.102  -4.185 147.582  0.00  0.00    -0.346 N 
ATOM     78  H   MSE d   1      60.984  -4.637 147.714  0.00  0.00     0.163 HD
BRANCH  77  79
ATOM     79  CA  MSE d   1      58.885  -4.935 147.763  0.00  0.00     0.089 C 
ATOM     80  H   MSE d   1      58.211  -4.779 146.907  0.00  0.00     0.087 H 
BRANCH  79  81
ATOM     81  C   MSE d   1      58.291  -4.358 149.023  0.00  0.00     0.241 C 
ATOM     82  O   MSE d   1      59.008  -4.064 149.987  0.00  0.00    -0.271 OA
ATOM     83  N   GLU d   1      56.979  -4.175 149.015  0.00  0.00    -0.346 N 
ATOM     84  H   GLU d   1      56.464  -4.435 148.198  0.00  0.00     0.163 HD
BRANCH  83  85
ATOM     85  CA  GLU d   1      56.258  -3.613 150.142  0.00  0.00     0.090 C 
ATOM     86  H   GLU d   1      56.992  -3.182 150.839  0.00  0.00     0.087 H 
BRANCH  85  87
ATOM     87  C   GLU d   1      55.516  -4.720 150.903  0.00  0.00     0.241 C 
ATOM     88  O   GLU d   1      55.770  -5.898 150.644  0.00  0.00    -0.271 OA
ATOM     89  N   ASP d   1      54.674  -4.343 151.879  0.00  0.00    -0.344 N 
ATOM     90  H   ASP d   1      54.444  -3.372 151.941  0.00  0.00     0.163 HD
BRANCH  89  91
ATOM     91  CA  ASP d   1      54.057  -5.262 152.877  0.00  0.00     0.105 C 
ATOM     92  H   ASP d   1      53.441  -4.635 153.538  0.00  0.00     0.090 H 
BRANCH  91  93
ATOM     93  C   ASP d   1      55.109  -5.962 153.782  0.00  0.00     0.197 C 
ATOM     94  O   ASP d   1      56.316  -5.694 153.733  0.00  0.00    -0.646 OA
ATOM     95  OXT ASP d   1      54.792  -6.816 154.618  0.00  0.00    -0.646 OA
ENDBRANCH  91  93
BRANCH  91  96
ATOM     96  CB  ASP d   1      53.097  -6.293 152.219  0.00  0.00     0.044 C 
ATOM     97  H   ASP d   1      53.101  -7.210 152.827  0.00  0.00     0.053 H 
ATOM     98  H   ASP d   1      53.469  -6.521 151.209  0.00  0.00     0.053 H 
BRANCH  96  99
ATOM     99  CG  ASP d   1      51.650  -5.792 152.103  0.00  0.00     0.175 C 
ATOM    100  OD1 ASP d   1      51.427  -4.595 151.800  0.00  0.00    -0.648 OA
ATOM    101  OD2 ASP d   1      50.735  -6.625 152.292  0.00  0.00    -0.648 OA
ENDBRANCH  96  99
ENDBRANCH  91  96
ENDBRANCH  89  91
ENDBRANCH  85  87
BRANCH  85 102
ATOM    102  CB  GLU d   1      55.384  -2.467 149.642  0.00  0.00    -0.029 C 
ATOM    103  H   GLU d   1      54.705  -2.151 150.447  0.00  0.00     0.037 H 
ATOM    104  H   GLU d   1      54.795  -2.810 148.779  0.00  0.00     0.037 H 
BRANCH 102 105
ATOM    105  CG  GLU d   1      56.251  -1.280 149.220  0.00  0.00     0.018 C 
ATOM    106  H   GLU d   1      56.824  -1.575 148.329  0.00  0.00     0.049 H 
ATOM    107  H   GLU d   1      56.944  -1.054 150.043  0.00  0.00     0.049 H 
BRANCH 105 108
ATOM    108  CD  GLU d   1      55.476   0.000 148.885  0.00  0.00     0.172 C 
ATOM    109  OE1 GLU d   1      54.218   0.019 148.857  0.00  0.00    -0.648 OA
ATOM    110  OE2 GLU d   1      56.149   1.020 148.630  0.00  0.00    -0.648 OA
ENDBRANCH 105 108
ENDBRANCH 102 105
ENDBRANCH  85 102
ENDBRANCH  83  85
ENDBRANCH  79  81
BRANCH  79 111
ATOM    111  CB  MSE d   1      59.131  -6.423 147.933  0.00  0.00    -0.038 C 
ATOM    112  H   MSE d   1      58.170  -6.943 147.804  0.00  0.00     0.036 H 
ATOM    113  H   MSE d   1      59.505  -6.591 148.953  0.00  0.00     0.036 H 
BRANCH 111 114
ATOM    114  CG  MSE d   1      60.129  -7.031 146.960  0.00  0.00    -0.063 C 
ATOM    115  H   MSE d   1      61.149  -6.723 147.235  0.00  0.00     0.033 H 
ATOM    116  H   MSE d   1      59.906  -6.689 145.939  0.00  0.00     0.033 H 
BRANCH 114 117
ATOM    117 SE   MSE d   1      59.981  -9.001 147.050  0.00  0.00     0.000 Se
BRANCH 117 118
ATOM    118  CE  MSE d   1      61.817  -9.536 147.550  0.00  0.00    -0.080 C 
ATOM    119  H   MSE d   1      61.870 -10.632 147.634  0.00  0.00     0.027 H 
ATOM    120  H   MSE d   1      62.081  -9.081 148.516  0.00  0.00     0.027 H 
ATOM    121  H   MSE d   1      62.522  -9.193 146.778  0.00  0.00     0.027 H 
ENDBRANCH 117 118
ENDBRANCH 114 117
ENDBRANCH 111 114
ENDBRANCH  79 111
ENDBRANCH  77  79
ENDBRANCH  73  75
BRANCH  73 122
ATOM    122  CB  GLU d   1      61.866  -1.720 148.576  0.00  0.00    -0.029 C 
ATOM    123  H   GLU d   1      61.380  -2.355 149.332  0.00  0.00     0.037 H 
ATOM    124  H   GLU d   1      61.519  -0.682 148.691  0.00  0.00     0.037 H 
BRANCH 122 125
ATOM    125  CG  GLU d   1      63.390  -1.736 148.865  0.00  0.00     0.018 C 
ATOM    126  H   GLU d   1      63.524  -1.853 149.951  0.00  0.00     0.049 H 
ATOM    127  H   GLU d   1      63.801  -0.767 148.547  0.00  0.00     0.049 H 
BRANCH 125 128
ATOM    128  CD  GLU d   1      64.215  -2.855 148.162  0.00  0.00     0.172 C 
ATOM    129  OE1 GLU d   1      63.741  -4.015 147.951  0.00  0.00    -0.648 OA
ATOM    130  OE2 GLU d   1      65.389  -2.577 147.817  0.00  0.00    -0.648 OA
ENDBRANCH 125 128
ENDBRANCH 122 125
ENDBRANCH  73 122
ENDBRANCH  71  73
ENDBRANCH   1  69
BRANCH   1 131
ATOM    131  CB  TRP d   1      61.129  -0.328 142.911  0.00  0.00    -0.012 C 
ATOM    132  H   TRP d   1      61.234   0.541 142.244  0.00  0.00     0.044 H 
ATOM    133  H   TRP d   1      60.152  -0.288 143.414  0.00  0.00     0.044 H 
BRANCH 131 134
ATOM    134  CG  TRP d   1      61.164  -1.584 142.053  0.00  0.00    -0.028 A 
ATOM    135  CD1 TRP d   1      61.812  -1.764 140.856  0.00  0.00    -0.015 A 
ATOM    136  NE1 TRP d   1      61.611  -3.027 140.394  0.00  0.00    -0.365 N 
ATOM    137  H   TRP d   1      62.403  -1.003 140.349  0.00  0.00     0.112 H 
ATOM    138  CE2 TRP d   1      60.818  -3.686 141.288  0.00  0.00     0.042 A 
ATOM    139  H   TRP d   1      61.991  -3.418 139.520  0.00  0.00     0.165 HD
ATOM    140  CD2 TRP d   1      60.519  -2.799 142.335  0.00  0.00    -0.002 A 
ATOM    141  CZ2 TRP d   1      60.342  -4.981 141.260  0.00  0.00    -0.056 A 
ATOM    142  CE3 TRP d   1      59.736  -3.240 143.389  0.00  0.00    -0.070 A 
ATOM    143  CZ3 TRP d   1      59.270  -4.518 143.369  0.00  0.00    -0.082 A 
ATOM    144  H   TRP d   1      59.499  -2.579 144.215  0.00  0.00     0.084 H 
ATOM    145  CH2 TRP d   1      59.569  -5.384 142.312  0.00  0.00    -0.081 A 
ATOM    146  H   TRP d   1      58.655  -4.872 144.188  0.00  0.00     0.083 H 
ATOM    147  H   TRP d   1      59.179  -6.396 142.328  0.00  0.00     0.083 H 
ATOM    148  H   TRP d   1      60.572  -5.650 140.439  0.00  0.00     0.086 H 
ENDBRANCH 131 134
ENDBRANCH   1 131
TORSDOF 40
