REMARK  27 active torsions:
REMARK  status: ('A' for Active; 'I' for Inactive)
REMARK    1  A    between atoms: C01_1  and  C02_2 
REMARK    2  A    between atoms: C02_2  and  N03_3 
REMARK    3  A    between atoms: N03_3  and  C04_4 
REMARK    4  A    between atoms: N03_3  and  C06_6 
REMARK    5  A    between atoms: N03_3  and  C40_40 
REMARK    6  A    between atoms: C04_4  and  C05_5 
REMARK    7  A    between atoms: C06_6  and  C07_7 
REMARK    8  A    between atoms: C07_7  and  C08_8 
REMARK    9  A    between atoms: C08_8  and  C09_9 
REMARK   10  A    between atoms: C09_9  and  C10_10 
REMARK   11  A    between atoms: C10_10  and  N11_11 
REMARK   12  A    between atoms: C12_12  and  C13_13 
REMARK   13  A    between atoms: N17_17  and  C18_18 
REMARK   14  A    between atoms: C18_18  and  C19_19 
REMARK   15  A    between atoms: C19_19  and  C20_20 
REMARK   16  A    between atoms: C20_20  and  C21_21 
REMARK   17  A    between atoms: C21_21  and  C22_22 
REMARK   18  A    between atoms: C22_22  and  N23_23 
REMARK   19  A    between atoms: N23_23  and  C24_24 
REMARK   20  A    between atoms: N23_23  and  C26_26 
REMARK   21  A    between atoms: N23_23  and  C28_28 
REMARK   22  A    between atoms: C24_24  and  C25_25 
REMARK   23  A    between atoms: C26_26  and  C27_27 
REMARK   24  A    between atoms: C28_28  and  C29_29 
REMARK   25  A    between atoms: C34_34  and  N35_35 
REMARK   26  A    between atoms: C40_40  and  C41_41 
REMARK   27  A    between atoms: C46_46  and  N47_47 
ROOT
ATOM      1  N11 G0W d   1      16.683  23.605  35.445  0.00  0.00    -0.303 N 
ATOM      2  C12 G0W d   1      16.590  22.941  36.691  0.00  0.00     0.017 A 
ATOM      3  C14 G0W d   1      17.339  21.822  36.889  0.00  0.00     0.004 A 
ATOM      4  C15 G0W d   1      18.248  21.250  35.879  0.00  0.00     0.253 A 
ATOM      5  O16 G0W d   1      18.927  20.247  36.042  0.00  0.00    -0.268 OA
ATOM      6  N17 G0W d   1      18.331  21.937  34.609  0.00  0.00    -0.266 N 
ATOM      7  C38 G0W d   1      17.549  23.095  34.411  0.00  0.00     0.331 A 
ATOM      8  O39 G0W d   1      17.589  23.709  33.340  0.00  0.00    -0.246 OA
ATOM      9  H24 G0W d   1      17.262  21.319  37.852  0.00  0.00     0.095 H 
ENDROOT
BRANCH   1  10
ATOM     10  C10 G0W d   1      15.902  24.834  35.114  0.00  0.00     0.004 C 
ATOM     11  H19 G0W d   1      15.540  25.284  36.050  0.00  0.00     0.065 H 
ATOM     12  H20 G0W d   1      16.565  25.544  34.598  0.00  0.00     0.065 H 
BRANCH  10  13
ATOM     13  C09 G0W d   1      14.681  24.541  34.200  0.00  0.00    -0.050 C 
ATOM     14  H17 G0W d   1      15.000  23.828  33.426  0.00  0.00     0.035 H 
ATOM     15  H18 G0W d   1      13.896  24.082  34.819  0.00  0.00     0.035 H 
BRANCH  13  16
ATOM     16  C08 G0W d   1      14.071  25.772  33.492  0.00  0.00    -0.062 C 
ATOM     17  H15 G0W d   1      14.887  26.478  33.278  0.00  0.00     0.033 H 
ATOM     18  H16 G0W d   1      13.623  25.431  32.547  0.00  0.00     0.033 H 
BRANCH  16  19
ATOM     19  C07 G0W d   1      12.982  26.530  34.290  0.00  0.00    -0.042 C 
ATOM     20  H13 G0W d   1      13.073  26.233  35.345  0.00  0.00     0.035 H 
ATOM     21  H14 G0W d   1      13.185  27.607  34.194  0.00  0.00     0.035 H 
BRANCH  19  22
ATOM     22  C06 G0W d   1      11.516  26.286  33.856  0.00  0.00     0.086 C 
ATOM     23  H11 G0W d   1      11.532  25.905  32.824  0.00  0.00     0.076 H 
ATOM     24  H12 G0W d   1      11.093  25.520  34.523  0.00  0.00     0.076 H 
BRANCH  22  25
ATOM     25  N03 G0W d   1      10.567  27.517  33.890  0.00  0.00    -0.064 N 
BRANCH  25  26
ATOM     26  C02 G0W d   1      11.271  28.659  33.056  0.00  0.00     0.082 C 
ATOM     27  H4  G0W d   1      11.981  29.180  33.715  0.00  0.00     0.075 H 
ATOM     28  H5  G0W d   1      11.818  28.192  32.223  0.00  0.00     0.075 H 
BRANCH  26  29
ATOM     29  C01 G0W d   1      10.292  29.707  32.469  0.00  0.00    -0.053 C 
ATOM     30  H1  G0W d   1      10.859  30.463  31.906  0.00  0.00     0.029 H 
ATOM     31  H2  G0W d   1       9.743  30.195  33.288  0.00  0.00     0.029 H 
ATOM     32  H3  G0W d   1       9.579  29.207  31.797  0.00  0.00     0.029 H 
ENDBRANCH  26  29
ENDBRANCH  25  26
BRANCH  25  33
ATOM     33  C04 G0W d   1       9.194  27.210  33.235  0.00  0.00     0.082 C 
ATOM     34  H6  G0W d   1       8.731  28.168  32.955  0.00  0.00     0.075 H 
ATOM     35  H7  G0W d   1       8.567  26.704  33.984  0.00  0.00     0.075 H 
BRANCH  33  36
ATOM     36  C05 G0W d   1       9.241  26.326  31.986  0.00  0.00    -0.053 C 
ATOM     37  H8  G0W d   1       8.220  26.173  31.606  0.00  0.00     0.029 H 
ATOM     38  H9  G0W d   1       9.686  25.353  32.242  0.00  0.00     0.029 H 
ATOM     39  H10 G0W d   1       9.850  26.816  31.212  0.00  0.00     0.029 H 
ENDBRANCH  33  36
ENDBRANCH  25  33
BRANCH  25  40
ATOM     40  C40 G0W d   1      10.243  27.985  35.387  0.00  0.00     0.111 C 
ATOM     41  H51 G0W d   1       9.391  28.679  35.332  0.00  0.00     0.084 H 
ATOM     42  H52 G0W d   1      11.129  28.521  35.758  0.00  0.00     0.084 H 
BRANCH  40  43
ATOM     43  C41 G0W d   1       9.885  26.904  36.447  0.00  0.00     0.001 A 
ATOM     44  C42 G0W d   1       8.556  26.455  36.512  0.00  0.00    -0.073 A 
ATOM     45  C43 G0W d   1       8.105  25.485  37.422  0.00  0.00    -0.082 A 
ATOM     46  H53 G0W d   1       7.838  26.881  35.821  0.00  0.00     0.084 H 
ATOM     47  C44 G0W d   1       8.986  24.914  38.325  0.00  0.00    -0.081 A 
ATOM     48  H54 G0W d   1       7.064  25.182  37.417  0.00  0.00     0.083 H 
ATOM     49  C45 G0W d   1      10.324  25.315  38.318  0.00  0.00    -0.050 A 
ATOM     50  H55 G0W d   1       8.642  24.165  39.029  0.00  0.00     0.083 H 
ATOM     51  C46 G0W d   1      10.771  26.279  37.408  0.00  0.00     0.110 A 
ATOM     52  H56 G0W d   1      11.021  24.876  39.023  0.00  0.00     0.087 H 
BRANCH  51  53
ATOM     53  N47 G0W d   1      12.267  26.555  37.590  0.00  0.00    -0.115 N 
ATOM     54  O48 G0W d   1      12.880  27.392  36.974  0.00  0.00    -0.532 OA
ATOM     55  O49 G0W d   1      12.802  25.850  38.433  0.00  0.00    -0.532 OA
ENDBRANCH  51  53
ENDBRANCH  40  43
ENDBRANCH  25  40
ENDBRANCH  22  25
ENDBRANCH  19  22
ENDBRANCH  16  19
ENDBRANCH  13  16
ENDBRANCH  10  13
ENDBRANCH   1  10
BRANCH   2  56
ATOM     56  C13 G0W d   1      15.659  23.522  37.727  0.00  0.00    -0.037 C 
ATOM     57  H21 G0W d   1      15.691  22.904  38.637  0.00  0.00     0.035 H 
ATOM     58  H22 G0W d   1      14.633  23.537  37.331  0.00  0.00     0.035 H 
ATOM     59  H23 G0W d   1      15.974  24.548  37.969  0.00  0.00     0.035 H 
ENDBRANCH   2  56
BRANCH   6  60
ATOM     60  C18 G0W d   1      19.240  21.439  33.496  0.00  0.00     0.007 C 
ATOM     61  H25 G0W d   1      18.633  21.283  32.592  0.00  0.00     0.065 H 
ATOM     62  H26 G0W d   1      19.684  20.482  33.809  0.00  0.00     0.065 H 
BRANCH  60  63
ATOM     63  C19 G0W d   1      20.400  22.437  33.151  0.00  0.00    -0.049 C 
ATOM     64  H27 G0W d   1      20.610  23.037  34.049  0.00  0.00     0.035 H 
ATOM     65  H28 G0W d   1      20.052  23.096  32.342  0.00  0.00     0.035 H 
BRANCH  63  66
ATOM     66  C20 G0W d   1      21.730  21.777  32.693  0.00  0.00    -0.062 C 
ATOM     67  H29 G0W d   1      21.481  20.783  32.293  0.00  0.00     0.033 H 
ATOM     68  H30 G0W d   1      22.364  21.665  33.585  0.00  0.00     0.033 H 
BRANCH  66  69
ATOM     69  C21 G0W d   1      22.586  22.520  31.601  0.00  0.00    -0.042 C 
ATOM     70  H31 G0W d   1      23.418  21.856  31.322  0.00  0.00     0.035 H 
ATOM     71  H32 G0W d   1      22.986  23.437  32.059  0.00  0.00     0.035 H 
BRANCH  69  72
ATOM     72  C22 G0W d   1      21.853  22.930  30.292  0.00  0.00     0.086 C 
ATOM     73  H33 G0W d   1      21.486  23.958  30.427  0.00  0.00     0.076 H 
ATOM     74  H34 G0W d   1      20.998  22.250  30.165  0.00  0.00     0.076 H 
BRANCH  72  75
ATOM     75  N23 G0W d   1      22.708  22.895  28.925  0.00  0.00    -0.064 N 
BRANCH  75  76
ATOM     76  C24 G0W d   1      22.458  24.240  28.195  0.00  0.00     0.082 C 
ATOM     77  H35 G0W d   1      23.216  24.357  27.406  0.00  0.00     0.075 H 
ATOM     78  H36 G0W d   1      22.557  25.058  28.923  0.00  0.00     0.075 H 
BRANCH  76  79
ATOM     79  C25 G0W d   1      21.077  24.322  27.558  0.00  0.00    -0.053 C 
ATOM     80  H37 G0W d   1      20.961  25.295  27.058  0.00  0.00     0.029 H 
ATOM     81  H38 G0W d   1      20.307  24.216  28.337  0.00  0.00     0.029 H 
ATOM     82  H39 G0W d   1      20.965  23.515  26.819  0.00  0.00     0.029 H 
ENDBRANCH  76  79
ENDBRANCH  75  76
BRANCH  75  83
ATOM     83  C26 G0W d   1      24.228  22.749  29.243  0.00  0.00     0.082 C 
ATOM     84  H40 G0W d   1      24.672  22.084  28.488  0.00  0.00     0.075 H 
ATOM     85  H41 G0W d   1      24.326  22.292  30.239  0.00  0.00     0.075 H 
BRANCH  83  86
ATOM     86  C27 G0W d   1      25.016  24.060  29.243  0.00  0.00    -0.053 C 
ATOM     87  H42 G0W d   1      26.071  23.854  29.476  0.00  0.00     0.029 H 
ATOM     88  H43 G0W d   1      24.599  24.739  30.002  0.00  0.00     0.029 H 
ATOM     89  H44 G0W d   1      24.945  24.530  28.251  0.00  0.00     0.029 H 
ENDBRANCH  83  86
ENDBRANCH  75  83
BRANCH  75  90
ATOM     90  C28 G0W d   1      22.264  21.718  28.009  0.00  0.00     0.111 C 
ATOM     91  H45 G0W d   1      22.145  22.137  26.999  0.00  0.00     0.084 H 
ATOM     92  H46 G0W d   1      21.286  21.383  28.384  0.00  0.00     0.084 H 
BRANCH  90  93
ATOM     93  C29 G0W d   1      23.128  20.458  27.859  0.00  0.00     0.001 A 
ATOM     94  C30 G0W d   1      24.067  20.359  26.827  0.00  0.00    -0.073 A 
ATOM     95  C31 G0W d   1      24.886  19.239  26.630  0.00  0.00    -0.082 A 
ATOM     96  H47 G0W d   1      24.167  21.194  26.143  0.00  0.00     0.084 H 
ATOM     97  C32 G0W d   1      24.777  18.156  27.487  0.00  0.00    -0.081 A 
ATOM     98  H48 G0W d   1      25.599  19.220  25.814  0.00  0.00     0.083 H 
ATOM     99  C33 G0W d   1      23.849  18.195  28.537  0.00  0.00    -0.050 A 
ATOM    100  H49 G0W d   1      25.405  17.284  27.346  0.00  0.00     0.083 H 
ATOM    101  C34 G0W d   1      23.037  19.323  28.721  0.00  0.00     0.110 A 
ATOM    102  H50 G0W d   1      23.759  17.349  29.209  0.00  0.00     0.087 H 
BRANCH 101 103
ATOM    103  N35 G0W d   1      22.094  19.206  29.902  0.00  0.00    -0.115 N 
ATOM    104  O36 G0W d   1      21.308  20.045  30.219  0.00  0.00    -0.532 OA
ATOM    105  O37 G0W d   1      22.194  18.158  30.548  0.00  0.00    -0.532 OA
ENDBRANCH 101 103
ENDBRANCH  90  93
ENDBRANCH  75  90
ENDBRANCH  72  75
ENDBRANCH  69  72
ENDBRANCH  66  69
ENDBRANCH  63  66
ENDBRANCH  60  63
ENDBRANCH   6  60
TORSDOF 27
