REMARK  5 active torsions:
REMARK  status: ('A' for Active; 'I' for Inactive)
REMARK    1  A    between atoms: O6_1  and  C6_2 
REMARK    2  A    between atoms: C6_2  and  C5_3 
REMARK    3  A    between atoms: C4_5  and  O4_6 
REMARK    4  A    between atoms: C3_7  and  O3_8 
REMARK    5  A    between atoms: C7_13  and  N1_14 
ROOT
ATOM      1  C5  2J4 d   1       5.312 -11.206   2.289  0.00  0.00     0.087 C 
ATOM      2  O5  2J4 d   1       5.502 -12.213   3.263  0.00  0.00    -0.363 OA
ATOM      3  C4  2J4 d   1       6.689 -10.883   1.613  0.00  0.00     0.089 C 
ATOM      4  C3  2J4 d   1       7.643 -10.328   2.688  0.00  0.00     0.085 C 
ATOM      5  C2  2J4 d   1       7.799 -11.395   3.790  0.00  0.00     0.072 C 
ATOM      6  C1  2J4 d   1       6.411 -11.935   4.308  0.00  0.00     0.112 C 
ATOM      7  S1  2J4 d   1       5.961 -10.659   5.505  0.00  0.00    -0.060 SA
ATOM      8  N2  2J4 d   1       8.378 -10.838   5.034  0.00  0.00    -0.360 N 
ATOM      9  C7  2J4 d   1       7.576 -10.324   5.996  0.00  0.00     0.136 C 
ATOM     10  H4  2J4 d   1       4.943 -10.296   2.784  0.00  0.00     0.090 H 
ATOM     11  H5  2J4 d   1       7.111 -11.787   1.150  0.00  0.00     0.091 H 
ATOM     12  H7  2J4 d   1       7.167  -9.449   3.147  0.00  0.00     0.090 H 
ATOM     13  H9  2J4 d   1       8.419 -12.216   3.402  0.00  0.00     0.082 H 
ATOM     14  H10 2J4 d   1       6.562 -12.882   4.847  0.00  0.00     0.104 H 
ATOM     15  H11 2J4 d   1       9.399 -10.842   5.168  0.00  0.00     0.162 HD
ENDROOT
BRANCH   1  16
ATOM     16  C6  2J4 d   1       4.246 -11.667   1.249  0.00  0.00     0.043 C 
ATOM     17  H2  2J4 d   1       3.285 -11.862   1.747  0.00  0.00     0.078 H 
ATOM     18  H3  2J4 d   1       4.109 -10.897   0.475  0.00  0.00     0.078 H 
BRANCH  16  19
ATOM     19  O6  2J4 d   1       4.755 -12.864   0.671  0.00  0.00    -0.398 OA
ATOM     20  H1  2J4 d   1       4.876 -13.516   1.351  0.00  0.00     0.209 HD
ENDBRANCH  16  19
ENDBRANCH   1  16
BRANCH   3  21
ATOM     21  O4  2J4 d   1       6.495  -9.877   0.648  0.00  0.00    -0.390 OA
ATOM     22  H6  2J4 d   1       5.878 -10.182  -0.007  0.00  0.00     0.210 HD
ENDBRANCH   3  21
BRANCH   4  23
ATOM     23  O3  2J4 d   1       8.874  -9.875   2.102  0.00  0.00    -0.391 OA
ATOM     24  H8  2J4 d   1       8.690  -9.187   1.474  0.00  0.00     0.210 HD
ENDBRANCH   4  23
BRANCH   9  25
ATOM     25  N1  2J4 d   1       8.021  -9.639   7.194  0.00  0.00    -0.380 N 
ATOM     26  H12 2J4 d   1       9.027  -9.505   7.367  0.00  0.00     0.158 HD
ATOM     27  H13 2J4 d   1       7.331  -9.287   7.872  0.00  0.00     0.158 HD
ENDBRANCH   9  25
TORSDOF 5
