REMARK  9 active torsions:
REMARK  status: ('A' for Active; 'I' for Inactive)
REMARK    1  A    between atoms: O1_1  and  C1_2 
REMARK    2  A    between atoms: C1_2  and  C2_3 
REMARK    3  A    between atoms: C3_5  and  O3_6 
REMARK    4  A    between atoms: C4_7  and  O4_8 
REMARK    5  A    between atoms: C7_12  and  N2_14 
REMARK    6  A    between atoms: N2_14  and  C8_15 
REMARK    7  A    between atoms: C8_15  and  C9_16 
REMARK    8  A    between atoms: C9_16  and  C10_17 
REMARK    9  A    between atoms: C10_17  and  C11_18 
ROOT
ATOM      1  C2  71I d   1      27.177  50.921 249.044  0.00  0.00     0.087 C 
ATOM      2  O2  71I d   1      27.446  52.313 249.172  0.00  0.00    -0.363 OA
ATOM      3  C3  71I d   1      28.447  50.169 249.363  0.00  0.00     0.089 C 
ATOM      4  C4  71I d   1      29.436  50.504 248.272  0.00  0.00     0.087 C 
ATOM      5  C5  71I d   1      29.701  51.988 248.255  0.00  0.00     0.096 C 
ATOM      6  C6  71I d   1      28.415  52.809 248.241  0.00  0.00     0.114 C 
ATOM      7  N1  71I d   1      30.308  52.260 246.948  0.00  0.00    -0.256 NA
ATOM      8  C7  71I d   1      29.499  52.567 246.014  0.00  0.00     0.160 C 
ATOM      9  S1  71I d   1      27.912  52.792 246.516  0.00  0.00    -0.058 SA
ATOM     10  H4  71I d   1      26.860  50.693 248.016  0.00  0.00     0.090 H 
ATOM     11  H5  71I d   1      28.833  50.504 250.337  0.00  0.00     0.091 H 
ATOM     12  H7  71I d   1      29.016  50.204 247.301  0.00  0.00     0.090 H 
ATOM     13  H9  71I d   1      30.351  52.281 249.093  0.00  0.00     0.085 H 
ATOM     14  H10 71I d   1      28.641  53.846 248.532  0.00  0.00     0.104 H 
ENDROOT
BRANCH   8  15
ATOM     15  N2  71I d   1      29.936  52.702 244.774  0.00  0.00    -0.369 N 
ATOM     16  H11 71I d   1      30.938  52.530 244.611  0.00  0.00     0.161 HD
BRANCH  15  17
ATOM     17  C8  71I d   1      29.147  53.065 243.637  0.00  0.00    -0.005 C 
ATOM     18  H12 71I d   1      28.769  54.093 243.744  0.00  0.00     0.064 H 
ATOM     19  H13 71I d   1      28.300  52.373 243.521  0.00  0.00     0.064 H 
BRANCH  17  20
ATOM     20  C9  71I d   1      30.084  52.965 242.436  0.00  0.00    -0.051 C 
ATOM     21  H14 71I d   1      30.672  52.038 242.511  0.00  0.00     0.035 H 
ATOM     22  H15 71I d   1      30.763  53.831 242.433  0.00  0.00     0.035 H 
BRANCH  20  23
ATOM     23  C10 71I d   1      29.286  52.949 241.140  0.00  0.00    -0.067 C 
ATOM     24  H16 71I d   1      28.387  52.328 241.271  0.00  0.00     0.032 H 
ATOM     25  H17 71I d   1      29.906  52.531 240.334  0.00  0.00     0.032 H 
BRANCH  23  26
ATOM     26  C11 71I d   1      28.879  54.344 240.782  0.00  0.00    -0.076 C 
ATOM     27  H18 71I d   1      28.303  54.329 239.845  0.00  0.00     0.027 H 
ATOM     28  H19 71I d   1      29.777  54.965 240.650  0.00  0.00     0.027 H 
ATOM     29  H20 71I d   1      28.258  54.763 241.588  0.00  0.00     0.027 H 
ENDBRANCH  23  26
ENDBRANCH  20  23
ENDBRANCH  17  20
ENDBRANCH  15  17
ENDBRANCH   8  15
BRANCH   4  30
ATOM     30  O4  71I d   1      30.650  49.793 248.493  0.00  0.00    -0.391 OA
ATOM     31  H8  71I d   1      30.475  48.859 248.485  0.00  0.00     0.210 HD
ENDBRANCH   4  30
BRANCH   3  32
ATOM     32  O3  71I d   1      28.253  48.753 249.406  0.00  0.00    -0.390 OA
ATOM     33  H6  71I d   1      27.613  48.542 250.076  0.00  0.00     0.210 HD
ENDBRANCH   3  32
BRANCH   1  34
ATOM     34  C1  71I d   1      26.070  50.538 250.011  0.00  0.00     0.043 C 
ATOM     35  H2  71I d   1      25.153  51.096 249.770  0.00  0.00     0.078 H 
ATOM     36  H3  71I d   1      25.870  49.459 249.942  0.00  0.00     0.078 H 
BRANCH  34  37
ATOM     37  O1  71I d   1      26.513  50.872 251.346  0.00  0.00    -0.398 OA
ATOM     38  H1  71I d   1      26.687  51.805 251.397  0.00  0.00     0.209 HD
ENDBRANCH  34  37
ENDBRANCH   1  34
TORSDOF 9
