REMARK  3 active torsions:
REMARK  status: ('A' for Active; 'I' for Inactive)
REMARK    1  A    between atoms: C7_7  and  O8_8 
REMARK    2  A    between atoms: O8_8  and  C9_9 
REMARK    3  A    between atoms: C9_9  and  C10_10 
ROOT
ATOM      1 CL1  6J5 d   1      -6.025   5.642  13.975  0.00  0.00    -0.081 Cl
ATOM      2  C2  6J5 d   1      -4.293   5.819  13.772  0.00  0.00     0.067 A 
ATOM      3  C3  6J5 d   1      -3.730   6.908  13.136  0.00  0.00    -0.059 A 
ATOM      4  C4  6J5 d   1      -2.364   6.999  12.993  0.00  0.00    -0.081 A 
ATOM      5  C5  6J5 d   1      -1.570   6.003  13.502  0.00  0.00    -0.080 A 
ATOM      6  C6  6J5 d   1      -2.122   4.916  14.144  0.00  0.00    -0.049 A 
ATOM      7  C7  6J5 d   1      -3.485   4.828  14.268  0.00  0.00     0.090 A 
ATOM      8  H1  6J5 d   1      -4.367   7.695  12.748  0.00  0.00     0.086 H 
ATOM      9  H2  6J5 d   1      -1.921   7.848  12.484  0.00  0.00     0.083 H 
ATOM     10  H3  6J5 d   1      -0.493   6.072  13.398  0.00  0.00     0.083 H 
ATOM     11  H4  6J5 d   1      -1.485   4.137  14.547  0.00  0.00     0.087 H 
ENDROOT
BRANCH   7  12
ATOM     12  O8  6J5 d   1      -4.203   3.805  14.872  0.00  0.00    -0.342 OA
BRANCH  12  13
ATOM     13  C9  6J5 d   1      -3.440   2.731  15.394  0.00  0.00     0.083 C 
ATOM     14  H5  6J5 d   1      -2.716   3.110  16.130  0.00  0.00     0.087 H 
ATOM     15  H6  6J5 d   1      -2.903   2.223  14.579  0.00  0.00     0.087 H 
BRANCH  13  16
ATOM     16  C10 6J5 d   1      -4.392   1.768  16.060  0.00  0.00     0.158 A 
ATOM     17  N11 6J5 d   1      -4.829   1.766  17.327  0.00  0.00    -0.145 NA
ATOM     18  N12 6J5 d   1      -5.701   0.716  17.486  0.00  0.00     0.018 NA
ATOM     19  N13 6J5 d   1      -5.730   0.105  16.282  0.00  0.00    -0.005 NA
ATOM     20  N14 6J5 d   1      -4.923   0.755  15.374  0.00  0.00    -0.270 N 
ATOM     21  H7  6J5 d   1      -4.765   0.513  14.386  0.00  0.00     0.185 HD
ENDBRANCH  13  16
ENDBRANCH  12  13
ENDBRANCH   7  12
TORSDOF 3
