REMARK  3 active torsions:
REMARK  status: ('A' for Active; 'I' for Inactive)
REMARK    1  A    between atoms: O8_13  and  C7_4 
REMARK    2  A    between atoms: C9_8  and  C10_7 
REMARK    3  A    between atoms: C9_8  and  O8_13 
ROOT
ATOM      1  C6  YIH d   1      -5.507   2.513  12.506  0.00  0.00    -0.049 A 
ATOM      2  C5  YIH d   1      -6.071   3.713  12.132  0.00  0.00    -0.058 A 
ATOM      3  C15 YIH d   1      -5.046   3.408  14.606  0.00  0.00    -0.028 A 
ATOM      4  C7  YIH d   1      -4.954   2.337  13.745  0.00  0.00     0.071 A 
ATOM      5  C3  YIH d   1      -6.177   4.727  13.007  0.00  0.00     0.056 A 
ATOM      6  C2  YIH d   1      -5.635   4.571  14.216  0.00  0.00     0.058 A 
ATOM      7 CL4  YIH d   1      -6.937   6.232  12.492  0.00  0.00    -0.083 Cl
ATOM      8 CL1  YIH d   1      -5.720   5.858  15.370  0.00  0.00    -0.082 Cl
ATOM      9  H1  YIH d   1      -5.501   1.689  11.802  0.00  0.00     0.087 H 
ATOM     10  H2  YIH d   1      -6.434   3.841  11.119  0.00  0.00     0.086 H 
ATOM     11  H3  YIH d   1      -4.643   3.323  15.609  0.00  0.00     0.090 H 
ENDROOT
BRANCH   4  12
ATOM     12  O8  YIH d   1      -4.406   1.078  14.007  0.00  0.00    -0.344 OA
BRANCH  12  13
ATOM     13  C9  YIH d   1      -3.881   0.876  15.319  0.00  0.00     0.083 C 
ATOM     14  H4  YIH d   1      -3.396  -0.110  15.360  0.00  0.00     0.087 H 
ATOM     15  H5  YIH d   1      -3.138   1.659  15.529  0.00  0.00     0.087 H 
BRANCH  13  16
ATOM     16  C10 YIH d   1      -4.939   0.931  16.352  0.00  0.00     0.158 A 
ATOM     17  N11 YIH d   1      -4.780   1.754  17.388  0.00  0.00    -0.270 N 
ATOM     18  N12 YIH d   1      -5.881   1.554  18.141  0.00  0.00    -0.005 NA
ATOM     19  H6  YIH d   1      -3.996   2.396  17.572  0.00  0.00     0.185 HD
ATOM     20  N13 YIH d   1      -6.699   0.651  17.562  0.00  0.00     0.018 NA
ATOM     21  N14 YIH d   1      -6.089   0.255  16.407  0.00  0.00    -0.145 NA
ENDBRANCH  13  16
ENDBRANCH  12  13
ENDBRANCH   4  12
TORSDOF 3
