REMARK  5 active torsions:
REMARK  status: ('A' for Active; 'I' for Inactive)
REMARK    1  A    between atoms: C4_13  and  C5_3 
REMARK    2  A    between atoms: C8_6  and  O9_8 
REMARK    3  A    between atoms: C2_7  and  C4_13 
REMARK    4  A    between atoms: O9_8  and  C10_9 
REMARK    5  A    between atoms: C10_9  and  C11_10 
ROOT
ATOM      1  C12 YI6 d   1      -6.324   4.943  15.181  0.00  0.00    -0.050 A 
ATOM      2  C13 YI6 d   1      -5.652   3.888  15.739  0.00  0.00    -0.074 A 
ATOM      3  C5  YI6 d   1      -4.914   3.052  14.948  0.00  0.00    -0.048 A 
ATOM      4  C6  YI6 d   1      -4.905   3.262  13.573  0.00  0.00    -0.074 A 
ATOM      5  C7  YI6 d   1      -5.604   4.337  12.989  0.00  0.00    -0.050 A 
ATOM      6  C8  YI6 d   1      -6.313   5.162  13.819  0.00  0.00     0.068 A 
ATOM      7  H1  YI6 d   1      -6.876   5.620  15.823  0.00  0.00     0.087 H 
ATOM      8  H2  YI6 d   1      -5.705   3.716  16.808  0.00  0.00     0.084 H 
ATOM      9  H3  YI6 d   1      -4.348   2.584  12.937  0.00  0.00     0.084 H 
ATOM     10  H4  YI6 d   1      -5.581   4.505  11.918  0.00  0.00     0.087 H 
ENDROOT
BRANCH   6  11
ATOM     11  O9  YI6 d   1      -7.032   6.301  13.314  0.00  0.00    -0.352 OA
BRANCH  11  12
ATOM     12  C10 YI6 d   1      -6.684   6.772  12.026  0.00  0.00     0.023 C 
ATOM     13  H5  YI6 d   1      -7.010   6.052  11.261  0.00  0.00     0.074 H 
ATOM     14  H6  YI6 d   1      -5.595   6.912  11.958  0.00  0.00     0.074 H 
BRANCH  12  15
ATOM     15  C11 YI6 d   1      -7.394   8.103  11.824  0.00  0.00    -0.056 C 
ATOM     16  H7  YI6 d   1      -7.147   8.503  10.829  0.00  0.00     0.030 H 
ATOM     17  H8  YI6 d   1      -7.067   8.814  12.597  0.00  0.00     0.030 H 
ATOM     18  H9  YI6 d   1      -8.481   7.954  11.900  0.00  0.00     0.030 H 
ENDBRANCH  12  15
ENDBRANCH  11  12
ENDBRANCH   6  11
BRANCH   3  19
ATOM     19  C4  YI6 d   1      -4.117   1.871  15.539  0.00  0.00     0.039 C 
ATOM     20  H10 YI6 d   1      -3.948   2.046  16.612  0.00  0.00     0.056 H 
ATOM     21  H11 YI6 d   1      -3.148   1.791  15.024  0.00  0.00     0.056 H 
BRANCH  19  22
ATOM     22  C2  YI6 d   1      -4.915   0.543  15.350  0.00  0.00     0.176 C 
ATOM     23  O1  YI6 d   1      -4.498  -0.228  14.406  0.00  0.00    -0.648 OA
ATOM     24  O3  YI6 d   1      -5.873   0.357  16.144  0.00  0.00    -0.648 OA
ENDBRANCH  19  22
ENDBRANCH   3  19
TORSDOF 5
