REMARK  3 active torsions:
REMARK  status: ('A' for Active; 'I' for Inactive)
REMARK    1  A    between atoms: C2_2  and  C4_4 
REMARK    2  A    between atoms: C4_4  and  C5_5 
REMARK    3  A    between atoms: C5_5  and  C6_6 
ROOT
ATOM      1  C6  S0W d   1      16.999  64.215  28.267  0.00  0.00    -0.058 A 
ATOM      2  C7  S0W d   1      18.146  63.900  28.987  0.00  0.00    -0.075 A 
ATOM      3  C8  S0W d   1      18.173  64.038  30.362  0.00  0.00    -0.061 A 
ATOM      4  C9  S0W d   1      17.055  64.491  31.021  0.00  0.00     0.034 A 
ATOM      5 CL1  S0W d   1      17.092  64.663  32.754  0.00  0.00    -0.084 Cl
ATOM      6  C11 S0W d   1      15.905  64.809  30.331  0.00  0.00    -0.061 A 
ATOM      7  C12 S0W d   1      15.878  64.672  28.954  0.00  0.00    -0.075 A 
ATOM      8  H5  S0W d   1      19.027  63.543  28.465  0.00  0.00     0.084 H 
ATOM      9  H6  S0W d   1      19.070  63.791  30.917  0.00  0.00     0.086 H 
ATOM     10  H7  S0W d   1      15.029  65.163  30.862  0.00  0.00     0.086 H 
ATOM     11  H8  S0W d   1      14.977  64.923  28.406  0.00  0.00     0.084 H 
ENDROOT
BRANCH   1  12
ATOM     12  C5  S0W d   1      16.975  64.062  26.767  0.00  0.00    -0.032 C 
ATOM     13  H3  S0W d   1      17.357  63.063  26.512  0.00  0.00     0.040 H 
ATOM     14  H4  S0W d   1      15.934  64.155  26.423  0.00  0.00     0.040 H 
BRANCH  12  15
ATOM     15  C4  S0W d   1      17.812  65.094  26.047  0.00  0.00     0.019 C 
ATOM     16  H1  S0W d   1      17.424  66.094  26.293  0.00  0.00     0.049 H 
ATOM     17  H2  S0W d   1      18.852  65.008  26.396  0.00  0.00     0.049 H 
BRANCH  15  18
ATOM     18  C2  S0W d   1      17.793  64.926  24.536  0.00  0.00     0.172 C 
ATOM     19  O1  S0W d   1      16.975  65.617  23.883  0.00  0.00    -0.648 OA
ATOM     20  O3  S0W d   1      18.597  64.108  24.042  0.00  0.00    -0.648 OA
ENDBRANCH  15  18
ENDBRANCH  12  15
ENDBRANCH   1  12
TORSDOF 3
