REMARK  10 active torsions:
REMARK  status: ('A' for Active; 'I' for Inactive)
REMARK    1  A    between atoms: O5'_38  and  P_2 
REMARK    2  A    between atoms: C6_10  and  N6_11 
REMARK    3  A    between atoms: C1'_15  and  N9_14 
REMARK    4  A    between atoms: C10_16  and  C17_23 
REMARK    5  A    between atoms: C16_22  and  O19_25 
REMARK    6  A    between atoms: C17_23  and  N18_24 
REMARK    7  A    between atoms: O19_25  and  C20_29 
REMARK    8  A    between atoms: C20_29  and  C21_30 
REMARK    9  A    between atoms: C5'_37  and  C4'_35 
REMARK   10  A    between atoms: C5'_37  and  O5'_38 
ROOT
ATOM      1  B   A2H d   1       4.369 -15.969 -21.879  0.00  0.00     0.650 B 
ATOM      2 CL   A2H d   1       4.745 -17.952 -17.136  0.00  0.00    -0.084 Cl
ATOM      3  O1  A2H d   1       4.747 -17.388 -21.729  0.00  0.00    -0.385 OA
ATOM      4  C1' A2H d   1       2.034 -14.585 -24.180  0.00  0.00     0.138 C 
ATOM      5  C10 A2H d   1       4.646 -17.874 -20.387  0.00  0.00     0.075 C 
ATOM      6  C11 A2H d   1       4.527 -16.613 -19.609  0.00  0.00    -0.000 A 
ATOM      7  C12 A2H d   1       4.421 -15.499 -20.439  0.00  0.00     0.049 A 
ATOM      8  C13 A2H d   1       4.575 -16.508 -18.220  0.00  0.00     0.043 A 
ATOM      9  C14 A2H d   1       4.476 -15.236 -17.651  0.00  0.00    -0.059 A 
ATOM     10  C15 A2H d   1       4.350 -14.100 -18.444  0.00  0.00    -0.049 A 
ATOM     11  C16 A2H d   1       4.317 -14.209 -19.854  0.00  0.00     0.073 A 
ATOM     12  C2' A2H d   1       3.059 -15.653 -23.820  0.00  0.00     0.093 C 
ATOM     13  O2' A2H d   1       3.070 -16.001 -22.441  0.00  0.00    -0.383 OA
ATOM     14  C3' A2H d   1       4.394 -14.984 -24.022  0.00  0.00     0.080 C 
ATOM     15  O3' A2H d   1       5.182 -15.441 -22.923  0.00  0.00    -0.385 OA
ATOM     16  C4' A2H d   1       4.075 -13.494 -23.927  0.00  0.00     0.088 C 
ATOM     17  O4' A2H d   1       2.663 -13.336 -23.975  0.00  0.00    -0.353 OA
ATOM     18  H6  A2H d   1       1.151 -14.683 -23.531  0.00  0.00     0.122 H 
ATOM     19  H7  A2H d   1       5.562 -18.408 -20.095  0.00  0.00     0.091 H 
ATOM     20  H9  A2H d   1       4.498 -15.132 -16.572  0.00  0.00     0.086 H 
ATOM     21  H10 A2H d   1       4.277 -13.124 -17.978  0.00  0.00     0.087 H 
ATOM     22  H16 A2H d   1       2.928 -16.545 -24.450  0.00  0.00     0.091 H 
ATOM     23  H23 A2H d   1       4.863 -15.235 -24.985  0.00  0.00     0.088 H 
ATOM     24  H25 A2H d   1       4.469 -13.114 -22.973  0.00  0.00     0.090 H 
ENDROOT
BRANCH   5  25
ATOM     25  C17 A2H d   1       3.475 -18.832 -20.251  0.00  0.00     0.106 C 
ATOM     26  H11 A2H d   1       3.341 -19.088 -19.190  0.00  0.00     0.079 H 
ATOM     27  H12 A2H d   1       3.690 -19.746 -20.824  0.00  0.00     0.079 H 
BRANCH  25  28
ATOM     28  N18 A2H d   1       2.269 -18.242 -20.746  0.00  0.00    -0.077 N 
ATOM     29  H13 A2H d   1       1.509 -18.896 -20.645  0.00  0.00     0.274 HD
ATOM     30  H14 A2H d   1       2.384 -18.009 -21.720  0.00  0.00     0.274 HD
ATOM     31  H15 A2H d   1       2.064 -17.405 -20.222  0.00  0.00     0.274 HD
ENDBRANCH  25  28
ENDBRANCH   5  25
BRANCH  11  32
ATOM     32  O19 A2H d   1       4.174 -13.080 -20.621  0.00  0.00    -0.352 OA
BRANCH  32  33
ATOM     33  C20 A2H d   1       4.400 -11.716 -20.217  0.00  0.00     0.023 C 
ATOM     34  H18 A2H d   1       5.482 -11.521 -20.173  0.00  0.00     0.074 H 
ATOM     35  H19 A2H d   1       3.957 -11.549 -19.224  0.00  0.00     0.074 H 
BRANCH  33  36
ATOM     36  C21 A2H d   1       3.754 -10.775 -21.227  0.00  0.00    -0.056 C 
ATOM     37  H20 A2H d   1       3.926  -9.733 -20.919  0.00  0.00     0.030 H 
ATOM     38  H21 A2H d   1       2.672 -10.971 -21.271  0.00  0.00     0.030 H 
ATOM     39  H22 A2H d   1       4.197 -10.942 -22.220  0.00  0.00     0.030 H 
ENDBRANCH  33  36
ENDBRANCH  32  33
ENDBRANCH  11  32
BRANCH   4  40
ATOM     40  N9  A2H d   1       1.615 -14.671 -25.593  0.00  0.00    -0.294 N 
ATOM     41  C4  A2H d   1       0.424 -14.250 -26.025  0.00  0.00     0.167 A 
ATOM     42  N3  A2H d   1      -0.653 -13.673 -25.409  0.00  0.00    -0.222 NA
ATOM     43  C5  A2H d   1       0.383 -14.512 -27.393  0.00  0.00     0.149 A 
ATOM     44  C2  A2H d   1      -1.762 -13.362 -26.117  0.00  0.00     0.091 A 
ATOM     45  N1  A2H d   1      -1.818 -13.596 -27.445  0.00  0.00    -0.222 NA
ATOM     46  H2  A2H d   1      -2.614 -12.921 -25.613  0.00  0.00     0.146 H 
ATOM     47  C6  A2H d   1      -0.763 -14.166 -28.098  0.00  0.00     0.155 A 
ATOM     48  N7  A2H d   1       1.557 -15.073 -27.760  0.00  0.00    -0.236 NA
ATOM     49  C8  A2H d   1       2.307 -15.164 -26.644  0.00  0.00     0.071 A 
ATOM     50  H5  A2H d   1       3.316 -15.572 -26.596  0.00  0.00     0.144 H 
BRANCH  47  51
ATOM     51  N6  A2H d   1      -0.787 -14.417 -29.424  0.00  0.00    -0.382 N 
ATOM     52  H3  A2H d   1       0.029 -14.848 -29.881  0.00  0.00     0.157 HD
ATOM     53  H4  A2H d   1      -1.621 -14.177 -29.979  0.00  0.00     0.157 HD
ENDBRANCH  47  51
ENDBRANCH   4  40
BRANCH  16  54
ATOM     54  C5' A2H d   1       4.625 -12.653 -25.052  0.00  0.00     0.059 C 
ATOM     55  H26 A2H d   1       4.175 -12.959 -26.008  0.00  0.00     0.079 H 
ATOM     56  H27 A2H d   1       5.718 -12.765 -25.109  0.00  0.00     0.079 H 
BRANCH  54  57
ATOM     57  O5' A2H d   1       4.284 -11.295 -24.760  0.00  0.00    -0.280 OA
BRANCH  57  58
ATOM     58  P   A2H d   1       4.352 -10.123 -25.864  0.00  0.00     0.422 P 
ATOM     59  O1P A2H d   1       3.622 -10.729 -27.021  0.00  0.00    -0.617 OA
ATOM     60  O2P A2H d   1       3.583  -8.991 -25.226  0.00  0.00    -0.617 OA
ATOM     61  O3P A2H d   1       5.838  -9.901 -26.021  0.00  0.00    -0.617 OA
ENDBRANCH  57  58
ENDBRANCH  54  57
ENDBRANCH  16  54
TORSDOF 10
