REMARK  7 active torsions:
REMARK  status: ('A' for Active; 'I' for Inactive)
REMARK    1  A    between atoms: C2_1  and  O15_14 
REMARK    2  A    between atoms: C3_2  and  O16_15 
REMARK    3  A    between atoms: C4_3  and  O17_16 
REMARK    4  A    between atoms: C6_5  and  O14_13 
REMARK    5  A    between atoms: C7_6  and  C8_7 
REMARK    6  A    between atoms: C8_7  and  O9_8 
REMARK    7  A    between atoms: O9_8  and  P10_9 
ROOT
ATOM      1  C2  JAZ d   1      23.676  -4.221   6.588  0.00  0.00     0.070 C 
ATOM      2  C3  JAZ d   1      23.225  -3.118   5.607  0.00  0.00     0.085 C 
ATOM      3  C4  JAZ d   1      21.864  -3.455   5.008  0.00  0.00     0.065 C 
ATOM      4  C5  JAZ d   1      21.861  -4.792   4.280  0.00  0.00    -0.014 C 
ATOM      5  C6  JAZ d   1      22.410  -5.884   5.172  0.00  0.00     0.046 C 
ATOM      6  C7  JAZ d   1      23.760  -5.516   5.788  0.00  0.00     0.019 C 
ATOM      7  H1  JAZ d   1      22.957  -4.314   7.415  0.00  0.00     0.087 H 
ATOM      8  H2  JAZ d   1      23.966  -3.001   4.802  0.00  0.00     0.090 H 
ATOM      9  H3  JAZ d   1      21.140  -3.521   5.834  0.00  0.00     0.087 H 
ATOM     10  H4  JAZ d   1      22.485  -4.714   3.378  0.00  0.00     0.040 H 
ATOM     11  H5  JAZ d   1      20.830  -5.045   3.992  0.00  0.00     0.040 H 
ATOM     12  H6  JAZ d   1      22.570  -6.775   4.547  0.00  0.00     0.083 H 
ATOM     13  H7  JAZ d   1      24.441  -5.314   4.948  0.00  0.00     0.051 H 
ENDROOT
BRANCH   6  14
ATOM     14  C8  JAZ d   1      24.380  -6.675   6.564  0.00  0.00     0.040 C 
ATOM     15  H8  JAZ d   1      25.370  -6.385   6.947  0.00  0.00     0.076 H 
ATOM     16  H9  JAZ d   1      24.482  -7.554   5.910  0.00  0.00     0.076 H 
BRANCH  14  17
ATOM     17  O9  JAZ d   1      23.506  -6.973   7.649  0.00  0.00    -0.282 OA
BRANCH  17  18
ATOM     18  P10 JAZ d   1      24.120  -7.543   8.999  0.00  0.00     0.422 P 
ATOM     19  O11 JAZ d   1      22.939  -7.676   9.894  0.00  0.00    -0.617 OA
ATOM     20  O12 JAZ d   1      25.285  -6.757   9.436  0.00  0.00    -0.617 OA
ATOM     21  O13 JAZ d   1      24.685  -8.851   8.654  0.00  0.00    -0.617 OA
ENDBRANCH  17  18
ENDBRANCH  14  17
ENDBRANCH   6  14
BRANCH   1  22
ATOM     22  O15 JAZ d   1      24.984  -3.944   7.100  0.00  0.00    -0.392 OA
ATOM     23  H11 JAZ d   1      24.962  -3.139   7.605  0.00  0.00     0.210 HD
ENDBRANCH   1  22
BRANCH   5  24
ATOM     24  O14 JAZ d   1      21.441  -6.222   6.173  0.00  0.00    -0.395 OA
ATOM     25  H10 JAZ d   1      21.752  -6.966   6.675  0.00  0.00     0.210 HD
ENDBRANCH   5  24
BRANCH   2  26
ATOM     26  O16 JAZ d   1      23.117  -1.931   6.352  0.00  0.00    -0.390 OA
ATOM     27  H12 JAZ d   1      22.834  -1.226   5.782  0.00  0.00     0.210 HD
ENDBRANCH   2  26
BRANCH   3  28
ATOM     28  O17 JAZ d   1      21.448  -2.419   4.135  0.00  0.00    -0.393 OA
ATOM     29  H13 JAZ d   1      22.043  -2.372   3.396  0.00  0.00     0.210 HD
ENDBRANCH   3  28
TORSDOF 7
