REMARK WARNING: 32 MAX_TORS EXCEEDED!!!
REMARK  75 active torsions:
REMARK  status: ('A' for Active; 'I' for Inactive)
REMARK    1  A    between atoms: N_1  and  CA_2 
REMARK    2  A    between atoms: CA_2  and  C_3 
REMARK    3  A    between atoms: CA_2  and  CB_5 
REMARK       I    between atoms: C_3  and  N_9 
REMARK    4  A    between atoms: CB_5  and  CG_6 
REMARK    5  A    between atoms: CG_6  and  CD1_7 
REMARK    6  A    between atoms: CG_6  and  CD2_8 
REMARK    7  A    between atoms: N_9  and  CA_10 
REMARK    8  A    between atoms: CA_10  and  C_11 
REMARK       I    between atoms: C_11  and  N_13 
REMARK    9  A    between atoms: N_13  and  CA_14 
REMARK   10  A    between atoms: CA_14  and  C_15 
REMARK   11  A    between atoms: CA_14  and  CB_17 
REMARK       I    between atoms: C_15  and  N_20 
REMARK   12  A    between atoms: CB_17  and  OG1_18 
REMARK   13  A    between atoms: CB_17  and  CG2_19 
REMARK   14  A    between atoms: N_20  and  CA_21 
REMARK   15  A    between atoms: CA_21  and  C_22 
REMARK   16  A    between atoms: CA_21  and  CB_24 
REMARK       I    between atoms: C_22  and  N_31 
REMARK   17  A    between atoms: CB_24  and  CG_25 
REMARK   18  A    between atoms: N_31  and  CA_32 
REMARK   19  A    between atoms: CA_32  and  C_33 
REMARK   20  A    between atoms: CA_32  and  CB_35 
REMARK       I    between atoms: C_33  and  N_39 
REMARK   21  A    between atoms: CB_35  and  CG_36 
REMARK   22  A    between atoms: CG_36  and  SD_37 
REMARK   23  A    between atoms: SD_37  and  CE_38 
REMARK   24  A    between atoms: N_39  and  CA_40 
REMARK   25  A    between atoms: CA_40  and  C_41 
REMARK   26  A    between atoms: CA_40  and  CB_43 
REMARK       I    between atoms: C_41  and  N_50 
REMARK   27  A    between atoms: CB_43  and  CG_44 
REMARK   28  A    between atoms: CG_44  and  CD_45 
REMARK   29  A    between atoms: CD_45  and  NE_46 
REMARK       I    between atoms: NE_46  and  CZ_47 
REMARK       I    between atoms: CZ_47  and  NH1_48 
REMARK       I    between atoms: CZ_47  and  NH2_49 
REMARK   30  A    between atoms: N_50  and  CA_51 
REMARK   31  A    between atoms: CA_51  and  C_52 
REMARK   32  A    between atoms: CA_51  and  CB_54 
REMARK       I    between atoms: C_52  and  N_55 
REMARK   33  A    between atoms: N_55  and  CA_56 
REMARK   34  A    between atoms: CA_56  and  C_57 
REMARK   35  A    between atoms: CA_56  and  CB_59 
REMARK       I    between atoms: C_57  and  N_63 
REMARK   36  A    between atoms: CB_59  and  CG_60 
REMARK   37  A    between atoms: N_63  and  CA_64 
REMARK   38  A    between atoms: CA_64  and  C_65 
REMARK   39  A    between atoms: CA_64  and  CB_67 
REMARK       I    between atoms: C_65  and  N_72 
REMARK   40  A    between atoms: CB_67  and  CG_68 
REMARK   41  A    between atoms: CG_68  and  CD_69 
REMARK   42  A    between atoms: N_72  and  CA_73 
REMARK   43  A    between atoms: CA_73  and  C_74 
REMARK   44  A    between atoms: CA_73  and  CB_76 
REMARK       I    between atoms: C_74  and  N_84 
REMARK   45  A    between atoms: CB_76  and  CG_77 
REMARK   46  A    between atoms: CZ_82  and  OH_83 
REMARK   47  A    between atoms: N_84  and  CA_85 
REMARK   48  A    between atoms: CA_85  and  C_86 
REMARK   49  A    between atoms: CA_85  and  CB_88 
REMARK       I    between atoms: C_86  and  N_92 
REMARK   50  A    between atoms: CB_88  and  CG_89 
REMARK   51  A    between atoms: CG_89  and  CD1_90 
REMARK   52  A    between atoms: CG_89  and  CD2_91 
REMARK   53  A    between atoms: N_92  and  CA_93 
REMARK   54  A    between atoms: CA_93  and  C_94 
REMARK   55  A    between atoms: CA_93  and  CB_96 
REMARK       I    between atoms: C_94  and  N_101 
REMARK   56  A    between atoms: CB_96  and  CG_97 
REMARK   57  A    between atoms: CG_97  and  CD_98 
REMARK   58  A    between atoms: CD_98  and  CE_99 
REMARK   59  A    between atoms: CE_99  and  NZ_100 
REMARK   60  A    between atoms: N_101  and  CA_102 
REMARK   61  A    between atoms: CA_102  and  C_103 
REMARK   62  A    between atoms: CA_102  and  CB_105 
REMARK       I    between atoms: C_103  and  N_110 
REMARK   63  A    between atoms: CB_105  and  CG_106 
REMARK   64  A    between atoms: CG_106  and  CD_107 
REMARK   65  A    between atoms: CD_107  and  CE_108 
REMARK   66  A    between atoms: CE_108  and  NZ_109 
REMARK   67  A    between atoms: N_110  and  CA_111 
REMARK   68  A    between atoms: CA_111  and  C_112 
REMARK   69  A    between atoms: CA_111  and  CB_114 
REMARK       I    between atoms: C_112  and  N_121 
REMARK   70  A    between atoms: CB_114  and  CG_115 
REMARK   71  A    between atoms: CG_115  and  CD_116 
REMARK   72  A    between atoms: CD_116  and  NE_117 
REMARK       I    between atoms: NE_117  and  CZ_118 
REMARK       I    between atoms: CZ_118  and  NH1_119 
REMARK   73  A    between atoms: N_121  and  CA_122 
REMARK   74  A    between atoms: CA_122  and  C_123 
REMARK   75  A    between atoms: CA_122  and  CB_125 
REMARK       I    between atoms: C_123  and  N_126 
ROOT
ATOM      1  CA  GLU d   1      24.766   6.105  49.384  0.00  0.00     0.090 C 
ATOM      2  H65 GLU d   1      25.008   6.617  50.327  0.00  0.00     0.087 H 
ENDROOT
BRANCH   1   3
ATOM      3  N   GLU d   1      23.450   5.476  49.524  0.00  0.00    -0.346 N 
ATOM      4  C   ASP d   1      22.413   6.135  50.029  0.00  0.00     0.241 C 
ATOM      5  O   ASP d   1      22.503   7.287  50.453  0.00  0.00    -0.271 OA
ATOM      6  H64 GLU d   1      23.329   4.527  49.232  0.00  0.00     0.163 HD
BRANCH   4   7
ATOM      7  CA  ASP d   1      21.065   5.394  50.051  0.00  0.00     0.098 C 
ATOM      8  H61 ASP d   1      20.276   6.160  50.053  0.00  0.00     0.088 H 
BRANCH   7   9
ATOM      9  N   ASP d   1      20.887   4.592  48.844  0.00  0.00    -0.346 N 
ATOM     10  C   ALA d   1      20.748   5.186  47.661  0.00  0.00     0.240 C 
ATOM     11  O   ALA d   1      20.681   6.407  47.538  0.00  0.00    -0.271 OA
ATOM     12  H60 ASP d   1      20.869   3.594  48.906  0.00  0.00     0.163 HD
BRANCH  10  13
ATOM     13  CA  ALA d   1      20.692   4.296  46.432  0.00  0.00     0.086 C 
ATOM     14  H56 ALA d   1      21.204   4.830  45.618  0.00  0.00     0.086 H 
BRANCH  13  15
ATOM     15  N   ALA d   1      21.378   3.032  46.621  0.00  0.00    -0.346 N 
ATOM     16  C   ARG d   1      22.700   2.994  46.736  0.00  0.00     0.241 C 
ATOM     17  O   ARG d   1      23.363   3.995  46.945  0.00  0.00    -0.271 OA
ATOM     18  H55 ALA d   1      20.851   2.183  46.665  0.00  0.00     0.163 HD
BRANCH  16  19
ATOM     19  CA  ARG d   1      23.378   1.627  46.644  0.00  0.00     0.089 C 
ATOM     20  H43 ARG d   1      22.726   0.946  46.078  0.00  0.00     0.087 H 
BRANCH  19  21
ATOM     21  N   ARG d   1      24.654   1.747  45.955  0.00  0.00    -0.346 N 
ATOM     22  C   MET d   1      24.691   2.112  44.680  0.00  0.00     0.241 C 
ATOM     23  O   MET d   1      23.670   2.332  44.025  0.00  0.00    -0.271 OA
ATOM     24  H42 ARG d   1      25.505   1.554  46.444  0.00  0.00     0.163 HD
BRANCH  22  25
ATOM     25  CA  MET d   1      26.073   2.220  44.053  0.00  0.00     0.090 C 
ATOM     26  H34 MET d   1      26.712   1.436  44.486  0.00  0.00     0.087 H 
BRANCH  25  27
ATOM     27  N   MET d   1      25.982   1.995  42.613  0.00  0.00    -0.346 N 
ATOM     28  C   PHE d   1      26.915   1.341  41.936  0.00  0.00     0.241 C 
ATOM     29  O   PHE d   1      28.025   1.023  42.400  0.00  0.00    -0.271 OA
ATOM     30  H33 MET d   1      25.187   2.347  42.120  0.00  0.00     0.163 HD
BRANCH  28  31
ATOM     31  CA  PHE d   1      26.527   0.958  40.529  0.00  0.00     0.093 C 
ATOM     32  H25 PHE d   1      25.791   1.687  40.160  0.00  0.00     0.088 H 
BRANCH  31  33
ATOM     33  N   PHE d   1      27.685   0.985  39.616  0.00  0.00    -0.346 N 
ATOM     34  C   THR d   1      28.404   2.090  39.373  0.00  0.00     0.243 C 
ATOM     35  O   THR d   1      28.176   3.178  39.894  0.00  0.00    -0.271 OA
ATOM     36  H24 PHE d   1      27.947   0.137  39.155  0.00  0.00     0.163 HD
BRANCH  34  37
ATOM     37  CA  THR d   1      29.573   1.949  38.386  0.00  0.00     0.113 C 
ATOM     38  H18 THR d   1      29.182   1.589  37.423  0.00  0.00     0.091 H 
BRANCH  37  39
ATOM     39  N   THR d   1      30.190   3.265  38.182  0.00  0.00    -0.344 N 
ATOM     40  C   GLY d   1      30.783   3.595  37.038  0.00  0.00     0.236 C 
ATOM     41  O   GLY d   1      30.807   2.844  36.069  0.00  0.00    -0.272 OA
ATOM     42  H17 THR d   1      30.164   3.933  38.925  0.00  0.00     0.163 HD
BRANCH  40  43
ATOM     43  CA  GLY d   1      31.450   4.968  36.981  0.00  0.00     0.069 C 
ATOM     44  H15 GLY d   1      32.538   4.830  36.897  0.00  0.00     0.078 H 
ATOM     45  H16 GLY d   1      31.079   5.505  36.095  0.00  0.00     0.078 H 
BRANCH  43  46
ATOM     46  N   GLY d   1      31.169   5.768  38.166  0.00  0.00    -0.351 N 
ATOM     47  C   LEU d   1      29.981   6.346  38.345  0.00  0.00     0.248 C 
ATOM     48  O   LEU d   1      29.136   6.397  37.463  0.00  0.00    -0.271 OA
ATOM     49  H14 GLY d   1      31.881   5.886  38.858  0.00  0.00     0.163 HD
BRANCH  47  50
ATOM     50  CA  LEU d   1      29.680   6.933  39.727  0.00  0.00     0.176 C 
ATOM     51  H4  LEU d   1      28.609   6.780  39.925  0.00  0.00     0.099 H 
BRANCH  50  52
ATOM     52  N   LEU d   1      30.423   6.242  40.775  0.00  0.00    -0.066 N 
ATOM     53  H1  LEU d   1      30.203   6.652  41.669  0.00  0.00     0.275 HD
ATOM     54  H2  LEU d   1      31.412   6.330  40.600  0.00  0.00     0.275 HD
ATOM     55  H3  LEU d   1      30.168   5.267  40.780  0.00  0.00     0.275 HD
ENDBRANCH  50  52
BRANCH  50  56
ATOM     56  CB  LEU d   1      29.946   8.446  39.765  0.00  0.00    -0.028 C 
ATOM     57  H5  LEU d   1      31.026   8.589  39.615  0.00  0.00     0.037 H 
ATOM     58  H6  LEU d   1      29.665   8.799  40.768  0.00  0.00     0.037 H 
BRANCH  56  59
ATOM     59  CG  LEU d   1      29.225   9.348  38.749  0.00  0.00    -0.059 C 
ATOM     60  H7  LEU d   1      29.023   8.743  37.853  0.00  0.00     0.038 H 
BRANCH  59  61
ATOM     61  CD1 LEU d   1      27.900   9.897  39.251  0.00  0.00    -0.073 C 
ATOM     62  H8  LEU d   1      27.447  10.529  38.473  0.00  0.00     0.028 H 
ATOM     63  H9  LEU d   1      28.071  10.497  40.157  0.00  0.00     0.028 H 
ATOM     64  H10 LEU d   1      27.223   9.063  39.486  0.00  0.00     0.028 H 
ENDBRANCH  59  61
BRANCH  59  65
ATOM     65  CD2 LEU d   1      30.103  10.496  38.362  0.00  0.00    -0.073 C 
ATOM     66  H11 LEU d   1      31.067  10.113  37.996  0.00  0.00     0.028 H 
ATOM     67  H12 LEU d   1      30.273  11.139  39.238  0.00  0.00     0.028 H 
ATOM     68  H13 LEU d   1      29.615  11.079  37.567  0.00  0.00     0.028 H 
ENDBRANCH  59  65
ENDBRANCH  56  59
ENDBRANCH  50  56
ENDBRANCH  47  50
ENDBRANCH  43  46
ENDBRANCH  40  43
ENDBRANCH  37  39
BRANCH  37  69
ATOM     69  CB  THR d   1      30.607   0.931  38.903  0.00  0.00     0.060 C 
ATOM     70  H19 THR d   1      31.502   0.984  38.265  0.00  0.00     0.086 H 
BRANCH  69  71
ATOM     71  OG1 THR d   1      30.065  -0.392  38.837  0.00  0.00    -0.393 OA
ATOM     72  H20 THR d   1      30.709  -1.013  39.157  0.00  0.00     0.210 HD
ENDBRANCH  69  71
BRANCH  69  73
ATOM     73  CG2 THR d   1      31.013   1.241  40.346  0.00  0.00    -0.050 C 
ATOM     74  H21 THR d   1      31.750   0.499  40.687  0.00  0.00     0.031 H 
ATOM     75  H22 THR d   1      30.125   1.200  40.994  0.00  0.00     0.031 H 
ATOM     76  H23 THR d   1      31.456   2.247  40.394  0.00  0.00     0.031 H 
ENDBRANCH  69  73
ENDBRANCH  37  69
ENDBRANCH  34  37
ENDBRANCH  31  33
BRANCH  31  77
ATOM     77  CB  PHE d   1      25.860  -0.431  40.571  0.00  0.00    -0.014 C 
ATOM     78  H26 PHE d   1      25.096  -0.428  41.363  0.00  0.00     0.043 H 
ATOM     79  H27 PHE d   1      26.630  -1.181  40.807  0.00  0.00     0.043 H 
BRANCH  77  80
ATOM     80  CG  PHE d   1      25.197  -0.818  39.267  0.00  0.00    -0.056 A 
ATOM     81  CD1 PHE d   1      23.923  -0.366  38.962  0.00  0.00    -0.077 A 
ATOM     82  CE1 PHE d   1      23.341  -0.673  37.773  0.00  0.00    -0.082 A 
ATOM     83  H28 PHE d   1      23.384   0.240  39.681  0.00  0.00     0.084 H 
ATOM     84  CZ  PHE d   1      23.996  -1.456  36.849  0.00  0.00    -0.083 A 
ATOM     85  H30 PHE d   1      22.349  -0.297  37.549  0.00  0.00     0.083 H 
ATOM     86  CE2 PHE d   1      25.250  -1.936  37.134  0.00  0.00    -0.082 A 
ATOM     87  H32 PHE d   1      23.524  -1.692  35.902  0.00  0.00     0.083 H 
ATOM     88  CD2 PHE d   1      25.845  -1.632  38.349  0.00  0.00    -0.077 A 
ATOM     89  H31 PHE d   1      25.774  -2.551  36.411  0.00  0.00     0.083 H 
ATOM     90  H29 PHE d   1      26.824  -2.034  38.584  0.00  0.00     0.084 H 
ENDBRANCH  77  80
ENDBRANCH  31  77
ENDBRANCH  28  31
ENDBRANCH  25  27
BRANCH  25  91
ATOM     91  CB  MET d   1      26.707   3.569  44.361  0.00  0.00    -0.030 C 
ATOM     92  H35 MET d   1      27.685   3.602  43.859  0.00  0.00     0.037 H 
ATOM     93  H36 MET d   1      26.851   3.631  45.450  0.00  0.00     0.037 H 
BRANCH  91  94
ATOM     94  CG  MET d   1      25.930   4.784  43.932  0.00  0.00    -0.021 C 
ATOM     95  H37 MET d   1      24.974   4.806  44.475  0.00  0.00     0.049 H 
ATOM     96  H38 MET d   1      25.736   4.720  42.851  0.00  0.00     0.049 H 
BRANCH  94  97
ATOM     97  SD  MET d   1      26.841   6.319  44.278  0.00  0.00    -0.173 SA
BRANCH  97  98
ATOM     98  CE  MET d   1      27.151   6.141  45.997  0.00  0.00    -0.035 C 
ATOM     99  H39 MET d   1      27.710   7.016  46.361  0.00  0.00     0.041 H 
ATOM    100  H40 MET d   1      27.742   5.230  46.170  0.00  0.00     0.041 H 
ATOM    101  H41 MET d   1      26.195   6.066  46.536  0.00  0.00     0.041 H 
ENDBRANCH  97  98
ENDBRANCH  94  97
ENDBRANCH  91  94
ENDBRANCH  25  91
ENDBRANCH  22  25
ENDBRANCH  19  21
BRANCH  19 102
ATOM    102  CB  ARG d   1      23.613   1.049  48.029  0.00  0.00    -0.036 C 
ATOM    103  H44 ARG d   1      23.671   1.879  48.748  0.00  0.00     0.036 H 
ATOM    104  H45 ARG d   1      24.568   0.503  48.022  0.00  0.00     0.036 H 
BRANCH 102 105
ATOM    105  CG  ARG d   1      22.534   0.113  48.470  0.00  0.00    -0.048 C 
ATOM    106  H46 ARG d   1      22.332  -0.608  47.664  0.00  0.00     0.035 H 
ATOM    107  H47 ARG d   1      21.622   0.690  48.683  0.00  0.00     0.035 H 
BRANCH 105 108
ATOM    108  CD  ARG d   1      22.947  -0.646  49.724  0.00  0.00     0.009 C 
ATOM    109  H48 ARG d   1      23.936  -1.097  49.554  0.00  0.00     0.064 H 
ATOM    110  H49 ARG d   1      22.210  -1.440  49.915  0.00  0.00     0.064 H 
BRANCH 108 111
ATOM    111  NE  ARG d   1      23.022   0.217  50.899  0.00  0.00    -0.227 N 
ATOM    112  CZ  ARG d   1      23.299  -0.224  52.118  0.00  0.00     0.665 C 
ATOM    113  NH1 ARG d   1      23.550  -1.517  52.319  0.00  0.00    -0.235 N 
ATOM    114  NH2 ARG d   1      23.327   0.620  53.135  0.00  0.00    -0.235 N 
ATOM    115  H51 ARG d   1      23.765  -1.859  53.267  0.00  0.00     0.174 HD
ATOM    116  H52 ARG d   1      23.529  -2.175  51.527  0.00  0.00     0.174 HD
ATOM    117  H53 ARG d   1      23.133   1.620  52.980  0.00  0.00     0.174 HD
ATOM    118  H54 ARG d   1      23.543   0.278  54.082  0.00  0.00     0.174 HD
ATOM    119  H50 ARG d   1      22.850   1.225  50.774  0.00  0.00     0.177 HD
ENDBRANCH 108 111
ENDBRANCH 105 108
ENDBRANCH 102 105
ENDBRANCH  19 102
ENDBRANCH  16  19
ENDBRANCH  13  15
BRANCH  13 120
ATOM    120  CB  ALA d   1      19.254   4.057  45.997  0.00  0.00    -0.049 C 
ATOM    121  H57 ALA d   1      18.748   5.024  45.858  0.00  0.00     0.030 H 
ATOM    122  H58 ALA d   1      18.729   3.476  46.769  0.00  0.00     0.030 H 
ATOM    123  H59 ALA d   1      19.246   3.499  45.049  0.00  0.00     0.030 H 
ENDBRANCH  13 120
ENDBRANCH  10  13
ENDBRANCH   7   9
BRANCH   7 124
ATOM    124  CB  ASP d   1      20.873   4.549  51.326  0.00  0.00     0.043 C 
ATOM    125  H62 ASP d   1      19.866   4.107  51.302  0.00  0.00     0.052 H 
ATOM    126  H63 ASP d   1      20.962   5.212  52.199  0.00  0.00     0.052 H 
BRANCH 124 127
ATOM    127  CG  ASP d   1      21.875   3.439  51.469  0.00  0.00     0.175 C 
ATOM    128  OD1 ASP d   1      22.140   2.757  50.474  0.00  0.00    -0.648 OA
ATOM    129  OD2 ASP d   1      22.402   3.239  52.595  0.00  0.00    -0.648 OA
ENDBRANCH 124 127
ENDBRANCH   7 124
ENDBRANCH   4   7
ENDBRANCH   1   3
BRANCH   1 130
ATOM    130  C   GLU d   1      24.741   7.150  48.268  0.00  0.00     0.241 C 
ATOM    131  O   GLU d   1      25.383   8.209  48.367  0.00  0.00    -0.271 OA
ATOM    132  N   TYR d   1      23.971   6.868  47.223  0.00  0.00    -0.346 N 
ATOM    133  H70 TYR d   1      23.485   5.995  47.185  0.00  0.00     0.163 HD
BRANCH 132 134
ATOM    134  CA  TYR d   1      23.830   7.827  46.128  0.00  0.00     0.093 C 
ATOM    135  H71 TYR d   1      24.835   8.073  45.756  0.00  0.00     0.088 H 
BRANCH 134 136
ATOM    136  C   TYR d   1      23.171   9.124  46.610  0.00  0.00     0.241 C 
ATOM    137  O   TYR d   1      23.625  10.225  46.305  0.00  0.00    -0.271 OA
ATOM    138  N   LEU d   1      22.103   8.993  47.384  0.00  0.00    -0.346 N 
ATOM    139  H79 LEU d   1      21.745   8.079  47.575  0.00  0.00     0.163 HD
BRANCH 138 140
ATOM    140  CA  LEU d   1      21.440  10.155  47.962  0.00  0.00     0.089 C 
ATOM    141  H80 LEU d   1      21.020  10.759  47.144  0.00  0.00     0.087 H 
BRANCH 140 142
ATOM    142  C   LEU d   1      22.434  11.028  48.738  0.00  0.00     0.241 C 
ATOM    143  O   LEU d   1      22.478  12.254  48.565  0.00  0.00    -0.271 OA
ATOM    144  N   LYS d   1      23.238  10.386  49.577  0.00  0.00    -0.346 N 
ATOM    145  H90 LYS d   1      23.146   9.395  49.672  0.00  0.00     0.163 HD
BRANCH 144 146
ATOM    146  CA  LYS d   1      24.255  11.083  50.368  0.00  0.00     0.089 C 
ATOM    147  H91 LYS d   1      23.759  11.868  50.957  0.00  0.00     0.087 H 
BRANCH 146 148
ATOM    148  C   LYS d   1      25.322  11.742  49.500  0.00  0.00     0.241 C 
ATOM    149  O   LYS d   1      25.744  12.871  49.776  0.00  0.00    -0.271 OA
ATOM    150  N   LYS d   1      25.769  11.028  48.469  0.00  0.00    -0.346 N 
ATOM    151 3H10 LYS d   1      25.407  10.107  48.323  0.00  0.00     0.163 HD
BRANCH 150 152
ATOM    152  CA  LYS d   1      26.773  11.551  47.545  0.00  0.00     0.089 C 
ATOM    153 4H10 LYS d   1      27.682  11.799  48.112  0.00  0.00     0.087 H 
BRANCH 152 154
ATOM    154  C   LYS d   1      26.268  12.813  46.861  0.00  0.00     0.241 C 
ATOM    155  O   LYS d   1      26.987  13.807  46.774  0.00  0.00    -0.271 OA
ATOM    156  N   ARG d   1      25.031  12.783  46.375  0.00  0.00    -0.346 N 
ATOM    157 6H11 ARG d   1      24.465  11.970  46.508  0.00  0.00     0.163 HD
BRANCH 156 158
ATOM    158  CA  ARG d   1      24.494  13.928  45.649  0.00  0.00     0.089 C 
ATOM    159 7H11 ARG d   1      25.250  14.231  44.910  0.00  0.00     0.087 H 
BRANCH 158 160
ATOM    160  C   ARG d   1      24.239  15.132  46.560  0.00  0.00     0.241 C 
ATOM    161  O   ARG d   1      24.193  16.273  46.083  0.00  0.00    -0.271 OA
ATOM    162  N   ALA d   1      24.105  14.889  47.864  0.00  0.00    -0.346 N 
ATOM    163 9H12 ALA d   1      24.079  13.942  48.184  0.00  0.00     0.163 HD
BRANCH 162 164
ATOM    164  CA  ALA d   1      23.995  15.980  48.840  0.00  0.00     0.086 C 
ATOM    165 0H13 ALA d   1      23.465  16.811  48.352  0.00  0.00     0.086 H 
BRANCH 164 166
ATOM    166  C   ALA d   1      25.363  16.513  49.310  0.00  0.00     0.237 C 
ATOM    167  O   ALA d   1      25.439  17.421  50.156  0.00  0.00    -0.271 OA
ATOM    168  N   NH2 d   1      26.438  15.966  48.753  0.00  0.00    -0.368 N 
ATOM    169 4H13 NH2 d   1      27.351  16.274  49.021  0.00  0.00     0.159 HD
ATOM    170 5H13 NH2 d   1      26.334  15.247  48.066  0.00  0.00     0.159 HD
ENDBRANCH 164 166
BRANCH 164 171
ATOM    171  CB  ALA d   1      23.173  15.529  50.033  0.00  0.00    -0.049 C 
ATOM    172 1H13 ALA d   1      23.096  16.353  50.758  0.00  0.00     0.030 H 
ATOM    173 2H13 ALA d   1      23.661  14.666  50.509  0.00  0.00     0.030 H 
ATOM    174 3H13 ALA d   1      22.166  15.242  49.697  0.00  0.00     0.030 H 
ENDBRANCH 164 171
ENDBRANCH 162 164
ENDBRANCH 158 160
BRANCH 158 175
ATOM    175  CB  ARG d   1      23.223  13.544  44.881  0.00  0.00    -0.036 C 
ATOM    176 8H11 ARG d   1      22.673  14.466  44.640  0.00  0.00     0.036 H 
ATOM    177 9H11 ARG d   1      22.605  12.908  45.532  0.00  0.00     0.036 H 
BRANCH 175 178
ATOM    178  CG  ARG d   1      23.485  12.786  43.577  0.00  0.00    -0.048 C 
ATOM    179 0H12 ARG d   1      22.540  12.696  43.021  0.00  0.00     0.035 H 
ATOM    180 1H12 ARG d   1      23.866  11.783  43.818  0.00  0.00     0.035 H 
BRANCH 178 181
ATOM    181  CD  ARG d   1      24.512  13.511  42.699  0.00  0.00     0.009 C 
ATOM    182 2H12 ARG d   1      25.505  13.405  43.161  0.00  0.00     0.064 H 
ATOM    183 3H12 ARG d   1      24.242  14.576  42.651  0.00  0.00     0.064 H 
BRANCH 181 184
ATOM    184  NE  ARG d   1      24.574  12.986  41.341  0.00  0.00    -0.227 N 
ATOM    185  CZ  ARG d   1      23.786  13.376  40.343  0.00  0.00     0.665 C 
ATOM    186  NH1 ARG d   1      22.855  14.301  40.538  0.00  0.00    -0.235 N 
ATOM    187  NH2 ARG d   1      23.925  12.832  39.145  0.00  0.00    -0.235 N 
ATOM    188 5H12 ARG d   1      22.250  14.595  39.758  0.00  0.00     0.174 HD
ATOM    189 6H12 ARG d   1      22.737  14.725  41.469  0.00  0.00     0.174 HD
ATOM    190 7H12 ARG d   1      24.646  12.113  38.986  0.00  0.00     0.174 HD
ATOM    191 8H12 ARG d   1      23.313  13.127  38.371  0.00  0.00     0.174 HD
ATOM    192 4H12 ARG d   1      25.278  12.261  41.140  0.00  0.00     0.177 HD
ENDBRANCH 181 184
ENDBRANCH 178 181
ENDBRANCH 175 178
ENDBRANCH 158 175
ENDBRANCH 156 158
ENDBRANCH 152 154
BRANCH 152 193
ATOM    193  CB  LYS d   1      27.117  10.473  46.500  0.00  0.00    -0.038 C 
ATOM    194 5H10 LYS d   1      26.174  10.001  46.187  0.00  0.00     0.036 H 
ATOM    195 6H10 LYS d   1      27.756   9.725  46.992  0.00  0.00     0.036 H 
BRANCH 193 196
ATOM    196  CG  LYS d   1      27.844  10.943  45.233  0.00  0.00    -0.061 C 
ATOM    197 7H10 LYS d   1      28.885  11.195  45.483  0.00  0.00     0.033 H 
ATOM    198 8H10 LYS d   1      27.337  11.833  44.832  0.00  0.00     0.033 H 
BRANCH 196 199
ATOM    199  CD  LYS d   1      27.832   9.836  44.178  0.00  0.00    -0.043 C 
ATOM    200 9H10 LYS d   1      26.820   9.408  44.127  0.00  0.00     0.035 H 
ATOM    201 0H11 LYS d   1      28.546   9.055  44.477  0.00  0.00     0.035 H 
BRANCH 199 202
ATOM    202  CE  LYS d   1      28.215  10.345  42.803  0.00  0.00     0.080 C 
ATOM    203 1H11 LYS d   1      27.624  11.246  42.581  0.00  0.00     0.075 H 
ATOM    204 2H11 LYS d   1      27.989   9.566  42.060  0.00  0.00     0.075 H 
BRANCH 202 205
ATOM    205  NZ  LYS d   1      29.662  10.686  42.716  0.00  0.00    -0.079 N 
ATOM    206 3H11 LYS d   1      29.873  11.019  41.788  0.00  0.00     0.274 HD
ATOM    207 4H11 LYS d   1      30.213   9.865  42.912  0.00  0.00     0.274 HD
ATOM    208 5H11 LYS d   1      29.879  11.405  43.389  0.00  0.00     0.274 HD
ENDBRANCH 202 205
ENDBRANCH 199 202
ENDBRANCH 196 199
ENDBRANCH 193 196
ENDBRANCH 152 193
ENDBRANCH 150 152
ENDBRANCH 146 148
BRANCH 146 209
ATOM    209  CB  LYS d   1      24.901  10.088  51.318  0.00  0.00    -0.038 C 
ATOM    210  H92 LYS d   1      25.758  10.575  51.807  0.00  0.00     0.036 H 
ATOM    211  H93 LYS d   1      25.254   9.224  50.735  0.00  0.00     0.036 H 
BRANCH 209 212
ATOM    212  CG  LYS d   1      23.958   9.598  52.379  0.00  0.00    -0.061 C 
ATOM    213  H94 LYS d   1      23.108   9.098  51.892  0.00  0.00     0.033 H 
ATOM    214  H95 LYS d   1      23.595  10.462  52.955  0.00  0.00     0.033 H 
BRANCH 212 215
ATOM    215  CD  LYS d   1      24.616   8.618  53.335  0.00  0.00    -0.043 C 
ATOM    216  H96 LYS d   1      25.342   9.157  53.962  0.00  0.00     0.035 H 
ATOM    217  H97 LYS d   1      25.137   7.842  52.755  0.00  0.00     0.035 H 
BRANCH 215 218
ATOM    218  CE  LYS d   1      23.571   7.956  54.233  0.00  0.00     0.080 C 
ATOM    219  H98 LYS d   1      22.881   7.377  53.602  0.00  0.00     0.075 H 
ATOM    220  H99 LYS d   1      23.013   8.743  54.762  0.00  0.00     0.075 H 
BRANCH 218 221
ATOM    221  NZ  LYS d   1      24.173   7.043  55.239  0.00  0.00    -0.079 N 
ATOM    222 0H10 LYS d   1      23.443   6.635  55.802  0.00  0.00     0.274 HD
ATOM    223 1H10 LYS d   1      24.803   7.563  55.830  0.00  0.00     0.274 HD
ATOM    224 2H10 LYS d   1      24.682   6.312  54.767  0.00  0.00     0.274 HD
ENDBRANCH 218 221
ENDBRANCH 215 218
ENDBRANCH 212 215
ENDBRANCH 209 212
ENDBRANCH 146 209
ENDBRANCH 144 146
ENDBRANCH 140 142
BRANCH 140 225
ATOM    225  CB  LEU d   1      20.285   9.689  48.865  0.00  0.00    -0.035 C 
ATOM    226  H81 LEU d   1      20.727   9.096  49.680  0.00  0.00     0.037 H 
ATOM    227  H82 LEU d   1      19.633   9.046  48.255  0.00  0.00     0.037 H 
BRANCH 225 228
ATOM    228  CG  LEU d   1      19.387  10.766  49.516  0.00  0.00    -0.059 C 
ATOM    229  H83 LEU d   1      19.128  11.510  48.749  0.00  0.00     0.038 H 
BRANCH 228 230
ATOM    230  CD1 LEU d   1      18.118  10.049  49.973  0.00  0.00    -0.073 C 
ATOM    231  H84 LEU d   1      17.438  10.773  50.447  0.00  0.00     0.028 H 
ATOM    232  H85 LEU d   1      18.381   9.264  50.698  0.00  0.00     0.028 H 
ATOM    233  H86 LEU d   1      17.621   9.594  49.104  0.00  0.00     0.028 H 
ENDBRANCH 228 230
BRANCH 228 234
ATOM    234  CD2 LEU d   1      20.017  11.507  50.679  0.00  0.00    -0.073 C 
ATOM    235  H87 LEU d   1      20.929  12.018  50.337  0.00  0.00     0.028 H 
ATOM    236  H88 LEU d   1      20.274  10.791  51.474  0.00  0.00     0.028 H 
ATOM    237  H89 LEU d   1      19.305  12.249  51.070  0.00  0.00     0.028 H 
ENDBRANCH 228 234
ENDBRANCH 225 228
ENDBRANCH 140 225
ENDBRANCH 138 140
ENDBRANCH 134 136
BRANCH 134 238
ATOM    238  CB  TYR d   1      23.039   7.211  44.987  0.00  0.00    -0.014 C 
ATOM    239  H72 TYR d   1      22.048   6.923  45.369  0.00  0.00     0.043 H 
ATOM    240  H73 TYR d   1      23.573   6.314  44.641  0.00  0.00     0.043 H 
BRANCH 238 241
ATOM    241  CG  TYR d   1      22.844   8.133  43.807  0.00  0.00    -0.056 A 
ATOM    242  CD1 TYR d   1      23.918   8.547  43.036  0.00  0.00    -0.074 A 
ATOM    243  CE1 TYR d   1      23.738   9.393  41.950  0.00  0.00    -0.051 A 
ATOM    244  H74 TYR d   1      24.916   8.204  43.285  0.00  0.00     0.084 H 
ATOM    245  CZ  TYR d   1      22.468   9.830  41.633  0.00  0.00     0.065 A 
ATOM    246  H76 TYR d   1      24.588   9.708  41.356  0.00  0.00     0.087 H 
ATOM    247  CE2 TYR d   1      21.384   9.430  42.393  0.00  0.00    -0.051 A 
ATOM    248  CD2 TYR d   1      21.577   8.593  43.470  0.00  0.00    -0.074 A 
ATOM    249  H77 TYR d   1      20.387   9.774  42.142  0.00  0.00     0.087 H 
ATOM    250  H75 TYR d   1      20.724   8.287  44.066  0.00  0.00     0.084 H 
BRANCH 245 251
ATOM    251  OH  TYR d   1      22.266  10.676  40.569  0.00  0.00    -0.361 OA
ATOM    252  H78 TYR d   1      21.679  10.265  39.946  0.00  0.00     0.217 HD
ENDBRANCH 245 251
ENDBRANCH 238 241
ENDBRANCH 134 238
ENDBRANCH 132 134
ENDBRANCH   1 130
BRANCH   1 253
ATOM    253  CB  GLU d   1      25.835   5.043  49.129  0.00  0.00    -0.029 C 
ATOM    254  H66 GLU d   1      26.814   5.543  49.091  0.00  0.00     0.037 H 
ATOM    255  H67 GLU d   1      25.626   4.571  48.158  0.00  0.00     0.037 H 
BRANCH 253 256
ATOM    256  CG  GLU d   1      25.899   3.948  50.188  0.00  0.00     0.018 C 
ATOM    257  H68 GLU d   1      24.910   3.471  50.261  0.00  0.00     0.049 H 
ATOM    258  H69 GLU d   1      26.157   4.407  51.154  0.00  0.00     0.049 H 
BRANCH 256 259
ATOM    259  CD  GLU d   1      26.933   2.877  49.866  0.00  0.00     0.172 C 
ATOM    260  OE1 GLU d   1      27.929   3.193  49.169  0.00  0.00    -0.648 OA
ATOM    261  OE2 GLU d   1      26.748   1.712  50.298  0.00  0.00    -0.648 OA
ENDBRANCH 256 259
ENDBRANCH 253 256
ENDBRANCH   1 253
TORSDOF 75
