REMARK  17 active torsions:
REMARK  status: ('A' for Active; 'I' for Inactive)
REMARK    1  A    between atoms: C_1  and  CH3_3 
REMARK       I    between atoms: C_1  and  N_4 
REMARK    2  A    between atoms: N_4  and  CA_5 
REMARK    3  A    between atoms: CA_5  and  C_6 
REMARK    4  A    between atoms: CA_5  and  CB_8 
REMARK       I    between atoms: C_6  and  N_18 
REMARK    5  A    between atoms: CB_8  and  CG_9 
REMARK    6  A    between atoms: N_18  and  CA_19 
REMARK    7  A    between atoms: CA_19  and  C_20 
REMARK    8  A    between atoms: CA_19  and  CB_22 
REMARK       I    between atoms: C_20  and  N_28 
REMARK    9  A    between atoms: CB_22  and  CG_23 
REMARK   10  A    between atoms: N_28  and  CA_29 
REMARK   11  A    between atoms: CA_29  and  C_30 
REMARK   12  A    between atoms: CA_29  and  CB_32 
REMARK       I    between atoms: C_30  and  N_35 
REMARK   13  A    between atoms: CB_32  and  OG1_33 
REMARK   14  A    between atoms: CB_32  and  CG2_34 
REMARK   15  A    between atoms: N_35  and  CA_36 
REMARK   16  A    between atoms: CA_36  and  C_37 
REMARK   17  A    between atoms: CA_36  and  CB_39 
ROOT
ATOM      1  CA  HIS d   1      16.720  -9.929   2.749  0.00  0.00     0.094 C 
ATOM      2  H15 HIS d   1      17.435 -10.453   2.097  0.00  0.00     0.088 H 
ENDROOT
BRANCH   1   3
ATOM      3  N   HIS d   1      16.697  -8.520   2.369  0.00  0.00    -0.346 N 
ATOM      4  C   TRP d   1      17.756  -7.906   1.836  0.00  0.00     0.241 C 
ATOM      5  O   TRP d   1      18.844  -8.466   1.664  0.00  0.00    -0.271 OA
ATOM      6  H14 HIS d   1      15.858  -7.996   2.513  0.00  0.00     0.163 HD
BRANCH   4   7
ATOM      7  CA  TRP d   1      17.554  -6.458   1.403  0.00  0.00     0.093 C 
ATOM      8  H5  TRP d   1      16.616  -6.100   1.852  0.00  0.00     0.088 H 
BRANCH   7   9
ATOM      9  N   TRP d   1      18.626  -5.559   1.836  0.00  0.00    -0.348 N 
ATOM     10  C   ACE d   1      18.740  -5.092   3.079  0.00  0.00     0.214 C 
ATOM     11  O   ACE d   1      17.940  -5.392   3.964  0.00  0.00    -0.274 OA
ATOM     12  H4  TRP d   1      19.310  -5.280   1.162  0.00  0.00     0.163 HD
BRANCH  10  13
ATOM     13  CH3 ACE d   1      19.915  -4.169   3.329  0.00  0.00    -0.003 C 
ATOM     14  H1  ACE d   1      20.489  -4.046   2.399  0.00  0.00     0.040 H 
ATOM     15  H2  ACE d   1      20.563  -4.602   4.105  0.00  0.00     0.040 H 
ATOM     16  H3  ACE d   1      19.546  -3.189   3.665  0.00  0.00     0.040 H 
ENDBRANCH  10  13
ENDBRANCH   7   9
BRANCH   7  17
ATOM     17  CB  TRP d   1      17.418  -6.403  -0.115  0.00  0.00    -0.012 C 
ATOM     18  H6  TRP d   1      16.809  -7.260  -0.440  0.00  0.00     0.044 H 
ATOM     19  H7  TRP d   1      18.423  -6.479  -0.556  0.00  0.00     0.044 H 
BRANCH  17  20
ATOM     20  CG  TRP d   1      16.773  -5.145  -0.621  0.00  0.00    -0.028 A 
ATOM     21  CD1 TRP d   1      17.381  -4.106  -1.270  0.00  0.00    -0.015 A 
ATOM     22  NE1 TRP d   1      16.452  -3.129  -1.578  0.00  0.00    -0.365 N 
ATOM     23  H8  TRP d   1      18.442  -4.055  -1.509  0.00  0.00     0.112 H 
ATOM     24  CE2 TRP d   1      15.225  -3.530  -1.118  0.00  0.00     0.042 A 
ATOM     25  H9  TRP d   1      16.649  -2.247  -2.071  0.00  0.00     0.165 HD
ATOM     26  CD2 TRP d   1      15.392  -4.797  -0.509  0.00  0.00    -0.002 A 
ATOM     27  CZ2 TRP d   1      13.985  -2.892  -1.185  0.00  0.00    -0.056 A 
ATOM     28  CE3 TRP d   1      14.275  -5.437   0.038  0.00  0.00    -0.070 A 
ATOM     29  CZ3 TRP d   1      13.042  -4.802  -0.032  0.00  0.00    -0.082 A 
ATOM     30  H10 TRP d   1      14.370  -6.410   0.507  0.00  0.00     0.084 H 
ATOM     31  CH2 TRP d   1      12.909  -3.548  -0.643  0.00  0.00    -0.081 A 
ATOM     32  H12 TRP d   1      12.169  -5.284   0.393  0.00  0.00     0.083 H 
ATOM     33  H13 TRP d   1      11.930  -3.084  -0.689  0.00  0.00     0.083 H 
ATOM     34  H11 TRP d   1      13.877  -1.917  -1.647  0.00  0.00     0.086 H 
ENDBRANCH  17  20
ENDBRANCH   7  17
ENDBRANCH   4   7
ENDBRANCH   1   3
BRANCH   1  35
ATOM     35  C   HIS d   1      15.334 -10.537   2.557  0.00  0.00     0.241 C 
ATOM     36  O   HIS d   1      14.331  -9.827   2.437  0.00  0.00    -0.271 OA
ATOM     37  N   THR d   1      15.288 -11.869   2.559  0.00  0.00    -0.344 N 
ATOM     38  H21 THR d   1      16.140 -12.392   2.600  0.00  0.00     0.163 HD
BRANCH  37  39
ATOM     39  CA  THR d   1      14.013 -12.575   2.502  0.00  0.00     0.113 C 
ATOM     40  H22 THR d   1      13.405 -12.137   1.696  0.00  0.00     0.091 H 
BRANCH  39  41
ATOM     41  C   THR d   1      13.259 -12.429   3.818  0.00  0.00     0.243 C 
ATOM     42  O   THR d   1      13.850 -12.500   4.899  0.00  0.00    -0.271 OA
ATOM     43  N   ALA d   1      11.948 -12.215   3.724  0.00  0.00    -0.345 N 
ATOM     44  H28 ALA d   1      11.527 -12.155   2.819  0.00  0.00     0.163 HD
BRANCH  43  45
ATOM     45  CA  ALA d   1      11.111 -12.066   4.913  0.00  0.00     0.093 C 
ATOM     46  H29 ALA d   1      11.524 -11.242   5.513  0.00  0.00     0.089 H 
BRANCH  45  47
ATOM     47  C   ALA d   1      11.106 -13.324   5.786  0.00  0.00     0.196 C 
ATOM     48  O   ALA d   1      10.954 -13.238   7.006  0.00  0.00    -0.646 OA
ATOM     49  OXT ALA d   1      11.254 -14.438   5.279  0.00  0.00    -0.646 OA
ENDBRANCH  45  47
BRANCH  45  50
ATOM     50  CB  ALA d   1       9.692 -11.699   4.514  0.00  0.00    -0.048 C 
ATOM     51  H30 ALA d   1       9.074 -11.590   5.417  0.00  0.00     0.030 H 
ATOM     52  H31 ALA d   1       9.274 -12.492   3.877  0.00  0.00     0.030 H 
ATOM     53  H32 ALA d   1       9.701 -10.749   3.959  0.00  0.00     0.030 H 
ENDBRANCH  45  50
ENDBRANCH  43  45
ENDBRANCH  39  41
BRANCH  39  54
ATOM     54  CB  THR d   1      14.238 -14.056   2.199  0.00  0.00     0.060 C 
ATOM     55  H23 THR d   1      14.676 -14.543   3.083  0.00  0.00     0.086 H 
BRANCH  54  56
ATOM     56  OG1 THR d   1      15.138 -14.180   1.095  0.00  0.00    -0.393 OA
ATOM     57  H24 THR d   1      14.764 -13.752   0.334  0.00  0.00     0.210 HD
ENDBRANCH  54  56
BRANCH  54  58
ATOM     58  CG2 THR d   1      12.913 -14.737   1.856  0.00  0.00    -0.050 C 
ATOM     59  H25 THR d   1      13.092 -15.801   1.641  0.00  0.00     0.031 H 
ATOM     60  H26 THR d   1      12.470 -14.254   0.973  0.00  0.00     0.031 H 
ATOM     61  H27 THR d   1      12.223 -14.646   2.708  0.00  0.00     0.031 H 
ENDBRANCH  54  58
ENDBRANCH  39  54
ENDBRANCH  37  39
ENDBRANCH   1  35
BRANCH   1  62
ATOM     62  CB  HIS d   1      17.152 -10.129   4.208  0.00  0.00     0.004 C 
ATOM     63  H16 HIS d   1      17.175 -11.209   4.416  0.00  0.00     0.046 H 
ATOM     64  H17 HIS d   1      16.407  -9.646   4.858  0.00  0.00     0.046 H 
BRANCH  62  65
ATOM     65  CG  HIS d   1      18.498  -9.560   4.533  0.00  0.00     0.053 A 
ATOM     66  ND1 HIS d   1      18.665  -8.280   5.016  0.00  0.00    -0.247 NA
ATOM     67  CE1 HIS d   1      19.951  -8.058   5.225  0.00  0.00     0.064 A 
ATOM     68  NE2 HIS d   1      20.621  -9.149   4.901  0.00  0.00    -0.359 N 
ATOM     69  H19 HIS d   1      20.385  -7.132   5.601  0.00  0.00     0.143 H 
ATOM     70  CD2 HIS d   1      19.736 -10.105   4.466  0.00  0.00     0.002 A 
ATOM     71  H20 HIS d   1      21.643  -9.264   4.964  0.00  0.00     0.166 HD
ATOM     72  H18 HIS d   1      19.983 -11.111   4.131  0.00  0.00     0.114 H 
ENDBRANCH  62  65
ENDBRANCH   1  62
TORSDOF 17
