REMARK  5 active torsions:
REMARK  status: ('A' for Active; 'I' for Inactive)
REMARK    1  A    between atoms: C13_13  and  C8_8 
REMARK    2  A    between atoms: C9_9  and  C19_19 
REMARK    3  A    between atoms: S28_28  and  C12_12 
REMARK    4  A    between atoms: N22_22  and  C18_18 
REMARK    5  A    between atoms: N22_22  and  S28_28 
ROOT
ATOM      1  C1  SZC d   1      13.659 -12.416 -19.526  0.00  0.00    -0.079 A 
ATOM      2  C6  SZC d   1      14.268 -12.784 -18.341  0.00  0.00    -0.055 A 
ATOM      3  C7  SZC d   1      13.684 -11.116 -19.991  0.00  0.00    -0.058 A 
ATOM      4  C10 SZC d   1      14.901 -11.773 -17.625  0.00  0.00     0.064 A 
ATOM      5  C11 SZC d   1      14.940 -10.484 -18.100  0.00  0.00     0.109 A 
ATOM      6  C12 SZC d   1      14.336 -10.119 -19.286  0.00  0.00     0.110 A 
ATOM      7  C13 SZC d   1      16.071 -10.655 -16.186  0.00  0.00     0.139 A 
ATOM      8  N20 SZC d   1      15.601 -11.844 -16.454  0.00  0.00    -0.338 N 
ATOM      9  N21 SZC d   1      15.663  -9.798 -17.165  0.00  0.00    -0.227 NA
ATOM     10  H1  SZC d   1      13.145 -13.172 -20.109  0.00  0.00     0.083 H 
ATOM     11  H6  SZC d   1      14.253 -13.809 -17.987  0.00  0.00     0.087 H 
ATOM     12  H7  SZC d   1      13.185 -10.873 -20.922  0.00  0.00     0.086 H 
ATOM     13  H17 SZC d   1      15.735 -12.689 -15.881  0.00  0.00     0.167 HD
ENDROOT
BRANCH   6  14
ATOM     14  S28 SZC d   1      14.358  -8.474 -19.945  0.00  0.00     0.261 S 
ATOM     15  O23 SZC d   1      15.695  -7.950 -19.741  0.00  0.00    -0.200 OA
ATOM     16  O24 SZC d   1      13.756  -8.588 -21.263  0.00  0.00    -0.200 OA
BRANCH  14  17
ATOM     17  N22 SZC d   1      13.325  -7.657 -18.856  0.00  0.00    -0.311 N 
ATOM     18  H18 SZC d   1      13.698  -7.066 -18.141  0.00  0.00     0.172 HD
BRANCH  17  19
ATOM     19  C18 SZC d   1      11.871  -7.845 -18.997  0.00  0.00     0.020 C 
ATOM     20  C16 SZC d   1      11.417  -8.740 -17.868  0.00  0.00    -0.045 C 
ATOM     21  C14 SZC d   1      10.442  -7.956 -17.027  0.00  0.00    -0.063 C 
ATOM     22  H12 SZC d   1      10.925  -9.636 -18.275  0.00  0.00     0.036 H 
ATOM     23  H13 SZC d   1      12.281  -9.041 -17.258  0.00  0.00     0.036 H 
ATOM     24  C15 SZC d   1      10.511  -6.518 -17.472  0.00  0.00    -0.063 C 
ATOM     25  H8  SZC d   1       9.424  -8.345 -17.172  0.00  0.00     0.033 H 
ATOM     26  H9  SZC d   1      10.716  -8.034 -15.964  0.00  0.00     0.033 H 
ATOM     27  C17 SZC d   1      11.231  -6.487 -18.798  0.00  0.00    -0.045 C 
ATOM     28  H10 SZC d   1      11.063  -5.922 -16.731  0.00  0.00     0.033 H 
ATOM     29  H11 SZC d   1       9.495  -6.111 -17.587  0.00  0.00     0.033 H 
ATOM     30  H14 SZC d   1      12.004  -5.705 -18.788  0.00  0.00     0.036 H 
ATOM     31  H15 SZC d   1      10.516  -6.286 -19.610  0.00  0.00     0.036 H 
ATOM     32  H16 SZC d   1      11.612  -8.273 -19.977  0.00  0.00     0.073 H 
ENDBRANCH  17  19
ENDBRANCH  14  17
ENDBRANCH   6  14
BRANCH   7  33
ATOM     33  C8  SZC d   1      16.969 -10.333 -15.100  0.00  0.00     0.010 A 
ATOM     34  C2  SZC d   1      17.578 -11.342 -14.370  0.00  0.00    -0.069 A 
ATOM     35  C4  SZC d   1      18.497 -11.060 -13.382  0.00  0.00    -0.067 A 
ATOM     36  H2  SZC d   1      17.326 -12.375 -14.581  0.00  0.00     0.085 H 
ATOM     37  C9  SZC d   1      18.813  -9.743 -13.117  0.00  0.00     0.048 A 
ATOM     38  H4  SZC d   1      18.965 -11.861 -12.821  0.00  0.00     0.084 H 
ATOM     39  C5  SZC d   1      18.201  -8.730 -13.830  0.00  0.00    -0.067 A 
ATOM     40  C3  SZC d   1      17.301  -9.024 -14.828  0.00  0.00    -0.069 A 
ATOM     41  H5  SZC d   1      18.432  -7.696 -13.601  0.00  0.00     0.084 H 
ATOM     42  H3  SZC d   1      16.851  -8.222 -15.403  0.00  0.00     0.085 H 
BRANCH  37  43
ATOM     43  C19 SZC d   1      19.803  -9.394 -12.045  0.00  0.00     0.417 C 
ATOM     44  F25 SZC d   1      19.303  -9.572 -10.792  0.00  0.00    -0.166 F 
ATOM     45  F26 SZC d   1      20.976 -10.084 -12.132  0.00  0.00    -0.166 F 
ATOM     46  F27 SZC d   1      20.202  -8.103 -12.081  0.00  0.00    -0.166 F 
ENDBRANCH  37  43
ENDBRANCH   7  33
TORSDOF 5
