REMARK WARNING: 32 MAX_TORS EXCEEDED!!!
REMARK  33 active torsions:
REMARK  status: ('A' for Active; 'I' for Inactive)
REMARK    1  A    between atoms: N_1  and  CA_2 
REMARK    2  A    between atoms: CA_2  and  C_3 
REMARK    3  A    between atoms: CA_2  and  CB_5 
REMARK       I    between atoms: C_3  and  N_10 
REMARK    4  A    between atoms: CB_5  and  CG_6 
REMARK    5  A    between atoms: CG_6  and  CD_7 
REMARK       I    between atoms: CD_7  and  NE2_9 
REMARK    6  A    between atoms: N_10  and  CA_11 
REMARK    7  A    between atoms: CA_11  and  C_12 
REMARK    8  A    between atoms: CA_11  and  CB_14 
REMARK       I    between atoms: C_12  and  N_22 
REMARK    9  A    between atoms: CB_14  and  CG_15 
REMARK   10  A    between atoms: CZ_20  and  OH_21 
REMARK   11  A    between atoms: N_22  and  CA_23 
REMARK   12  A    between atoms: CA_23  and  C_24 
REMARK   13  A    between atoms: CA_23  and  CB_26 
REMARK       I    between atoms: C_24  and  N_31 
REMARK   14  A    between atoms: CB_26  and  CG_27 
REMARK   15  A    between atoms: CG_27  and  CD_28 
REMARK   16  A    between atoms: CD_28  and  CE_29 
REMARK   17  A    between atoms: CE_29  and  NZ_30 
REMARK   18  A    between atoms: N_31  and  CA_32 
REMARK   19  A    between atoms: CA_32  and  C_33 
REMARK   20  A    between atoms: CA_32  and  CB_35 
REMARK       I    between atoms: C_33  and  N_37 
REMARK   21  A    between atoms: CB_35  and  OG_36 
REMARK   22  A    between atoms: N_37  and  CA_38 
REMARK   23  A    between atoms: CA_38  and  C_39 
REMARK   24  A    between atoms: CA_38  and  CB_41 
REMARK       I    between atoms: C_39  and  N_45 
REMARK   25  A    between atoms: CB_41  and  CG1_42 
REMARK   26  A    between atoms: CB_41  and  CG2_43 
REMARK   27  A    between atoms: CG1_42  and  CD1_44 
REMARK   28  A    between atoms: N_45  and  CA_46 
REMARK   29  A    between atoms: CA_46  and  C_47 
REMARK   30  A    between atoms: CA_46  and  CB_49 
REMARK   31  A    between atoms: CB_49  and  CG_50 
REMARK   32  A    between atoms: CG_50  and  CD1_51 
REMARK   33  A    between atoms: CG_50  and  CD2_52 
ROOT
ATOM      1  CA  LYS d   1     -27.996  49.135 -23.892  0.00  0.00     0.089 C 
ATOM      2  H21 LYS d   1     -27.762  50.066 -23.356  0.00  0.00     0.087 H 
ENDROOT
BRANCH   1   3
ATOM      3  N   LYS d   1     -29.110  49.371 -24.831  0.00  0.00    -0.346 N 
ATOM      4  C   TYR d   1     -29.769  50.519 -24.911  0.00  0.00     0.241 C 
ATOM      5  O   TYR d   1     -29.546  51.486 -24.182  0.00  0.00    -0.271 OA
ATOM      6  H20 LYS d   1     -29.382  48.626 -25.439  0.00  0.00     0.163 HD
BRANCH   4   7
ATOM      7  CA  TYR d   1     -30.820  50.615 -25.989  0.00  0.00     0.093 C 
ATOM      8  H12 TYR d   1     -31.038  49.615 -26.392  0.00  0.00     0.088 H 
BRANCH   7   9
ATOM      9  N   TYR d   1     -32.076  51.163 -25.386  0.00  0.00    -0.346 N 
ATOM     10  C   GLN d   1     -32.776  50.430 -24.492  0.00  0.00     0.249 C 
ATOM     11  O   GLN d   1     -32.692  49.215 -24.445  0.00  0.00    -0.271 OA
ATOM     12  H11 TYR d   1     -32.398  52.074 -25.645  0.00  0.00     0.163 HD
BRANCH  10  13
ATOM     13  CA  GLN d   1     -33.715  51.123 -23.463  0.00  0.00     0.176 C 
ATOM     14  H4  GLN d   1     -34.078  50.345 -22.775  0.00  0.00     0.099 H 
BRANCH  13  15
ATOM     15  N   GLN d   1     -33.014  52.171 -22.657  0.00  0.00    -0.066 N 
ATOM     16  H1  GLN d   1     -33.664  52.587 -22.009  0.00  0.00     0.275 HD
ATOM     17  H2  GLN d   1     -32.652  52.882 -23.273  0.00  0.00     0.275 HD
ATOM     18  H3  GLN d   1     -32.254  51.750 -22.147  0.00  0.00     0.275 HD
ENDBRANCH  13  15
BRANCH  13  19
ATOM     19  CB  GLN d   1     -34.901  51.767 -24.113  0.00  0.00    -0.022 C 
ATOM     20  H5  GLN d   1     -34.546  52.610 -24.724  0.00  0.00     0.037 H 
ATOM     21  H6  GLN d   1     -35.569  52.141 -23.323  0.00  0.00     0.037 H 
BRANCH  19  22
ATOM     22  CG  GLN d   1     -35.684  50.843 -24.994  0.00  0.00     0.011 C 
ATOM     23  H7  GLN d   1     -36.487  50.382 -24.400  0.00  0.00     0.047 H 
ATOM     24  H8  GLN d   1     -35.012  50.059 -25.372  0.00  0.00     0.047 H 
BRANCH  22  25
ATOM     25  CD  GLN d   1     -36.306  51.572 -26.181  0.00  0.00     0.215 C 
ATOM     26  OE1 GLN d   1     -35.780  52.599 -26.731  0.00  0.00    -0.274 OA
ATOM     27  NE2 GLN d   1     -37.421  51.023 -26.617  0.00  0.00    -0.370 N 
ATOM     28  H9  GLN d   1     -37.907  51.426 -27.392  0.00  0.00     0.159 HD
ATOM     29  H10 GLN d   1     -37.782  50.203 -26.172  0.00  0.00     0.159 HD
ENDBRANCH  22  25
ENDBRANCH  19  22
ENDBRANCH  13  19
ENDBRANCH  10  13
ENDBRANCH   7   9
BRANCH   7  30
ATOM     30  CB  TYR d   1     -30.211  51.476 -27.109  0.00  0.00    -0.014 C 
ATOM     31  H13 TYR d   1     -29.145  51.223 -27.201  0.00  0.00     0.043 H 
ATOM     32  H14 TYR d   1     -30.314  52.535 -26.828  0.00  0.00     0.043 H 
BRANCH  30  33
ATOM     33  CG  TYR d   1     -30.867  51.274 -28.455  0.00  0.00    -0.056 A 
ATOM     34  CD1 TYR d   1     -30.722  50.104 -29.157  0.00  0.00    -0.074 A 
ATOM     35  CE1 TYR d   1     -31.343  49.929 -30.365  0.00  0.00    -0.051 A 
ATOM     36  H15 TYR d   1     -30.108  49.308 -28.750  0.00  0.00     0.084 H 
ATOM     37  CZ  TYR d   1     -32.160  50.890 -30.847  0.00  0.00     0.065 A 
ATOM     38  H17 TYR d   1     -31.179  49.021 -30.933  0.00  0.00     0.087 H 
ATOM     39  CE2 TYR d   1     -32.310  52.065 -30.181  0.00  0.00    -0.051 A 
ATOM     40  CD2 TYR d   1     -31.664  52.259 -29.001  0.00  0.00    -0.074 A 
ATOM     41  H18 TYR d   1     -32.943  52.845 -30.589  0.00  0.00     0.087 H 
ATOM     42  H16 TYR d   1     -31.777  53.203 -28.480  0.00  0.00     0.084 H 
BRANCH  37  43
ATOM     43  OH  TYR d   1     -32.842  50.763 -32.014  0.00  0.00    -0.361 OA
ATOM     44  H19 TYR d   1     -32.665  49.909 -32.392  0.00  0.00     0.217 HD
ENDBRANCH  37  43
ENDBRANCH  30  33
ENDBRANCH   7  30
ENDBRANCH   4   7
ENDBRANCH   1   3
BRANCH   1  45
ATOM     45  C   LYS d   1     -26.786  48.712 -24.730  0.00  0.00     0.241 C 
ATOM     46  O   LYS d   1     -26.934  48.238 -25.864  0.00  0.00    -0.271 OA
ATOM     47  N   SER d   1     -25.590  48.848 -24.184  0.00  0.00    -0.344 N 
ATOM     48  H33 SER d   1     -25.492  49.303 -23.299  0.00  0.00     0.163 HD
BRANCH  47  49
ATOM     49  CA  SER d   1     -24.405  48.328 -24.881  0.00  0.00     0.109 C 
ATOM     50  H34 SER d   1     -24.428  48.720 -25.908  0.00  0.00     0.090 H 
BRANCH  49  51
ATOM     51  C   SER d   1     -24.360  46.843 -24.953  0.00  0.00     0.243 C 
ATOM     52  O   SER d   1     -24.784  46.182 -24.028  0.00  0.00    -0.271 OA
ATOM     53  N   ILE d   1     -23.830  46.329 -26.063  0.00  0.00    -0.346 N 
ATOM     54  H38 ILE d   1     -23.559  46.955 -26.794  0.00  0.00     0.163 HD
BRANCH  53  55
ATOM     55  CA  ILE d   1     -23.624  44.887 -26.266  0.00  0.00     0.092 C 
ATOM     56  H39 ILE d   1     -24.440  44.303 -25.815  0.00  0.00     0.088 H 
BRANCH  55  57
ATOM     57  C   ILE d   1     -22.300  44.594 -25.598  0.00  0.00     0.241 C 
ATOM     58  O   ILE d   1     -21.274  45.164 -26.010  0.00  0.00    -0.271 OA
ATOM     59  N   LEU d   1     -22.290  43.756 -24.566  0.00  0.00    -0.345 N 
ATOM     60  H49 LEU d   1     -23.096  43.210 -24.338  0.00  0.00     0.163 HD
BRANCH  59  61
ATOM     61  CA  LEU d   1     -21.061  43.656 -23.772  0.00  0.00     0.096 C 
ATOM     62  H50 LEU d   1     -20.450  44.550 -23.965  0.00  0.00     0.089 H 
BRANCH  61  63
ATOM     63  C   LEU d   1     -20.278  42.440 -24.219  0.00  0.00     0.196 C 
ATOM     64  O   LEU d   1     -19.117  42.577 -24.533  0.00  0.00    -0.646 OA
ATOM     65  OXT LEU d   1     -20.836  41.366 -24.249  0.00  0.00    -0.646 OA
ENDBRANCH  61  63
BRANCH  61  66
ATOM     66  CB  LEU d   1     -21.372  43.614 -22.274  0.00  0.00    -0.034 C 
ATOM     67  H51 LEU d   1     -20.424  43.420 -21.752  0.00  0.00     0.037 H 
ATOM     68  H52 LEU d   1     -22.060  42.771 -22.110  0.00  0.00     0.037 H 
BRANCH  66  69
ATOM     69  CG  LEU d   1     -22.009  44.856 -21.614  0.00  0.00    -0.059 C 
ATOM     70  H53 LEU d   1     -22.977  45.025 -22.109  0.00  0.00     0.038 H 
BRANCH  69  71
ATOM     71  CD1 LEU d   1     -22.293  44.572 -20.124  0.00  0.00    -0.073 C 
ATOM     72  H54 LEU d   1     -22.746  45.461 -19.661  0.00  0.00     0.028 H 
ATOM     73  H55 LEU d   1     -21.350  44.332 -19.610  0.00  0.00     0.028 H 
ATOM     74  H56 LEU d   1     -22.985  43.721 -20.038  0.00  0.00     0.028 H 
ENDBRANCH  69  71
BRANCH  69  75
ATOM     75  CD2 LEU d   1     -21.187  46.140 -21.796  0.00  0.00    -0.073 C 
ATOM     76  H57 LEU d   1     -21.005  46.310 -22.867  0.00  0.00     0.028 H 
ATOM     77  H58 LEU d   1     -20.225  46.037 -21.272  0.00  0.00     0.028 H 
ATOM     78  H59 LEU d   1     -21.742  46.993 -21.379  0.00  0.00     0.028 H 
ENDBRANCH  69  75
ENDBRANCH  66  69
ENDBRANCH  61  66
ENDBRANCH  59  61
ENDBRANCH  55  57
BRANCH  55  79
ATOM     79  CB  ILE d   1     -23.504  44.565 -27.767  0.00  0.00    -0.030 C 
ATOM     80  H40 ILE d   1     -22.655  45.130 -28.180  0.00  0.00     0.043 H 
BRANCH  79  81
ATOM     81  CG1 ILE d   1     -24.774  44.971 -28.485  0.00  0.00    -0.063 C 
ATOM     82  H41 ILE d   1     -24.921  46.052 -28.346  0.00  0.00     0.033 H 
ATOM     83  H42 ILE d   1     -25.617  44.426 -28.035  0.00  0.00     0.033 H 
BRANCH  81  84
ATOM     84  CD1 ILE d   1     -24.755  44.679 -29.966  0.00  0.00    -0.076 C 
ATOM     85  H46 ILE d   1     -25.706  45.000 -30.415  0.00  0.00     0.027 H 
ATOM     86  H47 ILE d   1     -24.620  43.599 -30.125  0.00  0.00     0.027 H 
ATOM     87  H48 ILE d   1     -23.924  45.225 -30.437  0.00  0.00     0.027 H 
ENDBRANCH  81  84
ENDBRANCH  79  81
BRANCH  79  88
ATOM     88  CG2 ILE d   1     -23.276  43.084 -28.011  0.00  0.00    -0.071 C 
ATOM     89  H43 ILE d   1     -22.357  42.765 -27.498  0.00  0.00     0.028 H 
ATOM     90  H44 ILE d   1     -23.175  42.902 -29.091  0.00  0.00     0.028 H 
ATOM     91  H45 ILE d   1     -24.131  42.512 -27.621  0.00  0.00     0.028 H 
ENDBRANCH  79  88
ENDBRANCH  55  79
ENDBRANCH  53  55
ENDBRANCH  49  51
BRANCH  49  92
ATOM     92  CB  SER d   1     -23.149  48.787 -24.224  0.00  0.00     0.044 C 
ATOM     93  H35 SER d   1     -22.278  48.280 -24.666  0.00  0.00     0.077 H 
ATOM     94  H36 SER d   1     -23.184  48.581 -23.144  0.00  0.00     0.077 H 
BRANCH  92  95
ATOM     95  OG  SER d   1     -23.080  50.168 -24.456  0.00  0.00    -0.398 OA
ATOM     96  H37 SER d   1     -23.059  50.330 -25.392  0.00  0.00     0.209 HD
ENDBRANCH  92  95
ENDBRANCH  49  92
ENDBRANCH  47  49
ENDBRANCH   1  45
BRANCH   1  97
ATOM     97  CB  LYS d   1     -28.377  48.045 -22.854  0.00  0.00    -0.038 C 
ATOM     98  H22 LYS d   1     -27.447  47.597 -22.474  0.00  0.00     0.036 H 
ATOM     99  H23 LYS d   1     -28.970  47.276 -23.371  0.00  0.00     0.036 H 
BRANCH  97 100
ATOM    100  CG  LYS d   1     -29.196  48.545 -21.641  0.00  0.00    -0.061 C 
ATOM    101  H24 LYS d   1     -29.825  49.385 -21.972  0.00  0.00     0.033 H 
ATOM    102  H25 LYS d   1     -28.493  48.895 -20.871  0.00  0.00     0.033 H 
BRANCH 100 103
ATOM    103  CD  LYS d   1     -30.127  47.456 -21.000  0.00  0.00    -0.043 C 
ATOM    104  H26 LYS d   1     -30.113  47.592 -19.909  0.00  0.00     0.035 H 
ATOM    105  H27 LYS d   1     -29.720  46.466 -21.252  0.00  0.00     0.035 H 
BRANCH 103 106
ATOM    106  CE  LYS d   1     -31.641  47.508 -21.486  0.00  0.00     0.080 C 
ATOM    107  H28 LYS d   1     -31.597  47.584 -22.582  0.00  0.00     0.075 H 
ATOM    108  H29 LYS d   1     -32.053  48.439 -21.070  0.00  0.00     0.075 H 
BRANCH 106 109
ATOM    109  NZ  LYS d   1     -32.690  46.423 -21.189  0.00  0.00    -0.079 N 
ATOM    110  H30 LYS d   1     -33.571  46.685 -21.603  0.00  0.00     0.274 HD
ATOM    111  H31 LYS d   1     -32.802  46.328 -20.192  0.00  0.00     0.274 HD
ATOM    112  H32 LYS d   1     -32.384  45.545 -21.578  0.00  0.00     0.274 HD
ENDBRANCH 106 109
ENDBRANCH 103 106
ENDBRANCH 100 103
ENDBRANCH  97 100
ENDBRANCH   1  97
TORSDOF 33
