REMARK  6 active torsions:
REMARK  status: ('A' for Active; 'I' for Inactive)
REMARK       I    between atoms: C14_2  and  N4_3 
REMARK    1  A    between atoms: C14_2  and  C11_4 
REMARK    2  A    between atoms: N3_7  and  C8_10 
REMARK    3  A    between atoms: C8_10  and  O2_11 
REMARK    4  A    between atoms: O2_11  and  C7_12 
REMARK    5  A    between atoms: C7_12  and  N2_13 
REMARK    6  A    between atoms: C2_14  and  C1_15 
ROOT
ATOM      1  C8  HI6 d   1      33.638  23.519   9.267  0.00  0.00     0.081 C 
ATOM      2  H8  HI6 d   1      34.061  24.379   8.727  0.00  0.00     0.107 H 
ATOM      3  H9  HI6 d   1      33.301  23.842  10.263  0.00  0.00     0.107 H 
ENDROOT
BRANCH   1   4
ATOM      4  N3  HI6 d   1      34.727  22.543   9.464  0.00  0.00    -0.365 N 
ATOM      5  C9  HI6 d   1      34.738  21.358   8.718  0.00  0.00     0.012 A 
ATOM      6  C10 HI6 d   1      35.723  20.442   8.874  0.00  0.00    -0.071 A 
ATOM      7  H4  HI6 d   1      33.793  20.841   8.940  0.00  0.00     0.070 H 
ATOM      8  H5  HI6 d   1      34.754  21.656   7.659  0.00  0.00     0.070 H 
ATOM      9  C11 HI6 d   1      36.737  20.701   9.801  0.00  0.00     0.030 A 
ATOM     10  H3  HI6 d   1      35.725  19.523   8.290  0.00  0.00     0.081 H 
ATOM     11  C12 HI6 d   1      36.707  21.914  10.550  0.00  0.00    -0.053 A 
ATOM     12  C13 HI6 d   1      35.696  22.798  10.353  0.00  0.00    -0.022 A 
ATOM     13  H7  HI6 d   1      37.490  22.130  11.275  0.00  0.00     0.087 H 
ATOM     14  H6  HI6 d   1      35.672  23.725  10.924  0.00  0.00     0.111 H 
BRANCH   9  15
ATOM     15  C14 HI6 d   1      37.877  19.672  10.002  0.00  0.00     0.249 C 
ATOM     16  O3  HI6 d   1      37.703  18.545   9.696  0.00  0.00    -0.268 OA
ATOM     17  N4  HI6 d   1      39.121  20.056  10.545  0.00  0.00    -0.366 N 
ATOM     18  H1  HI6 d   1      39.279  21.008  10.808  0.00  0.00     0.159 HD
ATOM     19  H2  HI6 d   1      39.844  19.377  10.667  0.00  0.00     0.159 HD
ENDBRANCH   9  15
ENDBRANCH   1   4
BRANCH   1  20
ATOM     20  O2  HI6 d   1      32.494  23.091   8.552  0.00  0.00    -0.353 OA
BRANCH  20  21
ATOM     21  C7  HI6 d   1      31.667  22.191   9.101  0.00  0.00     0.085 C 
ATOM     22  H10 HI6 d   1      32.268  21.308   9.364  0.00  0.00     0.107 H 
ATOM     23  H11 HI6 d   1      30.925  21.916   8.337  0.00  0.00     0.107 H 
BRANCH  21  24
ATOM     24  N2  HI6 d   1      30.925  22.598  10.312  0.00  0.00    -0.334 N 
ATOM     25  C2  HI6 d   1      30.302  21.649  11.147  0.00  0.00     0.055 A 
ATOM     26  C3  HI6 d   1      29.614  22.058  12.276  0.00  0.00    -0.055 A 
ATOM     27  C4  HI6 d   1      29.520  23.424  12.617  0.00  0.00    -0.080 A 
ATOM     28  H13 HI6 d   1      29.137  21.313  12.912  0.00  0.00     0.087 H 
ATOM     29  C5  HI6 d   1      30.158  24.360  11.758  0.00  0.00    -0.068 A 
ATOM     30  H14 HI6 d   1      28.979  23.749  13.505  0.00  0.00     0.083 H 
ATOM     31  C6  HI6 d   1      30.851  23.913  10.616  0.00  0.00    -0.018 A 
ATOM     32  H15 HI6 d   1      30.111  25.424  11.983  0.00  0.00     0.085 H 
ATOM     33  H16 HI6 d   1      31.336  24.640   9.966  0.00  0.00     0.111 H 
BRANCH  25  34
ATOM     34  C1  HI6 d   1      30.357  20.224  10.857  0.00  0.00     0.057 C 
ATOM     35  N1  HI6 d   1      29.743  19.394  11.613  0.00  0.00    -0.108 NA
ATOM     36  O1  HI6 d   1      29.687  18.178  11.294  0.00  0.00    -0.062 OA
ATOM     37  H12 HI6 d   1      30.920  19.864   9.997  0.00  0.00     0.121 H 
ENDBRANCH  25  34
ENDBRANCH  21  24
ENDBRANCH  20  21
ENDBRANCH   1  20
TORSDOF 6
