REMARK  6 active torsions:
REMARK  status: ('A' for Active; 'I' for Inactive)
REMARK    1  A    between atoms: C1_2  and  C2_4 
REMARK    2  A    between atoms: C2_4  and  C3_5 
REMARK    3  A    between atoms: C3_5  and  N1_6 
REMARK    4  A    between atoms: N1_6  and  C4_7 
REMARK    5  A    between atoms: C7_9  and  C8_10 
REMARK    6  A    between atoms: C6_17  and  N5_19 
ROOT
ATOM      1  C4  K0I d   1      84.195  63.630  12.263  0.00  0.00     0.129 A 
ATOM      2  N3  K0I d   1      82.938  63.588  11.809  0.00  0.00    -0.209 NA
ATOM      3  C7  K0I d   1      82.493  62.385  11.417  0.00  0.00     0.182 A 
ATOM      4  N2  K0I d   1      83.193  61.244  11.443  0.00  0.00    -0.209 NA
ATOM      5  C6  K0I d   1      84.449  61.309  11.898  0.00  0.00     0.131 A 
ATOM      6  C5  K0I d   1      85.014  62.506  12.327  0.00  0.00     0.005 A 
ATOM      7  H10 K0I d   1      86.034  62.560  12.690  0.00  0.00     0.095 H 
ENDROOT
BRANCH   5   8
ATOM      8  N5  K0I d   1      85.154  60.139  11.930  0.00  0.00    -0.365 N 
ATOM      9  C22 K0I d   1      84.524  58.825  11.784  0.00  0.00     0.000 C 
ATOM     10  C21 K0I d   1      84.479  58.402  10.318  0.00  0.00    -0.026 C 
ATOM     11  H11 K0I d   1      83.498  58.872  12.177  0.00  0.00     0.064 H 
ATOM     12  H12 K0I d   1      85.102  58.083  12.355  0.00  0.00     0.064 H 
ATOM     13  C20 K0I d   1      85.729  58.554   9.484  0.00  0.00    -0.050 A 
ATOM     14  H13 K0I d   1      83.691  58.997   9.833  0.00  0.00     0.042 H 
ATOM     15  H14 K0I d   1      84.202  57.338  10.296  0.00  0.00     0.042 H 
ATOM     16  C15 K0I d   1      87.005  58.801  10.012  0.00  0.00    -0.050 A 
ATOM     17  C19 K0I d   1      85.584  58.424   8.106  0.00  0.00    -0.076 A 
ATOM     18  C14 K0I d   1      87.268  58.964  11.488  0.00  0.00    -0.026 C 
ATOM     19  C16 K0I d   1      88.088  58.905   9.144  0.00  0.00    -0.076 A 
ATOM     20  C13 K0I d   1      86.604  60.172  12.135  0.00  0.00     0.000 C 
ATOM     21  H15 K0I d   1      88.355  59.055  11.632  0.00  0.00     0.042 H 
ATOM     22  H16 K0I d   1      86.905  58.061  12.000  0.00  0.00     0.042 H 
ATOM     23  H17 K0I d   1      86.816  60.165  13.214  0.00  0.00     0.064 H 
ATOM     24  H18 K0I d   1      87.011  61.090  11.687  0.00  0.00     0.064 H 
ATOM     25  C17 K0I d   1      87.920  58.771   7.778  0.00  0.00    -0.082 A 
ATOM     26  H22 K0I d   1      89.077  59.094   9.545  0.00  0.00     0.084 H 
ATOM     27  C18 K0I d   1      86.673  58.531   7.261  0.00  0.00    -0.082 A 
ATOM     28  H21 K0I d   1      88.774  58.856   7.116  0.00  0.00     0.083 H 
ATOM     29  H20 K0I d   1      86.541  58.425   6.190  0.00  0.00     0.083 H 
ATOM     30  H19 K0I d   1      84.602  58.236   7.689  0.00  0.00     0.084 H 
ENDBRANCH   5   8
BRANCH   3  31
ATOM     31  C8  K0I d   1      81.096  62.314  10.908  0.00  0.00     0.104 A 
ATOM     32  N4  K0I d   1      80.394  63.459  10.893  0.00  0.00    -0.257 NA
ATOM     33  C12 K0I d   1      79.134  63.405  10.432  0.00  0.00     0.003 A 
ATOM     34  C11 K0I d   1      78.533  62.250   9.981  0.00  0.00    -0.066 A 
ATOM     35  H6  K0I d   1      78.557  64.322  10.414  0.00  0.00     0.114 H 
ATOM     36  C10 K0I d   1      79.265  61.089  10.005  0.00  0.00    -0.079 A 
ATOM     37  H7  K0I d   1      77.512  62.258   9.618  0.00  0.00     0.085 H 
ATOM     38  C9  K0I d   1      80.564  61.107  10.473  0.00  0.00    -0.051 A 
ATOM     39  H8  K0I d   1      78.825  60.161   9.658  0.00  0.00     0.083 H 
ATOM     40  H9  K0I d   1      81.156  60.199  10.500  0.00  0.00     0.087 H 
ENDBRANCH   3  31
BRANCH   1  41
ATOM     41  N1  K0I d   1      84.655  64.833  12.700  0.00  0.00    -0.374 N 
ATOM     42  H5  K0I d   1      84.036  65.653  12.634  0.00  0.00     0.161 HD
BRANCH  41  43
ATOM     43  C3  K0I d   1      85.987  65.006  13.256  0.00  0.00     0.003 C 
ATOM     44  H3  K0I d   1      86.690  64.335  12.740  0.00  0.00     0.064 H 
ATOM     45  H4  K0I d   1      86.309  66.049  13.120  0.00  0.00     0.064 H 
BRANCH  43  46
ATOM     46  C2  K0I d   1      85.963  64.673  14.733  0.00  0.00     0.030 C 
ATOM     47  H1  K0I d   1      85.448  65.486  15.265  0.00  0.00     0.051 H 
ATOM     48  H2  K0I d   1      85.406  63.734  14.870  0.00  0.00     0.051 H 
BRANCH  46  49
ATOM     49  C1  K0I d   1      87.330  64.506  15.329  0.00  0.00     0.174 C 
ATOM     50  O2  K0I d   1      87.607  64.849  16.459  0.00  0.00    -0.648 OA
ATOM     51  O1  K0I d   1      88.186  63.950  14.516  0.00  0.00    -0.648 OA
ENDBRANCH  46  49
ENDBRANCH  43  46
ENDBRANCH  41  43
ENDBRANCH   1  41
TORSDOF 6
