REMARK  4 active torsions:
REMARK  status: ('A' for Active; 'I' for Inactive)
REMARK    1  A    between atoms: O01_1  and  B02_2 
REMARK    2  A    between atoms: C07_7  and  N08_8 
REMARK       I    between atoms: N08_8  and  C09_9 
REMARK    3  A    between atoms: C09_9  and  C11_11 
REMARK    4  A    between atoms: C20_20  and  C21_21 
ROOT
ATOM      1  B02 C6S d   1     -22.971  16.397  -0.973  0.00  0.00     0.522 B 
ATOM      2  O03 C6S d   1     -23.601  15.195  -0.519  0.00  0.00    -0.386 OA
ATOM      3  C04 C6S d   1     -25.003  15.304  -0.169  0.00  0.00     0.075 A 
ATOM      4  C05 C6S d   1     -25.337  16.387   0.621  0.00  0.00    -0.024 A 
ATOM      5  C06 C6S d   1     -24.229  17.394   0.965  0.00  0.00    -0.022 C 
ATOM      6  C07 C6S d   1     -23.478  17.765  -0.327  0.00  0.00     0.050 C 
ATOM      7  C17 C6S d   1     -26.680  16.547   1.032  0.00  0.00    -0.074 A 
ATOM      8  C18 C6S d   1     -27.629  15.591   0.575  0.00  0.00    -0.081 A 
ATOM      9  C19 C6S d   1     -27.254  14.494  -0.239  0.00  0.00    -0.064 A 
ATOM     10  C20 C6S d   1     -25.916  14.321  -0.599  0.00  0.00     0.073 A 
ATOM     11  H4  C6S d   1     -23.529  16.942   1.683  0.00  0.00     0.042 H 
ATOM     12  H5  C6S d   1     -24.675  18.298   1.406  0.00  0.00     0.042 H 
ATOM     13  H7  C6S d   1     -22.667  18.473  -0.103  0.00  0.00     0.065 H 
ATOM     14  H20 C6S d   1     -26.976  17.369   1.673  0.00  0.00     0.084 H 
ATOM     15  H21 C6S d   1     -28.669  15.705   0.858  0.00  0.00     0.083 H 
ATOM     16  H22 C6S d   1     -28.004  13.790  -0.582  0.00  0.00     0.085 H 
ENDROOT
BRANCH   6  17
ATOM     17  N08 C6S d   1     -24.452  18.384  -1.220  0.00  0.00    -0.359 N 
ATOM     18  C09 C6S d   1     -24.763  19.750  -1.167  0.00  0.00     0.221 C 
ATOM     19  O10 C6S d   1     -24.166  20.574  -0.472  0.00  0.00    -0.273 OA
ATOM     20  H8  C6S d   1     -24.916  17.811  -1.896  0.00  0.00     0.162 HD
BRANCH  18  21
ATOM     21  C11 C6S d   1     -25.983  20.204  -2.037  0.00  0.00     0.024 C 
ATOM     22  C12 C6S d   1     -25.972  21.683  -2.333  0.00  0.00    -0.054 C 
ATOM     23  C13 C6S d   1     -27.238  22.038  -3.145  0.00  0.00    -0.064 C 
ATOM     24  H10 C6S d   1     -25.075  21.936  -2.917  0.00  0.00     0.034 H 
ATOM     25  H11 C6S d   1     -25.967  22.249  -1.390  0.00  0.00     0.034 H 
ATOM     26  C14 C6S d   1     -28.446  21.717  -2.326  0.00  0.00    -0.065 C 
ATOM     27  H12 C6S d   1     -27.256  21.451  -4.075  0.00  0.00     0.033 H 
ATOM     28  H13 C6S d   1     -27.232  23.111  -3.388  0.00  0.00     0.033 H 
ATOM     29  C15 C6S d   1     -28.500  20.270  -1.929  0.00  0.00    -0.064 C 
ATOM     30  H14 C6S d   1     -29.345  21.956  -2.913  0.00  0.00     0.033 H 
ATOM     31  H15 C6S d   1     -28.429  22.333  -1.415  0.00  0.00     0.033 H 
ATOM     32  C16 C6S d   1     -27.212  19.883  -1.186  0.00  0.00    -0.054 C 
ATOM     33  H16 C6S d   1     -28.602  19.648  -2.830  0.00  0.00     0.033 H 
ATOM     34  H17 C6S d   1     -29.365  20.105  -1.270  0.00  0.00     0.033 H 
ATOM     35  H18 C6S d   1     -27.156  20.446  -0.243  0.00  0.00     0.034 H 
ATOM     36  H19 C6S d   1     -27.230  18.805  -0.969  0.00  0.00     0.034 H 
ATOM     37  H9  C6S d   1     -26.002  19.643  -2.983  0.00  0.00     0.054 H 
ENDBRANCH  18  21
ENDBRANCH   6  17
BRANCH   1  38
ATOM     38  O01 C6S d   1     -22.982  16.388  -2.412  0.00  0.00    -0.436 OA
ATOM     39  H2  C6S d   1     -23.880  16.351  -2.720  0.00  0.00     0.185 HD
ENDBRANCH   1  38
BRANCH  10  40
ATOM     40  C21 C6S d   1     -25.489  13.235  -1.527  0.00  0.00     0.212 C 
ATOM     41  O22 C6S d   1     -26.301  12.507  -2.145  0.00  0.00    -0.644 OA
ATOM     42  O23 C6S d   1     -24.323  13.122  -1.813  0.00  0.00    -0.644 OA
ENDBRANCH  10  40
TORSDOF 4
