REMARK  7 active torsions:
REMARK  status: ('A' for Active; 'I' for Inactive)
REMARK    1  A    between atoms: N01_1  and  C02_2 
REMARK    2  A    between atoms: C02_2  and  C03_3 
REMARK    3  A    between atoms: C06_6  and  C09_9 
REMARK       I    between atoms: C09_9  and  N11_11 
REMARK    4  A    between atoms: N11_11  and  C12_12 
REMARK    5  A    between atoms: B17_17  and  O19_19 
REMARK    6  A    between atoms: O18_18  and  B17_17 
REMARK    7  A    between atoms: C20_20  and  C24_24 
ROOT
ATOM      1  C12 OK3 d   1      60.650   9.529  24.663  0.00  0.00     0.083 C 
ATOM      2  C13 OK3 d   1      61.689  10.492  24.247  0.00  0.00    -0.019 C 
ATOM      3  C14 OK3 d   1      62.960  10.326  25.057  0.00  0.00    -0.024 A 
ATOM      4  C15 OK3 d   1      63.394   9.080  25.463  0.00  0.00     0.078 A 
ATOM      5  O16 OK3 d   1      62.627   7.890  25.072  0.00  0.00    -0.357 OA
ATOM      6  B17 OK3 d   1      61.244   8.112  25.308  0.00  0.00     0.634 B 
ATOM      7  C20 OK3 d   1      64.568   8.934  26.215  0.00  0.00     0.073 A 
ATOM      8  C21 OK3 d   1      65.271  10.074  26.587  0.00  0.00    -0.064 A 
ATOM      9  C22 OK3 d   1      64.831  11.348  26.174  0.00  0.00    -0.081 A 
ATOM     10  C23 OK3 d   1      63.664  11.477  25.398  0.00  0.00    -0.074 A 
ATOM     11  H   OK3 d   1      60.162   9.432  23.693  0.00  0.00     0.071 H 
ATOM     12  H   OK3 d   1      61.308  11.501  24.407  0.00  0.00     0.042 H 
ATOM     13  H   OK3 d   1      61.924  10.314  23.198  0.00  0.00     0.042 H 
ATOM     14  H   OK3 d   1      66.167   9.982  27.201  0.00  0.00     0.085 H 
ATOM     15  H   OK3 d   1      65.396  12.236  26.457  0.00  0.00     0.083 H 
ATOM     16  H   OK3 d   1      63.319  12.458  25.071  0.00  0.00     0.084 H 
ENDROOT
BRANCH   1  17
ATOM     17  N11 OK3 d   1      59.705   9.933  25.685  0.00  0.00    -0.352 N 
ATOM     18  C09 OK3 d   1      58.440  10.540  25.329  0.00  0.00     0.251 C 
ATOM     19  O10 OK3 d   1      58.216  10.738  24.139  0.00  0.00    -0.268 OA
ATOM     20  H   OK3 d   1      59.934   9.788  26.668  0.00  0.00     0.162 HD
BRANCH  18  21
ATOM     21  C06 OK3 d   1      57.367  10.861  26.389  0.00  0.00     0.032 A 
ATOM     22  C05 OK3 d   1      56.039  11.025  25.998  0.00  0.00    -0.067 A 
ATOM     23  C04 OK3 d   1      55.043  11.274  26.959  0.00  0.00    -0.074 A 
ATOM     24  H   OK3 d   1      55.772  10.960  24.943  0.00  0.00     0.085 H 
ATOM     25  C03 OK3 d   1      55.370  11.329  28.307  0.00  0.00    -0.033 A 
ATOM     26  H   OK3 d   1      54.010  11.424  26.644  0.00  0.00     0.084 H 
ATOM     27  C08 OK3 d   1      56.697  11.133  28.702  0.00  0.00    -0.074 A 
ATOM     28  C07 OK3 d   1      57.665  10.884  27.739  0.00  0.00    -0.067 A 
ATOM     29  H   OK3 d   1      56.969  11.175  29.757  0.00  0.00     0.084 H 
ATOM     30  H   OK3 d   1      58.691  10.701  28.057  0.00  0.00     0.085 H 
BRANCH  25  31
ATOM     31  C02 OK3 d   1      54.290  11.592  29.356  0.00  0.00     0.103 C 
ATOM     32  H   OK3 d   1      54.746  12.047  30.235  0.00  0.00     0.082 H 
ATOM     33  H   OK3 d   1      53.539  12.263  28.939  0.00  0.00     0.082 H 
BRANCH  31  34
ATOM     34  N01 OK3 d   1      53.672  10.370  29.728  0.00  0.00    -0.075 N 
ATOM     35  H   OK3 d   1      52.953  10.553  30.428  0.00  0.00     0.274 HD
ATOM     36  H   OK3 d   1      53.247   9.941  28.906  0.00  0.00     0.274 HD
ATOM     37  H   OK3 d   1      54.374   9.740  30.117  0.00  0.00     0.274 HD
ENDBRANCH  31  34
ENDBRANCH  25  31
ENDBRANCH  18  21
ENDBRANCH   1  17
BRANCH   6  38
ATOM     38  O19 OK3 d   1      61.093   8.042  26.964  0.00  0.00    -0.408 OA
ATOM     39  H   OK3 d   1      61.377   7.179  27.274  0.00  0.00     0.188 HD
ENDBRANCH   6  38
BRANCH   6  40
ATOM     40  O18 OK3 d   1      60.447   6.774  24.677  0.00  0.00    -0.408 OA
ATOM     41  H3  OK3 d   1      60.631   6.707  23.747  0.00  0.00     0.188 HD
ENDBRANCH   6  40
BRANCH   7  42
ATOM     42  C24 OK3 d   1      64.970   7.551  26.687  0.00  0.00     0.212 C 
ATOM     43  O25 OK3 d   1      65.493   7.475  27.829  0.00  0.00    -0.644 OA
ATOM     44  O26 OK3 d   1      64.724   6.488  26.051  0.00  0.00    -0.644 OA
ENDBRANCH   7  42
TORSDOF 7
