REMARK  7 active torsions:
REMARK  status: ('A' for Active; 'I' for Inactive)
REMARK    1  A    between atoms: N01_1  and  C02_2 
REMARK    2  A    between atoms: C02_2  and  C03_3 
REMARK    3  A    between atoms: C06_6  and  C09_9 
REMARK       I    between atoms: C09_9  and  N11_11 
REMARK    4  A    between atoms: N11_11  and  C12_12 
REMARK    5  A    between atoms: B17_17  and  O19_19 
REMARK    6  A    between atoms: O18_18  and  B17_17 
REMARK    7  A    between atoms: C20_20  and  C24_24 
ROOT
ATOM      1  C12 OK3 d   1     -27.317   7.592  58.932  0.00  0.00     0.083 C 
ATOM      2  C13 OK3 d   1     -27.025   6.742  60.137  0.00  0.00    -0.019 C 
ATOM      3  C14 OK3 d   1     -27.124   5.267  59.786  0.00  0.00    -0.024 A 
ATOM      4  C15 OK3 d   1     -26.710   4.803  58.586  0.00  0.00     0.078 A 
ATOM      5  O16 OK3 d   1     -26.067   5.771  57.737  0.00  0.00    -0.357 OA
ATOM      6  B17 OK3 d   1     -26.922   6.862  57.511  0.00  0.00     0.634 B 
ATOM      7  C20 OK3 d   1     -26.824   3.468  58.225  0.00  0.00     0.073 A 
ATOM      8  C21 OK3 d   1     -27.429   2.566  59.074  0.00  0.00    -0.064 A 
ATOM      9  C22 OK3 d   1     -27.876   3.047  60.312  0.00  0.00    -0.081 A 
ATOM     10  C23 OK3 d   1     -27.743   4.413  60.669  0.00  0.00    -0.074 A 
ATOM     11  H   OK3 d   1     -26.703   8.480  59.082  0.00  0.00     0.071 H 
ATOM     12  H   OK3 d   1     -27.753   6.970  60.915  0.00  0.00     0.042 H 
ATOM     13  H   OK3 d   1     -26.014   6.956  60.484  0.00  0.00     0.042 H 
ATOM     14  H   OK3 d   1     -27.555   1.520  58.794  0.00  0.00     0.085 H 
ATOM     15  H   OK3 d   1     -28.337   2.355  61.017  0.00  0.00     0.083 H 
ATOM     16  H   OK3 d   1     -28.123   4.779  61.623  0.00  0.00     0.084 H 
ENDROOT
BRANCH   1  17
ATOM     17  N11 OK3 d   1     -28.744   7.936  58.830  0.00  0.00    -0.352 N 
ATOM     18  C09 OK3 d   1     -29.322   9.050  59.486  0.00  0.00     0.251 C 
ATOM     19  O10 OK3 d   1     -28.638   9.803  60.155  0.00  0.00    -0.268 OA
ATOM     20  H   OK3 d   1     -29.346   7.343  58.259  0.00  0.00     0.162 HD
BRANCH  18  21
ATOM     21  C06 OK3 d   1     -30.776   9.320  59.259  0.00  0.00     0.032 A 
ATOM     22  C05 OK3 d   1     -31.313   9.196  58.003  0.00  0.00    -0.067 A 
ATOM     23  C04 OK3 d   1     -32.655   9.494  57.805  0.00  0.00    -0.074 A 
ATOM     24  H   OK3 d   1     -30.693   8.867  57.169  0.00  0.00     0.085 H 
ATOM     25  C03 OK3 d   1     -33.408   9.934  58.889  0.00  0.00    -0.033 A 
ATOM     26  H   OK3 d   1     -33.109   9.385  56.820  0.00  0.00     0.084 H 
ATOM     27  C08 OK3 d   1     -32.839  10.068  60.165  0.00  0.00    -0.074 A 
ATOM     28  C07 OK3 d   1     -31.501   9.765  60.350  0.00  0.00    -0.067 A 
ATOM     29  H   OK3 d   1     -33.446  10.408  61.004  0.00  0.00     0.084 H 
ATOM     30  H   OK3 d   1     -31.032   9.874  61.328  0.00  0.00     0.085 H 
BRANCH  25  31
ATOM     31  C02 OK3 d   1     -34.878  10.274  58.710  0.00  0.00     0.103 C 
ATOM     32  H   OK3 d   1     -35.234   9.868  57.763  0.00  0.00     0.082 H 
ATOM     33  H   OK3 d   1     -35.456   9.840  59.526  0.00  0.00     0.082 H 
BRANCH  31  34
ATOM     34  N01 OK3 d   1     -35.034  11.678  58.713  0.00  0.00    -0.075 N 
ATOM     35  H   OK3 d   1     -36.020  11.910  58.593  0.00  0.00     0.274 HD
ATOM     36  H   OK3 d   1     -34.701  12.054  59.601  0.00  0.00     0.274 HD
ATOM     37  H   OK3 d   1     -34.493  12.081  57.947  0.00  0.00     0.274 HD
ENDBRANCH  31  34
ENDBRANCH  25  31
ENDBRANCH  18  21
ENDBRANCH   1  17
BRANCH   6  38
ATOM     38  O19 OK3 d   1     -28.094   6.512  56.439  0.00  0.00    -0.408 OA
ATOM     39  H   OK3 d   1     -27.696   6.265  55.601  0.00  0.00     0.188 HD
ENDBRANCH   6  38
BRANCH   6  40
ATOM     40  O18 OK3 d   1     -26.060   7.829  56.503  0.00  0.00    -0.408 OA
ATOM     41  H1  OK3 d   1     -25.251   8.087  56.929  0.00  0.00     0.188 HD
ENDBRANCH   6  40
BRANCH   7  42
ATOM     42  C24 OK3 d   1     -26.390   2.996  56.871  0.00  0.00     0.212 C 
ATOM     43  O25 OK3 d   1     -27.030   2.041  56.375  0.00  0.00    -0.644 OA
ATOM     44  O26 OK3 d   1     -25.529   3.582  56.195  0.00  0.00    -0.644 OA
ENDBRANCH   7  42
TORSDOF 7
