REMARK  9 active torsions:
REMARK  status: ('A' for Active; 'I' for Inactive)
REMARK    1  A    between atoms: C1_1  and  C2_2 
REMARK    2  A    between atoms: C7_6  and  O29_27 
REMARK    3  A    between atoms: C11_10  and  C18_16 
REMARK    4  A    between atoms: N13_11  and  C14_12 
REMARK    5  A    between atoms: C14_12  and  C15_13 
REMARK    6  A    between atoms: C15_13  and  C16_14 
REMARK    7  A    between atoms: C15_13  and  C17_15 
REMARK    8  A    between atoms: C21_19  and  C24_22 
REMARK    9  A    between atoms: C25_23  and  C26_24 
ROOT
ATOM      1  C2  GQD d   1      12.790  23.851  63.350  0.00  0.00     0.105 C 
ATOM      2  C4  GQD d   1      13.352  25.114  63.983  0.00  0.00    -0.014 C 
ATOM      3  C5  GQD d   1      14.811  24.994  64.328  0.00  0.00    -0.045 A 
ATOM      4  C6  GQD d   1      15.549  26.151  64.458  0.00  0.00    -0.044 A 
ATOM      5  C7  GQD d   1      16.886  26.071  64.781  0.00  0.00     0.066 A 
ATOM      6  C8  GQD d   1      17.510  24.860  64.972  0.00  0.00    -0.050 A 
ATOM      7  C9  GQD d   1      16.768  23.704  64.837  0.00  0.00    -0.071 A 
ATOM      8  C10 GQD d   1      15.420  23.768  64.519  0.00  0.00    -0.017 A 
ATOM      9  C11 GQD d   1      14.651  22.487  64.400  0.00  0.00     0.155 C 
ATOM     10  N13 GQD d   1      13.175  22.683  64.209  0.00  0.00    -0.054 N 
ATOM     11  H4  GQD d   1      11.693  23.930  63.330  0.00  0.00     0.084 H 
ATOM     12  H5  GQD d   1      12.789  25.326  64.904  0.00  0.00     0.043 H 
ATOM     13  H6  GQD d   1      13.226  25.948  63.276  0.00  0.00     0.043 H 
ATOM     14  H7  GQD d   1      15.081  27.117  64.307  0.00  0.00     0.088 H 
ATOM     15  H8  GQD d   1      18.563  24.814  65.224  0.00  0.00     0.087 H 
ATOM     16  H9  GQD d   1      17.242  22.740  64.981  0.00  0.00     0.084 H 
ATOM     17  H10 GQD d   1      15.040  21.939  63.529  0.00  0.00     0.100 H 
ATOM     18  H11 GQD d   1      12.822  22.914  65.124  0.00  0.00     0.281 HD
ENDROOT
BRANCH   9  19
ATOM     19  C18 GQD d   1      14.860  21.655  65.633  0.00  0.00    -0.023 A 
ATOM     20  C19 GQD d   1      14.622  22.190  66.886  0.00  0.00    -0.074 A 
ATOM     21  C20 GQD d   1      14.812  21.418  68.015  0.00  0.00    -0.072 A 
ATOM     22  H21 GQD d   1      14.286  23.216  66.982  0.00  0.00     0.084 H 
ATOM     23  C21 GQD d   1      15.237  20.109  67.896  0.00  0.00    -0.036 A 
ATOM     24  H22 GQD d   1      14.627  21.840  68.996  0.00  0.00     0.084 H 
ATOM     25  C22 GQD d   1      15.474  19.575  66.646  0.00  0.00    -0.072 A 
ATOM     26  C23 GQD d   1      15.285  20.350  65.518  0.00  0.00    -0.074 A 
ATOM     27  H23 GQD d   1      15.808  18.548  66.549  0.00  0.00     0.084 H 
ATOM     28  H24 GQD d   1      15.472  19.929  64.537  0.00  0.00     0.084 H 
BRANCH  23  29
ATOM     29  C24 GQD d   1      15.450  19.265  69.067  0.00  0.00    -0.067 C 
ATOM     30  C25 GQD d   1      15.901  19.804  70.203  0.00  0.00    -0.009 C 
ATOM     31  H26 GQD d   1      16.125  20.863  70.319  0.00  0.00     0.094 H 
ATOM     32  H25 GQD d   1      15.242  18.197  69.015  0.00  0.00     0.085 H 
BRANCH  30  33
ATOM     33  C26 GQD d   1      16.068  18.785  71.315  0.00  0.00     0.198 C 
ATOM     34  O27 GQD d   1      15.856  17.578  71.012  0.00  0.00    -0.645 OA
ATOM     35  O28 GQD d   1      16.404  19.271  72.430  0.00  0.00    -0.645 OA
ENDBRANCH  30  33
ENDBRANCH  23  29
ENDBRANCH   9  19
BRANCH  10  36
ATOM     36  C14 GQD d   1      12.495  21.407  63.836  0.00  0.00     0.088 C 
ATOM     37  H12 GQD d   1      13.109  20.562  64.182  0.00  0.00     0.076 H 
ATOM     38  H13 GQD d   1      12.396  21.364  62.741  0.00  0.00     0.076 H 
BRANCH  36  39
ATOM     39  C15 GQD d   1      11.115  21.298  64.458  0.00  0.00    -0.038 C 
ATOM     40  H14 GQD d   1      10.473  22.088  64.040  0.00  0.00     0.041 H 
BRANCH  39  41
ATOM     41  C16 GQD d   1      10.537  19.942  64.112  0.00  0.00    -0.072 C 
ATOM     42  H15 GQD d   1       9.535  19.846  64.556  0.00  0.00     0.028 H 
ATOM     43  H16 GQD d   1      11.191  19.152  64.510  0.00  0.00     0.028 H 
ATOM     44  H17 GQD d   1      10.465  19.842  63.019  0.00  0.00     0.028 H 
ENDBRANCH  39  41
BRANCH  39  45
ATOM     45  C17 GQD d   1      11.153  21.448  65.960  0.00  0.00    -0.072 C 
ATOM     46  H18 GQD d   1      11.572  22.431  66.220  0.00  0.00     0.028 H 
ATOM     47  H19 GQD d   1      11.782  20.656  66.392  0.00  0.00     0.028 H 
ATOM     48  H20 GQD d   1      10.133  21.366  66.363  0.00  0.00     0.028 H 
ENDBRANCH  39  45
ENDBRANCH  36  39
ENDBRANCH  10  36
BRANCH   1  49
ATOM     49  C1  GQD d   1      13.274  23.651  61.919  0.00  0.00    -0.049 C 
ATOM     50  H1  GQD d   1      12.981  24.518  61.308  0.00  0.00     0.030 H 
ATOM     51  H2  GQD d   1      12.821  22.739  61.503  0.00  0.00     0.030 H 
ATOM     52  H3  GQD d   1      14.370  23.552  61.913  0.00  0.00     0.030 H 
ENDBRANCH   1  49
BRANCH   5  53
ATOM     53  O29 GQD d   1      17.611  27.229  64.920  0.00  0.00    -0.361 OA
ATOM     54  H27 GQD d   1      17.960  27.279  65.802  0.00  0.00     0.217 HD
ENDBRANCH   5  53
TORSDOF 9
