REMARK  8 active torsions:
REMARK  status: ('A' for Active; 'I' for Inactive)
REMARK    1  A    between atoms: C1_1  and  C2_2 
REMARK    2  A    between atoms: C2_2  and  C3_3 
REMARK    3  A    between atoms: C2_2  and  C4_4 
REMARK    4  A    between atoms: C4_4  and  N5_5 
REMARK    5  A    between atoms: C10_10  and  O26_26 
REMARK    6  A    between atoms: C14_14  and  C15_15 
REMARK    7  A    between atoms: C18_18  and  C21_21 
REMARK    8  A    between atoms: C22_22  and  C23_23 
ROOT
ATOM      1  N5  QHG d   1      13.315  23.277  63.786  0.00  0.00    -0.058 N 
ATOM      2  C6  QHG d   1      13.026  24.498  62.992  0.00  0.00     0.088 C 
ATOM      3  C7  QHG d   1      13.534  25.694  63.763  0.00  0.00    -0.018 C 
ATOM      4  C8  QHG d   1      14.999  25.526  64.049  0.00  0.00    -0.045 A 
ATOM      5  C9  QHG d   1      15.769  26.656  64.210  0.00  0.00    -0.044 A 
ATOM      6  C10 QHG d   1      17.109  26.530  64.497  0.00  0.00     0.066 A 
ATOM      7  C11 QHG d   1      17.705  25.297  64.612  0.00  0.00    -0.050 A 
ATOM      8  C12 QHG d   1      16.930  24.173  64.448  0.00  0.00    -0.071 A 
ATOM      9  C13 QHG d   1      15.579  24.279  64.172  0.00  0.00    -0.017 A 
ATOM     10  C14 QHG d   1      14.776  23.022  64.019  0.00  0.00     0.154 C 
ATOM     11  H10 QHG d   1      12.916  23.448  64.696  0.00  0.00     0.281 HD
ATOM     12  H11 QHG d   1      11.941  24.591  62.833  0.00  0.00     0.076 H 
ATOM     13  H12 QHG d   1      13.536  24.439  62.019  0.00  0.00     0.076 H 
ATOM     14  H13 QHG d   1      12.983  25.778  64.712  0.00  0.00     0.042 H 
ATOM     15  H14 QHG d   1      13.380  26.606  63.167  0.00  0.00     0.042 H 
ATOM     16  H15 QHG d   1      15.322  27.639  64.111  0.00  0.00     0.088 H 
ATOM     17  H16 QHG d   1      18.764  25.212  64.828  0.00  0.00     0.087 H 
ATOM     18  H17 QHG d   1      17.383  23.192  64.536  0.00  0.00     0.084 H 
ATOM     19  H18 QHG d   1      15.167  22.490  63.139  0.00  0.00     0.100 H 
ENDROOT
BRANCH  10  20
ATOM     20  C15 QHG d   1      14.936  22.126  65.215  0.00  0.00    -0.023 A 
ATOM     21  C16 QHG d   1      14.719  22.603  66.495  0.00  0.00    -0.074 A 
ATOM     22  C17 QHG d   1      14.862  21.768  67.588  0.00  0.00    -0.072 A 
ATOM     23  H19 QHG d   1      14.435  23.639  66.642  0.00  0.00     0.084 H 
ATOM     24  C18 QHG d   1      15.225  20.446  67.414  0.00  0.00    -0.036 A 
ATOM     25  H20 QHG d   1      14.688  22.152  68.587  0.00  0.00     0.084 H 
ATOM     26  C19 QHG d   1      15.437  19.973  66.139  0.00  0.00    -0.072 A 
ATOM     27  C20 QHG d   1      15.294  20.807  65.048  0.00  0.00    -0.074 A 
ATOM     28  H21 QHG d   1      15.719  18.937  65.990  0.00  0.00     0.084 H 
ATOM     29  H22 QHG d   1      15.465  20.420  64.050  0.00  0.00     0.084 H 
BRANCH  24  30
ATOM     30  C21 QHG d   1      15.387  19.514  68.531  0.00  0.00    -0.067 C 
ATOM     31  C22 QHG d   1      15.844  19.937  69.713  0.00  0.00    -0.009 C 
ATOM     32  H24 QHG d   1      16.117  20.973  69.908  0.00  0.00     0.094 H 
ATOM     33  H23 QHG d   1      15.132  18.464  68.397  0.00  0.00     0.085 H 
BRANCH  31  34
ATOM     34  C23 QHG d   1      15.949  18.841  70.761  0.00  0.00     0.198 C 
ATOM     35  O24 QHG d   1      16.451  19.237  71.849  0.00  0.00    -0.645 OA
ATOM     36  O25 QHG d   1      15.529  17.681  70.449  0.00  0.00    -0.645 OA
ENDBRANCH  31  34
ENDBRANCH  24  30
ENDBRANCH  10  20
BRANCH   1  37
ATOM     37  C4  QHG d   1      12.637  22.063  63.260  0.00  0.00     0.087 C 
ATOM     38  H8  QHG d   1      12.553  22.143  62.166  0.00  0.00     0.076 H 
ATOM     39  H9  QHG d   1      13.234  21.176  63.519  0.00  0.00     0.076 H 
BRANCH  37  40
ATOM     40  C2  QHG d   1      11.244  21.917  63.857  0.00  0.00    -0.038 C 
ATOM     41  H4  QHG d   1      10.651  22.809  63.606  0.00  0.00     0.041 H 
BRANCH  40  42
ATOM     42  C1  QHG d   1      10.593  20.688  63.266  0.00  0.00    -0.072 C 
ATOM     43  H1  QHG d   1       9.584  20.569  63.688  0.00  0.00     0.028 H 
ATOM     44  H2  QHG d   1      11.198  19.801  63.506  0.00  0.00     0.028 H 
ATOM     45  H3  QHG d   1      10.523  20.799  62.174  0.00  0.00     0.028 H 
ENDBRANCH  40  42
BRANCH  40  46
ATOM     46  C3  QHG d   1      11.287  21.760  65.359  0.00  0.00    -0.072 C 
ATOM     47  H5  QHG d   1      11.759  22.647  65.807  0.00  0.00     0.028 H 
ATOM     48  H6  QHG d   1      11.871  20.864  65.618  0.00  0.00     0.028 H 
ATOM     49  H7  QHG d   1      10.263  21.654  65.746  0.00  0.00     0.028 H 
ENDBRANCH  40  46
ENDBRANCH  37  40
ENDBRANCH   1  37
BRANCH   6  50
ATOM     50  O26 QHG d   1      17.866  27.659  64.674  0.00  0.00    -0.361 OA
ATOM     51  H25 QHG d   1      18.237  27.656  65.549  0.00  0.00     0.217 HD
ENDBRANCH   6  50
TORSDOF 8
