REMARK  9 active torsions:
REMARK  status: ('A' for Active; 'I' for Inactive)
REMARK    1  A    between atoms: C1_1  and  C2_2 
REMARK    2  A    between atoms: C2_2  and  C3_3 
REMARK    3  A    between atoms: C2_2  and  C4_4 
REMARK    4  A    between atoms: C4_4  and  N5_5 
REMARK    5  A    between atoms: C10_10  and  O27_27 
REMARK    6  A    between atoms: C14_14  and  C15_15 
REMARK    7  A    between atoms: C14_14  and  C16_16 
REMARK    8  A    between atoms: C19_19  and  C22_22 
REMARK    9  A    between atoms: C23_23  and  C24_24 
ROOT
ATOM      1  N5  J0W d   1      13.249  23.080  64.158  0.00  0.00    -0.053 N 
ATOM      2  C6  J0W d   1      12.852  24.307  63.353  0.00  0.00     0.089 C 
ATOM      3  C7  J0W d   1      13.434  25.561  64.031  0.00  0.00    -0.018 C 
ATOM      4  C8  J0W d   1      14.954  25.389  64.295  0.00  0.00    -0.045 A 
ATOM      5  C9  J0W d   1      15.681  26.563  64.464  0.00  0.00    -0.044 A 
ATOM      6  C10 J0W d   1      17.029  26.408  64.736  0.00  0.00     0.066 A 
ATOM      7  C11 J0W d   1      17.630  25.188  64.818  0.00  0.00    -0.050 A 
ATOM      8  C12 J0W d   1      16.929  24.010  64.629  0.00  0.00    -0.071 A 
ATOM      9  C13 J0W d   1      15.540  24.154  64.355  0.00  0.00    -0.011 A 
ATOM     10  C14 J0W d   1      14.757  22.871  64.182  0.00  0.00     0.178 C 
ATOM     11  H10 J0W d   1      12.957  23.227  65.112  0.00  0.00     0.281 HD
ATOM     12  H11 J0W d   1      11.755  24.384  63.315  0.00  0.00     0.076 H 
ATOM     13  H12 J0W d   1      13.250  24.222  62.331  0.00  0.00     0.076 H 
ATOM     14  H13 J0W d   1      12.918  25.726  64.988  0.00  0.00     0.042 H 
ATOM     15  H14 J0W d   1      13.278  26.431  63.376  0.00  0.00     0.042 H 
ATOM     16  H15 J0W d   1      15.219  27.541  64.387  0.00  0.00     0.088 H 
ATOM     17  H16 J0W d   1      18.690  25.139  65.038  0.00  0.00     0.087 H 
ATOM     18  H17 J0W d   1      17.408  23.039  64.686  0.00  0.00     0.084 H 
ENDROOT
BRANCH  10  19
ATOM     19  C15 J0W d   1      15.173  22.279  62.811  0.00  0.00    -0.037 C 
ATOM     20  H18 J0W d   1      16.261  22.116  62.797  0.00  0.00     0.031 H 
ATOM     21  H19 J0W d   1      14.897  22.980  62.010  0.00  0.00     0.031 H 
ATOM     22  H20 J0W d   1      14.657  21.321  62.654  0.00  0.00     0.031 H 
ENDBRANCH  10  19
BRANCH  10  23
ATOM     23  C16 J0W d   1      15.008  21.987  65.377  0.00  0.00    -0.018 A 
ATOM     24  C17 J0W d   1      15.507  20.700  65.196  0.00  0.00    -0.073 A 
ATOM     25  C18 J0W d   1      15.684  19.893  66.316  0.00  0.00    -0.072 A 
ATOM     26  H21 J0W d   1      15.752  20.335  64.205  0.00  0.00     0.084 H 
ATOM     27  C19 J0W d   1      15.408  20.370  67.596  0.00  0.00    -0.036 A 
ATOM     28  H22 J0W d   1      16.042  18.878  66.191  0.00  0.00     0.084 H 
ATOM     29  C20 J0W d   1      14.927  21.634  67.763  0.00  0.00    -0.072 A 
ATOM     30  C21 J0W d   1      14.695  22.478  66.650  0.00  0.00    -0.073 A 
ATOM     31  H23 J0W d   1      14.719  21.999  68.762  0.00  0.00     0.084 H 
ATOM     32  H24 J0W d   1      14.287  23.474  66.780  0.00  0.00     0.084 H 
BRANCH  27  33
ATOM     33  C22 J0W d   1      15.645  19.475  68.790  0.00  0.00    -0.067 C 
ATOM     34  C23 J0W d   1      15.968  20.082  69.959  0.00  0.00    -0.009 C 
ATOM     35  H26 J0W d   1      16.096  21.153  70.109  0.00  0.00     0.094 H 
ATOM     36  H25 J0W d   1      15.560  18.392  68.715  0.00  0.00     0.085 H 
BRANCH  34  37
ATOM     37  C24 J0W d   1      16.124  18.980  71.052  0.00  0.00     0.198 C 
ATOM     38  O25 J0W d   1      16.461  19.363  72.204  0.00  0.00    -0.645 OA
ATOM     39  O26 J0W d   1      15.818  17.807  70.682  0.00  0.00    -0.645 OA
ENDBRANCH  34  37
ENDBRANCH  27  33
ENDBRANCH  10  23
BRANCH   1  40
ATOM     40  C4  J0W d   1      12.518  21.933  63.645  0.00  0.00     0.088 C 
ATOM     41  H8  J0W d   1      12.382  22.050  62.560  0.00  0.00     0.076 H 
ATOM     42  H9  J0W d   1      13.097  21.020  63.845  0.00  0.00     0.076 H 
BRANCH  40  43
ATOM     43  C2  J0W d   1      11.112  21.806  64.326  0.00  0.00    -0.038 C 
ATOM     44  H4  J0W d   1      10.493  22.689  64.109  0.00  0.00     0.041 H 
BRANCH  43  45
ATOM     45  C1  J0W d   1      11.246  21.622  65.850  0.00  0.00    -0.072 C 
ATOM     46  H1  J0W d   1      10.245  21.536  66.298  0.00  0.00     0.028 H 
ATOM     47  H2  J0W d   1      11.767  22.490  66.280  0.00  0.00     0.028 H 
ATOM     48  H3  J0W d   1      11.821  20.708  66.060  0.00  0.00     0.028 H 
ENDBRANCH  43  45
BRANCH  43  49
ATOM     49  C3  J0W d   1      10.502  20.544  63.722  0.00  0.00    -0.072 C 
ATOM     50  H5  J0W d   1      10.404  20.669  62.634  0.00  0.00     0.028 H 
ATOM     51  H6  J0W d   1       9.509  20.370  64.162  0.00  0.00     0.028 H 
ATOM     52  H7  J0W d   1      11.154  19.684  63.935  0.00  0.00     0.028 H 
ENDBRANCH  43  49
ENDBRANCH  40  43
ENDBRANCH   1  40
BRANCH   6  53
ATOM     53  O27 J0W d   1      17.765  27.549  64.967  0.00  0.00    -0.361 OA
ATOM     54  H27 J0W d   1      18.119  27.523  65.848  0.00  0.00     0.217 HD
ENDBRANCH   6  53
TORSDOF 9
