REMARK  9 active torsions:
REMARK  status: ('A' for Active; 'I' for Inactive)
REMARK    1  A    between atoms: C1_1  and  C2_2 
REMARK    2  A    between atoms: C3_3  and  O27_27 
REMARK    3  A    between atoms: N10_10  and  C23_23 
REMARK    4  A    between atoms: C11_11  and  C12_12 
REMARK    5  A    between atoms: C15_15  and  C18_18 
REMARK    6  A    between atoms: C19_19  and  C20_20 
REMARK    7  A    between atoms: C23_23  and  C24_24 
REMARK    8  A    between atoms: C24_24  and  C25_25 
REMARK    9  A    between atoms: C24_24  and  C26_26 
ROOT
ATOM      1  C2  7QN d   1      15.516  26.077  64.613  0.00  0.00    -0.022 A 
ATOM      2  C3  7QN d   1      16.843  26.073  64.979  0.00  0.00     0.072 A 
ATOM      3  C4  7QN d   1      17.498  24.882  65.170  0.00  0.00    -0.050 A 
ATOM      4  C5  7QN d   1      16.816  23.692  65.016  0.00  0.00    -0.071 A 
ATOM      5  C6  7QN d   1      15.472  23.680  64.653  0.00  0.00    -0.016 A 
ATOM      6  C7  7QN d   1      14.816  24.895  64.461  0.00  0.00    -0.039 A 
ATOM      7  C8  7QN d   1      13.368  24.955  64.047  0.00  0.00    -0.017 C 
ATOM      8  C9  7QN d   1      12.996  23.627  63.352  0.00  0.00     0.088 C 
ATOM      9  N10 7QN d   1      13.314  22.504  64.299  0.00  0.00    -0.058 N 
ATOM     10  C11 7QN d   1      14.773  22.358  64.538  0.00  0.00     0.155 C 
ATOM     11  H4  7QN d   1      18.548  24.876  65.441  0.00  0.00     0.087 H 
ATOM     12  H5  7QN d   1      17.334  22.754  65.180  0.00  0.00     0.084 H 
ATOM     13  H6  7QN d   1      13.217  25.793  63.350  0.00  0.00     0.042 H 
ATOM     14  H7  7QN d   1      12.735  25.098  64.935  0.00  0.00     0.042 H 
ATOM     15  H8  7QN d   1      13.581  23.513  62.427  0.00  0.00     0.076 H 
ATOM     16  H9  7QN d   1      11.923  23.619  63.111  0.00  0.00     0.076 H 
ATOM     17  H10 7QN d   1      12.899  22.774  65.177  0.00  0.00     0.281 HD
ATOM     18  H11 7QN d   1      15.214  21.789  63.706  0.00  0.00     0.100 H 
ENDROOT
BRANCH  10  19
ATOM     19  C12 7QN d   1      14.982  21.617  65.830  0.00  0.00    -0.023 A 
ATOM     20  C13 7QN d   1      15.481  20.330  65.749  0.00  0.00    -0.074 A 
ATOM     21  C14 7QN d   1      15.711  19.598  66.908  0.00  0.00    -0.072 A 
ATOM     22  H12 7QN d   1      15.693  19.892  64.781  0.00  0.00     0.084 H 
ATOM     23  C15 7QN d   1      15.444  20.178  68.135  0.00  0.00    -0.036 A 
ATOM     24  H13 7QN d   1      16.095  18.586  66.851  0.00  0.00     0.084 H 
ATOM     25  C16 7QN d   1      14.916  21.443  68.236  0.00  0.00    -0.072 A 
ATOM     26  C17 7QN d   1      14.670  22.187  67.063  0.00  0.00    -0.074 A 
ATOM     27  H14 7QN d   1      14.691  21.865  69.209  0.00  0.00     0.084 H 
ATOM     28  H15 7QN d   1      14.246  23.183  67.120  0.00  0.00     0.084 H 
BRANCH  23  29
ATOM     29  C18 7QN d   1      15.673  19.379  69.367  0.00  0.00    -0.067 C 
ATOM     30  C19 7QN d   1      16.037  20.014  70.488  0.00  0.00    -0.009 C 
ATOM     31  H17 7QN d   1      16.209  21.086  70.567  0.00  0.00     0.094 H 
ATOM     32  H16 7QN d   1      15.547  18.297  69.358  0.00  0.00     0.085 H 
BRANCH  30  33
ATOM     33  C20 7QN d   1      16.177  19.014  71.648  0.00  0.00     0.198 C 
ATOM     34  O21 7QN d   1      15.702  17.869  71.408  0.00  0.00    -0.645 OA
ATOM     35  O22 7QN d   1      16.642  19.428  72.730  0.00  0.00    -0.645 OA
ENDBRANCH  30  33
ENDBRANCH  23  29
ENDBRANCH  10  19
BRANCH   9  36
ATOM     36  C23 7QN d   1      12.752  21.159  63.977  0.00  0.00     0.087 C 
ATOM     37  H18 7QN d   1      13.277  20.393  64.566  0.00  0.00     0.076 H 
ATOM     38  H19 7QN d   1      12.887  20.954  62.905  0.00  0.00     0.076 H 
BRANCH  36  39
ATOM     39  C24 7QN d   1      11.257  21.127  64.317  0.00  0.00    -0.038 C 
ATOM     40  H20 7QN d   1      10.797  21.930  63.723  0.00  0.00     0.041 H 
BRANCH  39  41
ATOM     41  C25 7QN d   1      10.931  21.425  65.776  0.00  0.00    -0.072 C 
ATOM     42  H21 7QN d   1       9.842  21.380  65.925  0.00  0.00     0.028 H 
ATOM     43  H22 7QN d   1      11.295  22.430  66.035  0.00  0.00     0.028 H 
ATOM     44  H23 7QN d   1      11.420  20.680  66.421  0.00  0.00     0.028 H 
ENDBRANCH  39  41
BRANCH  39  45
ATOM     45  C26 7QN d   1      10.586  19.840  63.906  0.00  0.00    -0.072 C 
ATOM     46  H24 7QN d   1      10.821  19.624  62.853  0.00  0.00     0.028 H 
ATOM     47  H25 7QN d   1       9.497  19.940  64.026  0.00  0.00     0.028 H 
ATOM     48  H26 7QN d   1      10.951  19.018  64.539  0.00  0.00     0.028 H 
ENDBRANCH  39  45
ENDBRANCH  36  39
ENDBRANCH   9  36
BRANCH   1  49
ATOM     49  C1  7QN d   1      14.778  27.353  64.422  0.00  0.00    -0.048 C 
ATOM     50  H1  7QN d   1      15.464  28.200  64.575  0.00  0.00     0.033 H 
ATOM     51  H2  7QN d   1      13.954  27.413  65.149  0.00  0.00     0.033 H 
ATOM     52  H3  7QN d   1      14.370  27.391  63.401  0.00  0.00     0.033 H 
ENDBRANCH   1  49
BRANCH   2  53
ATOM     53  O27 7QN d   1      17.545  27.274  65.180  0.00  0.00    -0.360 OA
ATOM     54  H27 7QN d   1      17.855  27.312  66.077  0.00  0.00     0.217 HD
ENDBRANCH   2  53
TORSDOF 9
