REMARK  9 active torsions:
REMARK  status: ('A' for Active; 'I' for Inactive)
REMARK    1  A    between atoms: C1_1  and  C2_2 
REMARK    2  A    between atoms: C7_7  and  O8_8 
REMARK    3  A    between atoms: N11_11  and  C24_24 
REMARK    4  A    between atoms: C12_12  and  C13_13 
REMARK    5  A    between atoms: C16_16  and  C19_19 
REMARK    6  A    between atoms: C20_20  and  C21_21 
REMARK    7  A    between atoms: C24_24  and  C25_25 
REMARK    8  A    between atoms: C25_25  and  C26_26 
REMARK    9  A    between atoms: C25_25  and  C27_27 
ROOT
ATOM      1  C2  VQI d   1      17.528  25.330  64.535  0.00  0.00    -0.028 A 
ATOM      2  C3  VQI d   1      16.863  24.157  64.379  0.00  0.00    -0.066 A 
ATOM      3  C4  VQI d   1      15.445  24.274  64.166  0.00  0.00    -0.016 A 
ATOM      4  C5  VQI d   1      14.886  25.504  64.223  0.00  0.00    -0.045 A 
ATOM      5  C6  VQI d   1      15.565  26.718  64.371  0.00  0.00    -0.044 A 
ATOM      6  C7  VQI d   1      16.948  26.588  64.594  0.00  0.00     0.072 A 
ATOM      7  C9  VQI d   1      13.359  25.690  64.064  0.00  0.00    -0.018 C 
ATOM      8  C10 VQI d   1      12.854  24.493  63.267  0.00  0.00     0.088 C 
ATOM      9  N11 VQI d   1      13.136  23.259  64.039  0.00  0.00    -0.058 N 
ATOM     10  C12 VQI d   1      14.641  23.073  64.113  0.00  0.00     0.155 C 
ATOM     11  H4  VQI d   1      17.366  23.197  64.413  0.00  0.00     0.085 H 
ATOM     12  H5  VQI d   1      15.067  27.679  64.318  0.00  0.00     0.088 H 
ATOM     13  H7  VQI d   1      13.145  26.623  63.523  0.00  0.00     0.042 H 
ATOM     14  H8  VQI d   1      12.876  25.719  65.052  0.00  0.00     0.042 H 
ATOM     15  H9  VQI d   1      13.370  24.449  62.297  0.00  0.00     0.076 H 
ATOM     16  H10 VQI d   1      11.771  24.588  63.102  0.00  0.00     0.076 H 
ATOM     17  H11 VQI d   1      12.772  23.387  64.970  0.00  0.00     0.281 HD
ATOM     18  H12 VQI d   1      14.940  22.563  63.185  0.00  0.00     0.100 H 
ENDROOT
BRANCH  10  19
ATOM     19  C13 VQI d   1      14.907  22.133  65.242  0.00  0.00    -0.023 A 
ATOM     20  C14 VQI d   1      14.731  22.663  66.567  0.00  0.00    -0.074 A 
ATOM     21  C15 VQI d   1      14.960  21.841  67.718  0.00  0.00    -0.072 A 
ATOM     22  H13 VQI d   1      14.422  23.694  66.696  0.00  0.00     0.084 H 
ATOM     23  C16 VQI d   1      15.366  20.529  67.519  0.00  0.00    -0.036 A 
ATOM     24  H14 VQI d   1      14.820  22.234  68.719  0.00  0.00     0.084 H 
ATOM     25  C17 VQI d   1      15.536  20.047  66.182  0.00  0.00    -0.072 A 
ATOM     26  C18 VQI d   1      15.304  20.841  65.014  0.00  0.00    -0.074 A 
ATOM     27  H15 VQI d   1      15.859  19.021  66.046  0.00  0.00     0.084 H 
ATOM     28  H16 VQI d   1      15.434  20.446  64.013  0.00  0.00     0.084 H 
BRANCH  23  29
ATOM     29  C19 VQI d   1      15.590  19.522  68.628  0.00  0.00    -0.067 C 
ATOM     30  C20 VQI d   1      15.985  19.954  69.842  0.00  0.00    -0.009 C 
ATOM     31  H18 VQI d   1      16.171  21.009  70.040  0.00  0.00     0.094 H 
ATOM     32  H17 VQI d   1      15.434  18.460  68.446  0.00  0.00     0.085 H 
BRANCH  30  33
ATOM     33  C21 VQI d   1      16.156  18.916  70.903  0.00  0.00     0.198 C 
ATOM     34  O22 VQI d   1      15.886  17.715  70.697  0.00  0.00    -0.645 OA
ATOM     35  O23 VQI d   1      16.549  19.352  72.084  0.00  0.00    -0.645 OA
ENDBRANCH  30  33
ENDBRANCH  23  29
ENDBRANCH  10  19
BRANCH   9  36
ATOM     36  C24 VQI d   1      12.539  22.031  63.486  0.00  0.00     0.087 C 
ATOM     37  H19 VQI d   1      13.213  21.182  63.672  0.00  0.00     0.076 H 
ATOM     38  H20 VQI d   1      12.393  22.152  62.403  0.00  0.00     0.076 H 
BRANCH  36  39
ATOM     39  C25 VQI d   1      11.120  21.748  64.186  0.00  0.00    -0.038 C 
ATOM     40  H21 VQI d   1      10.468  22.606  63.965  0.00  0.00     0.041 H 
BRANCH  39  41
ATOM     41  C26 VQI d   1      11.215  21.600  65.729  0.00  0.00    -0.072 C 
ATOM     42  H22 VQI d   1      10.213  21.409  66.141  0.00  0.00     0.028 H 
ATOM     43  H23 VQI d   1      11.619  22.527  66.162  0.00  0.00     0.028 H 
ATOM     44  H24 VQI d   1      11.880  20.759  65.977  0.00  0.00     0.028 H 
ENDBRANCH  39  41
BRANCH  39  45
ATOM     45  C27 VQI d   1      10.470  20.501  63.640  0.00  0.00    -0.072 C 
ATOM     46  H25 VQI d   1      10.390  20.578  62.546  0.00  0.00     0.028 H 
ATOM     47  H26 VQI d   1       9.466  20.391  64.075  0.00  0.00     0.028 H 
ATOM     48  H27 VQI d   1      11.081  19.624  63.901  0.00  0.00     0.028 H 
ENDBRANCH  39  45
ENDBRANCH  36  39
ENDBRANCH   9  36
BRANCH   1  49
ATOM     49  C1  VQI d   1      19.089  25.116  64.663  0.00  0.00    -0.049 C 
ATOM     50  H1  VQI d   1      19.319  24.043  64.588  0.00  0.00     0.033 H 
ATOM     51  H2  VQI d   1      19.433  25.497  65.636  0.00  0.00     0.033 H 
ATOM     52  H3  VQI d   1      19.601  25.659  63.855  0.00  0.00     0.033 H 
ENDBRANCH   1  49
BRANCH   6  53
ATOM     53  O8  VQI d   1      17.713  27.706  64.797  0.00  0.00    -0.360 OA
ATOM     54  H6  VQI d   1      18.618  27.449  64.931  0.00  0.00     0.217 HD
ENDBRANCH   6  53
TORSDOF 9
