REMARK  7 active torsions:
REMARK  status: ('A' for Active; 'I' for Inactive)
REMARK    1  A    between atoms: O4_1  and  C4_2 
REMARK    2  A    between atoms: C3_3  and  O3_4 
REMARK    3  A    between atoms: C2_5  and  O2_6 
REMARK    4  A    between atoms: O2_6  and  C7_7 
REMARK    5  A    between atoms: C5_8  and  C6_9 
REMARK    6  A    between atoms: C1_11  and  SE_12 
REMARK    7  A    between atoms: SE_12  and  C8_13 
ROOT
ATOM      1  C4  6YR d   1     -27.000  -2.135  54.675  0.00  0.00     0.087 C 
ATOM      2  C3  6YR d   1     -25.591  -2.730  54.499  0.00  0.00     0.090 C 
ATOM      3  C2  6YR d   1     -24.588  -1.604  54.453  0.00  0.00     0.092 C 
ATOM      4  C5  6YR d   1     -27.046  -1.043  55.686  0.00  0.00     0.063 C 
ATOM      5  O5  6YR d   1     -25.998  -0.067  55.622  0.00  0.00    -0.373 OA
ATOM      6  C1  6YR d   1     -24.774  -0.802  55.703  0.00  0.00     0.094 C 
ATOM      7  H2  6YR d   1     -27.667  -2.937  55.025  0.00  0.00     0.091 H 
ATOM      8  H3  6YR d   1     -25.362  -3.326  55.395  0.00  0.00     0.091 H 
ATOM      9  H5  6YR d   1     -24.754  -0.961  53.576  0.00  0.00     0.091 H 
ATOM     10  H9  6YR d   1     -26.951  -1.522  56.672  0.00  0.00     0.086 H 
ATOM     11  H13 6YR d   1     -24.747  -1.456  56.587  0.00  0.00     0.091 H 
ENDROOT
BRANCH   3  12
ATOM     12  O2  6YR d   1     -23.309  -2.230  54.357  0.00  0.00    -0.385 OA
BRANCH  12  13
ATOM     13  C7  6YR d   1     -22.541  -1.948  53.230  0.00  0.00     0.005 C 
ATOM     14  H6  6YR d   1     -21.588  -2.495  53.289  0.00  0.00     0.066 H 
ATOM     15  H7  6YR d   1     -22.341  -0.867  53.183  0.00  0.00     0.066 H 
ATOM     16  H8  6YR d   1     -23.087  -2.259  52.327  0.00  0.00     0.066 H 
ENDBRANCH  12  13
ENDBRANCH   3  12
BRANCH   2  17
ATOM     17  O3  6YR d   1     -25.558  -3.585  53.448  0.00  0.00    -0.390 OA
ATOM     18  H4  6YR d   1     -24.681  -3.940  53.357  0.00  0.00     0.210 HD
ENDBRANCH   2  17
BRANCH   6  19
ATOM     19 SE   6YR d   1     -23.415   0.602  55.798  0.00  0.00     0.000 Se
BRANCH  19  20
ATOM     20  C8  6YR d   1     -23.780   1.449  54.245  0.00  0.00    -0.080 C 
ATOM     21  H18 6YR d   1     -23.092   2.298  54.120  0.00  0.00     0.027 H 
ATOM     22  H19 6YR d   1     -24.817   1.816  54.263  0.00  0.00     0.027 H 
ATOM     23  H20 6YR d   1     -23.653   0.748  53.407  0.00  0.00     0.027 H 
ENDBRANCH  19  20
ENDBRANCH   6  19
BRANCH   1  24
ATOM     24  O4  6YR d   1     -27.467  -1.685  53.392  0.00  0.00    -0.390 OA
ATOM     25  H1  6YR d   1     -26.874  -1.024  53.055  0.00  0.00     0.210 HD
ENDBRANCH   1  24
BRANCH   4  26
ATOM     26  C6  6YR d   1     -28.402  -0.417  55.618  0.00  0.00    -0.050 C 
ATOM     27  H10 6YR d   1     -28.468   0.396  56.356  0.00  0.00     0.031 H 
ATOM     28  H11 6YR d   1     -29.168  -1.175  55.839  0.00  0.00     0.031 H 
ATOM     29  H12 6YR d   1     -28.568  -0.011  54.609  0.00  0.00     0.031 H 
ENDBRANCH   4  26
TORSDOF 7
