REMARK  3 active torsions:
REMARK  status: ('A' for Active; 'I' for Inactive)
REMARK    1  A    between atoms: N3_7  and  C6_8 
REMARK    2  A    between atoms: C1_11  and  N_12 
REMARK    3  A    between atoms: N_12  and  C_13 
ROOT
ATOM      1  O   UAN d   1      17.462  19.573   6.199  0.00  0.00    -0.265 OA
ATOM      2  C2  UAN d   1      17.038  20.152   5.183  0.00  0.00     0.292 A 
ATOM      3  N1  UAN d   1      17.818  21.051   4.463  0.00  0.00    -0.154 N 
ATOM      4  C3  UAN d   1      15.701  20.007   4.612  0.00  0.00     0.171 A 
ATOM      5  N4  UAN d   1      14.675  19.127   4.914  0.00  0.00    -0.234 NA
ATOM      6  C5  UAN d   1      13.742  19.429   4.036  0.00  0.00     0.068 A 
ATOM      7  N3  UAN d   1      14.148  20.320   3.097  0.00  0.00    -0.330 N 
ATOM      8  C4  UAN d   1      15.396  20.731   3.473  0.00  0.00     0.158 A 
ATOM      9  N2  UAN d   1      16.193  21.577   2.798  0.00  0.00    -0.174 N 
ATOM     10  C1  UAN d   1      17.380  21.733   3.356  0.00  0.00     0.682 A 
ATOM     11  H1  UAN d   1      18.756  21.210   4.771  0.00  0.00     0.187 HD
ATOM     12  H2  UAN d   1      12.740  19.004   4.061  0.00  0.00     0.143 H 
ATOM     13  H6  UAN d   1      15.907  22.056   1.932  0.00  0.00     0.186 HD
ENDROOT
BRANCH  10  14
ATOM     14  N   UAN d   1      18.276  22.497   2.734  0.00  0.00    -0.230 N 
ATOM     15  H7  UAN d   1      19.241  22.499   3.093  0.00  0.00     0.177 HD
BRANCH  14  16
ATOM     16  C   UAN d   1      17.976  23.328   1.580  0.00  0.00    -0.005 C 
ATOM     17  H8  UAN d   1      18.887  23.855   1.261  0.00  0.00     0.057 H 
ATOM     18  H9  UAN d   1      17.203  24.063   1.848  0.00  0.00     0.057 H 
ATOM     19  H10 UAN d   1      17.611  22.695   0.757  0.00  0.00     0.057 H 
ENDBRANCH  14  16
ENDBRANCH  10  14
BRANCH   7  20
ATOM     20  C6  UAN d   1      13.376  20.741   1.927  0.00  0.00    -0.012 C 
ATOM     21  H3  UAN d   1      12.408  20.218   1.919  0.00  0.00     0.057 H 
ATOM     22  H4  UAN d   1      13.934  20.494   1.012  0.00  0.00     0.057 H 
ATOM     23  H5  UAN d   1      13.206  21.827   1.971  0.00  0.00     0.057 H 
ENDBRANCH   7  20
TORSDOF 3
