REMARK  3 active torsions:
REMARK  status: ('A' for Active; 'I' for Inactive)
REMARK    1  A    between atoms: C10_2  and  C11_3 
REMARK       I    between atoms: C10_2  and  N5_4 
REMARK    2  A    between atoms: N5_4  and  C5_5 
REMARK    3  A    between atoms: N1_10  and  C1_11 
ROOT
ATOM      1  C5  N91 d   1      16.883  19.751   5.579  0.00  0.00     0.037 A 
ATOM      2  C4  N91 d   1      17.994  20.407   5.040  0.00  0.00    -0.027 A 
ATOM      3  C9  N91 d   1      17.811  21.301   3.986  0.00  0.00     0.087 A 
ATOM      4  N3  N91 d   1      18.736  22.021   3.234  0.00  0.00    -0.242 NA
ATOM      5  C2  N91 d   1      18.005  22.676   2.368  0.00  0.00     0.067 A 
ATOM      6  N1  N91 d   1      16.682  22.385   2.425  0.00  0.00    -0.344 N 
ATOM      7  C8  N91 d   1      16.527  21.528   3.495  0.00  0.00     0.064 A 
ATOM      8  C7  N91 d   1      15.411  20.879   4.012  0.00  0.00    -0.052 A 
ATOM      9  C6  N91 d   1      15.594  20.038   5.101  0.00  0.00    -0.055 A 
ATOM     10  H5  N91 d   1      18.986  20.223   5.437  0.00  0.00     0.090 H 
ATOM     11  H6  N91 d   1      18.423  23.393   1.663  0.00  0.00     0.143 H 
ATOM     12  H10 N91 d   1      14.428  21.025   3.578  0.00  0.00     0.087 H 
ATOM     13  H11 N91 d   1      14.732  19.598   5.588  0.00  0.00     0.087 H 
ENDROOT
BRANCH   1  14
ATOM     14  N5  N91 d   1      17.090  18.887   6.687  0.00  0.00    -0.327 N 
ATOM     15  C10 N91 d   1      16.318  17.830   7.098  0.00  0.00     0.218 C 
ATOM     16  O10 N91 d   1      15.204  17.598   6.648  0.00  0.00    -0.274 OA
ATOM     17  H4  N91 d   1      17.903  19.073   7.239  0.00  0.00     0.169 HD
BRANCH  15  18
ATOM     18  C11 N91 d   1      16.923  16.975   8.171  0.00  0.00    -0.003 C 
ATOM     19  H1  N91 d   1      17.922  17.359   8.426  0.00  0.00     0.040 H 
ATOM     20  H2  N91 d   1      17.009  15.940   7.810  0.00  0.00     0.040 H 
ATOM     21  H3  N91 d   1      16.282  16.999   9.064  0.00  0.00     0.040 H 
ENDBRANCH  15  18
ENDBRANCH   1  14
BRANCH   6  22
ATOM     22  C1  N91 d   1      15.617  22.950   1.605  0.00  0.00    -0.013 C 
ATOM     23  H7  N91 d   1      16.055  23.596   0.830  0.00  0.00     0.057 H 
ATOM     24  H8  N91 d   1      14.942  23.544   2.239  0.00  0.00     0.057 H 
ATOM     25  H9  N91 d   1      15.051  22.137   1.128  0.00  0.00     0.057 H 
ENDBRANCH   6  22
TORSDOF 3
