REMARK  9 active torsions:
REMARK  status: ('A' for Active; 'I' for Inactive)
REMARK    1  A    between atoms: C33_8  and  C32_9 
REMARK    2  A    between atoms: C32_9  and  C26_10 
REMARK    3  A    between atoms: C23_18  and  N22_19 
REMARK       I    between atoms: N22_19  and  C21_20 
REMARK    4  A    between atoms: C21_20  and  C9_22 
REMARK    5  A    between atoms: C8_23  and  N7_24 
REMARK    6  A    between atoms: N7_24  and  C6_25 
REMARK    7  A    between atoms: C3_28  and  O42_29 
REMARK    8  A    between atoms: C12_33  and  N14_36 
REMARK    9  A    between atoms: N17_39  and  C20_40 
ROOT
ATOM      1  C9  U4W d   1     -23.773   9.350  -7.001  0.00  0.00     0.058 C 
ATOM      2  C8  U4W d   1     -22.981   8.586  -6.106  0.00  0.00     0.045 C 
ATOM      3  C13 U4W d   1     -23.433   7.291  -5.767  0.00  0.00    -0.036 C 
ATOM      4  C12 U4W d   1     -24.642   6.860  -6.217  0.00  0.00     0.012 C 
ATOM      5  C11 U4W d   1     -25.450   7.638  -7.060  0.00  0.00    -0.061 C 
ATOM      6  C10 U4W d   1     -25.018   8.947  -7.406  0.00  0.00    -0.064 C 
ATOM      7  H23 U4W d   1     -22.819   6.644  -5.151  0.00  0.00     0.089 H 
ATOM      8  H24 U4W d   1     -26.387   7.248  -7.441  0.00  0.00     0.086 H 
ATOM      9  H25 U4W d   1     -25.658   9.610  -7.976  0.00  0.00     0.085 H 
ENDROOT
BRANCH   1  10
ATOM     10  C21 U4W d   1     -23.264  10.761  -7.398  0.00  0.00     0.259 C 
ATOM     11  N22 U4W d   1     -23.794  11.230  -8.530  0.00  0.00    -0.307 N 
ATOM     12  H10 U4W d   1     -24.509  10.676  -8.957  0.00  0.00     0.170 HD
ATOM     13  O41 U4W d   1     -22.510  11.414  -6.713  0.00  0.00    -0.267 OA
BRANCH  11  14
ATOM     14  C23 U4W d   1     -23.446  12.422  -9.177  0.00  0.00     0.137 A 
ATOM     15  N31 U4W d   1     -24.339  12.988  -9.985  0.00  0.00    -0.261 N 
ATOM     16  N30 U4W d   1     -23.719  14.107 -10.537  0.00  0.00    -0.172 NA
ATOM     17  H8  U4W d   1     -25.299  12.663 -10.167  0.00  0.00     0.191 HD
ATOM     18  C29 U4W d   1     -22.478  14.222 -10.024  0.00  0.00     0.091 A 
ATOM     19  C28 U4W d   1     -21.413  15.116 -10.299  0.00  0.00    -0.052 A 
ATOM     20  C24 U4W d   1     -22.198  13.166  -9.155  0.00  0.00     0.040 A 
ATOM     21  C27 U4W d   1     -20.157  15.081  -9.717  0.00  0.00    -0.074 A 
ATOM     22  H7  U4W d   1     -21.598  15.896 -11.029  0.00  0.00     0.087 H 
ATOM     23  C26 U4W d   1     -19.910  13.996  -8.791  0.00  0.00    -0.053 A 
ATOM     24  H6  U4W d   1     -19.401  15.825  -9.942  0.00  0.00     0.084 H 
ATOM     25  C25 U4W d   1     -20.942  13.075  -8.526  0.00  0.00    -0.061 A 
ATOM     26  H9  U4W d   1     -20.764  12.274  -7.818  0.00  0.00     0.086 H 
BRANCH  23  27
ATOM     27  C32 U4W d   1     -18.543  13.844  -8.193  0.00  0.00    -0.017 C 
ATOM     28  H4  U4W d   1     -17.920  14.716  -8.442  0.00  0.00     0.047 H 
ATOM     29  H5  U4W d   1     -18.615  13.745  -7.100  0.00  0.00     0.047 H 
BRANCH  27  30
ATOM     30  C33 U4W d   1     -17.945  12.577  -8.800  0.00  0.00    -0.048 A 
ATOM     31  C38 U4W d   1     -17.534  12.529 -10.160  0.00  0.00    -0.039 A 
ATOM     32  C37 U4W d   1     -17.023  11.320 -10.683  0.00  0.00     0.119 A 
ATOM     33  H2  U4W d   1     -17.612  13.409 -10.788  0.00  0.00     0.089 H 
ATOM     34  C36 U4W d   1     -16.928  10.160  -9.918  0.00  0.00    -0.009 A 
ATOM     35  F39 U4W d   1     -16.622  11.310 -11.950  0.00  0.00    -0.206 F 
ATOM     36  C35 U4W d   1     -17.367  10.213  -8.623  0.00  0.00     0.119 A 
ATOM     37  H1  U4W d   1     -16.520   9.246 -10.334  0.00  0.00     0.092 H 
ATOM     38  F40 U4W d   1     -17.317   9.046  -7.873  0.00  0.00    -0.206 F 
ATOM     39  C34 U4W d   1     -17.905  11.396  -8.049  0.00  0.00    -0.039 A 
ATOM     40  H3  U4W d   1     -18.283  11.384  -7.033  0.00  0.00     0.089 H 
ENDBRANCH  27  30
ENDBRANCH  23  27
ENDBRANCH  11  14
ENDBRANCH   1  10
BRANCH   2  41
ATOM     41  N7  U4W d   1     -21.805   9.081  -5.689  0.00  0.00    -0.384 N 
ATOM     42  H11 U4W d   1     -21.609  10.066  -5.915  0.00  0.00     0.160 HD
BRANCH  41  43
ATOM     43  C6  U4W d   1     -20.769   8.353  -4.940  0.00  0.00     0.010 C 
ATOM     44  C1  U4W d   1     -19.916   7.596  -5.920  0.00  0.00    -0.044 C 
ATOM     45  C2  U4W d   1     -19.007   6.623  -5.131  0.00  0.00    -0.039 C 
ATOM     46  H13 U4W d   1     -19.296   8.300  -6.494  0.00  0.00     0.036 H 
ATOM     47  H14 U4W d   1     -20.558   7.028  -6.609  0.00  0.00     0.036 H 
ATOM     48  C3  U4W d   1     -18.036   7.614  -4.518  0.00  0.00     0.035 C 
ATOM     49  H15 U4W d   1     -18.498   5.910  -5.795  0.00  0.00     0.036 H 
ATOM     50  H16 U4W d   1     -19.568   6.072  -4.362  0.00  0.00     0.036 H 
ATOM     51  C4  U4W d   1     -18.744   8.502  -3.450  0.00  0.00    -0.039 C 
ATOM     52  H17 U4W d   1     -17.570   8.236  -5.297  0.00  0.00     0.082 H 
ATOM     53  C5  U4W d   1     -19.821   9.307  -4.208  0.00  0.00    -0.044 C 
ATOM     54  H19 U4W d   1     -18.020   9.183  -2.979  0.00  0.00     0.036 H 
ATOM     55  H20 U4W d   1     -19.211   7.872  -2.679  0.00  0.00     0.036 H 
ATOM     56  H21 U4W d   1     -20.395   9.912  -3.491  0.00  0.00     0.036 H 
ATOM     57  H22 U4W d   1     -19.334   9.969  -4.939  0.00  0.00     0.036 H 
ATOM     58  H12 U4W d   1     -21.244   7.667  -4.223  0.00  0.00     0.072 H 
BRANCH  48  59
ATOM     59  O42 U4W d   1     -17.041   6.820  -3.787  0.00  0.00    -0.396 OA
ATOM     60  H18 U4W d   1     -16.408   7.402  -3.384  0.00  0.00     0.210 HD
ENDBRANCH  48  59
ENDBRANCH  41  43
ENDBRANCH   2  41
BRANCH   4  61
ATOM     61  N14 U4W d   1     -25.146   5.522  -5.862  0.00  0.00    -0.280 NA
ATOM     62  C15 U4W d   1     -25.470   4.771  -7.040  0.00  0.00     0.006 C 
ATOM     63  C16 U4W d   1     -26.160   3.456  -6.622  0.00  0.00     0.094 C 
ATOM     64  H26 U4W d   1     -24.549   4.544  -7.598  0.00  0.00     0.058 H 
ATOM     65  H27 U4W d   1     -26.149   5.358  -7.677  0.00  0.00     0.058 H 
ATOM     66  N17 U4W d   1     -25.225   2.783  -5.734  0.00  0.00    -0.073 N 
ATOM     67  H28 U4W d   1     -26.365   2.833  -7.505  0.00  0.00     0.077 H 
ATOM     68  H29 U4W d   1     -27.102   3.668  -6.096  0.00  0.00     0.077 H 
ATOM     69  C18 U4W d   1     -24.956   3.605  -4.529  0.00  0.00     0.094 C 
ATOM     70  H30 U4W d   1     -24.356   2.634  -6.222  0.00  0.00     0.279 HD
ATOM     71  C19 U4W d   1     -24.163   4.833  -4.974  0.00  0.00     0.006 C 
ATOM     72  H34 U4W d   1     -24.370   3.024  -3.802  0.00  0.00     0.077 H 
ATOM     73  H35 U4W d   1     -25.905   3.918  -4.069  0.00  0.00     0.077 H 
ATOM     74  H36 U4W d   1     -23.886   5.464  -4.117  0.00  0.00     0.058 H 
ATOM     75  H37 U4W d   1     -23.256   4.546  -5.526  0.00  0.00     0.058 H 
BRANCH  66  76
ATOM     76  C20 U4W d   1     -25.810   1.451  -5.353  0.00  0.00     0.066 C 
ATOM     77  H31 U4W d   1     -25.117   0.925  -4.680  0.00  0.00     0.068 H 
ATOM     78  H32 U4W d   1     -25.970   0.848  -6.259  0.00  0.00     0.068 H 
ATOM     79  H33 U4W d   1     -26.771   1.606  -4.841  0.00  0.00     0.068 H 
ENDBRANCH  66  76
ENDBRANCH   4  61
TORSDOF 9
