REMARK  3 active torsions:
REMARK  status: ('A' for Active; 'I' for Inactive)
REMARK    1  A    between atoms: C04_4  and  C05_5 
REMARK       I    between atoms: C05_5  and  N07_7 
REMARK    2  A    between atoms: C10_10  and  N11_11 
REMARK       I    between atoms: N11_11  and  C12_12 
REMARK    3  A    between atoms: C12_12  and  C14_14 
ROOT
ATOM      1  N11 UV4 d   1      43.843  36.162  87.449  0.00  0.00    -0.323 N 
ATOM      2  C12 UV4 d   1      44.481  37.253  87.880  0.00  0.00     0.256 C 
ATOM      3  O13 UV4 d   1      45.360  37.781  87.233  0.00  0.00    -0.267 OA
ATOM      4  H5  UV4 d   1      42.967  35.927  87.871  0.00  0.00     0.169 HD
ENDROOT
BRANCH   1   5
ATOM      5  C10 UV4 d   1      44.324  35.354  86.465  0.00  0.00     0.035 A 
ATOM      6  C01 UV4 d   1      43.850  35.497  85.161  0.00  0.00    -0.057 A 
ATOM      7  C02 UV4 d   1      44.327  34.671  84.151  0.00  0.00    -0.080 A 
ATOM      8  H1  UV4 d   1      43.108  36.254  84.935  0.00  0.00     0.086 H 
ATOM      9  C03 UV4 d   1      45.278  33.692  84.434  0.00  0.00    -0.067 A 
ATOM     10  H2  UV4 d   1      43.958  34.788  83.138  0.00  0.00     0.083 H 
ATOM     11  C04 UV4 d   1      45.760  33.530  85.732  0.00  0.00     0.038 A 
ATOM     12  H3  UV4 d   1      45.645  33.052  83.639  0.00  0.00     0.085 H 
ATOM     13  C09 UV4 d   1      45.279  34.373  86.743  0.00  0.00    -0.042 A 
ATOM     14  H4  UV4 d   1      45.653  34.262  87.754  0.00  0.00     0.088 H 
BRANCH  11  15
ATOM     15  C05 UV4 d   1      46.789  32.461  86.026  0.00  0.00     0.302 C 
ATOM     16  O06 UV4 d   1      47.481  32.533  87.034  0.00  0.00    -0.263 OA
ATOM     17  N07 UV4 d   1      46.941  31.438  85.183  0.00  0.00    -0.054 NA
ATOM     18  O08 UV4 d   1      47.562  30.427  85.513  0.00  0.00    -0.058 OA
ENDBRANCH  11  15
ENDBRANCH   1   5
BRANCH   2  19
ATOM     19  C14 UV4 d   1      44.142  37.866  89.209  0.00  0.00     0.032 A 
ATOM     20  C15 UV4 d   1      42.941  37.578  89.848  0.00  0.00    -0.068 A 
ATOM     21  C16 UV4 d   1      42.645  38.155  91.080  0.00  0.00    -0.082 A 
ATOM     22  H6  UV4 d   1      42.232  36.901  89.385  0.00  0.00     0.085 H 
ATOM     23  C17 UV4 d   1      43.557  39.019  91.674  0.00  0.00    -0.083 A 
ATOM     24  H7  UV4 d   1      41.706  37.931  91.574  0.00  0.00     0.083 H 
ATOM     25  C18 UV4 d   1      44.762  39.305  91.039  0.00  0.00    -0.082 A 
ATOM     26  H8  UV4 d   1      43.330  39.471  92.633  0.00  0.00     0.083 H 
ATOM     27  C19 UV4 d   1      45.056  38.726  89.810  0.00  0.00    -0.068 A 
ATOM     28  H9  UV4 d   1      45.472  39.980  91.503  0.00  0.00     0.083 H 
ATOM     29  H10 UV4 d   1      45.998  38.944  89.320  0.00  0.00     0.085 H 
ENDBRANCH   2  19
TORSDOF 3
