REMARK  7 active torsions:
REMARK  status: ('A' for Active; 'I' for Inactive)
REMARK    1  A    between atoms: O01_1  and  C02_2 
REMARK    2  A    between atoms: O01_1  and  C19_19 
REMARK    3  A    between atoms: C02_2  and  C03_3 
REMARK       I    between atoms: C03_3  and  N05_5 
REMARK    4  A    between atoms: C08_8  and  N09_9 
REMARK    5  A    between atoms: N12_12  and  C15_15 
REMARK    6  A    between atoms: C15_15  and  C16_16 
REMARK    7  A    between atoms: C22_22  and  C25_25 
ROOT
ATOM      1  C03 SOF d   1      32.700  22.122   8.753  0.00  0.00     0.244 C 
ATOM      2  O04 SOF d   1      32.699  21.341   7.766  0.00  0.00    -0.271 OA
ATOM      3  N05 SOF d   1      31.560  22.183   9.575  0.00  0.00    -0.350 N 
ATOM      4  C06 SOF d   1      31.452  23.060  10.776  0.00  0.00    -0.001 C 
ATOM      5  C07 SOF d   1      30.228  22.935  11.733  0.00  0.00    -0.023 C 
ATOM      6  C08 SOF d   1      28.894  22.526  11.089  0.00  0.00     0.107 C 
ATOM      7  C17 SOF d   1      29.048  22.074   9.626  0.00  0.00    -0.023 C 
ATOM      8  C18 SOF d   1      30.370  21.378   9.312  0.00  0.00    -0.001 C 
ATOM      9  H3  SOF d   1      31.464  24.098  10.412  0.00  0.00     0.064 H 
ATOM     10  H4  SOF d   1      32.349  22.875  11.385  0.00  0.00     0.064 H 
ATOM     11  H5  SOF d   1      30.080  23.912  12.216  0.00  0.00     0.038 H 
ATOM     12  H6  SOF d   1      30.476  22.182  12.496  0.00  0.00     0.038 H 
ATOM     13  H7  SOF d   1      28.272  23.433  11.077  0.00  0.00     0.084 H 
ATOM     14  H23 SOF d   1      28.966  22.962   8.982  0.00  0.00     0.038 H 
ATOM     15  H24 SOF d   1      28.230  21.377   9.394  0.00  0.00     0.038 H 
ATOM     16  H25 SOF d   1      30.431  20.466   9.924  0.00  0.00     0.064 H 
ATOM     17  H26 SOF d   1      30.369  21.105   8.246  0.00  0.00     0.064 H 
ENDROOT
BRANCH   1  18
ATOM     18  C02 SOF d   1      34.022  22.955   8.983  0.00  0.00     0.099 C 
ATOM     19  H1  SOF d   1      33.736  23.907   9.454  0.00  0.00     0.089 H 
ATOM     20  H2  SOF d   1      34.659  22.382   9.673  0.00  0.00     0.089 H 
BRANCH  18  21
ATOM     21  O01 SOF d   1      34.819  23.269   7.810  0.00  0.00    -0.342 OA
BRANCH  21  22
ATOM     22  C19 SOF d   1      35.953  24.101   7.917  0.00  0.00     0.069 A 
ATOM     23  C20 SOF d   1      36.780  24.346   6.797  0.00  0.00    -0.050 A 
ATOM     24  C21 SOF d   1      37.939  25.197   6.879  0.00  0.00    -0.070 A 
ATOM     25  H27 SOF d   1      36.535  23.880   5.849  0.00  0.00     0.087 H 
ATOM     26  C22 SOF d   1      38.322  25.834   8.069  0.00  0.00    -0.026 A 
ATOM     27  H28 SOF d   1      38.538  25.351   5.988  0.00  0.00     0.085 H 
ATOM     28  C23 SOF d   1      37.475  25.581   9.177  0.00  0.00    -0.070 A 
ATOM     29  C24 SOF d   1      36.320  24.738   9.119  0.00  0.00    -0.050 A 
ATOM     30  H29 SOF d   1      37.716  26.053  10.123  0.00  0.00     0.085 H 
ATOM     31  H30 SOF d   1      35.721  24.588  10.010  0.00  0.00     0.087 H 
BRANCH  26  32
ATOM     32  C25 SOF d   1      39.533  26.735   8.140  0.00  0.00    -0.026 A 
ATOM     33  C26 SOF d   1      40.735  26.346   8.772  0.00  0.00    -0.072 A 
ATOM     34  C27 SOF d   1      41.862  27.202   8.840  0.00  0.00    -0.082 A 
ATOM     35  H31 SOF d   1      40.797  25.361   9.220  0.00  0.00     0.084 H 
ATOM     36  C28 SOF d   1      41.802  28.485   8.267  0.00  0.00    -0.083 A 
ATOM     37  H32 SOF d   1      42.768  26.869   9.332  0.00  0.00     0.083 H 
ATOM     38  C29 SOF d   1      40.614  28.897   7.634  0.00  0.00    -0.082 A 
ATOM     39  H33 SOF d   1      42.659  29.148   8.312  0.00  0.00     0.083 H 
ATOM     40  C30 SOF d   1      39.498  28.030   7.577  0.00  0.00    -0.072 A 
ATOM     41  H34 SOF d   1      40.554  29.883   7.188  0.00  0.00     0.083 H 
ATOM     42  H35 SOF d   1      38.592  28.368   7.088  0.00  0.00     0.084 H 
ENDBRANCH  26  32
ENDBRANCH  21  22
ENDBRANCH  18  21
ENDBRANCH   1  18
BRANCH   6  43
ATOM     43  N09 SOF d   1      28.119  21.479  11.881  0.00  0.00    -0.064 N 
ATOM     44  C10 SOF d   1      28.718  20.120  11.904  0.00  0.00     0.106 C 
ATOM     45  C11 SOF d   1      28.469  19.182  13.108  0.00  0.00     0.106 C 
ATOM     46  H9  SOF d   1      29.807  20.252  11.825  0.00  0.00     0.078 H 
ATOM     47  H10 SOF d   1      28.347  19.595  11.011  0.00  0.00     0.078 H 
ATOM     48  N12 SOF d   1      27.668  19.745  14.273  0.00  0.00    -0.068 N 
ATOM     49  H11 SOF d   1      29.451  18.877  13.498  0.00  0.00     0.078 H 
ATOM     50  H12 SOF d   1      27.932  18.298  12.734  0.00  0.00     0.078 H 
ATOM     51  C13 SOF d   1      27.067  21.074  14.189  0.00  0.00     0.106 C 
ATOM     52  H13 SOF d   1      28.355  19.831  15.006  0.00  0.00     0.280 HD
ATOM     53  C14 SOF d   1      27.753  21.993  13.233  0.00  0.00     0.106 C 
ATOM     54  H14 SOF d   1      27.097  21.531  15.189  0.00  0.00     0.078 H 
ATOM     55  H15 SOF d   1      26.021  20.961  13.869  0.00  0.00     0.078 H 
ATOM     56  H16 SOF d   1      27.089  22.857  13.082  0.00  0.00     0.078 H 
ATOM     57  H17 SOF d   1      28.684  22.326  13.716  0.00  0.00     0.078 H 
ATOM     58  H8  SOF d   1      27.247  21.366  11.388  0.00  0.00     0.280 HD
BRANCH  48  59
ATOM     59  C15 SOF d   1      26.636  18.790  14.797  0.00  0.00     0.080 C 
ATOM     60  H18 SOF d   1      26.345  18.070  14.018  0.00  0.00     0.075 H 
ATOM     61  H19 SOF d   1      25.745  19.335  15.143  0.00  0.00     0.075 H 
BRANCH  59  62
ATOM     62  C16 SOF d   1      27.309  18.078  15.957  0.00  0.00    -0.053 C 
ATOM     63  H20 SOF d   1      26.609  17.354  16.398  0.00  0.00     0.029 H 
ATOM     64  H21 SOF d   1      27.603  18.815  16.719  0.00  0.00     0.029 H 
ATOM     65  H22 SOF d   1      28.203  17.549  15.594  0.00  0.00     0.029 H 
ENDBRANCH  59  62
ENDBRANCH  48  59
ENDBRANCH   6  43
TORSDOF 7
