REMARK  4 active torsions:
REMARK  status: ('A' for Active; 'I' for Inactive)
REMARK    1  A    between atoms: C01_1  and  C02_2 
REMARK    2  A    between atoms: C01_1  and  N08_8 
REMARK    3  A    between atoms: C10_10  and  O13_13 
REMARK    4  A    between atoms: O13_13  and  C14_14 
ROOT
ATOM      1  N08 GZA d   1      86.656  59.391  10.869  0.00  0.00    -0.274 N 
ATOM      2  C09 GZA d   1      86.790  60.046  12.053  0.00  0.00     0.032 A 
ATOM      3  C10 GZA d   1      88.083  60.569  12.105  0.00  0.00     0.109 A 
ATOM      4  C11 GZA d   1      88.724  60.191  10.910  0.00  0.00     0.055 A 
ATOM      5  N12 GZA d   1      87.827  59.483  10.185  0.00  0.00    -0.182 NA
ATOM      6  H8  GZA d   1      86.026  60.145  12.822  0.00  0.00     0.118 H 
ATOM      7  H9  GZA d   1      89.748  60.424  10.623  0.00  0.00     0.121 H 
ENDROOT
BRANCH   3   8
ATOM      8  O13 GZA d   1      88.668  61.315  13.168  0.00  0.00    -0.305 OA
BRANCH   8   9
ATOM      9  C14 GZA d   1      88.148  62.609  13.306  0.00  0.00     0.183 A 
ATOM     10  N15 GZA d   1      88.820  63.517  14.185  0.00  0.00    -0.313 N 
ATOM     11  C16 GZA d   1      88.339  64.814  14.360  0.00  0.00     0.257 A 
ATOM     12  H11 GZA d   1      89.639  63.220  14.676  0.00  0.00     0.167 HD
ATOM     13  C17 GZA d   1      87.103  65.258  13.617  0.00  0.00     0.061 A 
ATOM     14  O24 GZA d   1      88.915  65.583  15.108  0.00  0.00    -0.267 OA
ATOM     15  C18 GZA d   1      86.598  66.584  13.784  0.00  0.00    -0.049 A 
ATOM     16  C22 GZA d   1      86.463  64.392  12.781  0.00  0.00     0.065 A 
ATOM     17  C19 GZA d   1      85.468  66.944  13.085  0.00  0.00     0.003 A 
ATOM     18  H12 GZA d   1      87.092  67.288  14.444  0.00  0.00     0.087 H 
ATOM     19  N20 GZA d   1      84.837  66.077  12.260  0.00  0.00    -0.271 NA
ATOM     20  H13 GZA d   1      85.074  67.947  13.198  0.00  0.00     0.114 H 
ATOM     21  C21 GZA d   1      85.304  64.832  12.100  0.00  0.00     0.028 A 
ATOM     22  H14 GZA d   1      84.785  64.150  11.437  0.00  0.00     0.118 H 
ATOM     23  N23 GZA d   1      86.969  63.034  12.600  0.00  0.00    -0.345 N 
ATOM     24  H15 GZA d   1      86.483  62.382  11.968  0.00  0.00     0.164 HD
ATOM     25  H10 GZA d   1      88.769  62.950  12.464  0.00  0.00     0.155 H 
ENDBRANCH   8   9
ENDBRANCH   3   8
BRANCH   1  26
ATOM     26  C01 GZA d   1      85.464  58.709  10.411  0.00  0.00     0.040 C 
ATOM     27  H1  GZA d   1      84.575  59.203  10.829  0.00  0.00     0.074 H 
ATOM     28  H2  GZA d   1      85.420  58.744   9.312  0.00  0.00     0.074 H 
BRANCH  26  29
ATOM     29  C02 GZA d   1      85.506  57.206  10.889  0.00  0.00    -0.038 A 
ATOM     30  C03 GZA d   1      84.609  56.759  11.880  0.00  0.00    -0.075 A 
ATOM     31  C04 GZA d   1      84.643  55.420  12.311  0.00  0.00    -0.082 A 
ATOM     32  H3  GZA d   1      83.892  57.448  12.311  0.00  0.00     0.084 H 
ATOM     33  C05 GZA d   1      85.564  54.535  11.761  0.00  0.00    -0.083 A 
ATOM     34  H4  GZA d   1      83.951  55.078  13.072  0.00  0.00     0.083 H 
ATOM     35  C06 GZA d   1      86.463  54.978  10.772  0.00  0.00    -0.082 A 
ATOM     36  H5  GZA d   1      85.590  53.504  12.094  0.00  0.00     0.083 H 
ATOM     37  C07 GZA d   1      86.429  56.325  10.338  0.00  0.00    -0.075 A 
ATOM     38  H6  GZA d   1      87.181  54.288  10.343  0.00  0.00     0.083 H 
ATOM     39  H7  GZA d   1      87.121  56.669   9.578  0.00  0.00     0.084 H 
ENDBRANCH  26  29
ENDBRANCH   1  26
TORSDOF 4
