REMARK  3 active torsions:
REMARK  status: ('A' for Active; 'I' for Inactive)
REMARK    1  A    between atoms: C9_9  and  C11_11 
REMARK    2  A    between atoms: C11_11  and  N12_12 
REMARK    3  A    between atoms: N20_20  and  O23_23 
ROOT
ATOM      1  C11 R3Z d   1     -17.549  -2.980   0.153  0.00  0.00     0.031 C 
ATOM      2  H8  R3Z d   1     -18.182  -2.974  -0.747  0.00  0.00     0.069 H 
ATOM      3  H9  R3Z d   1     -17.238  -1.952   0.390  0.00  0.00     0.069 H 
ENDROOT
BRANCH   1   4
ATOM      4  C9  R3Z d   1     -16.280  -3.809  -0.156  0.00  0.00     0.082 C 
ATOM      5  C8  R3Z d   1     -15.568  -4.282   1.129  0.00  0.00     0.052 C 
ATOM      6  O7  R3Z d   1     -14.417  -5.076   0.802  0.00  0.00    -0.346 OA
ATOM      7  H5  R3Z d   1     -15.249  -3.404   1.710  0.00  0.00     0.079 H 
ATOM      8  H6  R3Z d   1     -16.266  -4.885   1.728  0.00  0.00     0.079 H 
ATOM      9  C5  R3Z d   1     -14.597  -6.062  -0.118  0.00  0.00     0.102 A 
ATOM     10  C4  R3Z d   1     -15.680  -6.003  -1.005  0.00  0.00     0.102 A 
ATOM     11  C6  R3Z d   1     -13.695  -7.125  -0.171  0.00  0.00    -0.048 A 
ATOM     12  C3  R3Z d   1     -15.844  -7.025  -1.942  0.00  0.00    -0.048 A 
ATOM     13  O10 R3Z d   1     -16.582  -4.964  -0.963  0.00  0.00    -0.339 OA
ATOM     14  C2  R3Z d   1     -14.944  -8.084  -1.991  0.00  0.00    -0.080 A 
ATOM     15  H3  R3Z d   1     -16.677  -6.993  -2.635  0.00  0.00     0.087 H 
ATOM     16  C1  R3Z d   1     -13.869  -8.134  -1.110  0.00  0.00    -0.080 A 
ATOM     17  H2  R3Z d   1     -15.081  -8.875  -2.720  0.00  0.00     0.083 H 
ATOM     18  H1  R3Z d   1     -13.168  -8.959  -1.156  0.00  0.00     0.083 H 
ATOM     19  H4  R3Z d   1     -12.860  -7.164   0.519  0.00  0.00     0.087 H 
ATOM     20  H7  R3Z d   1     -15.588  -3.164  -0.718  0.00  0.00     0.090 H 
ENDBRANCH   1   4
BRANCH   1  21
ATOM     21  N12 R3Z d   1     -18.362  -3.489   1.286  0.00  0.00    -0.294 N 
ATOM     22  C13 R3Z d   1     -19.292  -4.521   1.051  0.00  0.00     0.062 A 
ATOM     23  C14 R3Z d   1     -19.601  -5.185  -0.132  0.00  0.00    -0.049 A 
ATOM     24  C17 R3Z d   1     -20.048  -4.986   2.122  0.00  0.00     0.102 A 
ATOM     25  C15 R3Z d   1     -20.536  -6.123  -0.031  0.00  0.00    -0.042 A 
ATOM     26  H10 R3Z d   1     -19.110  -4.952  -1.076  0.00  0.00     0.087 H 
ATOM     27  S16 R3Z d   1     -21.118  -6.262   1.566  0.00  0.00    -0.094 SA
ATOM     28  H11 R3Z d   1     -20.888  -6.729  -0.865  0.00  0.00     0.095 H 
ATOM     29  C18 R3Z d   1     -19.870  -4.415   3.414  0.00  0.00     0.295 A 
ATOM     30  O19 R3Z d   1     -20.527  -4.816   4.364  0.00  0.00    -0.264 OA
ATOM     31  N20 R3Z d   1     -18.971  -3.424   3.584  0.00  0.00    -0.133 N 
ATOM     32  C21 R3Z d   1     -18.238  -2.974   2.538  0.00  0.00     0.356 A 
ATOM     33  O22 R3Z d   1     -17.438  -2.078   2.744  0.00  0.00    -0.244 OA
BRANCH  31  34
ATOM     34  O23 R3Z d   1     -18.803  -2.860   4.876  0.00  0.00    -0.276 OA
ATOM     35  H12 R3Z d   1     -17.905  -2.983   5.160  0.00  0.00     0.245 HD
ENDBRANCH  31  34
ENDBRANCH   1  21
TORSDOF 3
