REMARK  13 active torsions:
REMARK  status: ('A' for Active; 'I' for Inactive)
REMARK    1  A    between atoms: N1_1  and  CA1_2 
REMARK    2  A    between atoms: CA1_2  and  C1_3 
REMARK    3  A    between atoms: CA1_2  and  CB1_5 
REMARK    4  A    between atoms: CB1_5  and  CG1_6 
REMARK    5  A    between atoms: CG1_6  and  CD1_7 
REMARK       I    between atoms: CD1_7  and  N2_10 
REMARK    6  A    between atoms: N2_10  and  CA2_11 
REMARK    7  A    between atoms: CA2_11  and  C2_12 
REMARK    8  A    between atoms: CA2_11  and  CB2_14 
REMARK       I    between atoms: C2_12  and  N3_31 
REMARK    9  A    between atoms: CB2_14  and  SG2_15 
REMARK   10  A    between atoms: SG2_15  and  CA4_16 
REMARK   11  A    between atoms: CA5_29  and  O5_30 
REMARK   12  A    between atoms: N3_31  and  CA3_32 
REMARK   13  A    between atoms: CA3_32  and  C3_33 
ROOT
ATOM      1  CA2 GPR d   1      17.501  16.817  30.719  0.00  0.00     0.097 C 
ATOM      2  H10 GPR d   1      18.520  16.817  30.305  0.00  0.00     0.088 H 
ENDROOT
BRANCH   1   3
ATOM      3  N2  GPR d   1      16.438  16.292  29.887  0.00  0.00    -0.347 N 
ATOM      4  CD1 GPR d   1      16.785  15.792  28.720  0.00  0.00     0.218 C 
ATOM      5  OE1 GPR d   1      17.952  15.449  28.662  0.00  0.00    -0.274 OA
ATOM      6  H9  GPR d   1      15.484  16.309  30.186  0.00  0.00     0.163 HD
BRANCH   4   7
ATOM      7  CG1 GPR d   1      15.651  15.097  28.096  0.00  0.00     0.012 C 
ATOM      8  H7  GPR d   1      16.015  14.195  27.581  0.00  0.00     0.047 H 
ATOM      9  H8  GPR d   1      14.928  14.809  28.873  0.00  0.00     0.047 H 
BRANCH   7  10
ATOM     10  CB1 GPR d   1      14.976  16.008  27.095  0.00  0.00    -0.021 C 
ATOM     11  H5  GPR d   1      14.551  16.863  27.641  0.00  0.00     0.037 H 
ATOM     12  H6  GPR d   1      15.739  16.367  26.388  0.00  0.00     0.037 H 
BRANCH  10  13
ATOM     13  CA1 GPR d   1      13.844  15.341  26.286  0.00  0.00     0.183 C 
ATOM     14  H4  GPR d   1      13.333  14.604  26.924  0.00  0.00     0.101 H 
BRANCH  13  15
ATOM     15  N1  GPR d   1      14.318  14.661  25.081  0.00  0.00    -0.065 N 
ATOM     16  H1  GPR d   1      14.960  13.928  25.339  0.00  0.00     0.275 HD
ATOM     17  H2  GPR d   1      14.787  15.324  24.484  0.00  0.00     0.275 HD
ATOM     18  H3  GPR d   1      13.534  14.262  24.590  0.00  0.00     0.275 HD
ENDBRANCH  13  15
BRANCH  13  19
ATOM     19  C1  GPR d   1      12.880  16.441  25.902  0.00  0.00     0.204 C 
ATOM     20  O11 GPR d   1      12.008  16.732  26.743  0.00  0.00    -0.646 OA
ATOM     21  O12 GPR d   1      13.014  16.934  24.752  0.00  0.00    -0.646 OA
ENDBRANCH  13  19
ENDBRANCH  10  13
ENDBRANCH   7  10
ENDBRANCH   4   7
ENDBRANCH   1   3
BRANCH   1  22
ATOM     22  C2  GPR d   1      17.379  16.210  32.116  0.00  0.00     0.241 C 
ATOM     23  O2  GPR d   1      18.098  16.610  33.047  0.00  0.00    -0.271 OA
ATOM     24  N3  GPR d   1      16.446  15.249  32.219  0.00  0.00    -0.349 N 
ATOM     25  H24 GPR d   1      15.937  14.985  31.400  0.00  0.00     0.163 HD
BRANCH  24  26
ATOM     26  CA3 GPR d   1      16.147  14.578  33.472  0.00  0.00     0.075 C 
ATOM     27  H25 GPR d   1      15.111  14.213  33.426  0.00  0.00     0.080 H 
ATOM     28  H26 GPR d   1      16.241  15.313  34.285  0.00  0.00     0.080 H 
BRANCH  26  29
ATOM     29  C3  GPR d   1      17.047  13.403  33.793  0.00  0.00     0.191 C 
ATOM     30  O31 GPR d   1      18.048  13.209  33.065  0.00  0.00    -0.647 OA
ATOM     31  O32 GPR d   1      16.725  12.719  34.785  0.00  0.00    -0.647 OA
ENDBRANCH  26  29
ENDBRANCH  24  26
ENDBRANCH   1  22
BRANCH   1  32
ATOM     32  CB2 GPR d   1      16.719  18.199  30.825  0.00  0.00     0.004 C 
ATOM     33  H11 GPR d   1      17.041  18.770  31.709  0.00  0.00     0.052 H 
ATOM     34  H12 GPR d   1      15.632  18.037  30.869  0.00  0.00     0.052 H 
BRANCH  32  35
ATOM     35  SG2 GPR d   1      17.162  18.991  29.391  0.00  0.00    -0.154 SA
BRANCH  35  36
ATOM     36  CA4 GPR d   1      18.865  18.676  29.608  0.00  0.00     0.046 C 
ATOM     37  CB4 GPR d   1      19.494  19.805  30.377  0.00  0.00    -0.030 A 
ATOM     38  CG4 GPR d   1      19.795  19.509  31.729  0.00  0.00    -0.075 A 
ATOM     39  CH4 GPR d   1      19.783  21.058  29.825  0.00  0.00    -0.018 A 
ATOM     40  CD4 GPR d   1      20.379  20.549  32.501  0.00  0.00    -0.082 A 
ATOM     41  H14 GPR d   1      19.589  18.534  32.155  0.00  0.00     0.084 H 
ATOM     42  CE4 GPR d   1      20.658  21.829  31.985  0.00  0.00    -0.082 A 
ATOM     43  H15 GPR d   1      20.622  20.347  33.538  0.00  0.00     0.083 H 
ATOM     44  CZ4 GPR d   1      20.361  22.073  30.603  0.00  0.00    -0.072 A 
ATOM     45  H16 GPR d   1      21.083  22.605  32.612  0.00  0.00     0.083 H 
ATOM     46  H17 GPR d   1      20.582  23.038  30.161  0.00  0.00     0.084 H 
ATOM     47  CH5 GPR d   1      19.474  21.229  28.489  0.00  0.00    -0.017 A 
ATOM     48  CZ5 GPR d   1      19.210  22.540  27.982  0.00  0.00    -0.072 A 
ATOM     49  CB5 GPR d   1      19.458  20.075  27.699  0.00  0.00    -0.017 A 
ATOM     50  CE5 GPR d   1      18.877  22.703  26.654  0.00  0.00    -0.082 A 
ATOM     51  H18 GPR d   1      19.271  23.401  28.638  0.00  0.00     0.084 H 
ATOM     52  CD5 GPR d   1      18.860  21.492  25.789  0.00  0.00    -0.082 A 
ATOM     53  H19 GPR d   1      18.636  23.681  26.253  0.00  0.00     0.083 H 
ATOM     54  CG5 GPR d   1      19.134  20.155  26.251  0.00  0.00    -0.073 A 
ATOM     55  H20 GPR d   1      18.625  21.625  24.739  0.00  0.00     0.083 H 
ATOM     56  H21 GPR d   1      19.106  19.287  25.602  0.00  0.00     0.084 H 
ATOM     57  CA5 GPR d   1      19.754  18.724  28.408  0.00  0.00     0.077 C 
ATOM     58  H22 GPR d   1      19.553  17.896  27.713  0.00  0.00     0.092 H 
ATOM     59  H13 GPR d   1      18.972  17.711  30.124  0.00  0.00     0.068 H 
BRANCH  57  60
ATOM     60  O5  GPR d   1      21.105  18.579  28.988  0.00  0.00    -0.389 OA
ATOM     61  H23 GPR d   1      21.184  17.724  29.395  0.00  0.00     0.210 HD
ENDBRANCH  57  60
ENDBRANCH  35  36
ENDBRANCH  32  35
ENDBRANCH   1  32
TORSDOF 13
