REMARK  12 active torsions:
REMARK  status: ('A' for Active; 'I' for Inactive)
REMARK    1  A    between atoms: CAS_2  and  CAO_4 
REMARK    2  A    between atoms: CAM_9  and  CAL_10 
REMARK    3  A    between atoms: CAL_10  and  N_11 
REMARK    4  A    between atoms: N_11  and  CA_12 
REMARK    5  A    between atoms: CA_12  and  C_13 
REMARK       I    between atoms: C_13  and  NAC_15 
REMARK    6  A    between atoms: NAC_15  and  CAB_16 
REMARK    7  A    between atoms: NAC_15  and  CAD_18 
REMARK    8  A    between atoms: CAB_16  and  CAA_17 
REMARK    9  A    between atoms: CAD_18  and  CAE_19 
REMARK   10  A    between atoms: CAE_19  and  NAF_20 
REMARK   11  A    between atoms: NAF_20  and  CAH_21 
REMARK   12  A    between atoms: NAF_20  and  CAG_22 
ROOT
ATOM      1  C   MMK d   1      20.229  61.511  -2.523  0.00  0.00     0.245 C 
ATOM      2  O   MMK d   1      19.222  61.957  -2.002  0.00  0.00    -0.272 OA
ATOM      3  NAC MMK d   1      20.613  60.220  -2.390  0.00  0.00    -0.349 N 
ENDROOT
BRANCH   3   4
ATOM      4  CAB MMK d   1      21.850  59.837  -3.092  0.00  0.00    -0.006 C 
ATOM      5  H10 MMK d   1      22.104  60.625  -3.816  0.00  0.00     0.063 H 
ATOM      6  H11 MMK d   1      21.675  58.891  -3.626  0.00  0.00     0.063 H 
BRANCH   4   7
ATOM      7  CAA MMK d   1      23.011  59.653  -2.149  0.00  0.00    -0.061 C 
ATOM      8  H12 MMK d   1      23.907  59.369  -2.721  0.00  0.00     0.029 H 
ATOM      9  H13 MMK d   1      22.773  58.861  -1.424  0.00  0.00     0.029 H 
ATOM     10  H14 MMK d   1      23.202  60.595  -1.614  0.00  0.00     0.029 H 
ENDBRANCH   4   7
ENDBRANCH   3   4
BRANCH   3  11
ATOM     11  CAD MMK d   1      19.986  59.144  -1.600  0.00  0.00     0.020 C 
ATOM     12  H15 MMK d   1      20.622  58.965  -0.721  0.00  0.00     0.066 H 
ATOM     13  H16 MMK d   1      19.966  58.241  -2.228  0.00  0.00     0.066 H 
BRANCH  11  14
ATOM     14  CAE MMK d   1      18.560  59.387  -1.096  0.00  0.00     0.097 C 
ATOM     15  H17 MMK d   1      18.579  60.263  -0.431  0.00  0.00     0.078 H 
ATOM     16  H18 MMK d   1      18.245  58.500  -0.526  0.00  0.00     0.078 H 
BRANCH  14  17
ATOM     17  NAF MMK d   1      17.564  59.632  -2.136  0.00  0.00    -0.077 N 
ATOM     18  H19 MMK d   1      17.997  60.171  -2.870  0.00  0.00     0.279 HD
BRANCH  17  19
ATOM     19  CAH MMK d   1      16.439  60.393  -1.603  0.00  0.00     0.066 C 
ATOM     20  H20 MMK d   1      15.702  60.566  -2.401  0.00  0.00     0.068 H 
ATOM     21  H21 MMK d   1      16.799  61.359  -1.220  0.00  0.00     0.068 H 
ATOM     22  H22 MMK d   1      15.968  59.827  -0.786  0.00  0.00     0.068 H 
ENDBRANCH  17  19
BRANCH  17  23
ATOM     23  CAG MMK d   1      17.088  58.378  -2.702  0.00  0.00     0.066 C 
ATOM     24  H23 MMK d   1      17.940  57.809  -3.102  0.00  0.00     0.068 H 
ATOM     25  H24 MMK d   1      16.375  58.589  -3.513  0.00  0.00     0.068 H 
ATOM     26  H25 MMK d   1      16.589  57.788  -1.919  0.00  0.00     0.068 H 
ENDBRANCH  17  23
ENDBRANCH  14  17
ENDBRANCH  11  14
ENDBRANCH   3  11
BRANCH   1  27
ATOM     27  CA  MMK d   1      21.094  62.413  -3.343  0.00  0.00     0.154 C 
ATOM     28  H8  MMK d   1      22.084  62.498  -2.871  0.00  0.00     0.090 H 
ATOM     29  H9  MMK d   1      21.204  61.993  -4.354  0.00  0.00     0.090 H 
BRANCH  27  30
ATOM     30  N   MMK d   1      20.486  63.732  -3.431  0.00  0.00    -0.062 N 
ATOM     31  H6  MMK d   1      19.905  63.876  -2.620  0.00  0.00     0.278 HD
ATOM     32  H7  MMK d   1      21.218  64.425  -3.447  0.00  0.00     0.278 HD
BRANCH  30  33
ATOM     33  CAL MMK d   1      19.660  63.888  -4.638  0.00  0.00     0.121 C 
ATOM     34  H4  MMK d   1      19.123  62.947  -4.827  0.00  0.00     0.085 H 
ATOM     35  H5  MMK d   1      18.934  64.697  -4.471  0.00  0.00     0.085 H 
BRANCH  33  36
ATOM     36  CAM MMK d   1      20.499  64.224  -5.847  0.00  0.00     0.060 A 
ATOM     37  CAN MMK d   1      20.129  63.790  -7.111  0.00  0.00    -0.041 A 
ATOM     38  CAO MMK d   1      21.057  63.889  -8.143  0.00  0.00     0.044 A 
ATOM     39  H1  MMK d   1      19.140  63.383  -7.291  0.00  0.00     0.088 H 
ATOM     40  CAP MMK d   1      22.294  64.456  -7.877  0.00  0.00    -0.050 A 
ATOM     41  CAQ MMK d   1      22.548  64.917  -6.603  0.00  0.00     0.004 A 
ATOM     42  H2  MMK d   1      23.045  64.535  -8.654  0.00  0.00     0.087 H 
ATOM     43  NAR MMK d   1      21.677  64.814  -5.591  0.00  0.00    -0.264 NA
ATOM     44  H3  MMK d   1      23.505  65.388  -6.410  0.00  0.00     0.114 H 
BRANCH  38  45
ATOM     45  CAS MMK d   1      20.695  63.476  -9.527  0.00  0.00     0.209 C 
ATOM     46  OAT MMK d   1      21.670  63.536 -10.380  0.00  0.00    -0.644 OA
ATOM     47  OAU MMK d   1      19.545  63.207  -9.843  0.00  0.00    -0.644 OA
ENDBRANCH  38  45
ENDBRANCH  33  36
ENDBRANCH  30  33
ENDBRANCH  27  30
ENDBRANCH   1  27
TORSDOF 12
