REMARK  8 active torsions:
REMARK  status: ('A' for Active; 'I' for Inactive)
REMARK    1  A    between atoms: C4_1  and  O4_21 
REMARK    2  A    between atoms: C5_2  and  C6_3 
REMARK    3  A    between atoms: C6_3  and  O6_20 
REMARK    4  A    between atoms: C3_4  and  O3_22 
REMARK    5  A    between atoms: CAD_11  and  CAG_10 
REMARK    6  A    between atoms: O1_17  and  CAA_16 
REMARK    7  A    between atoms: C1_18  and  O1_17 
REMARK    8  A    between atoms: C2_23  and  O2_24 
ROOT
ATOM      1  C4  3X8 d   1       8.390  17.095 -12.803  0.00  0.00     0.090 C 
ATOM      2  C5  3X8 d   1       7.348  17.625 -13.768  0.00  0.00     0.089 C 
ATOM      3  C3  3X8 d   1       7.887  17.184 -11.397  0.00  0.00     0.092 C 
ATOM      4  C1  3X8 d   1       5.600  16.933 -12.313  0.00  0.00     0.164 C 
ATOM      5  O5  3X8 d   1       6.106  16.923 -13.654  0.00  0.00    -0.348 OA
ATOM      6  C2  3X8 d   1       6.556  16.437 -11.259  0.00  0.00     0.110 C 
ATOM      7  H1  3X8 d   1       8.665  16.061 -13.059  0.00  0.00     0.091 H 
ATOM      8  H2  3X8 d   1       7.152  18.684 -13.543  0.00  0.00     0.090 H 
ATOM      9  H5  3X8 d   1       7.699  18.239 -11.150  0.00  0.00     0.091 H 
ATOM     10  H15 3X8 d   1       4.692  16.313 -12.294  0.00  0.00     0.134 H 
ATOM     11  H19 3X8 d   1       6.143  16.641 -10.260  0.00  0.00     0.094 H 
ENDROOT
BRANCH   4  12
ATOM     12  O1  3X8 d   1       5.291  18.265 -11.891  0.00  0.00    -0.318 OA
BRANCH  12  13
ATOM     13  CAA 3X8 d   1       4.518  19.177 -12.589  0.00  0.00     0.072 A 
ATOM     14  CAB 3X8 d   1       4.309  20.445 -12.038  0.00  0.00    -0.050 A 
ATOM     15  CAC 3X8 d   1       3.532  21.403 -12.701  0.00  0.00    -0.070 A 
ATOM     16  H12 3X8 d   1       4.756  20.691 -11.082  0.00  0.00     0.087 H 
ATOM     17  CAD 3X8 d   1       2.984  21.112 -13.956  0.00  0.00    -0.026 A 
ATOM     18  H11 3X8 d   1       3.355  22.369 -12.243  0.00  0.00     0.085 H 
ATOM     19  CAE 3X8 d   1       3.183  19.830 -14.499  0.00  0.00    -0.070 A 
ATOM     20  CAF 3X8 d   1       3.960  18.890 -13.829  0.00  0.00    -0.050 A 
ATOM     21  H13 3X8 d   1       2.727  19.572 -15.448  0.00  0.00     0.085 H 
ATOM     22  H14 3X8 d   1       4.133  17.920 -14.281  0.00  0.00     0.087 H 
BRANCH  17  23
ATOM     23  CAG 3X8 d   1       2.143  22.158 -14.641  0.00  0.00    -0.026 A 
ATOM     24  CAH 3X8 d   1       2.441  23.543 -14.515  0.00  0.00    -0.072 A 
ATOM     25  CAI 3X8 d   1       1.630  24.502 -15.134  0.00  0.00    -0.082 A 
ATOM     26  H6  3X8 d   1       3.301  23.858 -13.936  0.00  0.00     0.084 H 
ATOM     27  CAJ 3X8 d   1       0.518  24.103 -15.891  0.00  0.00    -0.083 A 
ATOM     28  H7  3X8 d   1       1.862  25.556 -15.028  0.00  0.00     0.083 H 
ATOM     29  CAK 3X8 d   1       0.221  22.729 -16.036  0.00  0.00    -0.082 A 
ATOM     30  H8  3X8 d   1      -0.112  24.848 -16.364  0.00  0.00     0.083 H 
ATOM     31  CAL 3X8 d   1       1.030  21.759 -15.405  0.00  0.00    -0.072 A 
ATOM     32  H9  3X8 d   1      -0.629  22.419 -16.633  0.00  0.00     0.083 H 
ATOM     33  H10 3X8 d   1       0.794  20.706 -15.509  0.00  0.00     0.084 H 
ENDBRANCH  17  23
ENDBRANCH  12  13
ENDBRANCH   4  12
BRANCH   6  34
ATOM     34  O2  3X8 d   1       6.685  15.029 -11.424  0.00  0.00    -0.388 OA
ATOM     35  H20 3X8 d   1       7.284  14.688 -10.770  0.00  0.00     0.210 HD
ENDBRANCH   6  34
BRANCH   2  36
ATOM     36  C6  3X8 d   1       7.985  17.527 -15.132  0.00  0.00     0.043 C 
ATOM     37  H3  3X8 d   1       8.934  18.084 -15.126  0.00  0.00     0.078 H 
ATOM     38  H4  3X8 d   1       7.306  17.967 -15.878  0.00  0.00     0.078 H 
BRANCH  36  39
ATOM     39  O6  3X8 d   1       8.244  16.172 -15.482  0.00  0.00    -0.398 OA
ATOM     40  H16 3X8 d   1       8.644  16.139 -16.343  0.00  0.00     0.209 HD
ENDBRANCH  36  39
ENDBRANCH   2  36
BRANCH   3  41
ATOM     41  O3  3X8 d   1       8.910  16.722 -10.570  0.00  0.00    -0.390 OA
ATOM     42  H18 3X8 d   1       9.680  17.265 -10.687  0.00  0.00     0.210 HD
ENDBRANCH   3  41
BRANCH   1  43
ATOM     43  O4  3X8 d   1       9.492  17.947 -12.862  0.00  0.00    -0.390 OA
ATOM     44  H17 3X8 d   1       9.856  17.931 -13.739  0.00  0.00     0.210 HD
ENDBRANCH   1  43
TORSDOF 8
