REMARK  5 active torsions:
REMARK  status: ('A' for Active; 'I' for Inactive)
REMARK    1  A    between atoms: C1_1  and  C2_2 
REMARK    2  A    between atoms: C3_3  and  N4_13 
REMARK    3  A    between atoms: N2_6  and  C5_7 
REMARK    4  A    between atoms: N4_13  and  C10_14 
REMARK    5  A    between atoms: C13_18  and  C14_20 
ROOT
ATOM      1  C2  GD5 d   1       8.918  -3.425  53.337  0.00  0.00     0.056 A 
ATOM      2  C3  GD5 d   1      10.196  -2.976  53.144  0.00  0.00     0.092 A 
ATOM      3  C4  GD5 d   1      10.585  -3.394  51.842  0.00  0.00     0.050 A 
ATOM      4  N1  GD5 d   1       9.590  -4.069  51.257  0.00  0.00    -0.182 NA
ATOM      5  N2  GD5 d   1       8.606  -4.070  52.178  0.00  0.00    -0.267 N 
ATOM      6  H4  GD5 d   1      11.554  -3.193  51.387  0.00  0.00     0.121 H 
ENDROOT
BRANCH   2   7
ATOM      7  N4  GD5 d   1      10.884  -2.271  54.067  0.00  0.00    -0.185 N 
ATOM      8  H16 GD5 d   1      10.364  -1.647  54.700  0.00  0.00     0.184 HD
BRANCH   7   9
ATOM      9  C10 GD5 d   1      12.264  -2.352  54.198  0.00  0.00     0.727 A 
ATOM     10  N5  GD5 d   1      12.820  -1.458  55.025  0.00  0.00    -0.073 NA
ATOM     11  C11 GD5 d   1      14.144  -1.531  55.153  0.00  0.00     0.044 A 
ATOM     12  C12 GD5 d   1      14.878  -2.457  54.473  0.00  0.00     0.084 A 
ATOM     13  H17 GD5 d   1      14.650  -0.837  55.814  0.00  0.00     0.118 H 
ATOM     14  C13 GD5 d   1      14.215  -3.344  53.649  0.00  0.00     0.127 A 
ATOM     15 CL   GD5 d   1      16.566  -2.407  54.738  0.00  0.00    -0.080 Cl
ATOM     16  N6  GD5 d   1      12.900  -3.301  53.498  0.00  0.00    -0.059 NA
BRANCH  14  17
ATOM     17  C14 GD5 d   1      14.898  -4.408  52.861  0.00  0.00     0.089 A 
ATOM     18  C15 GD5 d   1      16.247  -4.476  52.577  0.00  0.00     0.033 A 
ATOM     19  N7  GD5 d   1      16.400  -5.609  51.795  0.00  0.00    -0.240 NA
ATOM     20  H18 GD5 d   1      17.025  -3.786  52.899  0.00  0.00     0.118 H 
ATOM     21  C16 GD5 d   1      15.226  -6.218  51.593  0.00  0.00     0.134 A 
ATOM     22  N8  GD5 d   1      14.306  -5.516  52.242  0.00  0.00    -0.303 N 
ATOM     23  C20 GD5 d   1      14.869  -7.430  50.824  0.00  0.00    -0.038 A 
ATOM     24  C17 GD5 d   1      12.979  -5.879  52.237  0.00  0.00    -0.013 A 
ATOM     25  C18 GD5 d   1      12.622  -6.976  51.554  0.00  0.00    -0.067 A 
ATOM     26  H19 GD5 d   1      12.237  -5.290  52.774  0.00  0.00     0.112 H 
ATOM     27  C19 GD5 d   1      13.573  -7.785  50.823  0.00  0.00    -0.078 A 
ATOM     28  H20 GD5 d   1      11.573  -7.270  51.549  0.00  0.00     0.085 H 
ATOM     29  H21 GD5 d   1      13.243  -8.669  50.280  0.00  0.00     0.083 H 
ATOM     30  H22 GD5 d   1      15.620  -8.006  50.285  0.00  0.00     0.089 H 
ENDBRANCH  14  17
ENDBRANCH   7   9
ENDBRANCH   2   7
BRANCH   1  31
ATOM     31  C1  GD5 d   1       8.003  -3.301  54.476  0.00  0.00    -0.034 C 
ATOM     32  H1  GD5 d   1       8.495  -2.737  55.282  0.00  0.00     0.035 H 
ATOM     33  H2  GD5 d   1       7.734  -4.303  54.841  0.00  0.00     0.035 H 
ATOM     34  H3  GD5 d   1       7.093  -2.769  54.160  0.00  0.00     0.035 H 
ENDBRANCH   1  31
BRANCH   5  35
ATOM     35  C5  GD5 d   1       7.335  -4.728  51.926  0.00  0.00     0.037 C 
ATOM     36  C6  GD5 d   1       6.456  -3.908  51.026  0.00  0.00    -0.022 C 
ATOM     37  C7  GD5 d   1       5.150  -4.635  50.817  0.00  0.00     0.084 C 
ATOM     38  H6  GD5 d   1       6.955  -3.761  50.057  0.00  0.00     0.038 H 
ATOM     39  H7  GD5 d   1       6.263  -2.930  51.491  0.00  0.00     0.038 H 
ATOM     40  N3  GD5 d   1       5.529  -5.868  50.078  0.00  0.00    -0.075 N 
ATOM     41  H8  GD5 d   1       4.455  -4.024  50.224  0.00  0.00     0.075 H 
ATOM     42  H9  GD5 d   1       4.686  -4.886  51.782  0.00  0.00     0.075 H 
ATOM     43  C8  GD5 d   1       6.286  -6.794  50.951  0.00  0.00     0.084 C 
ATOM     44  H10 GD5 d   1       6.102  -5.617  49.288  0.00  0.00     0.277 HD
ATOM     45  H11 GD5 d   1       4.693  -6.329  49.754  0.00  0.00     0.277 HD
ATOM     46  C9  GD5 d   1       7.576  -6.112  51.370  0.00  0.00    -0.022 C 
ATOM     47  H12 GD5 d   1       6.516  -7.718  50.401  0.00  0.00     0.075 H 
ATOM     48  H13 GD5 d   1       5.688  -7.037  51.842  0.00  0.00     0.075 H 
ATOM     49  H14 GD5 d   1       8.066  -6.724  52.142  0.00  0.00     0.038 H 
ATOM     50  H15 GD5 d   1       8.235  -6.032  50.493  0.00  0.00     0.038 H 
ATOM     51  H5  GD5 d   1       6.814  -4.837  52.888  0.00  0.00     0.076 H 
ENDBRANCH   5  35
TORSDOF 5
