REMARK  5 active torsions:
REMARK  status: ('A' for Active; 'I' for Inactive)
REMARK    1  A    between atoms: C4_4  and  C1_1 
REMARK    2  A    between atoms: C3_3  and  N4_13 
REMARK    3  A    between atoms: N2_6  and  C5_7 
REMARK    4  A    between atoms: N4_13  and  C10_14 
REMARK    5  A    between atoms: C13_18  and  C14_20 
ROOT
ATOM      1  C2  8LN d   1       9.425  -3.623  53.724  0.00  0.00     0.027 A 
ATOM      2  C3  8LN d   1      10.619  -3.028  53.416  0.00  0.00     0.092 A 
ATOM      3  C4  8LN d   1      10.866  -3.292  52.046  0.00  0.00     0.079 A 
ATOM      4  N1  8LN d   1       9.871  -4.020  51.516  0.00  0.00    -0.175 NA
ATOM      5  N2  8LN d   1       9.032  -4.203  52.554  0.00  0.00    -0.274 N 
ATOM      6  H4  8LN d   1       8.908  -3.631  54.682  0.00  0.00     0.117 H 
ENDROOT
BRANCH   2   7
ATOM      7  N4  8LN d   1      11.350  -2.323  54.295  0.00  0.00    -0.185 N 
ATOM      8  H16 8LN d   1      10.856  -1.663  54.913  0.00  0.00     0.184 HD
BRANCH   7   9
ATOM      9  C10 8LN d   1      12.725  -2.427  54.424  0.00  0.00     0.727 A 
ATOM     10  N5  8LN d   1      13.304  -1.504  55.206  0.00  0.00    -0.073 NA
ATOM     11  C11 8LN d   1      14.629  -1.594  55.325  0.00  0.00     0.044 A 
ATOM     12  C12 8LN d   1      15.341  -2.574  54.685  0.00  0.00     0.084 A 
ATOM     13  H17 8LN d   1      15.155  -0.875  55.943  0.00  0.00     0.118 H 
ATOM     14  C13 8LN d   1      14.652  -3.495  53.929  0.00  0.00     0.127 A 
ATOM     15 CL   8LN d   1      17.028  -2.588  54.883  0.00  0.00    -0.080 Cl
ATOM     16  N6  8LN d   1      13.332  -3.434  53.787  0.00  0.00    -0.059 NA
BRANCH  14  17
ATOM     17  C14 8LN d   1      15.295  -4.582  53.156  0.00  0.00     0.089 A 
ATOM     18  C15 8LN d   1      16.624  -4.761  52.850  0.00  0.00     0.033 A 
ATOM     19  N7  8LN d   1      16.757  -5.875  52.035  0.00  0.00    -0.240 NA
ATOM     20  H18 8LN d   1      17.442  -4.129  53.193  0.00  0.00     0.118 H 
ATOM     21  C16 8LN d   1      15.525  -6.363  51.831  0.00  0.00     0.134 A 
ATOM     22  N8  8LN d   1      14.596  -5.594  52.522  0.00  0.00    -0.303 N 
ATOM     23  C20 8LN d   1      15.067  -7.483  51.061  0.00  0.00    -0.038 A 
ATOM     24  C17 8LN d   1      13.264  -5.875  52.496  0.00  0.00    -0.013 A 
ATOM     25  C18 8LN d   1      12.843  -6.925  51.776  0.00  0.00    -0.067 A 
ATOM     26  H19 8LN d   1      12.555  -5.260  53.048  0.00  0.00     0.112 H 
ATOM     27  C19 8LN d   1      13.758  -7.758  51.033  0.00  0.00    -0.078 A 
ATOM     28  H20 8LN d   1      11.779  -7.156  51.751  0.00  0.00     0.085 H 
ATOM     29  H21 8LN d   1      13.386  -8.603  50.455  0.00  0.00     0.083 H 
ATOM     30  H22 8LN d   1      15.774  -8.100  50.508  0.00  0.00     0.089 H 
ENDBRANCH  14  17
ENDBRANCH   7   9
ENDBRANCH   2   7
BRANCH   3  31
ATOM     31  C1  8LN d   1      11.907  -2.901  51.313  0.00  0.00    -0.032 C 
ATOM     32  H1  8LN d   1      11.793  -3.275  50.285  0.00  0.00     0.035 H 
ATOM     33  H2  8LN d   1      12.834  -3.303  51.748  0.00  0.00     0.035 H 
ATOM     34  H3  8LN d   1      11.955  -1.802  51.300  0.00  0.00     0.035 H 
ENDBRANCH   3  31
BRANCH   5  35
ATOM     35  C5  8LN d   1       7.781  -4.927  52.433  0.00  0.00     0.037 C 
ATOM     36  C6  8LN d   1       6.742  -4.000  51.849  0.00  0.00    -0.022 C 
ATOM     37  C7  8LN d   1       5.391  -4.686  51.765  0.00  0.00     0.084 C 
ATOM     38  H6  8LN d   1       7.056  -3.698  50.839  0.00  0.00     0.038 H 
ATOM     39  H7  8LN d   1       6.654  -3.109  52.488  0.00  0.00     0.038 H 
ATOM     40  N3  8LN d   1       5.593  -5.926  50.986  0.00  0.00    -0.075 N 
ATOM     41  H8  8LN d   1       4.665  -4.034  51.258  0.00  0.00     0.075 H 
ATOM     42  H9  8LN d   1       5.025  -4.927  52.774  0.00  0.00     0.075 H 
ATOM     43  C8  8LN d   1       6.560  -6.855  51.614  0.00  0.00     0.084 C 
ATOM     44  H10 8LN d   1       5.935  -5.678  50.071  0.00  0.00     0.277 HD
ATOM     45  H11 8LN d   1       4.706  -6.397  50.898  0.00  0.00     0.277 HD
ATOM     46  C9  8LN d   1       7.889  -6.142  51.563  0.00  0.00    -0.022 C 
ATOM     47  H12 8LN d   1       6.608  -7.799  51.052  0.00  0.00     0.075 H 
ATOM     48  H13 8LN d   1       6.274  -7.062  52.656  0.00  0.00     0.075 H 
ATOM     49  H14 8LN d   1       8.684  -6.803  51.938  0.00  0.00     0.038 H 
ATOM     50  H15 8LN d   1       8.116  -5.845  50.529  0.00  0.00     0.038 H 
ATOM     51  H5  8LN d   1       7.463  -5.245  53.437  0.00  0.00     0.076 H 
ENDBRANCH   5  35
TORSDOF 5
