REMARK WARNING: 32 MAX_TORS EXCEEDED!!!
REMARK  41 active torsions:
REMARK  status: ('A' for Active; 'I' for Inactive)
REMARK    1  A    between atoms: N_1  and  CA_2 
REMARK    2  A    between atoms: CA_2  and  C_3 
REMARK       I    between atoms: C_3  and  N_5 
REMARK    3  A    between atoms: N_5  and  CA_6 
REMARK    4  A    between atoms: CA_6  and  C_7 
REMARK    5  A    between atoms: CA_6  and  CB_9 
REMARK       I    between atoms: C_7  and  N_14 
REMARK    6  A    between atoms: CB_9  and  CG_10 
REMARK    7  A    between atoms: CG_10  and  CD_11 
REMARK    8  A    between atoms: N_14  and  CA_15 
REMARK    9  A    between atoms: CA_15  and  C_16 
REMARK   10  A    between atoms: CA_15  and  CB_18 
REMARK       I    between atoms: C_16  and  N_25 
REMARK   11  A    between atoms: CB_18  and  CG_19 
REMARK   12  A    between atoms: N_25  and  CA_26 
REMARK   13  A    between atoms: CA_26  and  C_27 
REMARK   14  A    between atoms: CA_26  and  CB_29 
REMARK       I    between atoms: C_27  and  N_34 
REMARK   15  A    between atoms: CB_29  and  CG_30 
REMARK   16  A    between atoms: CG_30  and  CD_31 
REMARK   17  A    between atoms: N_34  and  CA_35 
REMARK   18  A    between atoms: CA_35  and  C_36 
REMARK   19  A    between atoms: CA_35  and  CB_38 
REMARK       I    between atoms: C_36  and  N_49 
REMARK   20  A    between atoms: CB_38  and  CG_39 
REMARK   21  A    between atoms: CG_39  and  CD_40 
REMARK   22  A    between atoms: CD_40  and  CE_41 
REMARK   23  A    between atoms: CE_41  and  NZ_42 
REMARK       I    between atoms: NZ_42  and  CH_43 
REMARK   24  A    between atoms: CH_43  and  CT_45 
REMARK   25  A    between atoms: N_49  and  CA_50 
REMARK   26  A    between atoms: CA_50  and  C_51 
REMARK   27  A    between atoms: CA_50  and  CB_53 
REMARK       I    between atoms: C_51  and  N_58 
REMARK   28  A    between atoms: CB_53  and  CG_54 
REMARK   29  A    between atoms: CG_54  and  CD_55 
REMARK   30  A    between atoms: CD_55  and  CE_56 
REMARK   31  A    between atoms: CE_56  and  NZ_57 
REMARK   32  A    between atoms: N_58  and  CA_59 
REMARK   33  A    between atoms: CA_59  and  C_60 
REMARK   34  A    between atoms: CA_59  and  CB_62 
REMARK       I    between atoms: C_60  and  N_70 
REMARK   35  A    between atoms: CB_62  and  CG_63 
REMARK   36  A    between atoms: CZ_68  and  OH_69 
REMARK   37  A    between atoms: N_70  and  CA_71 
REMARK   38  A    between atoms: CA_71  and  C_72 
REMARK   39  A    between atoms: CA_71  and  CB_74 
REMARK   40  A    between atoms: CB_74  and  CG1_75 
REMARK   41  A    between atoms: CB_74  and  CG2_76 
ROOT
ATOM      1  CA  FAK d   1     -30.880  52.174   5.180  0.00  0.00     0.089 C 
ATOM      2  H28 FAK d   1     -29.861  51.765   5.119  0.00  0.00     0.087 H 
ENDROOT
BRANCH   1   3
ATOM      3  N   FAK d   1     -31.871  51.170   4.811  0.00  0.00    -0.346 N 
ATOM      4  C   GLU d   1     -32.205  50.134   5.553  0.00  0.00     0.241 C 
ATOM      5  O   GLU d   1     -31.936  50.046   6.741  0.00  0.00    -0.271 OA
ATOM      6  H27 FAK d   1     -32.331  51.276   3.929  0.00  0.00     0.163 HD
BRANCH   4   7
ATOM      7  CA  GLU d   1     -33.040  49.069   4.900  0.00  0.00     0.090 C 
ATOM      8  H22 GLU d   1     -32.846  48.996   3.820  0.00  0.00     0.087 H 
BRANCH   7   9
ATOM      9  N   GLU d   1     -32.672  47.878   5.593  0.00  0.00    -0.346 N 
ATOM     10  C   PHE d   1     -32.879  46.672   5.102  0.00  0.00     0.241 C 
ATOM     11  O   PHE d   1     -33.292  46.459   3.954  0.00  0.00    -0.271 OA
ATOM     12  H21 GLU d   1     -32.238  47.961   6.490  0.00  0.00     0.163 HD
BRANCH  10  13
ATOM     13  CA  PHE d   1     -32.576  45.563   6.121  0.00  0.00     0.093 C 
ATOM     14  H13 PHE d   1     -31.825  45.969   6.814  0.00  0.00     0.088 H 
BRANCH  13  15
ATOM     15  N   PHE d   1     -33.778  45.337   6.891  0.00  0.00    -0.346 N 
ATOM     16  C   GLU d   1     -33.739  44.817   8.121  0.00  0.00     0.241 C 
ATOM     17  O   GLU d   1     -32.702  44.354   8.624  0.00  0.00    -0.271 OA
ATOM     18  H12 PHE d   1     -34.663  45.576   6.492  0.00  0.00     0.163 HD
BRANCH  16  19
ATOM     19  CA  GLU d   1     -35.066  44.808   8.903  0.00  0.00     0.090 C 
ATOM     20  H7  GLU d   1     -35.004  43.938   9.573  0.00  0.00     0.087 H 
BRANCH  19  21
ATOM     21  N   GLU d   1     -35.269  45.994   9.763  0.00  0.00    -0.346 N 
ATOM     22  C   GLY d   1     -35.956  45.864  10.907  0.00  0.00     0.243 C 
ATOM     23  O   GLY d   1     -36.276  44.755  11.403  0.00  0.00    -0.272 OA
ATOM     24  H6  GLU d   1     -34.898  46.883   9.494  0.00  0.00     0.163 HD
BRANCH  22  25
ATOM     25  CA  GLY d   1     -36.363  47.133  11.623  0.00  0.00     0.152 C 
ATOM     26  H4  GLY d   1     -35.487  47.593  12.104  0.00  0.00     0.090 H 
ATOM     27  H5  GLY d   1     -36.805  47.844  10.910  0.00  0.00     0.090 H 
BRANCH  25  28
ATOM     28  N   GLY d   1     -37.374  46.746  12.657  0.00  0.00    -0.071 N 
ATOM     29  H1  GLY d   1     -37.672  47.568  13.159  0.00  0.00     0.274 HD
ATOM     30  H2  GLY d   1     -36.961  46.090  13.301  0.00  0.00     0.274 HD
ATOM     31  H3  GLY d   1     -38.169  46.320  12.207  0.00  0.00     0.274 HD
ENDBRANCH  25  28
ENDBRANCH  22  25
ENDBRANCH  19  21
BRANCH  19  32
ATOM     32  CB  GLU d   1     -36.345  44.610   8.036  0.00  0.00    -0.029 C 
ATOM     33  H8  GLU d   1     -36.858  45.582   7.995  0.00  0.00     0.037 H 
ATOM     34  H9  GLU d   1     -36.980  43.883   8.563  0.00  0.00     0.037 H 
BRANCH  32  35
ATOM     35  CG  GLU d   1     -36.208  44.118   6.594  0.00  0.00     0.018 C 
ATOM     36  H10 GLU d   1     -36.423  43.040   6.567  0.00  0.00     0.049 H 
ATOM     37  H11 GLU d   1     -35.176  44.295   6.257  0.00  0.00     0.049 H 
BRANCH  35  38
ATOM     38  CD  GLU d   1     -37.165  44.834   5.641  0.00  0.00     0.172 C 
ATOM     39  OE1 GLU d   1     -37.451  46.036   5.878  0.00  0.00    -0.648 OA
ATOM     40  OE2 GLU d   1     -37.634  44.191   4.653  0.00  0.00    -0.648 OA
ENDBRANCH  35  38
ENDBRANCH  32  35
ENDBRANCH  19  32
ENDBRANCH  16  19
ENDBRANCH  13  15
BRANCH  13  41
ATOM     41  CB  PHE d   1     -31.947  44.290   5.540  0.00  0.00    -0.014 C 
ATOM     42  H14 PHE d   1     -31.535  43.704   6.375  0.00  0.00     0.043 H 
ATOM     43  H15 PHE d   1     -31.131  44.592   4.867  0.00  0.00     0.043 H 
BRANCH  41  44
ATOM     44  CG  PHE d   1     -32.883  43.396   4.763  0.00  0.00    -0.056 A 
ATOM     45  CD1 PHE d   1     -34.062  43.852   4.217  0.00  0.00    -0.077 A 
ATOM     46  CE1 PHE d   1     -34.888  42.990   3.499  0.00  0.00    -0.082 A 
ATOM     47  H16 PHE d   1     -34.349  44.889   4.347  0.00  0.00     0.084 H 
ATOM     48  CZ  PHE d   1     -34.529  41.657   3.299  0.00  0.00    -0.083 A 
ATOM     49  H18 PHE d   1     -35.822  43.360   3.091  0.00  0.00     0.083 H 
ATOM     50  CE2 PHE d   1     -33.349  41.191   3.833  0.00  0.00    -0.082 A 
ATOM     51  H20 PHE d   1     -35.172  40.996   2.729  0.00  0.00     0.083 H 
ATOM     52  CD2 PHE d   1     -32.528  42.058   4.548  0.00  0.00    -0.077 A 
ATOM     53  H19 PHE d   1     -33.061  40.155   3.697  0.00  0.00     0.083 H 
ATOM     54  H17 PHE d   1     -31.591  41.689   4.948  0.00  0.00     0.084 H 
ENDBRANCH  41  44
ENDBRANCH  13  41
ENDBRANCH  10  13
ENDBRANCH   7   9
BRANCH   7  55
ATOM     55  CB  GLU d   1     -34.503  49.354   5.172  0.00  0.00    -0.029 C 
ATOM     56  H23 GLU d   1     -35.099  48.555   4.707  0.00  0.00     0.037 H 
ATOM     57  H24 GLU d   1     -34.756  50.318   4.707  0.00  0.00     0.037 H 
BRANCH  55  58
ATOM     58  CG  GLU d   1     -34.877  49.427   6.649  0.00  0.00     0.018 C 
ATOM     59  H25 GLU d   1     -34.528  50.386   7.059  0.00  0.00     0.049 H 
ATOM     60  H26 GLU d   1     -34.386  48.600   7.183  0.00  0.00     0.049 H 
BRANCH  58  61
ATOM     61  CD  GLU d   1     -36.393  49.321   6.854  0.00  0.00     0.172 C 
ATOM     62  OE1 GLU d   1     -37.074  48.698   5.996  0.00  0.00    -0.648 OA
ATOM     63  OE2 GLU d   1     -36.925  49.857   7.865  0.00  0.00    -0.648 OA
ENDBRANCH  58  61
ENDBRANCH  55  58
ENDBRANCH   7  55
ENDBRANCH   4   7
ENDBRANCH   1   3
BRANCH   1  64
ATOM     64  C   FAK d   1     -31.156  52.737   6.572  0.00  0.00     0.241 C 
ATOM     65  O   FAK d   1     -32.305  53.099   6.871  0.00  0.00    -0.271 OA
ATOM     66  N   LYS d   1     -30.128  52.840   7.405  0.00  0.00    -0.346 N 
ATOM     67  H38 LYS d   1     -29.210  52.580   7.106  0.00  0.00     0.163 HD
BRANCH  66  68
ATOM     68  CA  LYS d   1     -30.343  53.327   8.738  0.00  0.00     0.089 C 
ATOM     69  H39 LYS d   1     -31.103  54.122   8.738  0.00  0.00     0.087 H 
BRANCH  68  70
ATOM     70  C   LYS d   1     -28.993  53.906   9.130  0.00  0.00     0.241 C 
ATOM     71  O   LYS d   1     -27.946  53.240   9.011  0.00  0.00    -0.271 OA
ATOM     72  N   TYR d   1     -28.991  55.150   9.590  0.00  0.00    -0.346 N 
ATOM     73  H51 TYR d   1     -29.852  55.641   9.719  0.00  0.00     0.163 HD
BRANCH  72  74
ATOM     74  CA  TYR d   1     -27.727  55.792   9.904  0.00  0.00     0.093 C 
ATOM     75  H52 TYR d   1     -26.999  55.464   9.148  0.00  0.00     0.088 H 
BRANCH  74  76
ATOM     76  C   TYR d   1     -27.142  55.392  11.281  0.00  0.00     0.241 C 
ATOM     77  O   TYR d   1     -27.810  54.833  12.136  0.00  0.00    -0.271 OA
ATOM     78  N   VAL d   1     -25.875  55.745  11.452  0.00  0.00    -0.344 N 
ATOM     79  H60 VAL d   1     -25.512  56.456  10.850  0.00  0.00     0.163 HD
BRANCH  78  80
ATOM     80  CA  VAL d   1     -24.958  55.175  12.456  0.00  0.00     0.099 C 
ATOM     81  H61 VAL d   1     -24.086  54.804  11.897  0.00  0.00     0.090 H 
BRANCH  80  82
ATOM     82  C   VAL d   1     -25.536  53.983  13.193  0.00  0.00     0.197 C 
ATOM     83  O   VAL d   1     -25.245  52.839  12.817  0.00  0.00    -0.646 OA
ATOM     84  OXT VAL d   1     -26.289  54.174  14.158  0.00  0.00    -0.646 OA
ENDBRANCH  80  82
BRANCH  80  85
ATOM     85  CB  VAL d   1     -24.424  56.239  13.462  0.00  0.00    -0.032 C 
ATOM     86  H62 VAL d   1     -24.044  57.095  12.885  0.00  0.00     0.042 H 
BRANCH  85  87
ATOM     87  CG1 VAL d   1     -25.527  56.751  14.397  0.00  0.00    -0.071 C 
ATOM     88  H63 VAL d   1     -25.106  57.497  15.087  0.00  0.00     0.028 H 
ATOM     89  H64 VAL d   1     -25.939  55.910  14.974  0.00  0.00     0.028 H 
ATOM     90  H65 VAL d   1     -26.328  57.214  13.801  0.00  0.00     0.028 H 
ENDBRANCH  85  87
BRANCH  85  91
ATOM     91  CG2 VAL d   1     -23.270  55.650  14.267  0.00  0.00    -0.071 C 
ATOM     92  H66 VAL d   1     -22.491  55.289  13.580  0.00  0.00     0.028 H 
ATOM     93  H67 VAL d   1     -23.638  54.812  14.877  0.00  0.00     0.028 H 
ATOM     94  H68 VAL d   1     -22.849  56.425  14.925  0.00  0.00     0.028 H 
ENDBRANCH  85  91
ENDBRANCH  80  85
ENDBRANCH  78  80
ENDBRANCH  74  76
BRANCH  74  95
ATOM     95  CB  TYR d   1     -27.890  57.300   9.759  0.00  0.00    -0.014 C 
ATOM     96  H53 TYR d   1     -28.583  57.650  10.538  0.00  0.00     0.043 H 
ATOM     97  H54 TYR d   1     -28.317  57.509   8.767  0.00  0.00     0.043 H 
BRANCH  95  98
ATOM     98  CG  TYR d   1     -26.610  58.061   9.890  0.00  0.00    -0.056 A 
ATOM     99  CD1 TYR d   1     -25.721  58.116   8.840  0.00  0.00    -0.074 A 
ATOM    100  CE1 TYR d   1     -24.533  58.815   8.957  0.00  0.00    -0.051 A 
ATOM    101  H55 TYR d   1     -25.954  57.606   7.912  0.00  0.00     0.084 H 
ATOM    102  CZ  TYR d   1     -24.234  59.462  10.152  0.00  0.00     0.065 A 
ATOM    103  H57 TYR d   1     -23.840  58.858   8.124  0.00  0.00     0.087 H 
ATOM    104  CE2 TYR d   1     -25.114  59.402  11.221  0.00  0.00    -0.051 A 
ATOM    105  CD2 TYR d   1     -26.289  58.714  11.081  0.00  0.00    -0.074 A 
ATOM    106  H58 TYR d   1     -24.875  59.894  12.157  0.00  0.00     0.087 H 
ATOM    107  H56 TYR d   1     -26.984  58.675  11.912  0.00  0.00     0.084 H 
BRANCH 102 108
ATOM    108  OH  TYR d   1     -23.042  60.167  10.257  0.00  0.00    -0.361 OA
ATOM    109  H59 TYR d   1     -22.565  60.103   9.438  0.00  0.00     0.217 HD
ENDBRANCH 102 108
ENDBRANCH  95  98
ENDBRANCH  74  95
ENDBRANCH  72  74
ENDBRANCH  68  70
BRANCH  68 110
ATOM    110  CB  LYS d   1     -30.829  52.184   9.674  0.00  0.00    -0.038 C 
ATOM    111  H40 LYS d   1     -31.774  51.794   9.270  0.00  0.00     0.036 H 
ATOM    112  H41 LYS d   1     -31.006  52.614  10.671  0.00  0.00     0.036 H 
BRANCH 110 113
ATOM    113  CG  LYS d   1     -29.870  51.017   9.832  0.00  0.00    -0.061 C 
ATOM    114  H42 LYS d   1     -29.067  51.306  10.526  0.00  0.00     0.033 H 
ATOM    115  H43 LYS d   1     -29.436  50.776   8.850  0.00  0.00     0.033 H 
BRANCH 113 116
ATOM    116  CD  LYS d   1     -30.576  49.775  10.380  0.00  0.00    -0.043 C 
ATOM    117  H44 LYS d   1     -31.412  50.090  11.022  0.00  0.00     0.035 H 
ATOM    118  H45 LYS d   1     -29.860  49.186  10.973  0.00  0.00     0.035 H 
BRANCH 116 119
ATOM    119  CE  LYS d   1     -31.119  48.905   9.242  0.00  0.00     0.080 C 
ATOM    120  H46 LYS d   1     -30.302  48.264   8.878  0.00  0.00     0.075 H 
ATOM    121  H47 LYS d   1     -31.454  49.568   8.431  0.00  0.00     0.075 H 
BRANCH 119 122
ATOM    122  NZ  LYS d   1     -32.263  48.029   9.632  0.00  0.00    -0.079 N 
ATOM    123  H48 LYS d   1     -32.562  47.491   8.834  0.00  0.00     0.274 HD
ATOM    124  H49 LYS d   1     -33.027  48.600   9.958  0.00  0.00     0.274 HD
ATOM    125  H50 LYS d   1     -31.972  47.405  10.368  0.00  0.00     0.274 HD
ENDBRANCH 119 122
ENDBRANCH 116 119
ENDBRANCH 113 116
ENDBRANCH 110 113
ENDBRANCH  68 110
ENDBRANCH  66  68
ENDBRANCH   1  64
BRANCH   1 126
ATOM    126  CB  FAK d   1     -31.089  53.287   4.230  0.00  0.00    -0.038 C 
ATOM    127  H29 FAK d   1     -31.539  54.141   4.758  0.00  0.00     0.036 H 
ATOM    128  H30 FAK d   1     -31.761  52.960   3.423  0.00  0.00     0.036 H 
BRANCH 126 129
ATOM    129  CG  FAK d   1     -29.771  53.697   3.648  0.00  0.00    -0.061 C 
ATOM    130  H31 FAK d   1     -29.274  52.847   3.158  0.00  0.00     0.033 H 
ATOM    131  H32 FAK d   1     -29.109  54.112   4.422  0.00  0.00     0.033 H 
BRANCH 129 132
ATOM    132  CD  FAK d   1     -30.162  54.770   2.625  0.00  0.00    -0.050 C 
ATOM    133  H33 FAK d   1     -31.166  55.157   2.853  0.00  0.00     0.035 H 
ATOM    134  H34 FAK d   1     -30.156  54.341   1.612  0.00  0.00     0.035 H 
BRANCH 132 135
ATOM    135  CE  FAK d   1     -29.148  55.887   2.717  0.00  0.00    -0.004 C 
ATOM    136  H35 FAK d   1     -28.134  55.501   2.535  0.00  0.00     0.064 H 
ATOM    137  H36 FAK d   1     -29.188  56.361   3.709  0.00  0.00     0.064 H 
BRANCH 135 138
ATOM    138  NZ  FAK d   1     -29.520  56.841   1.684  0.00  0.00    -0.353 N 
ATOM    139  CH  FAK d   1     -28.758  57.914   1.450  0.00  0.00     0.325 C 
ATOM    140  OH  FAK d   1     -27.704  58.199   2.037  0.00  0.00    -0.263 OA
ATOM    141  H37 FAK d   1     -30.350  56.693   1.146  0.00  0.00     0.162 HD
BRANCH 139 142
ATOM    142  CT  FAK d   1     -29.289  58.860   0.312  0.00  0.00     0.472 C 
ATOM    143  FI1 FAK d   1     -29.059  60.229   0.764  0.00  0.00    -0.162 F 
ATOM    144  FI2 FAK d   1     -30.648  58.694   0.014  0.00  0.00    -0.162 F 
ATOM    145  FI3 FAK d   1     -28.668  58.640  -0.716  0.00  0.00    -0.162 F 
ENDBRANCH 139 142
ENDBRANCH 135 138
ENDBRANCH 132 135
ENDBRANCH 129 132
ENDBRANCH 126 129
ENDBRANCH   1 126
TORSDOF 41
