REMARK  14 active torsions:
REMARK  status: ('A' for Active; 'I' for Inactive)
REMARK    1  A    between atoms: C6_2  and  C5_4 
REMARK    2  A    between atoms: C4_5  and  O4_6 
REMARK    3  A    between atoms: C3_7  and  O3_8 
REMARK    4  A    between atoms: C2_9  and  O_10 
REMARK    5  A    between atoms: C_12  and  N1_13 
REMARK    6  A    between atoms: N1_13  and  C7_14 
REMARK    7  A    between atoms: C7_14  and  C8_15 
REMARK    8  A    between atoms: C8_15  and  C9_16 
REMARK    9  A    between atoms: C9_16  and  C16_17 
REMARK   10  A    between atoms: C16_17  and  C17_18 
REMARK   11  A    between atoms: C17_18  and  C18_19 
REMARK   12  A    between atoms: C18_19  and  C19_20 
REMARK   13  A    between atoms: C19_20  and  C21_21 
REMARK   14  A    between atoms: C21_21  and  N22_22 
ROOT
ATOM      1  N22 IF6 d   1     -39.832  16.706  25.181  0.00  0.00    -0.116 NA
ATOM      2  N25 IF6 d   1     -39.335  15.981  26.003  0.00  0.00    -0.168 NA
ATOM      3  N26 IF6 d   1     -38.846  15.253  26.821  0.00  0.00     0.068 N 
ENDROOT
BRANCH   1   4
ATOM      4  C21 IF6 d   1     -39.399  18.061  24.742  0.00  0.00     0.047 C 
ATOM      5  H27 IF6 d   1     -40.114  18.805  25.123  0.00  0.00     0.071 H 
ATOM      6  H28 IF6 d   1     -38.400  18.267  25.154  0.00  0.00     0.071 H 
BRANCH   4   7
ATOM      7  C19 IF6 d   1     -39.337  18.170  23.183  0.00  0.00    -0.046 C 
ATOM      8  H25 IF6 d   1     -39.985  17.387  22.762  0.00  0.00     0.035 H 
ATOM      9  H26 IF6 d   1     -39.724  19.159  22.897  0.00  0.00     0.035 H 
BRANCH   7  10
ATOM     10  C18 IF6 d   1     -37.925  18.009  22.559  0.00  0.00    -0.063 C 
ATOM     11  H23 IF6 d   1     -38.011  17.995  21.462  0.00  0.00     0.033 H 
ATOM     12  H24 IF6 d   1     -37.292  18.855  22.866  0.00  0.00     0.033 H 
BRANCH  10  13
ATOM     13  C17 IF6 d   1     -37.281  16.686  23.040  0.00  0.00    -0.065 C 
ATOM     14  H21 IF6 d   1     -36.753  16.893  23.983  0.00  0.00     0.033 H 
ATOM     15  H22 IF6 d   1     -38.092  15.965  23.224  0.00  0.00     0.033 H 
BRANCH  13  16
ATOM     16  C16 IF6 d   1     -36.287  16.035  22.083  0.00  0.00    -0.065 C 
ATOM     17  H19 IF6 d   1     -36.633  16.162  21.047  0.00  0.00     0.033 H 
ATOM     18  H20 IF6 d   1     -35.299  16.504  22.200  0.00  0.00     0.033 H 
BRANCH  16  19
ATOM     19  C9  IF6 d   1     -36.192  14.521  22.421  0.00  0.00    -0.064 C 
ATOM     20  H17 IF6 d   1     -35.855  14.410  23.462  0.00  0.00     0.033 H 
ATOM     21  H18 IF6 d   1     -37.188  14.068  22.308  0.00  0.00     0.033 H 
BRANCH  19  22
ATOM     22  C8  IF6 d   1     -35.210  13.791  21.502  0.00  0.00    -0.043 C 
ATOM     23  H15 IF6 d   1     -35.595  13.828  20.472  0.00  0.00     0.035 H 
ATOM     24  H16 IF6 d   1     -34.237  14.302  21.548  0.00  0.00     0.035 H 
BRANCH  22  25
ATOM     25  C7  IF6 d   1     -35.022  12.367  21.892  0.00  0.00     0.082 C 
ATOM     26  H13 IF6 d   1     -34.648  12.334  22.926  0.00  0.00     0.075 H 
ATOM     27  H14 IF6 d   1     -35.996  11.858  21.837  0.00  0.00     0.075 H 
BRANCH  25  28
ATOM     28  N1  IF6 d   1     -34.048  11.634  21.007  0.00  0.00    -0.070 N 
ATOM     29  H11 IF6 d   1     -34.477  11.509  20.103  0.00  0.00     0.277 HD
ATOM     30  H12 IF6 d   1     -33.221  12.202  20.911  0.00  0.00     0.277 HD
BRANCH  28  31
ATOM     31  C   IF6 d   1     -33.629  10.274  21.523  0.00  0.00     0.119 C 
ATOM     32  C5  IF6 d   1     -32.116  10.093  21.782  0.00  0.00     0.085 C 
ATOM     33  C4  IF6 d   1     -31.388   9.918  20.445  0.00  0.00     0.077 C 
ATOM     34  H1  IF6 d   1     -31.982   9.186  22.389  0.00  0.00     0.064 H 
ATOM     35  C3  IF6 d   1     -32.026   8.867  19.576  0.00  0.00     0.086 C 
ATOM     36  H2  IF6 d   1     -31.411  10.871  19.896  0.00  0.00     0.088 H 
ATOM     37  C2  IF6 d   1     -33.493   9.205  19.324  0.00  0.00     0.064 C 
ATOM     38  H4  IF6 d   1     -31.984   7.904  20.107  0.00  0.00     0.090 H 
ATOM     39  C1  IF6 d   1     -34.204   9.168  20.656  0.00  0.00    -0.011 C 
ATOM     40  H6  IF6 d   1     -33.579  10.212  18.890  0.00  0.00     0.087 H 
ATOM     41  H8  IF6 d   1     -34.043   8.193  21.139  0.00  0.00     0.040 H 
ATOM     42  H9  IF6 d   1     -35.282   9.331  20.509  0.00  0.00     0.040 H 
ATOM     43  H10 IF6 d   1     -34.106  10.172  22.509  0.00  0.00     0.085 H 
BRANCH  32  44
ATOM     44  C6  IF6 d   1     -31.467  11.258  22.515  0.00  0.00     0.181 C 
ATOM     45  O6  IF6 d   1     -30.795  10.949  23.559  0.00  0.00    -0.648 OA
ATOM     46  O7  IF6 d   1     -31.609  12.439  22.068  0.00  0.00    -0.648 OA
ENDBRANCH  32  44
BRANCH  33  47
ATOM     47  O4  IF6 d   1     -30.017   9.591  20.770  0.00  0.00    -0.392 OA
ATOM     48  H3  IF6 d   1     -29.636  10.298  21.277  0.00  0.00     0.210 HD
ENDBRANCH  33  47
BRANCH  35  49
ATOM     49  O3  IF6 d   1     -31.274   8.731  18.317  0.00  0.00    -0.390 OA
ATOM     50  H5  IF6 d   1     -30.379   8.477  18.510  0.00  0.00     0.210 HD
ENDBRANCH  35  49
BRANCH  37  51
ATOM     51  O   IF6 d   1     -34.023   8.272  18.429  0.00  0.00    -0.393 OA
ATOM     52  H7  IF6 d   1     -33.952   7.401  18.802  0.00  0.00     0.210 HD
ENDBRANCH  37  51
ENDBRANCH  28  31
ENDBRANCH  25  28
ENDBRANCH  22  25
ENDBRANCH  19  22
ENDBRANCH  16  19
ENDBRANCH  13  16
ENDBRANCH  10  13
ENDBRANCH   7  10
ENDBRANCH   4   7
ENDBRANCH   1   4
TORSDOF 14
