REMARK  9 active torsions:
REMARK  status: ('A' for Active; 'I' for Inactive)
REMARK       I    between atoms: C_2  and  N_3 
REMARK    1  A    between atoms: C_2  and  C1_5 
REMARK    2  A    between atoms: N_3  and  O_4 
REMARK    3  A    between atoms: C1_5  and  C2_8 
REMARK    4  A    between atoms: C2_8  and  C3_11 
REMARK    5  A    between atoms: C3_11  and  C4_14 
REMARK    6  A    between atoms: C4_14  and  C5_17 
REMARK    7  A    between atoms: C5_17  and  C6_20 
REMARK    8  A    between atoms: C6_20  and  C7_23 
REMARK       I    between atoms: C7_23  and  N1_25 
REMARK    9  A    between atoms: N1_25  and  C8_26 
ROOT
ATOM      1  C5  7H1 d   1      20.333 -36.571   1.333  0.00  0.00     0.387 C 
ATOM      2  F8  7H1 d   1      19.852 -37.772   1.631  0.00  0.00    -0.192 F 
ATOM      3  F9  7H1 d   1      21.632 -36.576   1.158  0.00  0.00    -0.192 F 
ENDROOT
BRANCH   1   4
ATOM      4  C4  7H1 d   1      19.995 -35.641   2.486  0.00  0.00     0.385 C 
ATOM      5  F6  7H1 d   1      20.134 -34.374   2.143  0.00  0.00    -0.192 F 
ATOM      6  F7  7H1 d   1      18.787 -35.945   2.870  0.00  0.00    -0.192 F 
BRANCH   4   7
ATOM      7  C3  7H1 d   1      20.819 -35.968   3.689  0.00  0.00     0.385 C 
ATOM      8  F4  7H1 d   1      20.453 -37.183   4.075  0.00  0.00    -0.192 F 
ATOM      9  F5  7H1 d   1      22.070 -35.900   3.294  0.00  0.00    -0.192 F 
BRANCH   7  10
ATOM     10  C2  7H1 d   1      20.657 -34.923   4.740  0.00  0.00     0.387 C 
ATOM     11  F2  7H1 d   1      19.465 -34.592   5.093  0.00  0.00    -0.192 F 
ATOM     12  F3  7H1 d   1      21.618 -34.068   4.746  0.00  0.00    -0.192 F 
BRANCH  10  13
ATOM     13  C1  7H1 d   1      21.063 -35.668   6.038  0.00  0.00     0.394 C 
ATOM     14  F   7H1 d   1      20.128 -36.589   6.252  0.00  0.00    -0.188 F 
ATOM     15  F1  7H1 d   1      22.267 -36.218   5.870  0.00  0.00    -0.188 F 
BRANCH  13  16
ATOM     16  C   7H1 d   1      21.175 -34.820   7.305  0.00  0.00     0.320 C 
ATOM     17  O1  7H1 d   1      21.813 -33.785   7.366  0.00  0.00    -0.264 OA
ATOM     18  N   7H1 d   1      20.549 -35.172   8.401  0.00  0.00    -0.232 N 
ATOM     19  H1  7H1 d   1      20.125 -36.071   8.510  0.00  0.00     0.197 HD
BRANCH  18  20
ATOM     20  O   7H1 d   1      20.516 -34.218   9.392  0.00  0.00    -0.287 OA
ATOM     21  H2  7H1 d   1      21.404 -33.997   9.647  0.00  0.00     0.244 HD
ENDBRANCH  18  20
ENDBRANCH  13  16
ENDBRANCH  10  13
ENDBRANCH   7  10
ENDBRANCH   4   7
ENDBRANCH   1   4
BRANCH   1  22
ATOM     22  C6  7H1 d   1      19.767 -36.137   0.009  0.00  0.00     0.393 C 
ATOM     23  F10 7H1 d   1      20.281 -34.945  -0.292  0.00  0.00    -0.188 F 
ATOM     24  F11 7H1 d   1      18.465 -36.154   0.225  0.00  0.00    -0.188 F 
BRANCH  22  25
ATOM     25  C7  7H1 d   1      20.098 -37.129  -1.085  0.00  0.00     0.301 C 
ATOM     26  O2  7H1 d   1      20.897 -37.986  -0.798  0.00  0.00    -0.266 OA
ATOM     27  N1  7H1 d   1      19.470 -37.059  -2.269  0.00  0.00    -0.322 N 
ATOM     28  H3  7H1 d   1      18.892 -36.259  -2.431  0.00  0.00     0.169 HD
BRANCH  27  29
ATOM     29  C8  7H1 d   1      19.550 -37.985  -3.275  0.00  0.00     0.034 A 
ATOM     30  C9  7H1 d   1      18.678 -37.805  -4.361  0.00  0.00    -0.057 A 
ATOM     31  C10 7H1 d   1      18.661 -38.690  -5.438  0.00  0.00    -0.081 A 
ATOM     32  H4  7H1 d   1      18.002 -36.958  -4.362  0.00  0.00     0.086 H 
ATOM     33  C11 7H1 d   1      19.521 -39.791  -5.440  0.00  0.00    -0.083 A 
ATOM     34  H5  7H1 d   1      17.985 -38.525  -6.269  0.00  0.00     0.083 H 
ATOM     35  C12 7H1 d   1      20.382 -39.997  -4.362  0.00  0.00    -0.081 A 
ATOM     36  H6  7H1 d   1      19.519 -40.482  -6.275  0.00  0.00     0.083 H 
ATOM     37  C13 7H1 d   1      20.406 -39.103  -3.291  0.00  0.00    -0.057 A 
ATOM     38  H7  7H1 d   1      21.038 -40.860  -4.356  0.00  0.00     0.083 H 
ATOM     39  H8  7H1 d   1      21.088 -39.270  -2.466  0.00  0.00     0.086 H 
ENDBRANCH  27  29
ENDBRANCH  22  25
ENDBRANCH   1  22
TORSDOF 9
