REMARK  8 active torsions:
REMARK  status: ('A' for Active; 'I' for Inactive)
REMARK    1  A    between atoms: C1_1  and  C13_13 
REMARK    2  A    between atoms: N1_19  and  C2_2 
REMARK    3  A    between atoms: N2_18  and  C3_3 
REMARK    4  A    between atoms: C6_6  and  C7_7 
REMARK    5  A    between atoms: C8_8  and  C9_9 
REMARK       I    between atoms: C9_9  and  N3_16 
REMARK    6  A    between atoms: C12_12  and  C14_14 
REMARK    7  A    between atoms: N3_16  and  O1_17 
REMARK    8  A    between atoms: N_21  and  C_22 
ROOT
ATOM      1  C3  9RB d   1      11.440  58.939  23.936  0.00  0.00     0.079 A 
ATOM      2  C4  9RB d   1      12.649  58.278  23.811  0.00  0.00    -0.053 A 
ATOM      3  C5  9RB d   1      12.696  56.898  23.614  0.00  0.00    -0.071 A 
ATOM      4  C6  9RB d   1      11.515  56.132  23.516  0.00  0.00    -0.036 A 
ATOM      5  C10 9RB d   1      10.298  56.801  23.639  0.00  0.00    -0.071 A 
ATOM      6  C11 9RB d   1      10.259  58.184  23.832  0.00  0.00    -0.053 A 
ATOM      7  H1  9RB d   1      13.574  58.841  23.867  0.00  0.00     0.087 H 
ATOM      8  H2  9RB d   1      13.658  56.405  23.535  0.00  0.00     0.084 H 
ATOM      9  H5  9RB d   1       9.371  56.241  23.584  0.00  0.00     0.084 H 
ATOM     10  H6  9RB d   1       9.300  58.684  23.903  0.00  0.00     0.087 H 
ENDROOT
BRANCH   1  11
ATOM     11  N2  9RB d   1      11.455  60.346  24.116  0.00  0.00    -0.150 NA
ATOM     12  N1  9RB d   1      10.456  61.035  23.829  0.00  0.00    -0.146 NA
BRANCH  12  13
ATOM     13  C2  9RB d   1      10.380  62.401  23.905  0.00  0.00     0.129 A 
ATOM     14  C1  9RB d   1       9.276  63.193  24.495  0.00  0.00     0.059 A 
ATOM     15  N   9RB d   1       9.672  64.450  24.249  0.00  0.00    -0.276 N 
ATOM     16  N4  9RB d   1      10.896  64.548  23.543  0.00  0.00    -0.175 NA
ATOM     17  C12 9RB d   1      11.379  63.302  23.290  0.00  0.00     0.083 A 
BRANCH  14  18
ATOM     18  C13 9RB d   1       8.031  62.758  25.215  0.00  0.00    -0.034 C 
ATOM     19  H7  9RB d   1       7.994  61.659  25.253  0.00  0.00     0.035 H 
ATOM     20  H8  9RB d   1       7.147  63.136  24.680  0.00  0.00     0.035 H 
ATOM     21  H9  9RB d   1       8.040  63.160  26.239  0.00  0.00     0.035 H 
ENDBRANCH  14  18
BRANCH  15  22
ATOM     22  C   9RB d   1       9.066  65.767  24.569  0.00  0.00     0.003 C 
ATOM     23  H15 9RB d   1       9.713  66.571  24.189  0.00  0.00     0.059 H 
ATOM     24  H16 9RB d   1       8.960  65.867  25.659  0.00  0.00     0.059 H 
ATOM     25  H17 9RB d   1       8.075  65.840  24.096  0.00  0.00     0.059 H 
ENDBRANCH  15  22
BRANCH  17  26
ATOM     26  C14 9RB d   1      12.649  62.947  22.565  0.00  0.00    -0.032 C 
ATOM     27  H10 9RB d   1      13.153  63.868  22.237  0.00  0.00     0.035 H 
ATOM     28  H11 9RB d   1      12.410  62.328  21.688  0.00  0.00     0.035 H 
ATOM     29  H12 9RB d   1      13.312  62.386  23.240  0.00  0.00     0.035 H 
ENDBRANCH  17  26
ENDBRANCH  12  13
ENDBRANCH   1  11
BRANCH   4  30
ATOM     30  C7  9RB d   1      11.512  54.650  23.288  0.00  0.00    -0.068 C 
ATOM     31  C8  9RB d   1      12.656  53.981  23.164  0.00  0.00    -0.015 C 
ATOM     32  H4  9RB d   1      13.579  54.547  23.282  0.00  0.00     0.092 H 
ATOM     33  H3  9RB d   1      10.565  54.116  23.223  0.00  0.00     0.085 H 
BRANCH  31  34
ATOM     34  C9  9RB d   1      12.781  52.543  22.882  0.00  0.00     0.264 C 
ATOM     35  O   9RB d   1      11.882  51.728  22.862  0.00  0.00    -0.266 OA
ATOM     36  N3  9RB d   1      13.972  52.185  22.487  0.00  0.00    -0.234 N 
ATOM     37  H13 9RB d   1      14.766  52.707  22.799  0.00  0.00     0.197 HD
BRANCH  36  38
ATOM     38  O1  9RB d   1      14.160  51.131  21.671  0.00  0.00    -0.287 OA
ATOM     39  H14 9RB d   1      15.088  51.029  21.497  0.00  0.00     0.244 HD
ENDBRANCH  36  38
ENDBRANCH  31  34
ENDBRANCH   4  30
TORSDOF 8
