REMARK  6 active torsions:
REMARK  status: ('A' for Active; 'I' for Inactive)
REMARK    1  A    between atoms: P_1  and  C1P_5 
REMARK    2  A    between atoms: C1P_5  and  C1_6 
REMARK       I    between atoms: C1_6  and  N2_8 
REMARK    3  A    between atoms: N2_8  and  C2_9 
REMARK    4  A    between atoms: C2_9  and  C4_10 
REMARK    5  A    between atoms: C2_9  and  C3_13 
REMARK    6  A    between atoms: C3_13  and  C5_14 
ROOT
ATOM      1  C1  PAL d   1     -54.593 -44.457  91.105  0.00  0.00     0.231 C 
ATOM      2  O1  PAL d   1     -55.520 -43.741  90.721  0.00  0.00    -0.273 OA
ATOM      3  N2  PAL d   1     -54.104 -45.506  90.461  0.00  0.00    -0.345 N 
ATOM      4  H3  PAL d   1     -53.373 -46.016  90.915  0.00  0.00     0.163 HD
ENDROOT
BRANCH   3   5
ATOM      5  C2  PAL d   1     -54.529 -45.985  89.159  0.00  0.00     0.105 C 
ATOM      6  H4  PAL d   1     -54.434 -45.154  88.444  0.00  0.00     0.090 H 
BRANCH   5   7
ATOM      7  C4  PAL d   1     -55.953 -46.464  89.108  0.00  0.00     0.197 C 
ATOM      8  O2  PAL d   1     -56.471 -46.936  90.148  0.00  0.00    -0.646 OA
ATOM      9  O3  PAL d   1     -56.584 -46.372  88.026  0.00  0.00    -0.646 OA
ENDBRANCH   5   7
BRANCH   5  10
ATOM     10  C3  PAL d   1     -53.571 -47.114  88.737  0.00  0.00     0.044 C 
ATOM     11  H5  PAL d   1     -52.585 -46.678  88.518  0.00  0.00     0.053 H 
ATOM     12  H6  PAL d   1     -53.969 -47.596  87.832  0.00  0.00     0.053 H 
BRANCH  10  13
ATOM     13  C5  PAL d   1     -53.409 -48.168  89.820  0.00  0.00     0.175 C 
ATOM     14  O4  PAL d   1     -54.268 -48.247  90.718  0.00  0.00    -0.648 OA
ATOM     15  O5  PAL d   1     -52.416 -48.932  89.810  0.00  0.00    -0.648 OA
ENDBRANCH  10  13
ENDBRANCH   5  10
ENDBRANCH   3   5
BRANCH   1  16
ATOM     16  C1P PAL d   1     -53.867 -44.181  92.391  0.00  0.00     0.112 C 
ATOM     17  H1  PAL d   1     -53.025 -44.883  92.475  0.00  0.00     0.068 H 
ATOM     18  H2  PAL d   1     -53.484 -43.150  92.362  0.00  0.00     0.068 H 
BRANCH  16  19
ATOM     19  P   PAL d   1     -54.923 -44.365  93.862  0.00  0.00     0.268 P 
ATOM     20  O1P PAL d   1     -55.622 -45.681  93.867  0.00  0.00    -0.639 OA
ATOM     21  O2P PAL d   1     -56.001 -43.205  93.770  0.00  0.00    -0.639 OA
ATOM     22  O3P PAL d   1     -53.925 -44.244  95.102  0.00  0.00    -0.639 OA
ENDBRANCH  16  19
ENDBRANCH   1  16
TORSDOF 6
