REMARK  2 active torsions:
REMARK  status: ('A' for Active; 'I' for Inactive)
REMARK       I    between atoms: N_1  and  C_2 
REMARK    1  A    between atoms: C_2  and  O4P_4 
REMARK    2  A    between atoms: O4P_4  and  P_5 
ROOT
ATOM      1  N    CP d   1       9.130  43.132  90.326  0.00  0.00    -0.345 N 
ATOM      2  C    CP d   1       8.147  43.324  89.441  0.00  0.00     0.368 C 
ATOM      3  O    CP d   1       7.145  42.616  89.427  0.00  0.00    -0.238 OA
ATOM      4  H1   CP d   1       9.056  42.401  91.005  0.00  0.00     0.161 HD
ATOM      5  H2   CP d   1       9.939  43.719  90.309  0.00  0.00     0.161 HD
ENDROOT
BRANCH   2   6
ATOM      6  O4P  CP d   1       8.309  44.409  88.470  0.00  0.00    -0.188 OA
BRANCH   6   7
ATOM      7  P    CP d   1       7.096  44.867  87.517  0.00  0.00     0.431 P 
ATOM      8  O1P  CP d   1       6.564  43.540  87.027  0.00  0.00    -0.616 OA
ATOM      9  O2P  CP d   1       7.627  45.591  86.293  0.00  0.00    -0.616 OA
ATOM     10  O3P  CP d   1       6.314  45.701  88.532  0.00  0.00    -0.616 OA
ENDBRANCH   6   7
ENDBRANCH   2   6
TORSDOF 2
