REMARK  11 active torsions:
REMARK  status: ('A' for Active; 'I' for Inactive)
REMARK    1  A    between atoms: C6_3  and  C5_4 
REMARK    2  A    between atoms: C5_4  and  S_5 
REMARK    3  A    between atoms: S_5  and  C4_6 
REMARK    4  A    between atoms: C3_11  and  C_12 
REMARK    5  A    between atoms: C_12  and  O1_13 
REMARK    6  A    between atoms: O1_13  and  C1_14 
REMARK    7  A    between atoms: C1_14  and  C2_15 
REMARK    8  A    between atoms: C10_19  and  O2_21 
REMARK    9  A    between atoms: O2_21  and  C11_22 
REMARK   10  A    between atoms: C11_22  and  C12_23 
REMARK   11  A    between atoms: C15_26  and  N1_29 
ROOT
ATOM      1  N   YN4 d   1      21.958  45.428  63.544  0.00  0.00    -0.197 NA
ATOM      2  C7  YN4 d   1      22.788  45.456  62.765  0.00  0.00     0.059 C 
ATOM      3  C6  YN4 d   1      23.762  45.500  61.707  0.00  0.00     0.023 C 
ATOM      4  H1  YN4 d   1      23.646  44.584  61.109  0.00  0.00     0.056 H 
ATOM      5  H2  YN4 d   1      24.759  45.511  62.172  0.00  0.00     0.056 H 
ENDROOT
BRANCH   3   6
ATOM      6  C5  YN4 d   1      23.684  46.694  60.747  0.00  0.00    -0.007 C 
ATOM      7  H3  YN4 d   1      23.499  46.296  59.739  0.00  0.00     0.050 H 
ATOM      8  H4  YN4 d   1      24.661  47.199  60.768  0.00  0.00     0.050 H 
BRANCH   6   9
ATOM      9  S   YN4 d   1      22.456  47.907  61.069  0.00  0.00    -0.127 SA
BRANCH   9  10
ATOM     10  C4  YN4 d   1      22.857  48.732  62.482  0.00  0.00     0.030 A 
ATOM     11  C8  YN4 d   1      24.264  48.990  62.924  0.00  0.00     0.013 A 
ATOM     12  C23 YN4 d   1      24.441  49.694  64.207  0.00  0.00     0.068 A 
ATOM     13  C9  YN4 d   1      25.408  48.625  62.217  0.00  0.00    -0.037 A 
ATOM     14  N4  YN4 d   1      23.349  50.072  64.898  0.00  0.00    -0.259 NA
ATOM     15  C22 YN4 d   1      25.720  49.984  64.679  0.00  0.00    -0.052 A 
ATOM     16  C24 YN4 d   1      22.073  49.846  64.510  0.00  0.00     0.020 A 
ATOM     17  C3  YN4 d   1      21.740  49.193  63.334  0.00  0.00     0.074 A 
ATOM     18  H5  YN4 d   1      21.271  50.193  65.151  0.00  0.00     0.116 H 
ATOM     19  C21 YN4 d   1      26.837  49.579  63.940  0.00  0.00    -0.049 A 
ATOM     20  H11 YN4 d   1      25.849  50.520  65.612  0.00  0.00     0.087 H 
ATOM     21  C10 YN4 d   1      26.697  48.901  62.718  0.00  0.00     0.070 A 
ATOM     22  H12 YN4 d   1      27.830  49.793  64.318  0.00  0.00     0.087 H 
ATOM     23  H13 YN4 d   1      25.305  48.119  61.264  0.00  0.00     0.089 H 
BRANCH  17  24
ATOM     24  C   YN4 d   1      20.289  48.964  62.984  0.00  0.00     0.296 C 
ATOM     25  O   YN4 d   1      19.500  48.565  63.834  0.00  0.00    -0.259 OA
BRANCH  24  26
ATOM     26  O1  YN4 d   1      19.778  49.219  61.656  0.00  0.00    -0.318 OA
BRANCH  26  27
ATOM     27  C1  YN4 d   1      18.378  49.094  61.369  0.00  0.00     0.026 C 
ATOM     28  H6  YN4 d   1      17.913  48.399  62.084  0.00  0.00     0.074 H 
ATOM     29  H7  YN4 d   1      18.242  48.713  60.346  0.00  0.00     0.074 H 
BRANCH  27  30
ATOM     30  C2  YN4 d   1      17.736  50.461  61.495  0.00  0.00    -0.056 C 
ATOM     31  H8  YN4 d   1      16.660  50.382  61.278  0.00  0.00     0.030 H 
ATOM     32  H9  YN4 d   1      18.205  51.154  60.780  0.00  0.00     0.030 H 
ATOM     33  H10 YN4 d   1      17.877  50.839  62.518  0.00  0.00     0.030 H 
ENDBRANCH  27  30
ENDBRANCH  26  27
ENDBRANCH  24  26
ENDBRANCH  17  24
BRANCH  21  34
ATOM     34  O2  YN4 d   1      27.837  48.515  62.017  0.00  0.00    -0.347 OA
BRANCH  34  35
ATOM     35  C11 YN4 d   1      27.943  47.272  61.277  0.00  0.00     0.051 C 
ATOM     36  H14 YN4 d   1      28.840  47.278  60.641  0.00  0.00     0.082 H 
ATOM     37  H15 YN4 d   1      27.051  47.119  60.651  0.00  0.00     0.082 H 
BRANCH  35  38
ATOM     38  C12 YN4 d   1      28.045  46.190  62.323  0.00  0.00    -0.016 A 
ATOM     39  C20 YN4 d   1      26.920  45.472  62.732  0.00  0.00     0.013 A 
ATOM     40  N3  YN4 d   1      27.034  44.525  63.685  0.00  0.00    -0.243 NA
ATOM     41  H16 YN4 d   1      25.954  45.676  62.283  0.00  0.00     0.115 H 
ATOM     42  C15 YN4 d   1      28.227  44.259  64.290  0.00  0.00     0.125 A 
ATOM     43  C14 YN4 d   1      29.373  44.973  63.891  0.00  0.00    -0.038 A 
ATOM     44  C13 YN4 d   1      29.283  45.953  62.914  0.00  0.00    -0.070 A 
ATOM     45  H17 YN4 d   1      30.331  44.755  64.350  0.00  0.00     0.089 H 
ATOM     46  H18 YN4 d   1      30.157  46.522  62.617  0.00  0.00     0.084 H 
BRANCH  42  47
ATOM     47  N1  YN4 d   1      28.338  43.288  65.304  0.00  0.00    -0.363 N 
ATOM     48  C19 YN4 d   1      29.702  42.880  65.703  0.00  0.00     0.019 C 
ATOM     49  C18 YN4 d   1      29.675  41.927  66.894  0.00  0.00     0.096 C 
ATOM     50  H19 YN4 d   1      30.278  43.777  65.976  0.00  0.00     0.066 H 
ATOM     51  H20 YN4 d   1      30.187  42.377  64.854  0.00  0.00     0.066 H 
ATOM     52  N2  YN4 d   1      28.635  42.260  67.870  0.00  0.00    -0.072 N 
ATOM     53  H21 YN4 d   1      30.653  41.966  67.397  0.00  0.00     0.078 H 
ATOM     54  H22 YN4 d   1      29.494  40.907  66.523  0.00  0.00     0.078 H 
ATOM     55  C17 YN4 d   1      27.302  42.697  67.461  0.00  0.00     0.096 C 
ATOM     56  H23 YN4 d   1      29.011  42.999  68.442  0.00  0.00     0.277 HD
ATOM     57  H24 YN4 d   1      28.501  41.434  68.433  0.00  0.00     0.277 HD
ATOM     58  C16 YN4 d   1      27.117  42.761  65.940  0.00  0.00     0.019 C 
ATOM     59  H25 YN4 d   1      27.122  43.700  67.876  0.00  0.00     0.078 H 
ATOM     60  H26 YN4 d   1      26.564  41.993  67.872  0.00  0.00     0.078 H 
ATOM     61  H27 YN4 d   1      26.913  41.751  65.555  0.00  0.00     0.066 H 
ATOM     62  H28 YN4 d   1      26.270  43.421  65.704  0.00  0.00     0.066 H 
ENDBRANCH  42  47
ENDBRANCH  35  38
ENDBRANCH  34  35
ENDBRANCH  21  34
ENDBRANCH   9  10
ENDBRANCH   6   9
ENDBRANCH   3   6
TORSDOF 11
