REMARK  10 active torsions:
REMARK  status: ('A' for Active; 'I' for Inactive)
REMARK    1  A    between atoms: N26_6  and  C25_7 
REMARK    2  A    between atoms: C25_7  and  C24_8 
REMARK    3  A    between atoms: C24_8  and  C23_9 
REMARK    4  A    between atoms: C23_9  and  O22_10 
REMARK    5  A    between atoms: O22_10  and  C6_11 
REMARK    6  A    between atoms: C4_12  and  O20_15 
REMARK    7  A    between atoms: O20_15  and  C21_16 
REMARK    8  A    between atoms: C10_25  and  N11_26 
REMARK       I    between atoms: N11_26  and  C12_27 
REMARK    9  A    between atoms: C12_27  and  C14_29 
REMARK   10  A    between atoms: C19_32  and  N35_33 
ROOT
ATOM      1  C6  6E2 d   1      49.334  14.828  31.387  0.00  0.00     0.104 A 
ATOM      2  C4  6E2 d   1      47.980  14.591  31.711  0.00  0.00     0.132 A 
ATOM      3  C2  6E2 d   1      47.239  13.589  31.113  0.00  0.00     0.126 A 
ATOM      4  N9  6E2 d   1      45.940  13.398  31.388  0.00  0.00    -0.060 NA
ATOM      5  C5  6E2 d   1      49.926  14.013  30.460  0.00  0.00    -0.047 A 
ATOM      6  C3  6E2 d   1      49.184  13.002  29.854  0.00  0.00    -0.064 A 
ATOM      7  C1  6E2 d   1      47.856  12.789  30.164  0.00  0.00     0.043 A 
ATOM      8  C7  6E2 d   1      47.109  11.786  29.548  0.00  0.00     0.162 A 
ATOM      9  N32 6E2 d   1      47.431  10.926  28.636  0.00  0.00    -0.240 NA
ATOM     10  C33 6E2 d   1      46.482   9.832  28.660  0.00  0.00     0.020 C 
ATOM     11  C34 6E2 d   1      45.241  10.506  29.122  0.00  0.00     0.021 C 
ATOM     12  N8  6E2 d   1      45.773  11.609  29.857  0.00  0.00    -0.137 N 
ATOM     13  C10 6E2 d   1      45.190  12.417  30.790  0.00  0.00     0.716 A 
ATOM     14  H19 6E2 d   1      50.968  14.154  30.198  0.00  0.00     0.087 H 
ATOM     15  H20 6E2 d   1      49.663  12.365  29.119  0.00  0.00     0.085 H 
ATOM     16  H21 6E2 d   1      46.638   8.785  28.405  0.00  0.00     0.117 H 
ATOM     17  H22 6E2 d   1      44.202  10.232  28.947  0.00  0.00     0.115 H 
ENDROOT
BRANCH   1  18
ATOM     18  O22 6E2 d   1      50.006  15.851  31.995  0.00  0.00    -0.348 OA
BRANCH  18  19
ATOM     19  C23 6E2 d   1      51.368  16.099  32.042  0.00  0.00     0.028 C 
ATOM     20  H14 6E2 d   1      51.933  15.163  32.162  0.00  0.00     0.075 H 
ATOM     21  H15 6E2 d   1      51.704  16.615  31.131  0.00  0.00     0.075 H 
BRANCH  19  22
ATOM     22  C24 6E2 d   1      51.537  17.009  33.286  0.00  0.00    -0.022 C 
ATOM     23  H12 6E2 d   1      52.194  17.849  33.017  0.00  0.00     0.038 H 
ATOM     24  H13 6E2 d   1      50.548  17.394  33.573  0.00  0.00     0.038 H 
BRANCH  22  25
ATOM     25  C25 6E2 d   1      52.157  16.269  34.515  0.00  0.00     0.086 C 
ATOM     26  H10 6E2 d   1      51.457  16.341  35.360  0.00  0.00     0.076 H 
ATOM     27  H11 6E2 d   1      52.306  15.211  34.252  0.00  0.00     0.076 H 
BRANCH  25  28
ATOM     28  N26 6E2 d   1      53.483  16.854  34.934  0.00  0.00    -0.067 N 
ATOM     29  C28 6E2 d   1      54.671  16.265  34.189  0.00  0.00     0.103 C 
ATOM     30  C30 6E2 d   1      55.816  15.652  35.070  0.00  0.00     0.042 C 
ATOM     31  H1  6E2 d   1      54.292  15.468  33.532  0.00  0.00     0.079 H 
ATOM     32  H2  6E2 d   1      55.112  17.066  33.577  0.00  0.00     0.079 H 
ATOM     33  O31 6E2 d   1      55.781  15.913  36.531  0.00  0.00    -0.388 OA
ATOM     34  H3  6E2 d   1      56.770  16.046  34.689  0.00  0.00     0.076 H 
ATOM     35  H4  6E2 d   1      55.788  14.561  34.931  0.00  0.00     0.076 H 
ATOM     36  C29 6E2 d   1      54.444  15.837  37.077  0.00  0.00     0.042 C 
ATOM     37  C27 6E2 d   1      53.672  16.993  36.425  0.00  0.00     0.103 C 
ATOM     38  H5  6E2 d   1      54.467  15.958  38.170  0.00  0.00     0.076 H 
ATOM     39  H6  6E2 d   1      53.979  14.873  36.824  0.00  0.00     0.076 H 
ATOM     40  H7  6E2 d   1      54.223  17.926  36.616  0.00  0.00     0.079 H 
ATOM     41  H8  6E2 d   1      52.679  17.051  36.894  0.00  0.00     0.079 H 
ATOM     42  H9  6E2 d   1      53.441  17.807  34.609  0.00  0.00     0.280 HD
ENDBRANCH  25  28
ENDBRANCH  22  25
ENDBRANCH  19  22
ENDBRANCH  18  19
ENDBRANCH   1  18
BRANCH   2  43
ATOM     43  O20 6E2 d   1      47.348  15.357  32.613  0.00  0.00    -0.351 OA
BRANCH  43  44
ATOM     44  C21 6E2 d   1      46.678  16.465  32.003  0.00  0.00     0.011 C 
ATOM     45  H16 6E2 d   1      46.176  17.062  32.779  0.00  0.00     0.067 H 
ATOM     46  H17 6E2 d   1      45.931  16.093  31.286  0.00  0.00     0.067 H 
ATOM     47  H18 6E2 d   1      47.412  17.092  31.475  0.00  0.00     0.067 H 
ENDBRANCH  43  44
ENDBRANCH   2  43
BRANCH  13  48
ATOM     48  N11 6E2 d   1      43.890  12.141  31.068  0.00  0.00    -0.153 N 
ATOM     49  C12 6E2 d   1      43.233  12.692  32.084  0.00  0.00     0.272 C 
ATOM     50  O13 6E2 d   1      43.749  13.472  32.884  0.00  0.00    -0.267 OA
ATOM     51  H23 6E2 d   1      43.404  11.493  30.481  0.00  0.00     0.187 HD
BRANCH  49  52
ATOM     52  C14 6E2 d   1      41.824  12.169  32.335  0.00  0.00     0.069 A 
ATOM     53  C16 6E2 d   1      41.120  12.557  33.483  0.00  0.00     0.038 A 
ATOM     54  N18 6E2 d   1      39.910  12.077  33.708  0.00  0.00    -0.074 NA
ATOM     55  H24 6E2 d   1      41.568  13.250  34.186  0.00  0.00     0.117 H 
ATOM     56  C19 6E2 d   1      39.378  11.215  32.820  0.00  0.00     0.719 A 
ATOM     57  N17 6E2 d   1      40.044  10.815  31.709  0.00  0.00    -0.074 NA
ATOM     58  C15 6E2 d   1      41.248  11.257  31.478  0.00  0.00     0.038 A 
ATOM     59  H27 6E2 d   1      41.797  10.907  30.611  0.00  0.00     0.117 H 
BRANCH  56  60
ATOM     60  N35 6E2 d   1      38.172  10.722  33.032  0.00  0.00    -0.231 N 
ATOM     61  H25 6E2 d   1      37.639  11.005  33.867  0.00  0.00     0.174 HD
ATOM     62  H26 6E2 d   1      37.764  10.054  32.363  0.00  0.00     0.174 HD
ENDBRANCH  56  60
ENDBRANCH  49  52
ENDBRANCH  13  48
TORSDOF 10
