REMARK  3 active torsions:
REMARK  status: ('A' for Active; 'I' for Inactive)
REMARK       I    between atoms: C14_2  and  N16_3 
REMARK    1  A    between atoms: C11_12  and  C14_2 
REMARK    2  A    between atoms: C7_7  and  C4_5 
REMARK    3  A    between atoms: C8_14  and  C7_7 
ROOT
ATOM      1  C10 9JH d   1       0.930   0.781  -1.984  0.00  0.00    -0.067 A 
ATOM      2  C11 9JH d   1      -0.298   1.087  -2.585  0.00  0.00     0.031 A 
ATOM      3  C9  9JH d   1       1.512   1.634  -1.051  0.00  0.00    -0.076 A 
ATOM      4  C8  9JH d   1       0.877   2.812  -0.719  0.00  0.00    -0.054 A 
ATOM      5  C13 9JH d   1      -0.346   3.132  -1.309  0.00  0.00    -0.076 A 
ATOM      6  C12 9JH d   1      -0.949   2.283  -2.233  0.00  0.00    -0.067 A 
ATOM      7  H10 9JH d   1       1.437  -0.139  -2.251  0.00  0.00     0.085 H 
ATOM      8  H11 9JH d   1       2.458   1.374  -0.589  0.00  0.00     0.084 H 
ATOM      9  H12 9JH d   1      -0.837   4.061  -1.042  0.00  0.00     0.084 H 
ATOM     10  H13 9JH d   1      -1.905   2.540  -2.674  0.00  0.00     0.085 H 
ENDROOT
BRANCH   4  11
ATOM     11  C7  9JH d   1       1.514   3.739   0.297  0.00  0.00    -0.017 C 
ATOM     12  H5  9JH d   1       2.355   3.232   0.792  0.00  0.00     0.047 H 
ATOM     13  H6  9JH d   1       1.877   4.649  -0.202  0.00  0.00     0.047 H 
BRANCH  11  14
ATOM     14  C4  9JH d   1       0.461   4.096   1.312  0.00  0.00    -0.054 A 
ATOM     15  C3  9JH d   1       0.240   3.247   2.380  0.00  0.00    -0.077 A 
ATOM     16  C2  9JH d   1      -0.726   3.531   3.325  0.00  0.00    -0.082 A 
ATOM     17  H3  9JH d   1       0.834   2.345   2.477  0.00  0.00     0.084 H 
ATOM     18  C1  9JH d   1      -1.475   4.689   3.200  0.00  0.00    -0.083 A 
ATOM     19  H9  9JH d   1      -0.896   2.855   4.155  0.00  0.00     0.083 H 
ATOM     20  C6  9JH d   1      -1.256   5.543   2.134  0.00  0.00    -0.082 A 
ATOM     21  H8  9JH d   1      -2.233   4.926   3.938  0.00  0.00     0.083 H 
ATOM     22  C5  9JH d   1      -0.289   5.253   1.180  0.00  0.00    -0.077 A 
ATOM     23  H7  9JH d   1      -1.845   6.448   2.042  0.00  0.00     0.083 H 
ATOM     24  H4  9JH d   1      -0.124   5.923   0.344  0.00  0.00     0.084 H 
ENDBRANCH  11  14
ENDBRANCH   4  11
BRANCH   2  25
ATOM     25  C14 9JH d   1      -0.886   0.160  -3.589  0.00  0.00     0.249 C 
ATOM     26  O15 9JH d   1      -1.793   0.523  -4.342  0.00  0.00    -0.268 OA
ATOM     27  N16 9JH d   1      -0.398  -1.096  -3.704  0.00  0.00    -0.366 N 
ATOM     28  H1  9JH d   1       0.337  -1.404  -3.100  0.00  0.00     0.159 HD
ATOM     29  H2  9JH d   1      -0.772  -1.717  -4.393  0.00  0.00     0.159 HD
ENDBRANCH   2  25
TORSDOF 3
