REMARK  0 active torsions:
REMARK  status: ('A' for Active; 'I' for Inactive)
REMARK       I    between atoms: N10_10  and  C7_7 
REMARK       I    between atoms: C7_7  and  N11_11 
ROOT
ATOM      1  C1  4TU d   1     -27.021   6.020 -13.277  0.00  0.00    -0.054 A 
ATOM      2  C2  4TU d   1     -26.821   7.384 -13.430  0.00  0.00    -0.060 A 
ATOM      3  C3  4TU d   1     -28.644   7.507 -14.997  0.00  0.00    -0.050 A 
ATOM      4  C4  4TU d   1     -28.840   6.155 -14.830  0.00  0.00    -0.006 A 
ATOM      5  C5  4TU d   1     -28.051   5.422 -13.985  0.00  0.00     0.053 A 
ATOM      6  C6  4TU d   1     -27.636   8.112 -14.281  0.00  0.00     0.035 A 
ATOM      7  C7  4TU d   1     -28.097   3.063 -13.119  0.00  0.00     0.324 C 
ATOM      8  C8  4TU d   1     -29.862   5.339 -15.519  0.00  0.00    -0.055 A 
ATOM      9  C9  4TU d   1     -29.524   3.942 -15.009  0.00  0.00    -0.009 A 
ATOM     10  N10 4TU d   1     -28.452   4.069 -14.034  0.00  0.00    -0.275 N 
ATOM     11  N11 4TU d   1     -28.788   1.876 -13.277  0.00  0.00    -0.351 N 
ATOM     12  O12 4TU d   1     -27.233   3.147 -12.252  0.00  0.00    -0.247 OA
ATOM     13 CL1  4TU d   1     -27.438   9.815 -14.509  0.00  0.00    -0.084 Cl
ATOM     14  H1  4TU d   1     -26.387   5.436 -12.620  0.00  0.00     0.087 H 
ATOM     15  H2  4TU d   1     -26.027   7.880 -12.884  0.00  0.00     0.086 H 
ATOM     16  H3  4TU d   1     -29.267   8.080 -15.674  0.00  0.00     0.087 H 
ATOM     17  H4  4TU d   1     -30.646   5.652 -16.207  0.00  0.00     0.087 H 
ATOM     18  H5  4TU d   1     -30.001   3.014 -15.320  0.00  0.00     0.112 H 
ATOM     19  H6  4TU d   1     -28.601   1.104 -12.670  0.00  0.00     0.160 HD
ATOM     20  H7  4TU d   1     -29.475   1.790 -13.998  0.00  0.00     0.160 HD
ENDROOT
TORSDOF 0
