REMARK  2 active torsions:
REMARK  status: ('A' for Active; 'I' for Inactive)
REMARK    1  A    between atoms: C2_2  and  N11_11 
REMARK    2  A    between atoms: N10_10  and  C3_3 
ROOT
ATOM      1  C4  5IM d   1     -28.129   7.357 -14.754  0.00  0.00    -0.062 C 
ATOM      2  C5  5IM d   1     -28.021   8.345 -15.903  0.00  0.00    -0.050 C 
ATOM      3  C6  5IM d   1     -26.830   7.149 -13.994  0.00  0.00    -0.050 C 
ATOM      4  C7  5IM d   1     -27.375   9.637 -15.448  0.00  0.00    -0.003 C 
ATOM      5  C8  5IM d   1     -26.135   8.461 -13.690  0.00  0.00    -0.003 C 
ATOM      6  N10 5IM d   1     -26.076   9.361 -14.851  0.00  0.00    -0.360 N 
ATOM      7  H2  5IM d   1     -28.451   6.387 -15.161  0.00  0.00     0.033 H 
ATOM      8  H3  5IM d   1     -28.887   7.728 -14.049  0.00  0.00     0.033 H 
ATOM      9  H4  5IM d   1     -29.029   8.562 -16.287  0.00  0.00     0.035 H 
ATOM     10  H5  5IM d   1     -27.412   7.901 -16.704  0.00  0.00     0.035 H 
ATOM     11  H6  5IM d   1     -26.159   6.524 -14.601  0.00  0.00     0.035 H 
ATOM     12  H7  5IM d   1     -27.051   6.636 -13.046  0.00  0.00     0.035 H 
ATOM     13  H8  5IM d   1     -28.021  10.125 -14.704  0.00  0.00     0.064 H 
ATOM     14  H9  5IM d   1     -27.244  10.303 -16.313  0.00  0.00     0.064 H 
ATOM     15  H10 5IM d   1     -25.108   8.246 -13.361  0.00  0.00     0.064 H 
ATOM     16  H11 5IM d   1     -26.681   8.968 -12.881  0.00  0.00     0.064 H 
ENDROOT
BRANCH   6  17
ATOM     17  C3  5IM d   1     -25.170  10.394 -14.773  0.00  0.00     0.170 A 
ATOM     18  N9  5IM d   1     -24.095  10.414 -13.999  0.00  0.00    -0.207 NA
ATOM     19  C2  5IM d   1     -23.375  11.574 -14.109  0.00  0.00     0.130 A 
ATOM     20  C1  5IM d   1     -23.892  12.485 -14.996  0.00  0.00     0.002 A 
ATOM     21  S12 5IM d   1     -25.312  11.837 -15.705  0.00  0.00    -0.060 SA
ATOM     22  H1  5IM d   1     -23.468  13.464 -15.215  0.00  0.00     0.101 H 
BRANCH  19  23
ATOM     23  N11 5IM d   1     -22.257  11.774 -13.378  0.00  0.00    -0.384 N 
ATOM     24  H12 5IM d   1     -21.927  11.044 -12.731  0.00  0.00     0.157 HD
ATOM     25  H13 5IM d   1     -21.734  12.657 -13.468  0.00  0.00     0.157 HD
ENDBRANCH  19  23
ENDBRANCH   6  17
TORSDOF 2
