REMARK  6 active torsions:
REMARK  status: ('A' for Active; 'I' for Inactive)
REMARK       I    between atoms: C5'_1  and  N5'_3 
REMARK    1  A    between atoms: C5'_1  and  C4'_6 
REMARK    2  A    between atoms: N5'_3  and  C51_4 
REMARK    3  A    between atoms: C51_4  and  C52_5 
REMARK    4  A    between atoms: C3'_8  and  O3'_9 
REMARK    5  A    between atoms: C2'_10  and  O2'_11 
REMARK    6  A    between atoms: C1'_12  and  N9_13 
ROOT
ATOM      1  C4' NEC d   1      -4.932 -41.860  20.245  0.00  0.00     0.144 C 
ATOM      2  O4' NEC d   1      -5.278 -43.248  20.254  0.00  0.00    -0.346 OA
ATOM      3  C3' NEC d   1      -4.379 -41.510  21.627  0.00  0.00     0.098 C 
ATOM      4  C2' NEC d   1      -4.722 -42.709  22.499  0.00  0.00     0.105 C 
ATOM      5  C1' NEC d   1      -4.996 -43.848  21.526  0.00  0.00     0.140 C 
ATOM      6  H7  NEC d   1      -5.827 -41.248  20.062  0.00  0.00     0.102 H 
ATOM      7  H8  NEC d   1      -3.287 -41.392  21.572  0.00  0.00     0.091 H 
ATOM      8  H10 NEC d   1      -3.868 -42.953  23.148  0.00  0.00     0.093 H 
ATOM      9  H12 NEC d   1      -5.876 -44.416  21.863  0.00  0.00     0.123 H 
ENDROOT
BRANCH   5  10
ATOM     10  N9  NEC d   1      -3.829 -44.778  21.459  0.00  0.00    -0.294 N 
ATOM     11  C8  NEC d   1      -2.918 -44.901  20.465  0.00  0.00     0.071 A 
ATOM     12  N7  NEC d   1      -2.003 -45.856  20.763  0.00  0.00    -0.236 NA
ATOM     13  H13 NEC d   1      -2.920 -44.312  19.549  0.00  0.00     0.144 H 
ATOM     14  C5  NEC d   1      -2.325 -46.356  21.964  0.00  0.00     0.149 A 
ATOM     15  C6  NEC d   1      -1.785 -47.394  22.871  0.00  0.00     0.155 A 
ATOM     16  C4  NEC d   1      -3.529 -45.650  22.418  0.00  0.00     0.167 A 
ATOM     17  N6  NEC d   1      -0.678 -48.091  22.524  0.00  0.00    -0.382 N 
ATOM     18  N1  NEC d   1      -2.429 -47.617  24.045  0.00  0.00    -0.222 NA
ATOM     19  H14 NEC d   1      -0.304 -48.813  23.157  0.00  0.00     0.157 HD
ATOM     20  H15 NEC d   1      -0.209 -47.900  21.627  0.00  0.00     0.157 HD
ATOM     21  C2  NEC d   1      -3.532 -46.922  24.400  0.00  0.00     0.091 A 
ATOM     22  N3  NEC d   1      -4.071 -45.964  23.620  0.00  0.00    -0.222 NA
ATOM     23  H16 NEC d   1      -4.003 -47.144  25.351  0.00  0.00     0.146 H 
ENDBRANCH   5  10
BRANCH   4  24
ATOM     24  O2' NEC d   1      -5.882 -42.493  23.316  0.00  0.00    -0.388 OA
ATOM     25  H11 NEC d   1      -5.730 -41.751  23.890  0.00  0.00     0.210 HD
ENDBRANCH   4  24
BRANCH   1  26
ATOM     26  C5' NEC d   1      -3.969 -41.658  19.108  0.00  0.00     0.249 C 
ATOM     27  O5' NEC d   1      -2.768 -41.854  19.243  0.00  0.00    -0.271 OA
ATOM     28  N5' NEC d   1      -4.509 -41.284  17.948  0.00  0.00    -0.359 N 
ATOM     29  H1  NEC d   1      -5.493 -41.114  17.903  0.00  0.00     0.162 HD
BRANCH  28  30
ATOM     30  C51 NEC d   1      -3.709 -41.117  16.750  0.00  0.00    -0.008 C 
ATOM     31  H2  NEC d   1      -3.120 -42.032  16.589  0.00  0.00     0.063 H 
ATOM     32  H3  NEC d   1      -3.029 -40.264  16.896  0.00  0.00     0.063 H 
BRANCH  30  33
ATOM     33  C52 NEC d   1      -4.549 -40.861  15.524  0.00  0.00    -0.061 C 
ATOM     34  H4  NEC d   1      -3.893 -40.743  14.649  0.00  0.00     0.029 H 
ATOM     35  H5  NEC d   1      -5.138 -39.943  15.668  0.00  0.00     0.029 H 
ATOM     36  H6  NEC d   1      -5.228 -41.711  15.361  0.00  0.00     0.029 H 
ENDBRANCH  30  33
ENDBRANCH  28  30
ENDBRANCH   1  26
BRANCH   3  37
ATOM     37  O3' NEC d   1      -4.939 -40.291  22.133  0.00  0.00    -0.390 OA
ATOM     38  H9  NEC d   1      -4.573 -40.107  22.990  0.00  0.00     0.210 HD
ENDBRANCH   3  37
TORSDOF 6
