REMARK WARNING: 32 MAX_TORS EXCEEDED!!!
REMARK  58 active torsions:
REMARK  status: ('A' for Active; 'I' for Inactive)
REMARK    1  A    between atoms: N_1  and  CA_2 
REMARK    2  A    between atoms: CA_2  and  C_3 
REMARK       I    between atoms: C_3  and  N_5 
REMARK    3  A    between atoms: N_5  and  CA_6 
REMARK    4  A    between atoms: CA_6  and  C_7 
REMARK    5  A    between atoms: CA_6  and  CB_9 
REMARK       I    between atoms: C_7  and  N_16 
REMARK    6  A    between atoms: CB_9  and  CG_10 
REMARK    7  A    between atoms: CG_10  and  CD_11 
REMARK    8  A    between atoms: CD_11  and  NE_12 
REMARK       I    between atoms: NE_12  and  CZ_13 
REMARK       I    between atoms: CZ_13  and  NH1_14 
REMARK       I    between atoms: CZ_13  and  NH2_15 
REMARK    9  A    between atoms: N_16  and  CA_17 
REMARK   10  A    between atoms: CA_17  and  C_18 
REMARK   11  A    between atoms: CA_17  and  CB_20 
REMARK       I    between atoms: C_18  and  N_25 
REMARK   12  A    between atoms: CB_20  and  CG_21 
REMARK   13  A    between atoms: CG_21  and  CD_22 
REMARK   14  A    between atoms: CD_22  and  CE_23 
REMARK   15  A    between atoms: CE_23  and  NZ_24 
REMARK   16  A    between atoms: N_25  and  CA_26 
REMARK   17  A    between atoms: CA_26  and  C_27 
REMARK   18  A    between atoms: CA_26  and  CB_29 
REMARK       I    between atoms: C_27  and  N_36 
REMARK   19  A    between atoms: CB_29  and  CG_30 
REMARK   20  A    between atoms: CG_30  and  CD_31 
REMARK   21  A    between atoms: CD_31  and  NE_32 
REMARK       I    between atoms: NE_32  and  CZ_33 
REMARK       I    between atoms: CZ_33  and  NH1_34 
REMARK   22  A    between atoms: N_36  and  CA_37 
REMARK   23  A    between atoms: CA_37  and  C_38 
REMARK   24  A    between atoms: CA_37  and  CB_40 
REMARK       I    between atoms: C_38  and  N_46 
REMARK   25  A    between atoms: CB_40  and  CG_41 
REMARK   26  A    between atoms: N_46  and  CA_47 
REMARK   27  A    between atoms: CA_47  and  C_48 
REMARK   28  A    between atoms: CA_47  and  CB_50 
REMARK       I    between atoms: C_48  and  N_52 
REMARK   29  A    between atoms: CB_50  and  SG_51 
REMARK   30  A    between atoms: N_52  and  CA_53 
REMARK   31  A    between atoms: CA_53  and  C_54 
REMARK   32  A    between atoms: CA_53  and  CB_56 
REMARK       I    between atoms: C_54  and  N_61 
REMARK   33  A    between atoms: CB_56  and  CG_57 
REMARK   34  A    between atoms: CG_57  and  CD_58 
REMARK   35  A    between atoms: CD_58  and  CE_59 
REMARK   36  A    between atoms: CE_59  and  NZ_60 
REMARK   37  A    between atoms: N_61  and  CA_62 
REMARK   38  A    between atoms: CA_62  and  C_63 
REMARK   39  A    between atoms: CA_62  and  CB_65 
REMARK       I    between atoms: C_63  and  N_68 
REMARK   40  A    between atoms: CB_65  and  OG1_66 
REMARK   41  A    between atoms: CB_65  and  CG2_67 
REMARK   42  A    between atoms: N_68  and  CA_69 
REMARK   43  A    between atoms: CA_69  and  C_70 
REMARK   44  A    between atoms: CA_69  and  CB_72 
REMARK       I    between atoms: C_70  and  N_77 
REMARK   45  A    between atoms: CB_72  and  CG_73 
REMARK   46  A    between atoms: CG_73  and  CD_74 
REMARK   47  A    between atoms: CD_74  and  CE_75 
REMARK   48  A    between atoms: CE_75  and  NZ_76 
REMARK   49  A    between atoms: N_77  and  CA_78 
REMARK   50  A    between atoms: CA_78  and  C_79 
REMARK   51  A    between atoms: CA_78  and  CB_81 
REMARK       I    between atoms: C_79  and  N_87 
REMARK   52  A    between atoms: CB_81  and  CG_82 
REMARK   53  A    between atoms: N_87  and  CA_88 
REMARK   54  A    between atoms: CA_88  and  C_89 
REMARK   55  A    between atoms: CA_88  and  CB_91 
REMARK   56  A    between atoms: CB_91  and  CG_92 
REMARK   57  A    between atoms: CG_92  and  CD1_93 
REMARK   58  A    between atoms: CG_92  and  CD2_94 
ROOT
ATOM      1  CA  CYS d   1      42.147  -0.614  61.099  0.00  0.00     0.097 C 
ATOM      2  H53 CYS d   1      41.952  -1.621  60.703  0.00  0.00     0.088 H 
ENDROOT
BRANCH   1   3
ATOM      3  N   CYS d   1      43.550  -0.295  60.932  0.00  0.00    -0.345 N 
ATOM      4  C   HIS d   1      44.475  -1.238  60.849  0.00  0.00     0.241 C 
ATOM      5  O   HIS d   1      44.236  -2.417  60.904  0.00  0.00    -0.271 OA
ATOM      6  H52 CYS d   1      43.827   0.664  60.878  0.00  0.00     0.163 HD
BRANCH   4   7
ATOM      7  CA  HIS d   1      45.894  -0.760  60.788  0.00  0.00     0.094 C 
ATOM      8  H46 HIS d   1      46.495  -1.479  60.212  0.00  0.00     0.088 H 
BRANCH   7   9
ATOM      9  N   HIS d   1      46.018   0.540  60.175  0.00  0.00    -0.346 N 
ATOM     10  C   ARG d   1      46.547   0.696  58.976  0.00  0.00     0.241 C 
ATOM     11  O   ARG d   1      46.868  -0.248  58.265  0.00  0.00    -0.271 OA
ATOM     12  H45 HIS d   1      45.694   1.345  60.672  0.00  0.00     0.163 HD
BRANCH  10  13
ATOM     13  CA  ARG d   1      46.593   2.116  58.450  0.00  0.00     0.089 C 
ATOM     14  H33 ARG d   1      47.049   2.766  59.211  0.00  0.00     0.087 H 
BRANCH  13  15
ATOM     15  N   ARG d   1      47.403   2.168  57.244  0.00  0.00    -0.346 N 
ATOM     16  C   LYS d   1      48.720   1.978  57.269  0.00  0.00     0.241 C 
ATOM     17  O   LYS d   1      49.372   1.908  58.311  0.00  0.00    -0.271 OA
ATOM     18  H32 ARG d   1      46.957   2.352  56.368  0.00  0.00     0.163 HD
BRANCH  16  19
ATOM     19  CA  LYS d   1      49.404   1.855  55.916  0.00  0.00     0.089 C 
ATOM     20  H20 LYS d   1      48.807   2.385  55.160  0.00  0.00     0.087 H 
BRANCH  19  21
ATOM     21  N   LYS d   1      50.730   2.451  55.974  0.00  0.00    -0.346 N 
ATOM     22  C   ARG d   1      50.929   3.750  55.781  0.00  0.00     0.241 C 
ATOM     23  O   ARG d   1      50.033   4.535  55.476  0.00  0.00    -0.271 OA
ATOM     24  H19 LYS d   1      51.517   1.864  56.165  0.00  0.00     0.163 HD
BRANCH  22  25
ATOM     25  CA  ARG d   1      52.364   4.223  55.960  0.00  0.00     0.089 C 
ATOM     26  H7  ARG d   1      53.029   3.502  55.462  0.00  0.00     0.087 H 
BRANCH  25  27
ATOM     27  N   ARG d   1      52.584   5.535  55.357  0.00  0.00    -0.346 N 
ATOM     28  C   GLY d   1      53.632   5.788  54.576  0.00  0.00     0.243 C 
ATOM     29  O   GLY d   1      54.456   4.928  54.253  0.00  0.00    -0.272 OA
ATOM     30  H6  ARG d   1      51.926   6.267  55.537  0.00  0.00     0.163 HD
BRANCH  28  31
ATOM     31  CA  GLY d   1      53.772   7.217  54.081  0.00  0.00     0.152 C 
ATOM     32  H4  GLY d   1      53.625   7.226  52.991  0.00  0.00     0.090 H 
ATOM     33  H5  GLY d   1      52.996   7.832  54.561  0.00  0.00     0.090 H 
BRANCH  31  34
ATOM     34  N   GLY d   1      55.109   7.813  54.386  0.00  0.00    -0.071 N 
ATOM     35  H1  GLY d   1      55.144   8.758  54.036  0.00  0.00     0.274 HD
ATOM     36  H2  GLY d   1      55.830   7.264  53.944  0.00  0.00     0.274 HD
ATOM     37  H3  GLY d   1      55.255   7.819  55.383  0.00  0.00     0.274 HD
ENDBRANCH  31  34
ENDBRANCH  28  31
ENDBRANCH  25  27
BRANCH  25  38
ATOM     38  CB  ARG d   1      52.712   4.258  57.452  0.00  0.00    -0.036 C 
ATOM     39  H8  ARG d   1      52.097   3.504  57.965  0.00  0.00     0.036 H 
ATOM     40  H9  ARG d   1      52.464   5.258  57.838  0.00  0.00     0.036 H 
BRANCH  38  41
ATOM     41  CG  ARG d   1      54.179   3.974  57.774  0.00  0.00    -0.048 C 
ATOM     42  H10 ARG d   1      54.752   4.909  57.691  0.00  0.00     0.035 H 
ATOM     43  H11 ARG d   1      54.569   3.239  57.054  0.00  0.00     0.035 H 
BRANCH  41  44
ATOM     44  CD  ARG d   1      54.336   3.418  59.187  0.00  0.00     0.009 C 
ATOM     45  H12 ARG d   1      53.821   4.086  59.893  0.00  0.00     0.064 H 
ATOM     46  H13 ARG d   1      55.406   3.376  59.437  0.00  0.00     0.064 H 
BRANCH  44  47
ATOM     47  NE  ARG d   1      53.765   2.069  59.304  0.00  0.00    -0.227 N 
ATOM     48  CZ  ARG d   1      53.138   1.576  60.377  0.00  0.00     0.665 C 
ATOM     49  NH1 ARG d   1      52.967   2.305  61.482  0.00  0.00    -0.235 N 
ATOM     50  NH2 ARG d   1      52.662   0.334  60.338  0.00  0.00    -0.235 N 
ATOM     51  H15 ARG d   1      52.480   1.901  62.295  0.00  0.00     0.174 HD
ATOM     52  H16 ARG d   1      53.322   3.271  61.522  0.00  0.00     0.174 HD
ATOM     53  H17 ARG d   1      52.787  -0.239  59.491  0.00  0.00     0.174 HD
ATOM     54  H18 ARG d   1      52.168  -0.054  61.154  0.00  0.00     0.174 HD
ATOM     55  H14 ARG d   1      53.856   1.448  58.487  0.00  0.00     0.177 HD
ENDBRANCH  44  47
ENDBRANCH  41  44
ENDBRANCH  38  41
ENDBRANCH  25  38
ENDBRANCH  22  25
ENDBRANCH  19  21
BRANCH  19  56
ATOM     56  CB  LYS d   1      49.500   0.383  55.532  0.00  0.00    -0.038 C 
ATOM     57  H21 LYS d   1      48.494  -0.058  55.594  0.00  0.00     0.036 H 
ATOM     58  H22 LYS d   1      50.166  -0.120  56.249  0.00  0.00     0.036 H 
BRANCH  56  59
ATOM     59  CG  LYS d   1      50.040   0.150  54.133  0.00  0.00    -0.061 C 
ATOM     60  H23 LYS d   1      50.435   1.099  53.743  0.00  0.00     0.033 H 
ATOM     61  H24 LYS d   1      49.218  -0.197  53.489  0.00  0.00     0.033 H 
BRANCH  59  62
ATOM     62  CD  LYS d   1      51.150  -0.888  54.113  0.00  0.00    -0.043 C 
ATOM     63  H25 LYS d   1      51.892  -0.632  54.884  0.00  0.00     0.035 H 
ATOM     64  H26 LYS d   1      51.630  -0.877  53.123  0.00  0.00     0.035 H 
BRANCH  62  65
ATOM     65  CE  LYS d   1      50.620  -2.279  54.386  0.00  0.00     0.080 C 
ATOM     66  H27 LYS d   1      49.860  -2.526  53.630  0.00  0.00     0.075 H 
ATOM     67  H28 LYS d   1      50.162  -2.297  55.386  0.00  0.00     0.075 H 
BRANCH  65  68
ATOM     68  NZ  LYS d   1      51.704  -3.299  54.333  0.00  0.00    -0.079 N 
ATOM     69  H29 LYS d   1      51.317  -4.211  54.519  0.00  0.00     0.274 HD
ATOM     70  H30 LYS d   1      52.403  -3.083  55.027  0.00  0.00     0.274 HD
ATOM     71  H31 LYS d   1      52.126  -3.293  53.418  0.00  0.00     0.274 HD
ENDBRANCH  65  68
ENDBRANCH  62  65
ENDBRANCH  59  62
ENDBRANCH  56  59
ENDBRANCH  19  56
ENDBRANCH  16  19
ENDBRANCH  13  15
BRANCH  13  72
ATOM     72  CB  ARG d   1      45.172   2.603  58.174  0.00  0.00    -0.036 C 
ATOM     73  H34 ARG d   1      44.473   1.959  58.728  0.00  0.00     0.036 H 
ATOM     74  H35 ARG d   1      44.979   2.510  57.095  0.00  0.00     0.036 H 
BRANCH  72  75
ATOM     75  CG  ARG d   1      44.915   4.043  58.580  0.00  0.00    -0.048 C 
ATOM     76  H36 ARG d   1      45.433   4.233  59.532  0.00  0.00     0.035 H 
ATOM     77  H37 ARG d   1      43.832   4.176  58.719  0.00  0.00     0.035 H 
BRANCH  75  78
ATOM     78  CD  ARG d   1      45.396   5.061  57.561  0.00  0.00     0.009 C 
ATOM     79  H38 ARG d   1      45.103   4.737  56.552  0.00  0.00     0.064 H 
ATOM     80  H39 ARG d   1      46.491   5.145  57.615  0.00  0.00     0.064 H 
BRANCH  78  81
ATOM     81  NE  ARG d   1      44.791   6.362  57.851  0.00  0.00    -0.227 N 
ATOM     82  CZ  ARG d   1      44.755   7.404  57.020  0.00  0.00     0.665 C 
ATOM     83  NH1 ARG d   1      45.303   7.336  55.809  0.00  0.00    -0.235 N 
ATOM     84  NH2 ARG d   1      44.163   8.531  57.412  0.00  0.00    -0.235 N 
ATOM     85  H41 ARG d   1      45.266   8.151  55.180  0.00  0.00     0.174 HD
ATOM     86  H42 ARG d   1      45.764   6.468  55.501  0.00  0.00     0.174 HD
ATOM     87  H43 ARG d   1      43.737   8.590  58.348  0.00  0.00     0.174 HD
ATOM     88  H44 ARG d   1      44.131   9.343  56.779  0.00  0.00     0.174 HD
ATOM     89  H40 ARG d   1      44.356   6.483  58.777  0.00  0.00     0.177 HD
ENDBRANCH  78  81
ENDBRANCH  75  78
ENDBRANCH  72  75
ENDBRANCH  13  72
ENDBRANCH  10  13
ENDBRANCH   7   9
BRANCH   7  90
ATOM     90  CB  HIS d   1      46.387  -0.704  62.211  0.00  0.00     0.004 C 
ATOM     91  H47 HIS d   1      46.094  -1.637  62.715  0.00  0.00     0.046 H 
ATOM     92  H48 HIS d   1      45.906   0.150  62.711  0.00  0.00     0.046 H 
BRANCH  90  93
ATOM     93  CG  HIS d   1      47.861  -0.548  62.335  0.00  0.00     0.053 A 
ATOM     94  ND1 HIS d   1      48.744  -1.513  61.924  0.00  0.00    -0.247 NA
ATOM     95  CE1 HIS d   1      49.973  -1.105  62.154  0.00  0.00     0.064 A 
ATOM     96  NE2 HIS d   1      49.916   0.089  62.706  0.00  0.00    -0.359 N 
ATOM     97  H50 HIS d   1      50.882  -1.660  61.927  0.00  0.00     0.143 H 
ATOM     98  CD2 HIS d   1      48.606   0.457  62.834  0.00  0.00     0.002 A 
ATOM     99  H51 HIS d   1      50.727   0.654  62.995  0.00  0.00     0.166 HD
ATOM    100  H49 HIS d   1      48.234   1.388  63.260  0.00  0.00     0.114 H 
ENDBRANCH  90  93
ENDBRANCH   7  90
ENDBRANCH   4   7
ENDBRANCH   1   3
BRANCH   1 101
ATOM    101  C   CYS d   1      41.339   0.399  60.321  0.00  0.00     0.241 C 
ATOM    102  O   CYS d   1      41.810   1.500  60.037  0.00  0.00    -0.271 OA
ATOM    103  N   LYS d   1      40.120   0.022  59.970  0.00  0.00    -0.346 N 
ATOM    104  H57 LYS d   1      39.772  -0.867  60.268  0.00  0.00     0.163 HD
BRANCH 103 105
ATOM    105  CA  LYS d   1      39.287   0.882  59.161  0.00  0.00     0.089 C 
ATOM    106  H58 LYS d   1      39.940   1.490  58.517  0.00  0.00     0.087 H 
BRANCH 105 107
ATOM    107  C   LYS d   1      38.434   1.819  59.990  0.00  0.00     0.241 C 
ATOM    108  O   LYS d   1      38.519   1.844  61.197  0.00  0.00    -0.271 OA
ATOM    109  N   THR d   1      37.623   2.636  59.342  0.00  0.00    -0.344 N 
ATOM    110  H70 THR d   1      37.646   2.659  58.343  0.00  0.00     0.163 HD
BRANCH 109 111
ATOM    111  CA  THR d   1      36.695   3.505  60.055  0.00  0.00     0.113 C 
ATOM    112  H71 THR d   1      36.103   2.845  60.706  0.00  0.00     0.091 H 
BRANCH 111 113
ATOM    113  C   THR d   1      35.678   4.246  59.157  0.00  0.00     0.243 C 
ATOM    114  O   THR d   1      35.954   5.294  58.627  0.00  0.00    -0.271 OA
ATOM    115  N   LYS d   1      34.495   3.666  59.018  0.00  0.00    -0.346 N 
ATOM    116  H77 LYS d   1      34.379   2.760  59.426  0.00  0.00     0.163 HD
BRANCH 115 117
ATOM    117  CA  LYS d   1      33.328   4.245  58.309  0.00  0.00     0.089 C 
ATOM    118  H78 LYS d   1      33.021   5.166  58.827  0.00  0.00     0.087 H 
BRANCH 117 119
ATOM    119  C   LYS d   1      32.168   3.230  58.369  0.00  0.00     0.241 C 
ATOM    120  O   LYS d   1      31.872   2.527  57.400  0.00  0.00    -0.271 OA
ATOM    121  N   HIS d   1      31.493   3.203  59.514  0.00  0.00    -0.346 N 
ATOM    122  H90 HIS d   1      31.411   4.046  60.045  0.00  0.00     0.163 HD
BRANCH 121 123
ATOM    123  CA  HIS d   1      30.866   1.983  60.025  0.00  0.00     0.094 C 
ATOM    124  H91 HIS d   1      31.467   1.147  59.639  0.00  0.00     0.088 H 
BRANCH 123 125
ATOM    125  C   HIS d   1      29.420   1.667  59.682  0.00  0.00     0.241 C 
ATOM    126  O   HIS d   1      28.635   2.543  59.318  0.00  0.00    -0.271 OA
ATOM    127  N   LEU d   1      29.098   0.377  59.832  0.00  0.00    -0.345 N 
ATOM    128  H97 LEU d   1      29.841  -0.289  59.899  0.00  0.00     0.163 HD
BRANCH 127 129
ATOM    129  CA  LEU d   1      27.721  -0.115  59.904  0.00  0.00     0.096 C 
ATOM    130  H98 LEU d   1      27.055   0.575  59.365  0.00  0.00     0.089 H 
BRANCH 129 131
ATOM    131  C   LEU d   1      27.340  -0.171  61.372  0.00  0.00     0.196 C 
ATOM    132  O   LEU d   1      28.097  -0.704  62.181  0.00  0.00    -0.646 OA
ATOM    133  OXT LEU d   1      26.276   0.317  61.747  0.00  0.00    -0.646 OA
ENDBRANCH 129 131
BRANCH 129 134
ATOM    134  CB  LEU d   1      27.585  -1.523  59.302  0.00  0.00    -0.034 C 
ATOM    135  H99 LEU d   1      26.593  -1.897  59.594  0.00  0.00     0.037 H 
ATOM    136 0H10 LEU d   1      28.363  -2.143  59.771  0.00  0.00     0.037 H 
BRANCH 134 137
ATOM    137  CG  LEU d   1      27.707  -1.734  57.786  0.00  0.00    -0.059 C 
ATOM    138 1H10 LEU d   1      28.710  -1.406  57.476  0.00  0.00     0.038 H 
BRANCH 137 139
ATOM    139  CD1 LEU d   1      27.564  -3.218  57.474  0.00  0.00    -0.073 C 
ATOM    140 2H10 LEU d   1      27.651  -3.374  56.389  0.00  0.00     0.028 H 
ATOM    141 3H10 LEU d   1      26.581  -3.572  57.818  0.00  0.00     0.028 H 
ATOM    142 4H10 LEU d   1      28.357  -3.779  57.990  0.00  0.00     0.028 H 
ENDBRANCH 137 139
BRANCH 137 143
ATOM    143  CD2 LEU d   1      26.688  -0.930  56.991  0.00  0.00    -0.073 C 
ATOM    144 5H10 LEU d   1      26.801   0.139  57.225  0.00  0.00     0.028 H 
ATOM    145 6H10 LEU d   1      25.673  -1.258  57.258  0.00  0.00     0.028 H 
ATOM    146 7H10 LEU d   1      26.854  -1.090  55.915  0.00  0.00     0.028 H 
ENDBRANCH 137 143
ENDBRANCH 134 137
ENDBRANCH 129 134
ENDBRANCH 127 129
ENDBRANCH 123 125
BRANCH 123 147
ATOM    147  CB  HIS d   1      30.959   1.993  61.543  0.00  0.00     0.004 C 
ATOM    148  H92 HIS d   1      30.468   1.087  61.928  0.00  0.00     0.046 H 
ATOM    149  H93 HIS d   1      30.433   2.883  61.918  0.00  0.00     0.046 H 
BRANCH 147 150
ATOM    150  CG  HIS d   1      32.358   2.023  62.054  0.00  0.00     0.053 A 
ATOM    151  ND1 HIS d   1      33.379   1.316  61.460  0.00  0.00    -0.247 NA
ATOM    152  CE1 HIS d   1      34.499   1.523  62.127  0.00  0.00     0.064 A 
ATOM    153  NE2 HIS d   1      34.238   2.330  63.139  0.00  0.00    -0.359 N 
ATOM    154  H95 HIS d   1      35.473   1.100  61.884  0.00  0.00     0.143 H 
ATOM    155  CD2 HIS d   1      32.904   2.655  63.118  0.00  0.00     0.002 A 
ATOM    156  H96 HIS d   1      34.924   2.662  63.832  0.00  0.00     0.166 HD
ATOM    157  H94 HIS d   1      32.384   3.300  63.825  0.00  0.00     0.114 H 
ENDBRANCH 147 150
ENDBRANCH 123 147
ENDBRANCH 121 123
ENDBRANCH 117 119
BRANCH 117 158
ATOM    158  CB  LYS d   1      33.675   4.602  56.865  0.00  0.00    -0.038 C 
ATOM    159  H79 LYS d   1      34.145   3.721  56.403  0.00  0.00     0.036 H 
ATOM    160  H80 LYS d   1      34.396   5.433  56.887  0.00  0.00     0.036 H 
BRANCH 158 161
ATOM    161  CG  LYS d   1      32.500   5.024  55.982  0.00  0.00    -0.061 C 
ATOM    162  H81 LYS d   1      31.678   5.376  56.623  0.00  0.00     0.033 H 
ATOM    163  H82 LYS d   1      32.162   4.157  55.395  0.00  0.00     0.033 H 
BRANCH 161 164
ATOM    164  CD  LYS d   1      32.900   6.138  55.033  0.00  0.00    -0.043 C 
ATOM    165  H83 LYS d   1      33.092   7.053  55.612  0.00  0.00     0.035 H 
ATOM    166  H84 LYS d   1      32.079   6.319  54.324  0.00  0.00     0.035 H 
BRANCH 164 167
ATOM    167  CE  LYS d   1      34.151   5.768  54.260  0.00  0.00     0.080 C 
ATOM    168  H85 LYS d   1      33.861   5.177  53.379  0.00  0.00     0.075 H 
ATOM    169  H86 LYS d   1      34.802   5.164  54.909  0.00  0.00     0.075 H 
BRANCH 167 170
ATOM    170  NZ  LYS d   1      34.906   6.964  53.806  0.00  0.00    -0.079 N 
ATOM    171  H87 LYS d   1      35.726   6.671  53.299  0.00  0.00     0.274 HD
ATOM    172  H88 LYS d   1      35.183   7.510  54.606  0.00  0.00     0.274 HD
ATOM    173  H89 LYS d   1      34.321   7.522  53.205  0.00  0.00     0.274 HD
ENDBRANCH 167 170
ENDBRANCH 164 167
ENDBRANCH 161 164
ENDBRANCH 158 161
ENDBRANCH 117 158
ENDBRANCH 115 117
ENDBRANCH 111 113
BRANCH 111 174
ATOM    174  CB  THR d   1      37.427   4.488  60.973  0.00  0.00     0.060 C 
ATOM    175  H72 THR d   1      37.965   5.230  60.365  0.00  0.00     0.086 H 
BRANCH 174 176
ATOM    176  OG1 THR d   1      38.344   3.797  61.818  0.00  0.00    -0.393 OA
ATOM    177  H73 THR d   1      38.983   3.340  61.283  0.00  0.00     0.210 HD
ENDBRANCH 174 176
BRANCH 174 178
ATOM    178  CG2 THR d   1      36.446   5.155  61.838  0.00  0.00    -0.050 C 
ATOM    179  H74 THR d   1      36.964   5.864  62.501  0.00  0.00     0.031 H 
ATOM    180  H75 THR d   1      35.920   4.403  62.444  0.00  0.00     0.031 H 
ATOM    181  H76 THR d   1      35.719   5.699  61.217  0.00  0.00     0.031 H 
ENDBRANCH 174 178
ENDBRANCH 111 174
ENDBRANCH 109 111
ENDBRANCH 105 107
BRANCH 105 182
ATOM    182  CB  LYS d   1      38.402   0.034  58.297  0.00  0.00    -0.038 C 
ATOM    183  H59 LYS d   1      37.682   0.687  57.783  0.00  0.00     0.036 H 
ATOM    184  H60 LYS d   1      37.860  -0.676  58.939  0.00  0.00     0.036 H 
BRANCH 182 185
ATOM    185  CG  LYS d   1      39.170  -0.741  57.265  0.00  0.00    -0.061 C 
ATOM    186  H61 LYS d   1      38.719  -1.738  57.157  0.00  0.00     0.033 H 
ATOM    187  H62 LYS d   1      40.213  -0.844  57.598  0.00  0.00     0.033 H 
BRANCH 185 188
ATOM    188  CD  LYS d   1      39.148  -0.048  55.932  0.00  0.00    -0.043 C 
ATOM    189  H63 LYS d   1      38.837   0.997  56.075  0.00  0.00     0.035 H 
ATOM    190  H64 LYS d   1      38.429  -0.558  55.273  0.00  0.00     0.035 H 
BRANCH 188 191
ATOM    191  CE  LYS d   1      40.509  -0.073  55.289  0.00  0.00     0.080 C 
ATOM    192  H65 LYS d   1      41.002  -1.024  55.537  0.00  0.00     0.075 H 
ATOM    193  H66 LYS d   1      41.105   0.763  55.684  0.00  0.00     0.075 H 
BRANCH 191 194
ATOM    194  NZ  LYS d   1      40.425   0.053  53.822  0.00  0.00    -0.079 N 
ATOM    195  H67 LYS d   1      41.353   0.032  53.429  0.00  0.00     0.274 HD
ATOM    196  H68 LYS d   1      39.979   0.925  53.585  0.00  0.00     0.274 HD
ATOM    197  H69 LYS d   1      39.885  -0.712  53.449  0.00  0.00     0.274 HD
ENDBRANCH 191 194
ENDBRANCH 188 191
ENDBRANCH 185 188
ENDBRANCH 182 185
ENDBRANCH 105 182
ENDBRANCH 103 105
ENDBRANCH   1 101
BRANCH   1 198
ATOM    198  CB  CYS d   1      41.759  -0.577  62.578  0.00  0.00     0.001 C 
ATOM    199  H54 CYS d   1      41.220   0.363  62.769  0.00  0.00     0.052 H 
ATOM    200  H55 CYS d   1      42.682  -0.599  63.176  0.00  0.00     0.052 H 
BRANCH 198 201
ATOM    201  SG  CYS d   1      40.708  -1.949  63.109  0.00  0.00    -0.180 SA
ATOM    202  H56 CYS d   1      39.851  -1.938  62.579  0.00  0.00     0.101 HD
ENDBRANCH 198 201
ENDBRANCH   1 198
TORSDOF 58
