REMARK  8 active torsions:
REMARK  status: ('A' for Active; 'I' for Inactive)
REMARK    1  A    between atoms: O1_14  and  C1_1 
REMARK    2  A    between atoms: C2_2  and  O2_15 
REMARK    3  A    between atoms: C3_3  and  O3_16 
REMARK    4  A    between atoms: C4_4  and  O4_17 
REMARK    5  A    between atoms: C5_5  and  C6_6 
REMARK    6  A    between atoms: C6_6  and  O6_19 
REMARK    7  A    between atoms: C7_7  and  O1_14 
REMARK    8  A    between atoms: C10_10  and  N1_13 
ROOT
ATOM      1  C1  PNA d   1      16.294 -11.736   0.104  0.00  0.00     0.164 C 
ATOM      2  C2  PNA d   1      17.302 -11.047  -0.847  0.00  0.00     0.110 C 
ATOM      3  C3  PNA d   1      17.544  -9.538  -0.671  0.00  0.00     0.092 C 
ATOM      4  C4  PNA d   1      16.808  -8.924   0.513  0.00  0.00     0.090 C 
ATOM      5  C5  PNA d   1      16.733  -9.966   1.610  0.00  0.00     0.089 C 
ATOM      6  O5  PNA d   1      15.782 -10.897   1.126  0.00  0.00    -0.348 OA
ATOM      7  H1  PNA d   1      15.476 -12.132  -0.517  0.00  0.00     0.134 H 
ATOM      8  H2  PNA d   1      18.270 -11.534  -0.656  0.00  0.00     0.094 H 
ATOM      9  H3  PNA d   1      18.621  -9.402  -0.492  0.00  0.00     0.091 H 
ATOM     10  H4  PNA d   1      15.790  -8.637   0.211  0.00  0.00     0.091 H 
ATOM     11  H5  PNA d   1      17.716 -10.435   1.763  0.00  0.00     0.090 H 
ENDROOT
BRANCH   1  12
ATOM     12  O1  PNA d   1      16.835 -12.766   0.927  0.00  0.00    -0.318 OA
BRANCH  12  13
ATOM     13  C7  PNA d   1      17.766 -13.643   0.525  0.00  0.00     0.072 A 
ATOM     14  C8  PNA d   1      18.933 -13.705   1.267  0.00  0.00    -0.048 A 
ATOM     15  C9  PNA d   1      19.908 -14.582   0.878  0.00  0.00    -0.048 A 
ATOM     16  H8  PNA d   1      19.071 -13.073   2.137  0.00  0.00     0.087 H 
ATOM     17  C10 PNA d   1      19.673 -15.377  -0.222  0.00  0.00     0.103 A 
ATOM     18  H9  PNA d   1      20.843 -14.650   1.422  0.00  0.00     0.087 H 
ATOM     19  C11 PNA d   1      18.502 -15.334  -0.967  0.00  0.00    -0.048 A 
ATOM     20  C12 PNA d   1      17.520 -14.453  -0.573  0.00  0.00    -0.048 A 
ATOM     21  H10 PNA d   1      18.365 -15.974  -1.831  0.00  0.00     0.087 H 
ATOM     22  H11 PNA d   1      16.579 -14.394  -1.107  0.00  0.00     0.087 H 
BRANCH  17  23
ATOM     23  N1  PNA d   1      20.702 -16.225  -0.571  0.00  0.00    -0.116 N 
ATOM     24  O7  PNA d   1      20.818 -16.623  -1.901  0.00  0.00    -0.532 OA
ATOM     25  O8  PNA d   1      21.617 -16.600   0.413  0.00  0.00    -0.532 OA
ENDBRANCH  17  23
ENDBRANCH  12  13
ENDBRANCH   1  12
BRANCH   2  26
ATOM     26  O2  PNA d   1      16.953 -11.301  -2.223  0.00  0.00    -0.388 OA
ATOM     27  H12 PNA d   1      16.164 -10.819  -2.443  0.00  0.00     0.210 HD
ENDBRANCH   2  26
BRANCH   3  28
ATOM     28  O3  PNA d   1      17.202  -8.828  -1.871  0.00  0.00    -0.390 OA
ATOM     29  H13 PNA d   1      17.662  -9.213  -2.607  0.00  0.00     0.210 HD
ENDBRANCH   3  28
BRANCH   5  30
ATOM     30  C6  PNA d   1      16.219  -9.414   2.928  0.00  0.00     0.043 C 
ATOM     31  H6  PNA d   1      16.784  -8.507   3.189  0.00  0.00     0.078 H 
ATOM     32  H7  PNA d   1      16.353 -10.169   3.717  0.00  0.00     0.078 H 
BRANCH  30  33
ATOM     33  O6  PNA d   1      14.829  -9.090   2.812  0.00  0.00    -0.398 OA
ATOM     34  H15 PNA d   1      14.713  -8.437   2.132  0.00  0.00     0.209 HD
ENDBRANCH  30  33
ENDBRANCH   5  30
BRANCH   4  35
ATOM     35  O4  PNA d   1      17.512  -7.763   0.950  0.00  0.00    -0.390 OA
ATOM     36  H14 PNA d   1      17.064  -7.385   1.697  0.00  0.00     0.210 HD
ENDBRANCH   4  35
TORSDOF 8
