REMARK  8 active torsions:
REMARK  status: ('A' for Active; 'I' for Inactive)
REMARK    1  A    between atoms: O1_14  and  C1_1 
REMARK    2  A    between atoms: C2_2  and  O2_15 
REMARK    3  A    between atoms: C3_3  and  O3_16 
REMARK    4  A    between atoms: C4_4  and  O4_17 
REMARK    5  A    between atoms: C5_5  and  C6_6 
REMARK    6  A    between atoms: C6_6  and  O6_19 
REMARK    7  A    between atoms: C7_7  and  O1_14 
REMARK    8  A    between atoms: C10_10  and  N1_13 
ROOT
ATOM      1  C1  MBE d   1     -26.767 -18.306 -11.049  0.00  0.00     0.164 C 
ATOM      2  C2  MBE d   1     -27.971 -18.593 -10.161  0.00  0.00     0.110 C 
ATOM      3  C3  MBE d   1     -27.804 -17.865  -8.837  0.00  0.00     0.092 C 
ATOM      4  C4  MBE d   1     -26.447 -18.225  -8.216  0.00  0.00     0.090 C 
ATOM      5  C5  MBE d   1     -25.303 -17.959  -9.203  0.00  0.00     0.089 C 
ATOM      6  O5  MBE d   1     -25.546 -18.682 -10.408  0.00  0.00    -0.348 OA
ATOM      7  H1  MBE d   1     -26.742 -17.242 -11.326  0.00  0.00     0.134 H 
ATOM      8  H2  MBE d   1     -28.886 -18.239 -10.659  0.00  0.00     0.094 H 
ATOM      9  H3  MBE d   1     -27.828 -16.780  -9.019  0.00  0.00     0.091 H 
ATOM     10  H4  MBE d   1     -26.447 -19.292  -7.950  0.00  0.00     0.091 H 
ATOM     11  H5  MBE d   1     -25.268 -16.881  -9.417  0.00  0.00     0.090 H 
ENDROOT
BRANCH   1  12
ATOM     12  O1  MBE d   1     -26.896 -19.136 -12.197  0.00  0.00    -0.318 OA
BRANCH  12  13
ATOM     13  C7  MBE d   1     -26.197 -18.850 -13.333  0.00  0.00     0.072 A 
ATOM     14  C8  MBE d   1     -25.179 -17.897 -13.336  0.00  0.00    -0.048 A 
ATOM     15  C9  MBE d   1     -24.500 -17.627 -14.510  0.00  0.00    -0.048 A 
ATOM     16  H8  MBE d   1     -24.922 -17.371 -12.424  0.00  0.00     0.087 H 
ATOM     17  C10 MBE d   1     -24.842 -18.324 -15.656  0.00  0.00     0.103 A 
ATOM     18  H9  MBE d   1     -23.713 -16.882 -14.533  0.00  0.00     0.087 H 
ATOM     19  C11 MBE d   1     -25.844 -19.278 -15.645  0.00  0.00    -0.048 A 
ATOM     20  C12 MBE d   1     -26.532 -19.541 -14.482  0.00  0.00    -0.048 A 
ATOM     21  H10 MBE d   1     -26.087 -19.819 -16.552  0.00  0.00     0.087 H 
ATOM     22  H11 MBE d   1     -27.325 -20.280 -14.468  0.00  0.00     0.087 H 
BRANCH  17  23
ATOM     23  N1  MBE d   1     -24.185 -18.095 -16.859  0.00  0.00    -0.116 N 
ATOM     24  O7  MBE d   1     -24.564 -18.815 -17.973  0.00  0.00    -0.532 OA
ATOM     25  O8  MBE d   1     -23.150 -17.190 -16.907  0.00  0.00    -0.532 OA
ENDBRANCH  17  23
ENDBRANCH  12  13
ENDBRANCH   1  12
BRANCH   2  26
ATOM     26  O2  MBE d   1     -28.073 -20.003  -9.930  0.00  0.00    -0.388 OA
ATOM     27  H12 MBE d   1     -28.177 -20.452 -10.761  0.00  0.00     0.210 HD
ENDBRANCH   2  26
BRANCH   3  28
ATOM     28  O3  MBE d   1     -28.893 -18.208  -7.970  0.00  0.00    -0.390 OA
ATOM     29  H13 MBE d   1     -28.805 -17.736  -7.150  0.00  0.00     0.210 HD
ENDBRANCH   3  28
BRANCH   5  30
ATOM     30  C6  MBE d   1     -23.945 -18.405  -8.677  0.00  0.00     0.043 C 
ATOM     31  H6  MBE d   1     -23.732 -17.868  -7.741  0.00  0.00     0.078 H 
ATOM     32  H7  MBE d   1     -23.175 -18.160  -9.424  0.00  0.00     0.078 H 
BRANCH  30  33
ATOM     33  O6  MBE d   1     -23.912 -19.826  -8.420  0.00  0.00    -0.398 OA
ATOM     34  H15 MBE d   1     -24.571 -20.045  -7.772  0.00  0.00     0.209 HD
ENDBRANCH  30  33
ENDBRANCH   5  30
BRANCH   4  35
ATOM     35  O4  MBE d   1     -26.251 -17.441  -7.029  0.00  0.00    -0.390 OA
ATOM     36  H14 MBE d   1     -25.424 -17.679  -6.627  0.00  0.00     0.210 HD
ENDBRANCH   4  35
TORSDOF 8
