REMARK  9 active torsions:
REMARK  status: ('A' for Active; 'I' for Inactive)
REMARK    1  A    between atoms: O1_8  and  C1_1 
REMARK    2  A    between atoms: C2_2  and  N2_7 
REMARK    3  A    between atoms: C3_3  and  O3_24 
REMARK    4  A    between atoms: C4_4  and  O4_9 
REMARK    5  A    between atoms: C5_5  and  C6_6 
REMARK    6  A    between atoms: C6_6  and  O6_11 
REMARK       I    between atoms: N2_7  and  C7_22 
REMARK    7  A    between atoms: C1'_21  and  O1_8 
REMARK    8  A    between atoms: C4'_16  and  N1'_14 
REMARK    9  A    between atoms: C7_22  and  C8_23 
ROOT
ATOM      1  C1  6ZC d   1      -0.037  16.127  76.374  0.00  0.00     0.159 C 
ATOM      2  C2  6ZC d   1      -1.198  16.019  77.352  0.00  0.00     0.087 C 
ATOM      3  C3  6ZC d   1      -0.903  16.819  78.627  0.00  0.00     0.086 C 
ATOM      4  C4  6ZC d   1       0.459  16.397  79.218  0.00  0.00     0.089 C 
ATOM      5  C5  6ZC d   1       1.560  16.538  78.171  0.00  0.00     0.089 C 
ATOM      6  O5  6ZC d   1       1.208  15.783  77.012  0.00  0.00    -0.349 OA
ATOM      7  H1  6ZC d   1      -0.216  15.424  75.547  0.00  0.00     0.133 H 
ATOM      8  H2  6ZC d   1      -1.307  14.963  77.638  0.00  0.00     0.084 H 
ATOM      9  H3  6ZC d   1      -0.876  17.892  78.388  0.00  0.00     0.090 H 
ATOM     10  H4  6ZC d   1       0.397  15.357  79.570  0.00  0.00     0.091 H 
ATOM     11  H5  6ZC d   1       1.634  17.602  77.904  0.00  0.00     0.090 H 
ENDROOT
BRANCH   1  12
ATOM     12  O1  6ZC d   1       0.064  17.436  75.843  0.00  0.00    -0.318 OA
BRANCH  12  13
ATOM     13  C1' 6ZC d   1       0.612  17.525  74.594  0.00  0.00     0.072 A 
ATOM     14  C2' 6ZC d   1       0.136  18.476  73.708  0.00  0.00    -0.048 A 
ATOM     15  C3' 6ZC d   1       0.698  18.551  72.448  0.00  0.00    -0.048 A 
ATOM     16  H12 6ZC d   1      -0.663  19.149  73.997  0.00  0.00     0.087 H 
ATOM     17  C4' 6ZC d   1       1.714  17.667  72.128  0.00  0.00     0.103 A 
ATOM     18  H11 6ZC d   1       0.352  19.284  71.728  0.00  0.00     0.087 H 
ATOM     19  C5' 6ZC d   1       2.189  16.716  73.000  0.00  0.00    -0.048 A 
ATOM     20  C6' 6ZC d   1       1.629  16.646  74.250  0.00  0.00    -0.048 A 
ATOM     21  H13 6ZC d   1       2.984  16.040  72.707  0.00  0.00     0.087 H 
ATOM     22  H14 6ZC d   1       1.978  15.909  74.964  0.00  0.00     0.087 H 
BRANCH  17  23
ATOM     23  N1' 6ZC d   1       2.291  17.698  70.877  0.00  0.00    -0.116 N 
ATOM     24  O1' 6ZC d   1       1.457  17.466  69.798  0.00  0.00    -0.532 OA
ATOM     25  O2' 6ZC d   1       3.656  17.901  70.761  0.00  0.00    -0.532 OA
ENDBRANCH  17  23
ENDBRANCH  12  13
ENDBRANCH   1  12
BRANCH   2  26
ATOM     26  N2  6ZC d   1      -2.443  16.436  76.705  0.00  0.00    -0.349 N 
ATOM     27  C7  6ZC d   1      -3.268  15.546  76.135  0.00  0.00     0.214 C 
ATOM     28  O7  6ZC d   1      -3.036  14.346  76.097  0.00  0.00    -0.274 OA
ATOM     29  H8  6ZC d   1      -2.684  17.407  76.688  0.00  0.00     0.163 HD
BRANCH  27  30
ATOM     30  C8  6ZC d   1      -4.528  16.094  75.525  0.00  0.00    -0.003 C 
ATOM     31  H15 6ZC d   1      -5.115  15.270  75.093  0.00  0.00     0.040 H 
ATOM     32  H16 6ZC d   1      -4.270  16.814  74.734  0.00  0.00     0.040 H 
ATOM     33  H17 6ZC d   1      -5.121  16.599  76.301  0.00  0.00     0.040 H 
ENDBRANCH  27  30
ENDBRANCH   2  26
BRANCH   3  34
ATOM     34  O3  6ZC d   1      -1.943  16.568  79.574  0.00  0.00    -0.391 OA
ATOM     35  H18 6ZC d   1      -1.776  17.067  80.365  0.00  0.00     0.210 HD
ENDBRANCH   3  34
BRANCH   5  36
ATOM     36  C6  6ZC d   1       2.936  16.062  78.612  0.00  0.00     0.043 C 
ATOM     37  H6  6ZC d   1       3.238  16.603  79.521  0.00  0.00     0.078 H 
ATOM     38  H7  6ZC d   1       3.665  16.255  77.811  0.00  0.00     0.078 H 
BRANCH  36  39
ATOM     39  O6  6ZC d   1       2.887  14.656  78.886  0.00  0.00    -0.398 OA
ATOM     40  H10 6ZC d   1       2.257  14.491  79.577  0.00  0.00     0.209 HD
ENDBRANCH  36  39
ENDBRANCH   5  36
BRANCH   4  41
ATOM     41  O4  6ZC d   1       0.831  17.263  80.295  0.00  0.00    -0.390 OA
ATOM     42  H9  6ZC d   1       1.673  16.992  80.641  0.00  0.00     0.210 HD
ENDBRANCH   4  41
TORSDOF 9
