REMARK  9 active torsions:
REMARK  status: ('A' for Active; 'I' for Inactive)
REMARK    1  A    between atoms: C8_1  and  C7_2 
REMARK       I    between atoms: C7_2  and  N2_4 
REMARK    2  A    between atoms: N2_4  and  C2_5 
REMARK    3  A    between atoms: C3_6  and  O3_7 
REMARK    4  A    between atoms: C4_8  and  O4_9 
REMARK    5  A    between atoms: C5_10  and  C6_11 
REMARK    6  A    between atoms: C6_11  and  O6_12 
REMARK    7  A    between atoms: C1_14  and  O1_15 
REMARK    8  A    between atoms: O1_15  and  C1'_16 
REMARK    9  A    between atoms: C4'_19  and  N1'_20 
ROOT
ATOM      1  C2  LEC d   1     -18.723  -9.996 -27.955  0.00  0.00     0.087 C 
ATOM      2  C3  LEC d   1     -18.060  -8.682 -27.732  0.00  0.00     0.086 C 
ATOM      3  C4  LEC d   1     -18.454  -8.089 -26.448  0.00  0.00     0.089 C 
ATOM      4  C5  LEC d   1     -18.166  -9.013 -25.308  0.00  0.00     0.089 C 
ATOM      5  O5  LEC d   1     -18.901 -10.254 -25.543  0.00  0.00    -0.349 OA
ATOM      6  C1  LEC d   1     -18.473 -10.965 -26.774  0.00  0.00     0.159 C 
ATOM      7  H5  LEC d   1     -19.805  -9.825 -28.049  0.00  0.00     0.084 H 
ATOM      8  H6  LEC d   1     -16.971  -8.836 -27.722  0.00  0.00     0.090 H 
ATOM      9  H8  LEC d   1     -19.532  -7.870 -26.468  0.00  0.00     0.091 H 
ATOM     10  H10 LEC d   1     -17.084  -9.209 -25.266  0.00  0.00     0.090 H 
ATOM     11  H14 LEC d   1     -17.421 -11.283 -26.721  0.00  0.00     0.133 H 
ENDROOT
BRANCH   6  12
ATOM     12  O1  LEC d   1     -19.295 -12.001 -26.926  0.00  0.00    -0.318 OA
BRANCH  12  13
ATOM     13  C1' LEC d   1     -19.003 -13.154 -26.186  0.00  0.00     0.072 A 
ATOM     14  C2' LEC d   1     -18.071 -13.188 -25.163  0.00  0.00    -0.048 A 
ATOM     15  C3' LEC d   1     -17.838 -14.388 -24.483  0.00  0.00    -0.048 A 
ATOM     16  H15 LEC d   1     -17.526 -12.291 -24.891  0.00  0.00     0.087 H 
ATOM     17  C4' LEC d   1     -18.556 -15.517 -24.825  0.00  0.00     0.103 A 
ATOM     18  H16 LEC d   1     -17.098 -14.431 -23.692  0.00  0.00     0.087 H 
ATOM     19  C5' LEC d   1     -19.502 -15.465 -25.860  0.00  0.00    -0.048 A 
ATOM     20  C6' LEC d   1     -19.725 -14.271 -26.533  0.00  0.00    -0.048 A 
ATOM     21  H17 LEC d   1     -20.057 -16.355 -26.134  0.00  0.00     0.087 H 
ATOM     22  H18 LEC d   1     -20.463 -14.220 -27.326  0.00  0.00     0.087 H 
BRANCH  17  23
ATOM     23  N1' LEC d   1     -18.317 -16.748 -24.124  0.00  0.00    -0.116 N 
ATOM     24  O2' LEC d   1     -17.304 -16.779 -23.210  0.00  0.00    -0.532 OA
ATOM     25  O1' LEC d   1     -18.988 -17.726 -24.346  0.00  0.00    -0.532 OA
ENDBRANCH  17  23
ENDBRANCH  12  13
ENDBRANCH   6  12
BRANCH   1  26
ATOM     26  N2  LEC d   1     -18.237 -10.625 -29.179  0.00  0.00    -0.349 N 
ATOM     27  C7  LEC d   1     -19.053 -11.300 -30.068  0.00  0.00     0.214 C 
ATOM     28  O7  LEC d   1     -20.267 -11.369 -29.862  0.00  0.00    -0.274 OA
ATOM     29  H4  LEC d   1     -17.261 -10.565 -29.386  0.00  0.00     0.163 HD
BRANCH  27  30
ATOM     30  C8  LEC d   1     -18.389 -11.902 -31.310  0.00  0.00    -0.003 C 
ATOM     31  H1  LEC d   1     -17.305 -11.716 -31.273  0.00  0.00     0.040 H 
ATOM     32  H2  LEC d   1     -18.811 -11.437 -32.213  0.00  0.00     0.040 H 
ATOM     33  H3  LEC d   1     -18.574 -12.986 -31.335  0.00  0.00     0.040 H 
ENDBRANCH  27  30
ENDBRANCH   1  26
BRANCH   2  34
ATOM     34  O3  LEC d   1     -18.404  -7.767 -28.848  0.00  0.00    -0.391 OA
ATOM     35  H7  LEC d   1     -17.982  -6.927 -28.709  0.00  0.00     0.210 HD
ENDBRANCH   2  34
BRANCH   4  36
ATOM     36  C6  LEC d   1     -18.627  -8.477 -23.979  0.00  0.00     0.043 C 
ATOM     37  H11 LEC d   1     -18.106  -7.528 -23.782  0.00  0.00     0.078 H 
ATOM     38  H12 LEC d   1     -18.369  -9.206 -23.197  0.00  0.00     0.078 H 
BRANCH  36  39
ATOM     39  O6  LEC d   1     -20.066  -8.237 -23.936  0.00  0.00    -0.398 OA
ATOM     40  H13 LEC d   1     -20.300  -7.602 -24.603  0.00  0.00     0.209 HD
ENDBRANCH  36  39
ENDBRANCH   4  36
BRANCH   3  41
ATOM     41  O4  LEC d   1     -17.700  -6.841 -26.254  0.00  0.00    -0.390 OA
ATOM     42  H9  LEC d   1     -17.948  -6.448 -25.425  0.00  0.00     0.210 HD
ENDBRANCH   3  41
TORSDOF 9
