REMARK  17 active torsions:
REMARK  status: ('A' for Active; 'I' for Inactive)
REMARK    1  A    between atoms: N_1  and  CA_2 
REMARK    2  A    between atoms: CA_2  and  C_3 
REMARK    3  A    between atoms: CA_2  and  CB_5 
REMARK       I    between atoms: C_3  and  N_8 
REMARK    4  A    between atoms: CB_5  and  OG1_6 
REMARK    5  A    between atoms: CB_5  and  CG2_7 
REMARK    6  A    between atoms: CA_9  and  C_10 
REMARK       I    between atoms: C_10  and  N_15 
REMARK    7  A    between atoms: N_15  and  CA_16 
REMARK    8  A    between atoms: CA_16  and  C_17 
REMARK    9  A    between atoms: CA_16  and  CB_19 
REMARK       I    between atoms: C_17  and  N_22 
REMARK   10  A    between atoms: CB_19  and  OG1_20 
REMARK   11  A    between atoms: CB_19  and  CG2_21 
REMARK   12  A    between atoms: CA_23  and  C_24 
REMARK       I    between atoms: C_24  and  N_29 
REMARK   13  A    between atoms: N_29  and  CA_30 
REMARK   14  A    between atoms: CA_30  and  C_31 
REMARK   15  A    between atoms: CA_30  and  CB_33 
REMARK   16  A    between atoms: CB_33  and  CG1_34 
REMARK   17  A    between atoms: CB_33  and  CG2_35 
ROOT
ATOM      1  CA  THR d   1      50.820   2.390  13.327  0.00  0.00     0.114 C 
ATOM      2  H18 THR d   1      49.786   2.727  13.165  0.00  0.00     0.091 H 
ENDROOT
BRANCH   1   3
ATOM      3  N   THR d   1      51.278   1.650  12.155  0.00  0.00    -0.344 N 
ATOM      4  C   PRO d   1      50.446   1.160  11.248  0.00  0.00     0.241 C 
ATOM      5  O   PRO d   1      49.218   1.137  11.381  0.00  0.00    -0.271 OA
ATOM      6  H17 THR d   1      52.260   1.507  12.032  0.00  0.00     0.163 HD
BRANCH   4   7
ATOM      7  CA  PRO d   1      51.113   0.575  10.017  0.00  0.00     0.091 C 
ATOM      8  N   PRO d   1      50.360  -0.541   9.441  0.00  0.00    -0.337 N 
ATOM      9  C   THR d   1      49.930  -1.588  10.167  0.00  0.00     0.253 C 
ATOM     10  CD  PRO d   1      50.134  -0.362   7.994  0.00  0.00    -0.001 C 
ATOM     11  O   THR d   1      50.093  -1.678  11.383  0.00  0.00    -0.271 OA
ATOM     12  CG  PRO d   1      51.018   0.813   7.643  0.00  0.00    -0.048 C 
ATOM     13  H15 PRO d   1      49.078  -0.136   7.786  0.00  0.00     0.064 H 
ATOM     14  H16 PRO d   1      50.434  -1.261   7.435  0.00  0.00     0.064 H 
ATOM     15  CB  PRO d   1      51.143   1.611   8.886  0.00  0.00    -0.036 C 
ATOM     16  H13 PRO d   1      52.007   0.463   7.312  0.00  0.00     0.035 H 
ATOM     17  H14 PRO d   1      50.556   1.415   6.846  0.00  0.00     0.035 H 
ATOM     18  H11 PRO d   1      52.091   2.169   8.896  0.00  0.00     0.036 H 
ATOM     19  H12 PRO d   1      50.303   2.314   8.982  0.00  0.00     0.036 H 
ATOM     20  H10 PRO d   1      52.132   0.253  10.280  0.00  0.00     0.087 H 
BRANCH   9  21
ATOM     21  CA  THR d   1      49.223  -2.702   9.415  0.00  0.00     0.200 C 
ATOM     22  H4  THR d   1      49.106  -2.406   8.362  0.00  0.00     0.103 H 
BRANCH  21  23
ATOM     23  N   THR d   1      50.029  -3.919   9.467  0.00  0.00    -0.064 N 
ATOM     24  H1  THR d   1      50.934  -3.740   9.061  0.00  0.00     0.275 HD
ATOM     25  H2  THR d   1      49.567  -4.650   8.949  0.00  0.00     0.275 HD
ATOM     26  H3  THR d   1      50.142  -4.207  10.427  0.00  0.00     0.275 HD
ENDBRANCH  21  23
BRANCH  21  27
ATOM     27  CB  THR d   1      47.823  -2.914  10.023  0.00  0.00     0.068 C 
ATOM     28  H5  THR d   1      47.929  -3.180  11.085  0.00  0.00     0.086 H 
BRANCH  27  29
ATOM     29  OG1 THR d   1      47.153  -3.977   9.331  0.00  0.00    -0.393 OA
ATOM     30  H6  THR d   1      46.291  -4.105   9.708  0.00  0.00     0.210 HD
ENDBRANCH  27  29
BRANCH  27  31
ATOM     31  CG2 THR d   1      46.990  -1.641   9.906  0.00  0.00    -0.050 C 
ATOM     32  H7  THR d   1      45.996  -1.812  10.345  0.00  0.00     0.031 H 
ATOM     33  H8  THR d   1      46.881  -1.370   8.845  0.00  0.00     0.031 H 
ATOM     34  H9  THR d   1      47.492  -0.823  10.444  0.00  0.00     0.031 H 
ENDBRANCH  27  31
ENDBRANCH  21  27
ENDBRANCH   9  21
ENDBRANCH   4   7
ENDBRANCH   1   3
BRANCH   1  35
ATOM     35  C   THR d   1      51.737   3.601  13.464  0.00  0.00     0.245 C 
ATOM     36  O   THR d   1      52.894   3.544  13.054  0.00  0.00    -0.271 OA
ATOM     37  N   PRO d   1      51.225   4.715  14.010  0.00  0.00    -0.337 N 
ATOM     38  CA  PRO d   1      52.123   5.849  14.257  0.00  0.00     0.091 C 
ATOM     39  CD  PRO d   1      49.820   5.039  14.316  0.00  0.00    -0.001 C 
ATOM     40  CB  PRO d   1      51.172   6.973  14.694  0.00  0.00    -0.036 C 
ATOM     41  H24 PRO d   1      52.668   6.130  13.344  0.00  0.00     0.087 H 
ATOM     42  CG  PRO d   1      49.797   6.537  14.217  0.00  0.00    -0.048 C 
ATOM     43  H25 PRO d   1      51.459   7.926  14.225  0.00  0.00     0.036 H 
ATOM     44  H26 PRO d   1      51.183   7.085  15.788  0.00  0.00     0.036 H 
ATOM     45  H27 PRO d   1      49.627   6.855  13.178  0.00  0.00     0.035 H 
ATOM     46  H28 PRO d   1      49.011   6.957  14.862  0.00  0.00     0.035 H 
ATOM     47  H29 PRO d   1      49.547   4.704  15.328  0.00  0.00     0.064 H 
ATOM     48  H30 PRO d   1      49.139   4.583  13.583  0.00  0.00     0.064 H 
BRANCH  38  49
ATOM     49  C   PRO d   1      53.117   5.502  15.358  0.00  0.00     0.241 C 
ATOM     50  O   PRO d   1      52.895   4.522  16.076  0.00  0.00    -0.271 OA
ATOM     51  N   VAL d   1      54.204   6.257  15.491  0.00  0.00    -0.344 N 
ATOM     52  H31 VAL d   1      54.812   6.064  16.261  0.00  0.00     0.163 HD
BRANCH  51  53
ATOM     53  CA  VAL d   1      54.573   7.350  14.591  0.00  0.00     0.099 C 
ATOM     54  H32 VAL d   1      53.712   7.586  13.949  0.00  0.00     0.090 H 
BRANCH  53  55
ATOM     55  C   VAL d   1      55.742   6.928  13.721  0.00  0.00     0.197 C 
ATOM     56  O   VAL d   1      56.699   6.375  14.237  0.00  0.00    -0.646 OA
ATOM     57  OXT VAL d   1      55.702   7.150  12.522  0.00  0.00    -0.646 OA
ENDBRANCH  53  55
BRANCH  53  58
ATOM     58  CB  VAL d   1      54.967   8.613  15.384  0.00  0.00    -0.032 C 
ATOM     59  H33 VAL d   1      55.677   8.317  16.171  0.00  0.00     0.042 H 
BRANCH  58  60
ATOM     60  CG1 VAL d   1      55.663   9.627  14.480  0.00  0.00    -0.071 C 
ATOM     61  H34 VAL d   1      55.934  10.517  15.067  0.00  0.00     0.028 H 
ATOM     62  H35 VAL d   1      54.984   9.918  13.665  0.00  0.00     0.028 H 
ATOM     63  H36 VAL d   1      56.573   9.177  14.056  0.00  0.00     0.028 H 
ENDBRANCH  58  60
BRANCH  58  64
ATOM     64  CG2 VAL d   1      53.744   9.217  16.056  0.00  0.00    -0.071 C 
ATOM     65  H37 VAL d   1      53.268   8.461  16.698  0.00  0.00     0.028 H 
ATOM     66  H38 VAL d   1      53.030   9.548  15.288  0.00  0.00     0.028 H 
ATOM     67  H39 VAL d   1      54.050  10.078  16.668  0.00  0.00     0.028 H 
ENDBRANCH  58  64
ENDBRANCH  53  58
ENDBRANCH  51  53
ENDBRANCH  38  49
ENDBRANCH   1  35
BRANCH   1  68
ATOM     68  CB  THR d   1      50.860   1.523  14.608  0.00  0.00     0.060 C 
ATOM     69  H19 THR d   1      50.240   0.628  14.454  0.00  0.00     0.086 H 
BRANCH  68  70
ATOM     70  OG1 THR d   1      50.350   2.268  15.721  0.00  0.00    -0.393 OA
ATOM     71  H20 THR d   1      50.882   3.044  15.852  0.00  0.00     0.210 HD
ENDBRANCH  68  70
BRANCH  68  72
ATOM     72  CG2 THR d   1      52.293   1.096  14.918  0.00  0.00    -0.050 C 
ATOM     73  H21 THR d   1      52.303   0.481  15.830  0.00  0.00     0.031 H 
ATOM     74  H22 THR d   1      52.917   1.989  15.071  0.00  0.00     0.031 H 
ATOM     75  H23 THR d   1      52.691   0.510  14.077  0.00  0.00     0.031 H 
ENDBRANCH  68  72
ENDBRANCH   1  68
TORSDOF 17
