REMARK  9 active torsions:
REMARK  status: ('A' for Active; 'I' for Inactive)
REMARK       I    between atoms: N09_16  and  C10_1 
REMARK    1  A    between atoms: C10_1  and  C12_18 
REMARK    2  A    between atoms: C15_3  and  C17_4 
REMARK    3  A    between atoms: C14_19  and  C15_3 
REMARK    4  A    between atoms: C15_3  and  C16_20 
REMARK    5  A    between atoms: C21_6  and  O22_23 
REMARK    6  A    between atoms: C02_9  and  C01_8 
REMARK    7  A    between atoms: O03_10  and  C02_9 
REMARK    8  A    between atoms: C04_11  and  O03_10 
REMARK    9  A    between atoms: C18_21  and  O19_22 
ROOT
ATOM      1  C10 6TN d   1      16.281 -11.500 -48.373  0.00  0.00     0.256 C 
ATOM      2  C24 6TN d   1      18.668 -13.829 -49.518  0.00  0.00    -0.009 C 
ATOM      3  C04 6TN d   1      20.199 -16.284 -47.020  0.00  0.00     0.268 A 
ATOM      4  N05 6TN d   1      19.344 -16.218 -45.962  0.00  0.00    -0.219 NA
ATOM      5  C06 6TN d   1      18.255 -15.392 -45.999  0.00  0.00     0.016 A 
ATOM      6  C07 6TN d   1      17.993 -14.577 -47.159  0.00  0.00     0.002 A 
ATOM      7  C08 6TN d   1      16.759 -13.647 -47.217  0.00  0.00     0.025 C 
ATOM      8  N09 6TN d   1      16.753 -12.845 -48.400  0.00  0.00    -0.343 N 
ATOM      9  O11 6TN d   1      15.836 -10.999 -47.362  0.00  0.00    -0.267 OA
ATOM     10  C23 6TN d   1      17.227 -13.390 -49.601  0.00  0.00     0.003 C 
ATOM     11  C25 6TN d   1      18.890 -14.670 -48.228  0.00  0.00     0.050 A 
ATOM     12  N26 6TN d   1      19.977 -15.522 -48.134  0.00  0.00    -0.211 NA
ATOM     13  H7  6TN d   1      19.319 -12.943 -49.492  0.00  0.00     0.044 H 
ATOM     14  H8  6TN d   1      18.915 -14.440 -50.399  0.00  0.00     0.044 H 
ATOM     15  H14 6TN d   1      17.583 -15.350 -45.149  0.00  0.00     0.116 H 
ATOM     16  H15 6TN d   1      16.770 -12.985 -46.339  0.00  0.00     0.071 H 
ATOM     17  H16 6TN d   1      15.848 -14.263 -47.200  0.00  0.00     0.071 H 
ATOM     18  H22 6TN d   1      16.609 -14.262 -49.859  0.00  0.00     0.065 H 
ATOM     19  H23 6TN d   1      17.137 -12.630 -50.391  0.00  0.00     0.065 H 
ENDROOT
BRANCH   1  20
ATOM     20  C12 6TN d   1      16.314 -10.669 -49.698  0.00  0.00     0.066 A 
ATOM     21  C13 6TN d   1      17.553 -10.172 -50.173  0.00  0.00    -0.056 A 
ATOM     22  C14 6TN d   1      17.601  -9.458 -51.372  0.00  0.00    -0.020 A 
ATOM     23  H1  6TN d   1      18.461 -10.346 -49.607  0.00  0.00     0.086 H 
ATOM     24  C18 6TN d   1      16.389  -9.202 -52.094  0.00  0.00     0.075 A 
ATOM     25  C20 6TN d   1      15.156  -9.699 -51.616  0.00  0.00    -0.018 A 
ATOM     26  C21 6TN d   1      15.121 -10.430 -50.401  0.00  0.00     0.084 A 
ATOM     27  H6  6TN d   1      14.243  -9.523 -52.174  0.00  0.00     0.092 H 
BRANCH  22  28
ATOM     28  C15 6TN d   1      18.975  -8.891 -51.855  0.00  0.00    -0.033 C 
ATOM     29  H2  6TN d   1      18.926  -8.714 -52.940  0.00  0.00     0.046 H 
BRANCH  28  30
ATOM     30  C17 6TN d   1      20.167  -9.825 -51.572  0.00  0.00    -0.069 C 
ATOM     31  H3  6TN d   1      21.093  -9.359 -51.939  0.00  0.00     0.028 H 
ATOM     32  H4  6TN d   1      20.011 -10.785 -52.086  0.00  0.00     0.028 H 
ATOM     33  H5  6TN d   1      20.248  -9.998 -50.489  0.00  0.00     0.028 H 
ENDBRANCH  28  30
BRANCH  28  34
ATOM     34  C16 6TN d   1      19.172  -7.554 -51.120  0.00  0.00    -0.069 C 
ATOM     35  H17 6TN d   1      18.318  -6.893 -51.327  0.00  0.00     0.028 H 
ATOM     36  H18 6TN d   1      20.099  -7.076 -51.470  0.00  0.00     0.028 H 
ATOM     37  H19 6TN d   1      19.240  -7.737 -50.038  0.00  0.00     0.028 H 
ENDBRANCH  28  34
ENDBRANCH  22  28
BRANCH  24  38
ATOM     38  O19 6TN d   1      16.434  -8.462 -53.311  0.00  0.00    -0.360 OA
ATOM     39  H20 6TN d   1      15.556  -8.380 -53.663  0.00  0.00     0.217 HD
ENDBRANCH  24  38
BRANCH  26  40
ATOM     40  O22 6TN d   1      13.895 -10.961 -49.861  0.00  0.00    -0.360 OA
ATOM     41  H21 6TN d   1      13.172 -10.727 -50.431  0.00  0.00     0.217 HD
ENDBRANCH  26  40
ENDBRANCH   1  20
BRANCH   3  42
ATOM     42  O03 6TN d   1      21.335 -17.156 -46.964  0.00  0.00    -0.320 OA
BRANCH  42  43
ATOM     43  C02 6TN d   1      21.470 -17.812 -45.703  0.00  0.00     0.026 C 
ATOM     44  H12 6TN d   1      22.536 -17.982 -45.492  0.00  0.00     0.074 H 
ATOM     45  H13 6TN d   1      21.037 -17.179 -44.914  0.00  0.00     0.074 H 
BRANCH  43  46
ATOM     46  C01 6TN d   1      20.740 -19.151 -45.736  0.00  0.00    -0.056 C 
ATOM     47  H9  6TN d   1      20.848 -19.651 -44.762  0.00  0.00     0.030 H 
ATOM     48  H10 6TN d   1      21.173 -19.785 -46.524  0.00  0.00     0.030 H 
ATOM     49  H11 6TN d   1      19.673 -18.982 -45.946  0.00  0.00     0.030 H 
ENDBRANCH  43  46
ENDBRANCH  42  43
ENDBRANCH   3  42
TORSDOF 9
