REMARK  13 active torsions:
REMARK  status: ('A' for Active; 'I' for Inactive)
REMARK    1  A    between atoms: C4_1  and  NBI_24 
REMARK    2  A    between atoms: CAP_11  and  NBG_10 
REMARK    3  A    between atoms: CAM_12  and  CAP_11 
REMARK    4  A    between atoms: OAW_13  and  CAM_12 
REMARK    5  A    between atoms: CBE_14  and  OAW_13 
REMARK    6  A    between atoms: CAZ_15  and  CAC_16 
REMARK    7  A    between atoms: CAY_18  and  CAB_19 
REMARK    8  A    between atoms: NAV_22  and  CBA_21 
REMARK    9  A    between atoms: NAV_22  and  C2_23 
REMARK   10  A    between atoms: CAX_27  and  CAA_28 
REMARK   11  A    between atoms: CBB_29  and  CAQ_30 
REMARK   12  A    between atoms: CAQ_30  and  NBH_31 
REMARK   13  A    between atoms: CBF_34  and  OAD_35 
ROOT
ATOM      1  CBE X5G d   1     -18.664 -12.715  -0.408  0.00  0.00     0.080 A 
ATOM      2  CAZ X5G d   1     -17.628 -12.224   0.323  0.00  0.00    -0.026 A 
ATOM      3  CAH X5G d   1     -16.349 -12.610   0.049  0.00  0.00    -0.048 A 
ATOM      4  CAY X5G d   1     -18.442 -13.581  -1.434  0.00  0.00    -0.026 A 
ATOM      5  CAG X5G d   1     -17.164 -13.978  -1.704  0.00  0.00    -0.048 A 
ATOM      6  CBA X5G d   1     -16.138 -13.487  -0.954  0.00  0.00     0.050 A 
ATOM      7  H19 X5G d   1     -15.518 -12.220   0.626  0.00  0.00     0.087 H 
ATOM      8  H23 X5G d   1     -16.967 -14.678  -2.508  0.00  0.00     0.087 H 
ENDROOT
BRANCH   6   9
ATOM      9  NAV X5G d   1     -14.942 -13.863  -1.217  0.00  0.00    -0.188 N 
ATOM     10  H24 X5G d   1     -14.787 -14.422  -2.068  0.00  0.00     0.184 HD
BRANCH   9  11
ATOM     11  C2  X5G d   1     -13.928 -13.586  -0.487  0.00  0.00     0.728 A 
ATOM     12  N1  X5G d   1     -12.842 -14.271  -0.692  0.00  0.00    -0.075 NA
ATOM     13  C6  X5G d   1     -11.791 -14.051   0.003  0.00  0.00     0.025 A 
ATOM     14  C5  X5G d   1     -11.833 -13.092   0.963  0.00  0.00    -0.020 A 
ATOM     15  H2  X5G d   1     -10.884 -14.619  -0.171  0.00  0.00     0.115 H 
ATOM     16  C4  X5G d   1     -12.981 -12.387   1.137  0.00  0.00     0.154 A 
ATOM     17  H1  X5G d   1     -10.965 -12.892   1.581  0.00  0.00     0.091 H 
ATOM     18  N3  X5G d   1     -14.030 -12.653   0.407  0.00  0.00    -0.044 NA
BRANCH  16  19
ATOM     19  NBI X5G d   1     -12.997 -11.516   2.095  0.00  0.00    -0.316 N 
ATOM     20  CAJ X5G d   1     -14.056 -11.089   2.732  0.00  0.00    -0.006 A 
ATOM     21  CBB X5G d   1     -13.665 -10.273   3.650  0.00  0.00    -0.009 A 
ATOM     22  H25 X5G d   1     -15.087 -11.373   2.524  0.00  0.00     0.113 H 
ATOM     23  CAX X5G d   1     -12.297 -10.258   3.602  0.00  0.00    -0.037 A 
ATOM     24  CAI X5G d   1     -11.915 -11.044   2.648  0.00  0.00    -0.008 A 
ATOM     25  H26 X5G d   1     -10.888 -11.268   2.362  0.00  0.00     0.113 H 
BRANCH  21  26
ATOM     26  CAQ X5G d   1     -14.601  -9.550   4.560  0.00  0.00     0.109 C 
ATOM     27  H30 X5G d   1     -15.461  -9.176   3.986  0.00  0.00     0.083 H 
ATOM     28  H31 X5G d   1     -14.080  -8.704   5.032  0.00  0.00     0.083 H 
BRANCH  26  29
ATOM     29  NBH X5G d   1     -15.057 -10.469   5.577  0.00  0.00    -0.062 N 
ATOM     30  CAS X5G d   1     -15.812 -11.575   5.040  0.00  0.00     0.109 C 
ATOM     31  CBF X5G d   1     -16.550 -11.460   6.328  0.00  0.00     0.082 C 
ATOM     32  H33 X5G d   1     -15.250 -12.509   4.896  0.00  0.00     0.080 H 
ATOM     33  H34 X5G d   1     -16.398 -11.356   4.135  0.00  0.00     0.080 H 
ATOM     34  CAR X5G d   1     -16.293 -10.011   6.155  0.00  0.00     0.109 C 
ATOM     35  H37 X5G d   1     -16.147 -11.973   7.214  0.00  0.00     0.088 H 
ATOM     36  H35 X5G d   1     -16.973  -9.488   5.467  0.00  0.00     0.080 H 
ATOM     37  H36 X5G d   1     -16.196  -9.432   7.085  0.00  0.00     0.080 H 
ATOM     38  H32 X5G d   1     -14.318 -10.707   6.219  0.00  0.00     0.280 HD
BRANCH  31  39
ATOM     39  OAD X5G d   1     -17.890 -11.681   6.121  0.00  0.00    -0.392 OA
ATOM     40  H38 X5G d   1     -18.077 -12.606   6.227  0.00  0.00     0.210 HD
ENDBRANCH  31  39
ENDBRANCH  26  29
ENDBRANCH  21  26
BRANCH  23  41
ATOM     41  CAA X5G d   1     -11.408  -9.446   4.500  0.00  0.00    -0.049 C 
ATOM     42  H27 X5G d   1     -10.356  -9.629   4.237  0.00  0.00     0.033 H 
ATOM     43  H28 X5G d   1     -11.581  -9.736   5.547  0.00  0.00     0.033 H 
ATOM     44  H29 X5G d   1     -11.637  -8.377   4.373  0.00  0.00     0.033 H 
ENDBRANCH  23  41
ENDBRANCH  16  19
ENDBRANCH   9  11
ENDBRANCH   6   9
BRANCH   2  45
ATOM     45  CAC X5G d   1     -17.872 -11.247   1.441  0.00  0.00    -0.049 C 
ATOM     46  H16 X5G d   1     -16.913 -10.973   1.904  0.00  0.00     0.033 H 
ATOM     47  H17 X5G d   1     -18.525 -11.709   2.196  0.00  0.00     0.033 H 
ATOM     48  H18 X5G d   1     -18.356 -10.345   1.040  0.00  0.00     0.033 H 
ENDBRANCH   2  45
BRANCH   4  49
ATOM     49  CAB X5G d   1     -19.568 -14.121  -2.256  0.00  0.00    -0.049 C 
ATOM     50  H20 X5G d   1     -19.168 -14.798  -3.026  0.00  0.00     0.033 H 
ATOM     51  H21 X5G d   1     -20.100 -13.289  -2.740  0.00  0.00     0.033 H 
ATOM     52  H22 X5G d   1     -20.264 -14.673  -1.607  0.00  0.00     0.033 H 
ENDBRANCH   4  49
BRANCH   1  53
ATOM     53  OAW X5G d   1     -19.877 -12.302  -0.139  0.00  0.00    -0.348 OA
BRANCH  53  54
ATOM     54  CAM X5G d   1     -19.863 -11.230  -0.913  0.00  0.00     0.049 C 
ATOM     55  H14 X5G d   1     -20.226 -10.296  -0.459  0.00  0.00     0.077 H 
ATOM     56  H15 X5G d   1     -18.927 -11.033  -1.456  0.00  0.00     0.077 H 
BRANCH  54  57
ATOM     57  CAP X5G d   1     -20.848 -12.031  -1.605  0.00  0.00     0.103 C 
ATOM     58  H12 X5G d   1     -20.968 -11.712  -2.651  0.00  0.00     0.079 H 
ATOM     59  H13 X5G d   1     -20.595 -13.101  -1.574  0.00  0.00     0.079 H 
BRANCH  57  60
ATOM     60  NBG X5G d   1     -22.002 -11.744  -0.835  0.00  0.00    -0.069 N 
ATOM     61  CAN X5G d   1     -21.961 -10.297  -0.825  0.00  0.00     0.084 C 
ATOM     62  CAK X5G d   1     -23.412  -9.897  -0.699  0.00  0.00    -0.041 C 
ATOM     63  H3  X5G d   1     -21.377  -9.927   0.031  0.00  0.00     0.076 H 
ATOM     64  H4  X5G d   1     -21.528  -9.911  -1.759  0.00  0.00     0.076 H 
ATOM     65  CAL X5G d   1     -24.114 -10.924  -1.561  0.00  0.00    -0.041 C 
ATOM     66  H5  X5G d   1     -23.578  -8.879  -1.080  0.00  0.00     0.035 H 
ATOM     67  H6  X5G d   1     -23.751  -9.957   0.346  0.00  0.00     0.035 H 
ATOM     68  CAO X5G d   1     -23.141 -12.086  -1.676  0.00  0.00     0.084 C 
ATOM     69  H7  X5G d   1     -24.334 -10.507  -2.555  0.00  0.00     0.035 H 
ATOM     70  H8  X5G d   1     -25.050 -11.251  -1.085  0.00  0.00     0.035 H 
ATOM     71  H9  X5G d   1     -22.820 -12.213  -2.720  0.00  0.00     0.076 H 
ATOM     72  H10 X5G d   1     -23.612 -13.015  -1.322  0.00  0.00     0.076 H 
ATOM     73  H11 X5G d   1     -22.022 -12.176   0.075  0.00  0.00     0.280 HD
ENDBRANCH  57  60
ENDBRANCH  54  57
ENDBRANCH  53  54
ENDBRANCH   1  53
TORSDOF 13
