REMARK  15 active torsions:
REMARK  status: ('A' for Active; 'I' for Inactive)
REMARK    1  A    between atoms: C23_3  and  O4_4 
REMARK    2  A    between atoms: C23_3  and  C37_5 
REMARK    3  A    between atoms: C21_7  and  C20_17 
REMARK    4  A    between atoms: N_8  and  C25_9 
REMARK    5  A    between atoms: C25_9  and  C26_10 
REMARK    6  A    between atoms: C26_10  and  C29_11 
REMARK    7  A    between atoms: C20_17  and  C19_18 
REMARK    8  A    between atoms: C19_18  and  C36_19 
REMARK    9  A    between atoms: C19_18  and  C9_20 
REMARK   10  A    between atoms: C3_21  and  C35_22 
REMARK   11  A    between atoms: C10_30  and  C11_31 
REMARK   12  A    between atoms: C11_31  and  C12_32 
REMARK   13  A    between atoms: C17_33  and  C18_34 
REMARK   14  A    between atoms: C16_35  and  O1_36 
REMARK   15  A    between atoms: C14_38  and  O2_39 
ROOT
ATOM      1  C9  DLC d   1     -15.507   2.869  -6.077  0.00  0.00    -0.043 C 
ATOM      2  C3  DLC d   1     -15.469   4.340  -5.653  0.00  0.00    -0.033 C 
ATOM      3  C2  DLC d   1     -16.775   4.529  -4.898  0.00  0.00    -0.025 C 
ATOM      4  C7  DLC d   1     -16.914   3.263  -4.062  0.00  0.00    -0.057 C 
ATOM      5  C8  DLC d   1     -16.290   2.177  -4.953  0.00  0.00    -0.060 C 
ATOM      6  C4  DLC d   1     -15.438   5.361  -6.786  0.00  0.00    -0.057 C 
ATOM      7  C5  DLC d   1     -15.566   6.791  -6.266  0.00  0.00    -0.061 C 
ATOM      8  C6  DLC d   1     -16.796   6.992  -5.385  0.00  0.00    -0.044 C 
ATOM      9  C1  DLC d   1     -16.793   5.931  -4.318  0.00  0.00    -0.075 C 
ATOM     10  C10 DLC d   1     -16.799   6.395  -3.048  0.00  0.00    -0.080 C 
ATOM     11  H23 DLC d   1     -16.085   2.796  -7.010  0.00  0.00     0.041 H 
ATOM     12  H27 DLC d   1     -17.609   4.506  -5.615  0.00  0.00     0.048 H 
ATOM     13  H28 DLC d   1     -17.971   3.042  -3.855  0.00  0.00     0.034 H 
ATOM     14  H29 DLC d   1     -16.366   3.356  -3.113  0.00  0.00     0.034 H 
ATOM     15  H30 DLC d   1     -15.610   1.551  -4.356  0.00  0.00     0.033 H 
ATOM     16  H31 DLC d   1     -17.083   1.548  -5.384  0.00  0.00     0.033 H 
ATOM     17  H32 DLC d   1     -16.273   5.156  -7.473  0.00  0.00     0.034 H 
ATOM     18  H33 DLC d   1     -14.485   5.263  -7.327  0.00  0.00     0.034 H 
ATOM     19  H34 DLC d   1     -15.635   7.473  -7.126  0.00  0.00     0.033 H 
ATOM     20  H35 DLC d   1     -14.669   7.033  -5.677  0.00  0.00     0.033 H 
ATOM     21  H36 DLC d   1     -17.708   6.904  -5.994  0.00  0.00     0.039 H 
ATOM     22  H37 DLC d   1     -16.761   7.988  -4.919  0.00  0.00     0.039 H 
ATOM     23  H38 DLC d   1     -16.835   7.479  -2.955  0.00  0.00     0.083 H 
ENDROOT
BRANCH   1  24
ATOM     24  C19 DLC d   1     -14.142   2.203  -6.355  0.00  0.00    -0.052 C 
ATOM     25  H19 DLC d   1     -13.576   2.268  -5.414  0.00  0.00     0.040 H 
BRANCH  24  26
ATOM     26  C20 DLC d   1     -14.230   0.723  -6.740  0.00  0.00    -0.043 C 
ATOM     27  H17 DLC d   1     -14.577   0.133  -5.879  0.00  0.00     0.036 H 
ATOM     28  H18 DLC d   1     -14.931   0.596  -7.578  0.00  0.00     0.036 H 
BRANCH  26  29
ATOM     29  C21 DLC d   1     -12.829   0.263  -7.157  0.00  0.00     0.018 C 
ATOM     30  C22 DLC d   1     -12.088  -0.312  -5.946  0.00  0.00    -0.009 C 
ATOM     31  C23 DLC d   1     -11.936  -1.809  -6.179  0.00  0.00     0.136 C 
ATOM     32  H5  DLC d   1     -11.098   0.157  -5.853  0.00  0.00     0.041 H 
ATOM     33  H6  DLC d   1     -12.668  -0.130  -5.029  0.00  0.00     0.041 H 
ATOM     34  C24 DLC d   1     -12.258  -1.964  -7.635  0.00  0.00     0.254 C 
ATOM     35  O3  DLC d   1     -11.937  -2.941  -8.297  0.00  0.00    -0.270 OA
ATOM     36  N   DLC d   1     -12.926  -0.892  -8.048  0.00  0.00    -0.344 N 
ATOM     37  H7  DLC d   1     -12.275   1.093  -7.621  0.00  0.00     0.073 H 
BRANCH  31  38
ATOM     38  O4  DLC d   1     -12.897  -2.497  -5.379  0.00  0.00    -0.380 OA
ATOM     39  H1  DLC d   1     -12.889  -3.421  -5.601  0.00  0.00     0.211 HD
ENDBRANCH  31  38
BRANCH  31  40
ATOM     40  C37 DLC d   1     -10.541  -2.326  -5.860  0.00  0.00    -0.039 C 
ATOM     41  H2  DLC d   1     -10.339  -2.197  -4.787  0.00  0.00     0.032 H 
ATOM     42  H3  DLC d   1      -9.799  -1.762  -6.443  0.00  0.00     0.032 H 
ATOM     43  H4  DLC d   1     -10.477  -3.393  -6.120  0.00  0.00     0.032 H 
ENDBRANCH  31  40
BRANCH  36  44
ATOM     44  C25 DLC d   1     -13.760  -0.692  -9.229  0.00  0.00     0.002 C 
ATOM     45  H8  DLC d   1     -14.175   0.327  -9.233  0.00  0.00     0.064 H 
ATOM     46  H9  DLC d   1     -14.582  -1.423  -9.241  0.00  0.00     0.064 H 
BRANCH  44  47
ATOM     47  C26 DLC d   1     -12.855  -0.897 -10.440  0.00  0.00    -0.026 C 
ATOM     48  H10 DLC d   1     -13.468  -1.057 -11.339  0.00  0.00     0.042 H 
ATOM     49  H11 DLC d   1     -12.209  -1.772 -10.277  0.00  0.00     0.042 H 
BRANCH  47  50
ATOM     50  C29 DLC d   1     -12.004   0.340 -10.617  0.00  0.00    -0.057 A 
ATOM     51  C34 DLC d   1     -10.620   0.233 -10.713  0.00  0.00    -0.077 A 
ATOM     52  C33 DLC d   1      -9.838   1.373 -10.873  0.00  0.00    -0.082 A 
ATOM     53  H12 DLC d   1     -10.149  -0.742 -10.663  0.00  0.00     0.084 H 
ATOM     54  C32 DLC d   1     -10.444   2.622 -10.941  0.00  0.00    -0.083 A 
ATOM     55  H13 DLC d   1      -8.760   1.287 -10.944  0.00  0.00     0.083 H 
ATOM     56  C31 DLC d   1     -11.829   2.728 -10.846  0.00  0.00    -0.082 A 
ATOM     57  H14 DLC d   1      -9.839   3.513 -11.068  0.00  0.00     0.083 H 
ATOM     58  C30 DLC d   1     -12.611   1.589 -10.687  0.00  0.00    -0.077 A 
ATOM     59  H15 DLC d   1     -12.300   3.703 -10.896  0.00  0.00     0.083 H 
ATOM     60  H16 DLC d   1     -13.689   1.675 -10.618  0.00  0.00     0.084 H 
ENDBRANCH  47  50
ENDBRANCH  44  47
ENDBRANCH  36  44
ENDBRANCH  26  29
ENDBRANCH  24  26
BRANCH  24  61
ATOM     61  C36 DLC d   1     -13.307   2.886  -7.443  0.00  0.00    -0.072 C 
ATOM     62  H20 DLC d   1     -13.212   3.958  -7.214  0.00  0.00     0.028 H 
ATOM     63  H21 DLC d   1     -13.802   2.762  -8.417  0.00  0.00     0.028 H 
ATOM     64  H22 DLC d   1     -12.307   2.429  -7.479  0.00  0.00     0.028 H 
ENDBRANCH  24  61
ENDBRANCH   1  24
BRANCH   2  65
ATOM     65  C35 DLC d   1     -14.331   4.579  -4.662  0.00  0.00    -0.068 C 
ATOM     66  H24 DLC d   1     -14.318   5.639  -4.368  0.00  0.00     0.028 H 
ATOM     67  H25 DLC d   1     -13.373   4.317  -5.134  0.00  0.00     0.028 H 
ATOM     68  H26 DLC d   1     -14.484   3.953  -3.771  0.00  0.00     0.028 H 
ENDBRANCH   2  65
BRANCH  10  69
ATOM     69  C11 DLC d   1     -16.765   5.670  -1.784  0.00  0.00    -0.076 C 
ATOM     70  H39 DLC d   1     -16.844   4.584  -1.772  0.00  0.00     0.084 H 
BRANCH  69  71
ATOM     71  C12 DLC d   1     -16.635   6.356  -0.629  0.00  0.00    -0.048 C 
ATOM     72  C17 DLC d   1     -16.583   5.672   0.505  0.00  0.00    -0.033 C 
ATOM     73  C16 DLC d   1     -17.090   6.244   1.788  0.00  0.00     0.063 C 
ATOM     74  C15 DLC d   1     -16.510   7.641   1.909  0.00  0.00    -0.013 C 
ATOM     75  H42 DLC d   1     -18.189   6.283   1.787  0.00  0.00     0.090 H 
ATOM     76  C14 DLC d   1     -16.992   8.475   0.730  0.00  0.00     0.042 C 
ATOM     77  H44 DLC d   1     -15.411   7.588   1.900  0.00  0.00     0.041 H 
ATOM     78  H45 DLC d   1     -16.847   8.101   2.850  0.00  0.00     0.041 H 
ATOM     79  C13 DLC d   1     -16.556   7.871  -0.612  0.00  0.00    -0.016 C 
ATOM     80  H46 DLC d   1     -16.575   9.490   0.810  0.00  0.00     0.083 H 
ATOM     81  H48 DLC d   1     -17.210   8.266  -1.404  0.00  0.00     0.043 H 
ATOM     82  H49 DLC d   1     -15.517   8.171  -0.811  0.00  0.00     0.043 H 
BRANCH  72  83
ATOM     83  C18 DLC d   1     -16.067   4.465   0.494  0.00  0.00    -0.113 C 
ATOM     84  H40 DLC d   1     -15.695   4.040  -0.437  0.00  0.00     0.067 H 
ATOM     85  H41 DLC d   1     -16.011   3.888   1.416  0.00  0.00     0.067 H 
ENDBRANCH  72  83
BRANCH  73  86
ATOM     86  O1  DLC d   1     -16.629   5.431   2.872  0.00  0.00    -0.391 OA
ATOM     87  H43 DLC d   1     -15.679   5.421   2.877  0.00  0.00     0.210 HD
ENDBRANCH  73  86
BRANCH  76  88
ATOM     88  O2  DLC d   1     -18.420   8.538   0.806  0.00  0.00    -0.395 OA
ATOM     89  H47 DLC d   1     -18.752   9.054   0.081  0.00  0.00     0.210 HD
ENDBRANCH  76  88
ENDBRANCH  69  71
ENDBRANCH  10  69
TORSDOF 15
