REMARK  15 active torsions:
REMARK  status: ('A' for Active; 'I' for Inactive)
REMARK    1  A    between atoms: C26_3  and  O4_4 
REMARK    2  A    between atoms: C26_3  and  C24_5 
REMARK    3  A    between atoms: C23_7  and  C22_19 
REMARK    4  A    between atoms: N28_8  and  C28_9 
REMARK    5  A    between atoms: C28_9  and  C29_10 
REMARK    6  A    between atoms: C29_10  and  C30_11 
REMARK    7  A    between atoms: C30_11  and  C31_12 
REMARK    8  A    between atoms: C31_12  and  C32_13 
REMARK    9  A    between atoms: C22_19  and  C20_20 
REMARK   10  A    between atoms: C20_20  and  C21_21 
REMARK   11  A    between atoms: C20_20  and  C16_22 
REMARK   12  A    between atoms: C11_23  and  C18_24 
REMARK   13  A    between atoms: C7_32  and  C6_33 
REMARK   14  A    between atoms: C3_36  and  O2_37 
REMARK   15  A    between atoms: C1_39  and  O1_40 
ROOT
ATOM      1  C16 VDP d   1     -15.471   3.858  -6.156  0.00  0.00    -0.043 C 
ATOM      2  C11 VDP d   1     -15.434   5.331  -5.716  0.00  0.00    -0.033 C 
ATOM      3  C9  VDP d   1     -16.753   5.492  -4.975  0.00  0.00    -0.025 C 
ATOM      4  C15 VDP d   1     -16.841   4.235  -4.115  0.00  0.00    -0.057 C 
ATOM      5  C17 VDP d   1     -16.206   3.154  -5.007  0.00  0.00    -0.060 C 
ATOM      6  C12 VDP d   1     -15.394   6.354  -6.856  0.00  0.00    -0.057 C 
ATOM      7  C13 VDP d   1     -15.604   7.786  -6.366  0.00  0.00    -0.061 C 
ATOM      8  C14 VDP d   1     -16.866   7.934  -5.525  0.00  0.00    -0.044 C 
ATOM      9  C8  VDP d   1     -16.814   6.906  -4.431  0.00  0.00    -0.075 C 
ATOM     10  C7  VDP d   1     -16.819   7.405  -3.176  0.00  0.00    -0.080 C 
ATOM     11  H27 VDP d   1     -16.095   3.795  -7.059  0.00  0.00     0.041 H 
ATOM     12  H31 VDP d   1     -17.584   5.425  -5.693  0.00  0.00     0.048 H 
ATOM     13  H32 VDP d   1     -17.887   3.989  -3.882  0.00  0.00     0.034 H 
ATOM     14  H33 VDP d   1     -16.275   4.357  -3.179  0.00  0.00     0.034 H 
ATOM     15  H34 VDP d   1     -15.494   2.556  -4.419  0.00  0.00     0.033 H 
ATOM     16  H35 VDP d   1     -16.990   2.497  -5.412  0.00  0.00     0.033 H 
ATOM     17  H36 VDP d   1     -16.187   6.109  -7.578  0.00  0.00     0.034 H 
ATOM     18  H37 VDP d   1     -14.414   6.291  -7.352  0.00  0.00     0.034 H 
ATOM     19  H38 VDP d   1     -15.682   8.450  -7.239  0.00  0.00     0.033 H 
ATOM     20  H39 VDP d   1     -14.737   8.081  -5.757  0.00  0.00     0.033 H 
ATOM     21  H40 VDP d   1     -17.755   7.768  -6.152  0.00  0.00     0.039 H 
ATOM     22  H41 VDP d   1     -16.908   8.943  -5.088  0.00  0.00     0.039 H 
ATOM     23  H42 VDP d   1     -16.877   8.490  -3.108  0.00  0.00     0.083 H 
ENDROOT
BRANCH   1  24
ATOM     24  C20 VDP d   1     -14.128   3.193  -6.526  0.00  0.00    -0.052 C 
ATOM     25  H23 VDP d   1     -13.559   3.164  -5.585  0.00  0.00     0.040 H 
BRANCH  24  26
ATOM     26  C22 VDP d   1     -14.240   1.744  -7.017  0.00  0.00    -0.043 C 
ATOM     27  H21 VDP d   1     -14.665   1.105  -6.228  0.00  0.00     0.036 H 
ATOM     28  H22 VDP d   1     -14.876   1.692  -7.913  0.00  0.00     0.036 H 
BRANCH  26  29
ATOM     29  C23 VDP d   1     -12.812   1.298  -7.352  0.00  0.00     0.018 C 
ATOM     30  C27 VDP d   1     -12.095   0.888  -6.065  0.00  0.00    -0.009 C 
ATOM     31  C26 VDP d   1     -11.419  -0.448  -6.333  0.00  0.00     0.136 C 
ATOM     32  H5  VDP d   1     -11.343   1.644  -5.796  0.00  0.00     0.041 H 
ATOM     33  H6  VDP d   1     -12.821   0.785  -5.245  0.00  0.00     0.041 H 
ATOM     34  C25 VDP d   1     -11.980  -0.884  -7.651  0.00  0.00     0.254 C 
ATOM     35  O3  VDP d   1     -11.726  -1.974  -8.142  0.00  0.00    -0.270 OA
ATOM     36  N28 VDP d   1     -12.762   0.070  -8.150  0.00  0.00    -0.345 N 
ATOM     37  H7  VDP d   1     -12.285   2.116  -7.864  0.00  0.00     0.073 H 
BRANCH  31  38
ATOM     38  O4  VDP d   1     -11.756  -1.397  -5.319  0.00  0.00    -0.380 OA
ATOM     39  H1  VDP d   1     -12.701  -1.463  -5.250  0.00  0.00     0.211 HD
ENDBRANCH  31  38
BRANCH  31  40
ATOM     40  C24 VDP d   1      -9.908  -0.282  -6.448  0.00  0.00    -0.039 C 
ATOM     41  H2  VDP d   1      -9.499   0.038  -5.478  0.00  0.00     0.032 H 
ATOM     42  H3  VDP d   1      -9.680   0.477  -7.211  0.00  0.00     0.032 H 
ATOM     43  H4  VDP d   1      -9.455  -1.241  -6.738  0.00  0.00     0.032 H 
ENDBRANCH  31  40
BRANCH  36  44
ATOM     44  C28 VDP d   1     -13.550   0.083  -9.375  0.00  0.00    -0.002 C 
ATOM     45  H8  VDP d   1     -14.107   1.028  -9.464  0.00  0.00     0.064 H 
ATOM     46  H9  VDP d   1     -14.255  -0.761  -9.387  0.00  0.00     0.064 H 
BRANCH  44  47
ATOM     47  C29 VDP d   1     -12.539  -0.050 -10.512  0.00  0.00    -0.050 C 
ATOM     48  H10 VDP d   1     -13.037  -0.495 -11.386  0.00  0.00     0.035 H 
ATOM     49  H11 VDP d   1     -11.716  -0.703 -10.187  0.00  0.00     0.035 H 
BRANCH  47  50
ATOM     50  C30 VDP d   1     -11.972   1.313 -10.900  0.00  0.00    -0.060 C 
ATOM     51  H12 VDP d   1     -12.333   2.059 -10.177  0.00  0.00     0.033 H 
ATOM     52  H13 VDP d   1     -12.337   1.569 -11.905  0.00  0.00     0.033 H 
BRANCH  50  53
ATOM     53  C31 VDP d   1     -10.443   1.353 -10.915  0.00  0.00    -0.041 C 
ATOM     54  H14 VDP d   1     -10.060   0.763 -11.761  0.00  0.00     0.040 H 
ATOM     55  H15 VDP d   1     -10.047   0.945  -9.974  0.00  0.00     0.040 H 
BRANCH  53  56
ATOM     56  C32 VDP d   1     -10.029   2.802 -11.065  0.00  0.00    -0.058 A 
ATOM     57  C33 VDP d   1     -10.011   3.398 -12.322  0.00  0.00    -0.077 A 
ATOM     58  C34 VDP d   1      -9.644   4.733 -12.463  0.00  0.00    -0.082 A 
ATOM     59  H16 VDP d   1     -10.284   2.819 -13.197  0.00  0.00     0.084 H 
ATOM     60  C35 VDP d   1      -9.299   5.479 -11.342  0.00  0.00    -0.083 A 
ATOM     61  H17 VDP d   1      -9.627   5.190 -13.446  0.00  0.00     0.083 H 
ATOM     62  C36 VDP d   1      -9.323   4.888 -10.082  0.00  0.00    -0.082 A 
ATOM     63  H18 VDP d   1      -9.012   6.519 -11.449  0.00  0.00     0.083 H 
ATOM     64  C37 VDP d   1      -9.690   3.552  -9.943  0.00  0.00    -0.077 A 
ATOM     65  H19 VDP d   1      -9.055   5.469  -9.207  0.00  0.00     0.083 H 
ATOM     66  H20 VDP d   1      -9.712   3.096  -8.960  0.00  0.00     0.084 H 
ENDBRANCH  53  56
ENDBRANCH  50  53
ENDBRANCH  47  50
ENDBRANCH  44  47
ENDBRANCH  36  44
ENDBRANCH  26  29
ENDBRANCH  24  26
BRANCH  24  67
ATOM     67  C21 VDP d   1     -13.254   3.945  -7.537  0.00  0.00    -0.072 C 
ATOM     68  H24 VDP d   1     -13.148   4.993  -7.221  0.00  0.00     0.028 H 
ATOM     69  H25 VDP d   1     -13.726   3.907  -8.530  0.00  0.00     0.028 H 
ATOM     70  H26 VDP d   1     -12.261   3.474  -7.585  0.00  0.00     0.028 H 
ENDBRANCH  24  67
ENDBRANCH   1  24
BRANCH   2  71
ATOM     71  C18 VDP d   1     -14.293   5.565  -4.722  0.00  0.00    -0.068 C 
ATOM     72  H28 VDP d   1     -14.282   6.622  -4.419  0.00  0.00     0.028 H 
ATOM     73  H29 VDP d   1     -13.334   5.310  -5.197  0.00  0.00     0.028 H 
ATOM     74  H30 VDP d   1     -14.443   4.931  -3.836  0.00  0.00     0.028 H 
ENDBRANCH   2  71
BRANCH  10  75
ATOM     75  C6  VDP d   1     -16.758   6.706  -1.902  0.00  0.00    -0.076 C 
ATOM     76  C5  VDP d   1     -16.749   7.401  -0.748  0.00  0.00    -0.048 C 
ATOM     77  C4  VDP d   1     -16.798   8.918  -0.714  0.00  0.00    -0.016 C 
ATOM     78  C10 VDP d   1     -16.670   6.645   0.489  0.00  0.00    -0.033 C 
ATOM     79  C3  VDP d   1     -17.107   9.491   0.680  0.00  0.00     0.042 C 
ATOM     80  H44 VDP d   1     -17.579   9.257  -1.411  0.00  0.00     0.043 H 
ATOM     81  H45 VDP d   1     -15.822   9.305  -1.041  0.00  0.00     0.043 H 
ATOM     82  C2  VDP d   1     -16.459   8.667   1.787  0.00  0.00    -0.013 C 
ATOM     83  H46 VDP d   1     -16.708  10.515   0.724  0.00  0.00     0.083 H 
ATOM     84  C1  VDP d   1     -17.071   7.277   1.778  0.00  0.00     0.063 C 
ATOM     85  H48 VDP d   1     -16.641   9.146   2.760  0.00  0.00     0.041 H 
ATOM     86  H49 VDP d   1     -15.376   8.596   1.610  0.00  0.00     0.041 H 
ATOM     87  H50 VDP d   1     -18.167   7.351   1.839  0.00  0.00     0.090 H 
ATOM     88  C19 VDP d   1     -16.221   5.412   0.461  0.00  0.00    -0.113 C 
ATOM     89  H52 VDP d   1     -15.931   4.960  -0.486  0.00  0.00     0.067 H 
ATOM     90  H53 VDP d   1     -16.139   4.841   1.385  0.00  0.00     0.067 H 
ATOM     91  H43 VDP d   1     -16.720   5.618  -1.881  0.00  0.00     0.084 H 
BRANCH  79  92
ATOM     92  O2  VDP d   1     -18.521   9.536   0.923  0.00  0.00    -0.395 OA
ATOM     93  H47 VDP d   1     -18.936  10.087   0.270  0.00  0.00     0.210 HD
ENDBRANCH  79  92
BRANCH  84  94
ATOM     94  O1  VDP d   1     -16.591   6.491   2.872  0.00  0.00    -0.391 OA
ATOM     95  H51 VDP d   1     -15.647   6.407   2.810  0.00  0.00     0.210 HD
ENDBRANCH  84  94
ENDBRANCH  10  75
TORSDOF 15
