REMARK  6 active torsions:
REMARK  status: ('A' for Active; 'I' for Inactive)
REMARK    1  A    between atoms: N11_14  and  C1_1 
REMARK    2  A    between atoms: C8_8  and  N18_18 
REMARK    3  A    between atoms: N14_15  and  C17_17 
REMARK       I    between atoms: N18_18  and  C19_19 
REMARK       I    between atoms: C19_19  and  N20_20 
REMARK    4  A    between atoms: N20_20  and  C22_22 
REMARK    5  A    between atoms: C25_25  and  O28_28 
REMARK    6  A    between atoms: O28_28  and  C29_29 
ROOT
ATOM      1  C1  6V3 d   1       0.395 -48.903 -17.777  0.00  0.00     0.041 A 
ATOM      2  C2  6V3 d   1       0.459 -47.622 -18.313  0.00  0.00    -0.057 A 
ATOM      3  C3  6V3 d   1      -0.543 -46.697 -18.068  0.00  0.00    -0.080 A 
ATOM      4  C4  6V3 d   1      -1.625 -47.023 -17.309  0.00  0.00    -0.072 A 
ATOM      5  C5  6V3 d   1      -0.729 -49.285 -16.976  0.00  0.00     0.001 A 
ATOM      6  C6  6V3 d   1      -1.750 -48.315 -16.741  0.00  0.00    -0.021 A 
ATOM      7  C7  6V3 d   1      -2.865 -48.666 -15.953  0.00  0.00    -0.046 A 
ATOM      8  C8  6V3 d   1      -2.973 -49.925 -15.402  0.00  0.00     0.037 A 
ATOM      9  C9  6V3 d   1      -1.984 -50.871 -15.638  0.00  0.00    -0.056 A 
ATOM     10  C10 6V3 d   1      -0.893 -50.573 -16.394  0.00  0.00    -0.068 A 
ATOM     11  H1  6V3 d   1       1.305 -47.343 -18.931  0.00  0.00     0.086 H 
ATOM     12  H2  6V3 d   1      -0.464 -45.700 -18.486  0.00  0.00     0.083 H 
ATOM     13  H3  6V3 d   1      -2.400 -46.285 -17.137  0.00  0.00     0.084 H 
ATOM     14  H4  6V3 d   1      -3.647 -47.937 -15.778  0.00  0.00     0.088 H 
ATOM     15  H5  6V3 d   1      -2.083 -51.863 -15.213  0.00  0.00     0.086 H 
ATOM     16  H6  6V3 d   1      -0.135 -51.331 -16.556  0.00  0.00     0.085 H 
ENDROOT
BRANCH   8  17
ATOM     17  N18 6V3 d   1      -4.117 -50.267 -14.644  0.00  0.00    -0.309 N 
ATOM     18  C19 6V3 d   1      -5.404 -50.017 -15.040  0.00  0.00     0.325 C 
ATOM     19  N20 6V3 d   1      -6.329 -50.896 -14.547  0.00  0.00    -0.309 N 
ATOM     20  O21 6V3 d   1      -5.700 -49.097 -15.794  0.00  0.00    -0.247 OA
ATOM     21  H20 6V3 d   1      -5.991 -51.689 -14.040  0.00  0.00     0.170 HD
ATOM     22  H19 6V3 d   1      -3.977 -50.720 -13.763  0.00  0.00     0.170 HD
BRANCH  19  23
ATOM     23  C22 6V3 d   1      -7.732 -50.764 -14.703  0.00  0.00     0.036 A 
ATOM     24  C23 6V3 d   1      -8.589 -50.970 -13.630  0.00  0.00    -0.054 A 
ATOM     25  C24 6V3 d   1      -9.954 -50.819 -13.787  0.00  0.00    -0.048 A 
ATOM     26  H21 6V3 d   1      -8.185 -51.251 -12.664  0.00  0.00     0.087 H 
ATOM     27  C25 6V3 d   1     -10.471 -50.466 -15.023  0.00  0.00     0.076 A 
ATOM     28  H22 6V3 d   1     -10.618 -50.976 -12.945  0.00  0.00     0.087 H 
ATOM     29  C26 6V3 d   1      -9.626 -50.247 -16.094  0.00  0.00    -0.048 A 
ATOM     30  C27 6V3 d   1      -8.261 -50.397 -15.935  0.00  0.00    -0.054 A 
ATOM     31  H23 6V3 d   1     -10.032 -49.958 -17.057  0.00  0.00     0.087 H 
ATOM     32  H24 6V3 d   1      -7.599 -50.227 -16.776  0.00  0.00     0.087 H 
BRANCH  27  33
ATOM     33  O28 6V3 d   1     -11.844 -50.298 -15.197  0.00  0.00    -0.310 OA
BRANCH  33  34
ATOM     34  C29 6V3 d   1     -12.383 -49.019 -15.094  0.00  0.00     0.091 A 
ATOM     35  C30 6V3 d   1     -11.721 -47.966 -14.471  0.00  0.00    -0.032 A 
ATOM     36  C31 6V3 d   1     -12.356 -46.737 -14.438  0.00  0.00     0.007 A 
ATOM     37  H25 6V3 d   1     -10.742 -48.103 -14.027  0.00  0.00     0.090 H 
ATOM     38  N32 6V3 d   1     -13.571 -46.497 -14.960  0.00  0.00    -0.242 NA
ATOM     39  H26 6V3 d   1     -11.839 -45.913 -13.959  0.00  0.00     0.115 H 
ATOM     40  C34 6V3 d   1     -14.193 -47.532 -15.554  0.00  0.00     0.140 A 
ATOM     41  C33 6V3 d   1     -13.656 -48.813 -15.654  0.00  0.00     0.045 A 
ATOM     42  N35 6V3 d   1     -15.418 -47.540 -16.155  0.00  0.00    -0.350 N 
ATOM     43  C37 6V3 d   1     -14.614 -49.619 -16.350  0.00  0.00    -0.052 A 
ATOM     44  C36 6V3 d   1     -15.663 -48.807 -16.633  0.00  0.00    -0.020 A 
ATOM     45  H29 6V3 d   1     -14.519 -50.674 -16.602  0.00  0.00     0.087 H 
ATOM     46  H28 6V3 d   1     -16.566 -49.112 -17.160  0.00  0.00     0.111 H 
ATOM     47  H27 6V3 d   1     -16.053 -46.733 -16.237  0.00  0.00     0.166 HD
ENDBRANCH  33  34
ENDBRANCH  27  33
ENDBRANCH  19  23
ENDBRANCH   8  17
BRANCH   1  48
ATOM     48  N11 6V3 d   1       1.397 -49.881 -18.033  0.00  0.00    -0.377 N 
ATOM     49  C12 6V3 d   1       1.051 -50.801 -19.125  0.00  0.00     0.018 C 
ATOM     50  C13 6V3 d   1       2.224 -51.588 -19.641  0.00  0.00     0.098 C 
ATOM     51  H7  6V3 d   1       0.292 -51.508 -18.758  0.00  0.00     0.066 H 
ATOM     52  H8  6V3 d   1       0.633 -50.214 -19.956  0.00  0.00     0.066 H 
ATOM     53  N14 6V3 d   1       3.257 -51.714 -18.626  0.00  0.00    -0.072 N 
ATOM     54  H9  6V3 d   1       2.643 -51.074 -20.518  0.00  0.00     0.078 H 
ATOM     55  H10 6V3 d   1       1.883 -52.592 -19.933  0.00  0.00     0.078 H 
ATOM     56  C15 6V3 d   1       3.828 -50.399 -18.361  0.00  0.00     0.098 C 
ATOM     57  H13 6V3 d   1       2.844 -52.069 -17.778  0.00  0.00     0.279 HD
ATOM     58  C16 6V3 d   1       2.784 -49.445 -17.807  0.00  0.00     0.018 C 
ATOM     59  H11 6V3 d   1       4.228 -49.987 -19.299  0.00  0.00     0.078 H 
ATOM     60  H12 6V3 d   1       4.643 -50.503 -17.629  0.00  0.00     0.078 H 
ATOM     61  H14 6V3 d   1       2.921 -48.465 -18.287  0.00  0.00     0.066 H 
ATOM     62  H15 6V3 d   1       2.944 -49.348 -16.723  0.00  0.00     0.066 H 
BRANCH  53  63
ATOM     63  C17 6V3 d   1       4.297 -52.645 -19.069  0.00  0.00     0.066 C 
ATOM     64  H16 6V3 d   1       3.848 -53.630 -19.264  0.00  0.00     0.068 H 
ATOM     65  H17 6V3 d   1       5.063 -52.739 -18.285  0.00  0.00     0.068 H 
ATOM     66  H18 6V3 d   1       4.761 -52.265 -19.991  0.00  0.00     0.068 H 
ENDBRANCH  53  63
ENDBRANCH   1  48
TORSDOF 6
