REMARK  11 active torsions:
REMARK  status: ('A' for Active; 'I' for Inactive)
REMARK    1  A    between atoms: C7_7  and  C1_1 
REMARK    2  A    between atoms: C3_3  and  O10_13 
REMARK    3  A    between atoms: C4_4  and  N11_14 
REMARK       I    between atoms: N9_12  and  C7_7 
REMARK    4  A    between atoms: O10_13  and  C26_26 
REMARK       I    between atoms: N11_14  and  C18_18 
REMARK    5  A    between atoms: N14_15  and  C17_17 
REMARK    6  A    between atoms: C18_18  and  C19_19 
REMARK    7  A    between atoms: C23_23  and  C25_25 
REMARK    8  A    between atoms: C26_26  and  C27_27 
REMARK    9  A    between atoms: C26_26  and  C28_28 
REMARK   10  A    between atoms: C32_32  and  N34_34 
REMARK       I    between atoms: N34_34  and  C35_35 
REMARK       I    between atoms: C35_35  and  N36_36 
REMARK   11  A    between atoms: N36_36  and  C38_38 
ROOT
ATOM      1  C1  6V4 d   1     -16.650 -50.384 -19.206  0.00  0.00     0.035 A 
ATOM      2  C2  6V4 d   1     -15.406 -50.854 -19.629  0.00  0.00    -0.033 A 
ATOM      3  C3  6V4 d   1     -14.282 -50.671 -18.839  0.00  0.00     0.097 A 
ATOM      4  C4  6V4 d   1     -14.377 -49.960 -17.611  0.00  0.00     0.068 A 
ATOM      5  C5  6V4 d   1     -15.627 -49.495 -17.202  0.00  0.00    -0.053 A 
ATOM      6  C6  6V4 d   1     -16.746 -49.700 -17.992  0.00  0.00    -0.065 A 
ATOM      7  H1  6V4 d   1     -15.318 -51.365 -20.581  0.00  0.00     0.089 H 
ATOM      8  H2  6V4 d   1     -15.723 -48.969 -16.259  0.00  0.00     0.087 H 
ATOM      9  H3  6V4 d   1     -17.709 -49.325 -17.664  0.00  0.00     0.085 H 
ENDROOT
BRANCH   4  10
ATOM     10  N11 6V4 d   1     -13.193 -49.786 -16.840  0.00  0.00    -0.319 N 
ATOM     11  C18 6V4 d   1     -12.806 -48.746 -16.031  0.00  0.00     0.275 C 
ATOM     12  O20 6V4 d   1     -13.527 -47.803 -15.706  0.00  0.00    -0.266 OA
ATOM     13  H10 6V4 d   1     -12.540 -50.541 -16.896  0.00  0.00     0.169 HD
BRANCH  11  14
ATOM     14  C19 6V4 d   1     -11.409 -48.847 -15.538  0.00  0.00     0.132 A 
ATOM     15  C22 6V4 d   1     -10.765 -47.851 -14.885  0.00  0.00    -0.010 A 
ATOM     16  S21 6V4 d   1      -9.170 -48.349 -14.474  0.00  0.00    -0.079 SA
ATOM     17  H17 6V4 d   1     -11.194 -46.877 -14.654  0.00  0.00     0.099 H 
ATOM     18  C23 6V4 d   1      -9.473 -49.878 -15.227  0.00  0.00     0.108 A 
ATOM     19  N24 6V4 d   1     -10.676 -50.008 -15.729  0.00  0.00    -0.235 NA
BRANCH  18  20
ATOM     20  C25 6V4 d   1      -8.440 -50.930 -15.240  0.00  0.00     0.002 A 
ATOM     21  C29 6V4 d   1      -8.809 -52.264 -15.374  0.00  0.00    -0.070 A 
ATOM     22  C30 6V4 d   1      -7.847 -53.261 -15.374  0.00  0.00    -0.080 A 
ATOM     23  H25 6V4 d   1      -9.856 -52.525 -15.479  0.00  0.00     0.084 H 
ATOM     24  C31 6V4 d   1      -6.505 -52.942 -15.244  0.00  0.00    -0.057 A 
ATOM     25  H26 6V4 d   1      -8.146 -54.298 -15.476  0.00  0.00     0.083 H 
ATOM     26  C32 6V4 d   1      -6.120 -51.614 -15.112  0.00  0.00     0.037 A 
ATOM     27  H27 6V4 d   1      -5.757 -53.727 -15.245  0.00  0.00     0.086 H 
ATOM     28  C33 6V4 d   1      -7.089 -50.612 -15.105  0.00  0.00    -0.044 A 
ATOM     29  H28 6V4 d   1      -6.790 -49.576 -14.994  0.00  0.00     0.088 H 
BRANCH  26  30
ATOM     30  N34 6V4 d   1      -4.738 -51.348 -14.960  0.00  0.00    -0.309 N 
ATOM     31  C35 6V4 d   1      -4.012 -50.332 -15.527  0.00  0.00     0.325 C 
ATOM     32  N36 6V4 d   1      -2.656 -50.560 -15.489  0.00  0.00    -0.309 N 
ATOM     33  O37 6V4 d   1      -4.525 -49.331 -16.016  0.00  0.00    -0.247 OA
ATOM     34  H30 6V4 d   1      -2.370 -51.411 -15.049  0.00  0.00     0.170 HD
ATOM     35  H29 6V4 d   1      -4.231 -51.975 -14.369  0.00  0.00     0.170 HD
BRANCH  32  36
ATOM     36  C38 6V4 d   1      -1.610 -49.742 -15.994  0.00  0.00     0.036 A 
ATOM     37  C39 6V4 d   1      -1.826 -48.611 -16.784  0.00  0.00    -0.057 A 
ATOM     38  C40 6V4 d   1      -0.750 -47.865 -17.240  0.00  0.00    -0.081 A 
ATOM     39  H31 6V4 d   1      -2.837 -48.316 -17.041  0.00  0.00     0.086 H 
ATOM     40  C41 6V4 d   1       0.541 -48.234 -16.919  0.00  0.00    -0.083 A 
ATOM     41  H32 6V4 d   1      -0.923 -46.987 -17.852  0.00  0.00     0.083 H 
ATOM     42  C42 6V4 d   1       0.762 -49.351 -16.136  0.00  0.00    -0.081 A 
ATOM     43  H33 6V4 d   1       1.379 -47.649 -17.280  0.00  0.00     0.083 H 
ATOM     44  C43 6V4 d   1      -0.305 -50.108 -15.674  0.00  0.00    -0.057 A 
ATOM     45  H34 6V4 d   1       1.776 -49.638 -15.881  0.00  0.00     0.083 H 
ATOM     46  H35 6V4 d   1      -0.123 -50.985 -15.063  0.00  0.00     0.086 H 
ENDBRANCH  32  36
ENDBRANCH  26  30
ENDBRANCH  18  20
ENDBRANCH  11  14
ENDBRANCH   4  10
BRANCH   3  47
ATOM     47  O10 6V4 d   1     -13.029 -51.093 -19.230  0.00  0.00    -0.344 OA
BRANCH  47  48
ATOM     48  C26 6V4 d   1     -12.499 -52.412 -18.863  0.00  0.00     0.038 C 
ATOM     49  H18 6V4 d   1     -12.747 -52.622 -17.812  0.00  0.00     0.082 H 
BRANCH  48  50
ATOM     50  C27 6V4 d   1     -13.090 -53.513 -19.703  0.00  0.00    -0.052 C 
ATOM     51  H19 6V4 d   1     -12.665 -54.479 -19.393  0.00  0.00     0.030 H 
ATOM     52  H20 6V4 d   1     -12.855 -53.332 -20.762  0.00  0.00     0.030 H 
ATOM     53  H21 6V4 d   1     -14.181 -53.532 -19.567  0.00  0.00     0.030 H 
ENDBRANCH  48  50
BRANCH  48  54
ATOM     54  C28 6V4 d   1     -10.986 -52.299 -19.002  0.00  0.00    -0.052 C 
ATOM     55  H22 6V4 d   1     -10.521 -53.261 -18.740  0.00  0.00     0.030 H 
ATOM     56  H23 6V4 d   1     -10.613 -51.515 -18.326  0.00  0.00     0.030 H 
ATOM     57  H24 6V4 d   1     -10.732 -52.040 -20.040  0.00  0.00     0.030 H 
ENDBRANCH  48  54
ENDBRANCH  47  48
ENDBRANCH   3  47
BRANCH   1  58
ATOM     58  C7  6V4 d   1     -17.843 -50.606 -20.092  0.00  0.00     0.254 C 
ATOM     59  O8  6V4 d   1     -17.675 -50.971 -21.243  0.00  0.00    -0.267 OA
ATOM     60  N9  6V4 d   1     -19.075 -50.350 -19.605  0.00  0.00    -0.345 N 
ATOM     61  C12 6V4 d   1     -20.129 -51.361 -19.774  0.00  0.00     0.021 C 
ATOM     62  C16 6V4 d   1     -19.595 -48.983 -19.752  0.00  0.00     0.021 C 
ATOM     63  C13 6V4 d   1     -21.293 -51.079 -18.834  0.00  0.00     0.098 C 
ATOM     64  H4  6V4 d   1     -20.489 -51.339 -20.813  0.00  0.00     0.067 H 
ATOM     65  H5  6V4 d   1     -19.716 -52.356 -19.550  0.00  0.00     0.067 H 
ATOM     66  N14 6V4 d   1     -21.824 -49.735 -19.048  0.00  0.00    -0.072 N 
ATOM     67  H6  6V4 d   1     -20.945 -51.167 -17.794  0.00  0.00     0.078 H 
ATOM     68  H7  6V4 d   1     -22.090 -51.814 -19.018  0.00  0.00     0.078 H 
ATOM     69  C15 6V4 d   1     -20.768 -48.755 -18.812  0.00  0.00     0.098 C 
ATOM     70  H11 6V4 d   1     -22.131 -49.657 -20.005  0.00  0.00     0.279 HD
ATOM     71  H8  6V4 d   1     -20.419 -48.845 -17.773  0.00  0.00     0.078 H 
ATOM     72  H9  6V4 d   1     -21.171 -47.745 -18.977  0.00  0.00     0.078 H 
ATOM     73  H12 6V4 d   1     -18.796 -48.265 -19.515  0.00  0.00     0.067 H 
ATOM     74  H13 6V4 d   1     -19.928 -48.832 -20.790  0.00  0.00     0.067 H 
BRANCH  66  75
ATOM     75  C17 6V4 d   1     -22.973 -49.481 -18.169  0.00  0.00     0.066 C 
ATOM     76  H14 6V4 d   1     -23.756 -50.229 -18.363  0.00  0.00     0.068 H 
ATOM     77  H15 6V4 d   1     -23.371 -48.475 -18.367  0.00  0.00     0.068 H 
ATOM     78  H16 6V4 d   1     -22.653 -49.549 -17.119  0.00  0.00     0.068 H 
ENDBRANCH  66  75
ENDBRANCH   1  58
TORSDOF 11
