REMARK  11 active torsions:
REMARK  status: ('A' for Active; 'I' for Inactive)
REMARK    1  A    between atoms: C1_1  and  C7_7 
REMARK    2  A    between atoms: O11_15  and  C3_3 
REMARK    3  A    between atoms: C4_4  and  N10_14 
REMARK       I    between atoms: C7_7  and  N9_13 
REMARK    4  A    between atoms: C12_8  and  C13_9 
REMARK    5  A    between atoms: C12_8  and  C14_10 
REMARK    6  A    between atoms: C12_8  and  O11_15 
REMARK       I    between atoms: N10_14  and  C21_21 
REMARK    7  A    between atoms: N17_17  and  C20_20 
REMARK    8  A    between atoms: C21_21  and  C22_22 
REMARK    9  A    between atoms: C25_25  and  C28_28 
REMARK   10  A    between atoms: C32_32  and  C34_34 
REMARK       I    between atoms: C34_34  and  N35_35 
REMARK   11  A    between atoms: N35_35  and  C37_37 
ROOT
ATOM      1  C1  6V5 d   1     -17.845 -48.050 -18.771  0.00  0.00     0.035 A 
ATOM      2  C2  6V5 d   1     -16.930 -49.092 -18.985  0.00  0.00    -0.033 A 
ATOM      3  C3  6V5 d   1     -15.703 -49.082 -18.316  0.00  0.00     0.097 A 
ATOM      4  C4  6V5 d   1     -15.372 -48.006 -17.417  0.00  0.00     0.068 A 
ATOM      5  C5  6V5 d   1     -16.298 -46.986 -17.229  0.00  0.00    -0.053 A 
ATOM      6  C6  6V5 d   1     -17.513 -47.005 -17.900  0.00  0.00    -0.065 A 
ATOM      7  H1  6V5 d   1     -17.173 -49.900 -19.665  0.00  0.00     0.089 H 
ATOM      8  H2  6V5 d   1     -16.069 -46.170 -16.553  0.00  0.00     0.087 H 
ATOM      9  H3  6V5 d   1     -18.218 -46.196 -17.747  0.00  0.00     0.085 H 
ENDROOT
BRANCH   4  10
ATOM     10  N10 6V5 d   1     -14.113 -48.055 -16.753  0.00  0.00    -0.319 N 
ATOM     11  C21 6V5 d   1     -13.408 -47.116 -16.002  0.00  0.00     0.275 C 
ATOM     12  O23 6V5 d   1     -13.860 -46.010 -15.602  0.00  0.00    -0.266 OA
ATOM     13  H13 6V5 d   1     -13.644 -48.934 -16.843  0.00  0.00     0.169 HD
BRANCH  11  14
ATOM     14  C22 6V5 d   1     -11.990 -47.509 -15.761  0.00  0.00     0.132 A 
ATOM     15  N24 6V5 d   1     -11.510 -48.744 -16.190  0.00  0.00    -0.235 NA
ATOM     16  C25 6V5 d   1     -10.228 -48.846 -15.944  0.00  0.00     0.108 A 
ATOM     17  S26 6V5 d   1      -9.534 -47.470 -15.164  0.00  0.00    -0.079 SA
ATOM     18  C27 6V5 d   1     -11.073 -46.698 -15.186  0.00  0.00    -0.010 A 
ATOM     19  H24 6V5 d   1     -11.278 -45.703 -14.794  0.00  0.00     0.099 H 
BRANCH  16  20
ATOM     20  C28 6V5 d   1      -9.386 -50.003 -16.261  0.00  0.00     0.001 A 
ATOM     21  C29 6V5 d   1      -9.863 -50.997 -17.111  0.00  0.00    -0.070 A 
ATOM     22  C30 6V5 d   1      -9.073 -52.092 -17.425  0.00  0.00    -0.081 A 
ATOM     23  H25 6V5 d   1     -10.859 -50.914 -17.530  0.00  0.00     0.084 H 
ATOM     24  C31 6V5 d   1      -7.804 -52.208 -16.885  0.00  0.00    -0.068 A 
ATOM     25  H26 6V5 d   1      -9.449 -52.858 -18.094  0.00  0.00     0.083 H 
ATOM     26  C32 6V5 d   1      -7.300 -51.213 -16.048  0.00  0.00     0.033 A 
ATOM     27  H27 6V5 d   1      -7.198 -53.077 -17.114  0.00  0.00     0.085 H 
ATOM     28  C33 6V5 d   1      -8.095 -50.105 -15.748  0.00  0.00    -0.055 A 
ATOM     29  H28 6V5 d   1      -7.705 -49.319 -15.112  0.00  0.00     0.086 H 
BRANCH  26  30
ATOM     30  C34 6V5 d   1      -5.911 -51.378 -15.501  0.00  0.00     0.256 C 
ATOM     31  N35 6V5 d   1      -5.161 -50.249 -15.432  0.00  0.00    -0.323 N 
ATOM     32  H29 6V5 d   1      -5.558 -49.439 -15.864  0.00  0.00     0.169 HD
ATOM     33  O36 6V5 d   1      -5.500 -52.482 -15.144  0.00  0.00    -0.267 OA
BRANCH  31  34
ATOM     34  C37 6V5 d   1      -3.889 -50.061 -14.830  0.00  0.00     0.035 A 
ATOM     35  C38 6V5 d   1      -2.967 -51.093 -14.634  0.00  0.00    -0.057 A 
ATOM     36  C39 6V5 d   1      -1.743 -50.822 -14.043  0.00  0.00    -0.081 A 
ATOM     37  H30 6V5 d   1      -3.209 -52.103 -14.944  0.00  0.00     0.086 H 
ATOM     38  C40 6V5 d   1      -1.421 -49.529 -13.658  0.00  0.00    -0.083 A 
ATOM     39  H31 6V5 d   1      -1.033 -51.625 -13.881  0.00  0.00     0.083 H 
ATOM     40  C41 6V5 d   1      -2.327 -48.501 -13.861  0.00  0.00    -0.081 A 
ATOM     41  H32 6V5 d   1      -0.461 -49.323 -13.199  0.00  0.00     0.083 H 
ATOM     42  C42 6V5 d   1      -3.557 -48.759 -14.448  0.00  0.00    -0.057 A 
ATOM     43  H33 6V5 d   1      -2.074 -47.491 -13.560  0.00  0.00     0.083 H 
ATOM     44  H34 6V5 d   1      -4.261 -47.950 -14.610  0.00  0.00     0.086 H 
ENDBRANCH  31  34
ENDBRANCH  26  30
ENDBRANCH  16  20
ENDBRANCH  11  14
ENDBRANCH   4  10
BRANCH   3  45
ATOM     45  O11 6V5 d   1     -14.681 -50.007 -18.395  0.00  0.00    -0.344 OA
BRANCH  45  46
ATOM     46  C12 6V5 d   1     -14.578 -50.962 -19.495  0.00  0.00     0.038 C 
ATOM     47  H4  6V5 d   1     -15.547 -51.451 -19.676  0.00  0.00     0.082 H 
BRANCH  46  48
ATOM     48  C13 6V5 d   1     -13.572 -51.955 -19.020  0.00  0.00    -0.052 C 
ATOM     49  H5  6V5 d   1     -13.425 -52.725 -19.791  0.00  0.00     0.030 H 
ATOM     50  H6  6V5 d   1     -13.932 -52.428 -18.094  0.00  0.00     0.030 H 
ATOM     51  H7  6V5 d   1     -12.617 -51.445 -18.824  0.00  0.00     0.030 H 
ENDBRANCH  46  48
BRANCH  46  52
ATOM     52  C14 6V5 d   1     -14.127 -50.285 -20.751  0.00  0.00    -0.052 C 
ATOM     53  H8  6V5 d   1     -14.891 -49.561 -21.072  0.00  0.00     0.030 H 
ATOM     54  H9  6V5 d   1     -13.980 -51.037 -21.540  0.00  0.00     0.030 H 
ATOM     55  H10 6V5 d   1     -13.179 -49.759 -20.564  0.00  0.00     0.030 H 
ENDBRANCH  46  52
ENDBRANCH  45  46
ENDBRANCH   3  45
BRANCH   1  56
ATOM     56  C7  6V5 d   1     -19.179 -48.035 -19.463  0.00  0.00     0.254 C 
ATOM     57  O8  6V5 d   1     -19.210 -48.380 -20.622  0.00  0.00    -0.267 OA
ATOM     58  N9  6V5 d   1     -20.311 -47.687 -18.778  0.00  0.00    -0.345 N 
ATOM     59  C15 6V5 d   1     -21.420 -48.663 -18.855  0.00  0.00     0.021 C 
ATOM     60  C19 6V5 d   1     -20.797 -46.299 -18.889  0.00  0.00     0.021 C 
ATOM     61  C16 6V5 d   1     -22.576 -48.308 -17.884  0.00  0.00     0.098 C 
ATOM     62  H11 6V5 d   1     -21.034 -49.660 -18.598  0.00  0.00     0.067 H 
ATOM     63  H12 6V5 d   1     -21.811 -48.675 -19.883  0.00  0.00     0.067 H 
ATOM     64  N17 6V5 d   1     -23.046 -46.940 -18.103  0.00  0.00    -0.072 N 
ATOM     65  H14 6V5 d   1     -22.218 -48.403 -16.848  0.00  0.00     0.078 H 
ATOM     66  H15 6V5 d   1     -23.411 -49.005 -18.049  0.00  0.00     0.078 H 
ATOM     67  C18 6V5 d   1     -21.933 -46.015 -17.896  0.00  0.00     0.098 C 
ATOM     68  H16 6V5 d   1     -23.361 -46.857 -19.057  0.00  0.00     0.279 HD
ATOM     69  H17 6V5 d   1     -21.553 -46.132 -16.870  0.00  0.00     0.078 H 
ATOM     70  H18 6V5 d   1     -22.289 -44.984 -18.040  0.00  0.00     0.078 H 
ATOM     71  H19 6V5 d   1     -21.167 -46.131 -19.911  0.00  0.00     0.067 H 
ATOM     72  H20 6V5 d   1     -19.963 -45.612 -18.683  0.00  0.00     0.067 H 
BRANCH  64  73
ATOM     73  C20 6V5 d   1     -24.196 -46.612 -17.200  0.00  0.00     0.066 C 
ATOM     74  H21 6V5 d   1     -25.016 -47.323 -17.378  0.00  0.00     0.068 H 
ATOM     75  H22 6V5 d   1     -24.545 -45.590 -17.408  0.00  0.00     0.068 H 
ATOM     76  H23 6V5 d   1     -23.871 -46.682 -16.152  0.00  0.00     0.068 H 
ENDBRANCH  64  73
ENDBRANCH   1  56
TORSDOF 11
