REMARK  23 active torsions:
REMARK  status: ('A' for Active; 'I' for Inactive)
REMARK    1  A    between atoms: C2_2  and  C1_1 
REMARK    2  A    between atoms: O3_28  and  C2_2 
REMARK    3  A    between atoms: C4_4  and  O4_15 
REMARK    4  A    between atoms: C5_5  and  N5_12 
REMARK    5  A    between atoms: C6_6  and  C7_7 
REMARK    6  A    between atoms: C7_7  and  C8_8 
REMARK    7  A    between atoms: C7_7  and  O7_17 
REMARK    8  A    between atoms: C8_8  and  C9_9 
REMARK    9  A    between atoms: C8_8  and  O8_18 
REMARK   10  A    between atoms: C9_9  and  O9_19 
REMARK   11  A    between atoms: C10_10  and  C11_11 
REMARK       I    between atoms: N5_12  and  C10_10 
REMARK   12  A    between atoms: O4_41  and  C1_21 
REMARK   13  A    between atoms: C2_22  and  O2_27 
REMARK   14  A    between atoms: C3_23  and  O3_28 
REMARK   15  A    between atoms: C4_24  and  O4_29 
REMARK   16  A    between atoms: C5_25  and  C6_26 
REMARK   17  A    between atoms: C6_26  and  O6_31 
REMARK   18  A    between atoms: C1_32  and  O1_38 
REMARK   19  A    between atoms: C2_33  and  O2_39 
REMARK   20  A    between atoms: C3_34  and  O3_40 
REMARK   21  A    between atoms: C4_35  and  O4_41 
REMARK   22  A    between atoms: C5_36  and  C6_37 
REMARK   23  A    between atoms: C6_37  and  O6_43 
ROOT
ATOM      1  H18 SIA d   1     -17.186 -43.584 -10.564  0.00  0.00     0.133 H 
ATOM      2  H19 SIA d   1     -17.997 -46.073  -8.963  0.00  0.00     0.094 H 
ATOM      3  H20 SIA d   1     -18.495 -43.089  -8.441  0.00  0.00     0.091 H 
ATOM      4  H21 SIA d   1     -16.812 -43.297  -6.661  0.00  0.00     0.091 H 
ATOM      5  H22 SIA d   1     -16.037 -42.734  -8.968  0.00  0.00     0.090 H 
ATOM      6  C1  GAL d   1     -17.024 -44.621 -10.234  0.00  0.00     0.159 C 
ATOM      7  C2  GAL d   1     -18.168 -45.044  -9.311  0.00  0.00     0.110 C 
ATOM      8  C3  GAL d   1     -18.214 -44.099  -8.107  0.00  0.00     0.099 C 
ATOM      9  C4  GAL d   1     -16.826 -44.059  -7.455  0.00  0.00     0.090 C 
ATOM     10  C5  GAL d   1     -15.787 -43.708  -8.522  0.00  0.00     0.089 C 
ATOM     11  O5  GAL d   1     -15.782 -44.707  -9.539  0.00  0.00    -0.348 OA
ENDROOT
BRANCH   8  12
ATOM     12  O3  GAL d   1     -19.172 -44.572  -7.159  0.00  0.00    -0.336 OA
BRANCH  12  13
ATOM     13  C2  SIA d   1     -20.080 -43.496  -6.917  0.00  0.00     0.259 C 
ATOM     14  C3  SIA d   1     -21.200 -43.973  -5.989  0.00  0.00     0.024 C 
ATOM     15  C4  SIA d   1     -22.148 -42.803  -5.706  0.00  0.00     0.063 C 
ATOM     16  H1  SIA d   1     -20.767 -44.333  -5.044  0.00  0.00     0.045 H 
ATOM     17  H2  SIA d   1     -21.756 -44.789  -6.472  0.00  0.00     0.045 H 
ATOM     18  C5  SIA d   1     -22.614 -42.218  -7.043  0.00  0.00     0.064 C 
ATOM     19  H3  SIA d   1     -21.621 -42.031  -5.127  0.00  0.00     0.086 H 
ATOM     20  C6  SIA d   1     -21.390 -41.873  -7.893  0.00  0.00     0.091 C 
ATOM     21  H4  SIA d   1     -23.235 -42.956  -7.572  0.00  0.00     0.080 H 
ATOM     22  O6  SIA d   1     -20.634 -43.054  -8.154  0.00  0.00    -0.336 OA
ATOM     23  H5  SIA d   1     -20.762 -41.151  -7.351  0.00  0.00     0.090 H 
BRANCH  13  24
ATOM     24  C1  SIA d   1     -19.342 -42.356  -6.264  0.00  0.00     0.239 C 
ATOM     25  O1A SIA d   1     -18.927 -41.442  -6.935  0.00  0.00    -0.644 OA
ATOM     26  O1B SIA d   1     -19.144 -42.358  -4.937  0.00  0.00    -0.644 OA
ENDBRANCH  13  24
BRANCH  15  27
ATOM     27  O4  SIA d   1     -23.279 -43.266  -4.965  0.00  0.00    -0.393 OA
ATOM     28  H14 SIA d   1     -23.869 -42.539  -4.804  0.00  0.00     0.210 HD
ENDBRANCH  15  27
BRANCH  18  29
ATOM     29  N5  SIA d   1     -23.398 -41.005  -6.798  0.00  0.00    -0.352 N 
ATOM     30  C10 SIA d   1     -24.733 -41.087  -6.634  0.00  0.00     0.214 C 
ATOM     31  O10 SIA d   1     -25.285 -42.165  -6.685  0.00  0.00    -0.274 OA
ATOM     32  H13 SIA d   1     -22.942 -40.116  -6.753  0.00  0.00     0.163 HD
BRANCH  30  33
ATOM     33  C11 SIA d   1     -25.541 -39.839  -6.383  0.00  0.00    -0.003 C 
ATOM     34  H10 SIA d   1     -26.603 -40.105  -6.276  0.00  0.00     0.040 H 
ATOM     35  H11 SIA d   1     -25.420 -39.147  -7.230  0.00  0.00     0.040 H 
ATOM     36  H12 SIA d   1     -25.190 -39.354  -5.460  0.00  0.00     0.040 H 
ENDBRANCH  30  33
ENDBRANCH  18  29
BRANCH  20  37
ATOM     37  C7  SIA d   1     -21.844 -41.257  -9.218  0.00  0.00     0.089 C 
ATOM     38  H6  SIA d   1     -22.407 -40.333  -9.020  0.00  0.00     0.091 H 
BRANCH  37  39
ATOM     39  C8  SIA d   1     -20.620 -40.935 -10.076  0.00  0.00     0.083 C 
ATOM     40  H7  SIA d   1     -20.088 -41.866 -10.319  0.00  0.00     0.090 H 
BRANCH  39  41
ATOM     41  C9  SIA d   1     -21.069 -40.251 -11.369  0.00  0.00     0.043 C 
ATOM     42  H8  SIA d   1     -21.602 -39.320 -11.125  0.00  0.00     0.078 H 
ATOM     43  H9  SIA d   1     -21.740 -40.923 -11.925  0.00  0.00     0.078 H 
BRANCH  41  44
ATOM     44  O9  SIA d   1     -19.927 -39.948 -12.172  0.00  0.00    -0.398 OA
ATOM     45  H17 SIA d   1     -19.348 -39.368 -11.691  0.00  0.00     0.209 HD
ENDBRANCH  41  44
ENDBRANCH  39  41
BRANCH  39  46
ATOM     46  O8  SIA d   1     -19.748 -40.063  -9.355  0.00  0.00    -0.391 OA
ATOM     47  H16 SIA d   1     -19.470 -40.488  -8.552  0.00  0.00     0.210 HD
ENDBRANCH  39  46
ENDBRANCH  37  39
BRANCH  37  48
ATOM     48  O7  SIA d   1     -22.680 -42.184  -9.911  0.00  0.00    -0.390 OA
ATOM     49  H15 SIA d   1     -22.193 -42.982 -10.081  0.00  0.00     0.210 HD
ENDBRANCH  37  48
ENDBRANCH  20  37
ENDBRANCH  12  13
ENDBRANCH   8  12
BRANCH   7  50
ATOM     50  O2  GAL d   1     -19.406 -44.985 -10.022  0.00  0.00    -0.388 OA
ATOM     51  H25 SIA d   1     -19.370 -45.573 -10.767  0.00  0.00     0.210 HD
ENDBRANCH   7  50
BRANCH   9  52
ATOM     52  O4  GAL d   1     -16.525 -45.337  -6.894  0.00  0.00    -0.390 OA
ATOM     53  H26 SIA d   1     -17.172 -45.551  -6.232  0.00  0.00     0.210 HD
ENDBRANCH   9  52
BRANCH   6  54
ATOM     54  O4  GLC d   1     -16.991 -45.483 -11.373  0.00  0.00    -0.348 OA
BRANCH  54  55
ATOM     55  C4  GLC d   1     -16.053 -44.918 -12.291  0.00  0.00     0.096 C 
ATOM     56  C3  GLC d   1     -14.956 -45.941 -12.601  0.00  0.00     0.092 C 
ATOM     57  C2  GLC d   1     -14.055 -45.379 -13.704  0.00  0.00     0.110 C 
ATOM     58  H30 SIA d   1     -15.413 -46.882 -12.941  0.00  0.00     0.091 H 
ATOM     59  C1  GLC d   1     -14.924 -44.974 -14.898  0.00  0.00     0.156 C 
ATOM     60  H29 SIA d   1     -13.515 -44.498 -13.326  0.00  0.00     0.094 H 
ATOM     61  O5  GLC d   1     -15.845 -43.960 -14.504  0.00  0.00    -0.349 OA
ATOM     62  H28 SIA d   1     -14.281 -44.589 -15.703  0.00  0.00     0.133 H 
ATOM     63  C5  GLC d   1     -16.770 -44.547 -13.591  0.00  0.00     0.089 C 
ATOM     64  H32 SIA d   1     -17.200 -45.454 -14.041  0.00  0.00     0.090 H 
ATOM     65  H31 SIA d   1     -15.603 -44.017 -11.848  0.00  0.00     0.091 H 
BRANCH  56  66
ATOM     66  O3  GLC d   1     -14.182 -46.184 -11.423  0.00  0.00    -0.390 OA
ATOM     67  H37 SIA d   1     -14.747 -46.523 -10.739  0.00  0.00     0.210 HD
ENDBRANCH  56  66
BRANCH  57  68
ATOM     68  O2  GLC d   1     -13.115 -46.373 -14.110  0.00  0.00    -0.388 OA
ATOM     69  H36 SIA d   1     -13.581 -47.132 -14.440  0.00  0.00     0.210 HD
ENDBRANCH  57  68
BRANCH  59  70
ATOM     70  O1  GLC d   1     -15.644 -46.113 -15.368  0.00  0.00    -0.369 OA
ATOM     71  H35 SIA d   1     -15.030 -46.788 -15.630  0.00  0.00     0.212 HD
ENDBRANCH  59  70
BRANCH  63  72
ATOM     72  C6  GLC d   1     -17.890 -43.548 -13.290  0.00  0.00     0.043 C 
ATOM     73  H33 SIA d   1     -17.460 -42.640 -12.843  0.00  0.00     0.078 H 
ATOM     74  H34 SIA d   1     -18.605 -44.000 -12.587  0.00  0.00     0.078 H 
BRANCH  72  75
ATOM     75  O6  GLC d   1     -18.565 -43.208 -14.501  0.00  0.00    -0.398 OA
ATOM     76  H38 SIA d   1     -17.947 -42.818 -15.108  0.00  0.00     0.209 HD
ENDBRANCH  72  75
ENDBRANCH  63  72
ENDBRANCH  54  55
ENDBRANCH   6  54
BRANCH  10  77
ATOM     77  C6  GAL d   1     -14.401 -43.633  -7.877  0.00  0.00     0.043 C 
ATOM     78  H23 SIA d   1     -14.153 -44.606  -7.428  0.00  0.00     0.078 H 
ATOM     79  H24 SIA d   1     -14.402 -42.858  -7.096  0.00  0.00     0.078 H 
BRANCH  77  80
ATOM     80  O6  GAL d   1     -13.429 -43.306  -8.871  0.00  0.00    -0.398 OA
ATOM     81  H27 SIA d   1     -12.569 -43.260  -8.469  0.00  0.00     0.209 HD
ENDBRANCH  77  80
ENDBRANCH  10  77
TORSDOF 23
