REMARK  23 active torsions:
REMARK  status: ('A' for Active; 'I' for Inactive)
REMARK    1  A    between atoms: N_1  and  CA_2 
REMARK    2  A    between atoms: CA_2  and  C_3 
REMARK    3  A    between atoms: CA_2  and  CB_5 
REMARK       I    between atoms: C_3  and  N_7 
REMARK    4  A    between atoms: CB_5  and  OG_6 
REMARK    5  A    between atoms: N_7  and  CA_8 
REMARK    6  A    between atoms: CA_8  and  C_9 
REMARK    7  A    between atoms: CA_8  and  CB_11 
REMARK       I    between atoms: C_9  and  N_13 
REMARK    8  A    between atoms: CB_11  and  OG_12 
REMARK    9  A    between atoms: N_13  and  CA_14 
REMARK   10  A    between atoms: CA_14  and  C_15 
REMARK   11  A    between atoms: CA_14  and  CB_17 
REMARK       I    between atoms: C_15  and  N_24 
REMARK   12  A    between atoms: CB_17  and  CG_18 
REMARK   13  A    between atoms: N_24  and  CA_25 
REMARK   14  A    between atoms: CA_25  and  C_26 
REMARK   15  A    between atoms: CA_25  and  CB_28 
REMARK       I    between atoms: C_26  and  N_31 
REMARK   16  A    between atoms: CB_28  and  CG1_29 
REMARK   17  A    between atoms: CB_28  and  CG2_30 
REMARK   18  A    between atoms: N_31  and  CA_32 
REMARK   19  A    between atoms: CA_32  and  C_33 
REMARK   20  A    between atoms: CA_32  and  CB_35 
REMARK   21  A    between atoms: CB_35  and  CG1_36 
REMARK   22  A    between atoms: CB_35  and  CG2_37 
REMARK   23  A    between atoms: CG1_36  and  CD1_38 
ROOT
ATOM      1  CA  PHE d   1      85.909  15.799  -5.933  0.00  0.00     0.093 C 
ATOM      2  H14 PHE d   1      86.571  14.921  -5.921  0.00  0.00     0.088 H 
ENDROOT
BRANCH   1   3
ATOM      3  N   PHE d   1      84.555  15.353  -5.662  0.00  0.00    -0.346 N 
ATOM      4  C   SER d   1      84.097  14.202  -6.135  0.00  0.00     0.243 C 
ATOM      5  O   SER d   1      84.749  13.464  -6.873  0.00  0.00    -0.271 OA
ATOM      6  H13 PHE d   1      83.954  15.927  -5.106  0.00  0.00     0.163 HD
BRANCH   4   7
ATOM      7  CA  SER d   1      82.699  13.825  -5.693  0.00  0.00     0.109 C 
ATOM      8  H9  SER d   1      82.119  14.749  -5.555  0.00  0.00     0.090 H 
BRANCH   7   9
ATOM      9  N   SER d   1      82.028  13.017  -6.706  0.00  0.00    -0.344 N 
ATOM     10  C   SER d   1      81.545  13.573  -7.814  0.00  0.00     0.251 C 
ATOM     11  O   SER d   1      81.539  14.789  -8.002  0.00  0.00    -0.271 OA
ATOM     12  H8  SER d   1      81.930  12.032  -6.566  0.00  0.00     0.163 HD
BRANCH  10  13
ATOM     13  CA  SER d   1      80.984  12.623  -8.868  0.00  0.00     0.195 C 
ATOM     14  H4  SER d   1      80.144  12.072  -8.421  0.00  0.00     0.102 H 
BRANCH  13  15
ATOM     15  N   SER d   1      80.484  13.342 -10.035  0.00  0.00    -0.064 N 
ATOM     16  H1  SER d   1      80.123  12.683 -10.707  0.00  0.00     0.275 HD
ATOM     17  H2  SER d   1      81.235  13.869 -10.452  0.00  0.00     0.275 HD
ATOM     18  H3  SER d   1      79.749  13.971  -9.753  0.00  0.00     0.275 HD
ENDBRANCH  13  15
BRANCH  13  19
ATOM     19  CB  SER d   1      82.057  11.618  -9.282  0.00  0.00     0.051 C 
ATOM     20  H5  SER d   1      82.968  12.162  -9.573  0.00  0.00     0.077 H 
ATOM     21  H6  SER d   1      81.691  11.031 -10.137  0.00  0.00     0.077 H 
BRANCH  19  22
ATOM     22  OG  SER d   1      82.360  10.743  -8.214  0.00  0.00    -0.398 OA
ATOM     23  H7  SER d   1      81.576  10.270  -7.962  0.00  0.00     0.209 HD
ENDBRANCH  19  22
ENDBRANCH  13  19
ENDBRANCH  10  13
ENDBRANCH   7   9
BRANCH   7  24
ATOM     24  CB  SER d   1      82.762  13.091  -4.351  0.00  0.00     0.044 C 
ATOM     25  H10 SER d   1      81.757  13.072  -3.905  0.00  0.00     0.077 H 
ATOM     26  H11 SER d   1      83.450  13.627  -3.681  0.00  0.00     0.077 H 
BRANCH  24  27
ATOM     27  OG  SER d   1      83.219  11.763  -4.514  0.00  0.00    -0.398 OA
ATOM     28  H12 SER d   1      82.626  11.293  -5.089  0.00  0.00     0.209 HD
ENDBRANCH  24  27
ENDBRANCH   7  24
ENDBRANCH   4   7
ENDBRANCH   1   3
BRANCH   1  29
ATOM     29  C   PHE d   1      86.377  16.764  -4.849  0.00  0.00     0.241 C 
ATOM     30  O   PHE d   1      85.574  17.484  -4.254  0.00  0.00    -0.271 OA
ATOM     31  N   VAL d   1      87.680  16.765  -4.592  0.00  0.00    -0.346 N 
ATOM     32  H22 VAL d   1      88.286  16.191  -5.143  0.00  0.00     0.163 HD
BRANCH  31  33
ATOM     33  CA  VAL d   1      88.247  17.581  -3.528  0.00  0.00     0.092 C 
ATOM     34  H23 VAL d   1      87.514  17.644  -2.710  0.00  0.00     0.088 H 
BRANCH  33  35
ATOM     35  C   VAL d   1      88.528  18.989  -4.040  0.00  0.00     0.241 C 
ATOM     36  O   VAL d   1      88.958  19.170  -5.178  0.00  0.00    -0.271 OA
ATOM     37  N   ILE d   1      88.271  19.983  -3.196  0.00  0.00    -0.344 N 
ATOM     38  H31 ILE d   1      87.830  19.775  -2.323  0.00  0.00     0.163 HD
BRANCH  37  39
ATOM     39  CA  ILE d   1      88.611  21.368  -3.502  0.00  0.00     0.099 C 
ATOM     40  H32 ILE d   1      89.318  21.367  -4.345  0.00  0.00     0.090 H 
BRANCH  39  41
ATOM     41  C   ILE d   1      89.288  22.037  -2.310  0.00  0.00     0.197 C 
ATOM     42  O   ILE d   1      89.426  21.427  -1.250  0.00  0.00    -0.646 OA
ATOM     43  OXT ILE d   1      89.701  23.195  -2.375  0.00  0.00    -0.646 OA
ENDBRANCH  39  41
BRANCH  39  44
ATOM     44  CB  ILE d   1      87.360  22.175  -3.921  0.00  0.00    -0.029 C 
ATOM     45  H33 ILE d   1      87.578  23.249  -3.822  0.00  0.00     0.043 H 
BRANCH  44  46
ATOM     46  CG1 ILE d   1      86.167  21.814  -3.038  0.00  0.00    -0.063 C 
ATOM     47  H34 ILE d   1      86.275  20.762  -2.733  0.00  0.00     0.033 H 
ATOM     48  H35 ILE d   1      85.252  21.930  -3.637  0.00  0.00     0.033 H 
BRANCH  46  49
ATOM     49  CD1 ILE d   1      86.018  22.644  -1.797  0.00  0.00    -0.076 C 
ATOM     50  H39 ILE d   1      85.135  22.307  -1.234  0.00  0.00     0.027 H 
ATOM     51  H40 ILE d   1      85.894  23.701  -2.075  0.00  0.00     0.027 H 
ATOM     52  H41 ILE d   1      86.916  22.533  -1.171  0.00  0.00     0.027 H 
ENDBRANCH  46  49
ENDBRANCH  44  46
BRANCH  44  53
ATOM     53  CG2 ILE d   1      86.983  21.866  -5.356  0.00  0.00    -0.070 C 
ATOM     54  H36 ILE d   1      87.825  22.116  -6.018  0.00  0.00     0.028 H 
ATOM     55  H37 ILE d   1      86.103  22.462  -5.640  0.00  0.00     0.028 H 
ATOM     56  H38 ILE d   1      86.748  20.796  -5.451  0.00  0.00     0.028 H 
ENDBRANCH  44  53
ENDBRANCH  39  44
ENDBRANCH  37  39
ENDBRANCH  33  35
BRANCH  33  57
ATOM     57  CB  VAL d   1      89.545  16.948  -2.974  0.00  0.00    -0.033 C 
ATOM     58  H24 VAL d   1      90.318  17.005  -3.754  0.00  0.00     0.042 H 
BRANCH  57  59
ATOM     59  CG1 VAL d   1      90.044  17.704  -1.750  0.00  0.00    -0.071 C 
ATOM     60  H25 VAL d   1      90.966  17.233  -1.379  0.00  0.00     0.028 H 
ATOM     61  H26 VAL d   1      89.275  17.676  -0.964  0.00  0.00     0.028 H 
ATOM     62  H27 VAL d   1      90.251  18.749  -2.024  0.00  0.00     0.028 H 
ENDBRANCH  57  59
BRANCH  57  63
ATOM     63  CG2 VAL d   1      89.310  15.485  -2.633  0.00  0.00    -0.071 C 
ATOM     64  H28 VAL d   1      88.950  14.954  -3.526  0.00  0.00     0.028 H 
ATOM     65  H29 VAL d   1      88.557  15.411  -1.834  0.00  0.00     0.028 H 
ATOM     66  H30 VAL d   1      90.252  15.032  -2.292  0.00  0.00     0.028 H 
ENDBRANCH  57  63
ENDBRANCH  33  57
ENDBRANCH  31  33
ENDBRANCH   1  29
BRANCH   1  67
ATOM     67  CB  PHE d   1      85.997  16.447  -7.321  0.00  0.00    -0.014 C 
ATOM     68  H15 PHE d   1      85.735  15.688  -8.073  0.00  0.00     0.043 H 
ATOM     69  H16 PHE d   1      87.033  16.779  -7.481  0.00  0.00     0.043 H 
BRANCH  67  70
ATOM     70  CG  PHE d   1      85.087  17.633  -7.511  0.00  0.00    -0.056 A 
ATOM     71  CD1 PHE d   1      83.730  17.460  -7.742  0.00  0.00    -0.077 A 
ATOM     72  CE1 PHE d   1      82.896  18.550  -7.923  0.00  0.00    -0.082 A 
ATOM     73  H17 PHE d   1      83.317  16.458  -7.781  0.00  0.00     0.084 H 
ATOM     74  CZ  PHE d   1      83.416  19.828  -7.889  0.00  0.00    -0.083 A 
ATOM     75  H19 PHE d   1      81.836  18.400  -8.091  0.00  0.00     0.083 H 
ATOM     76  CE2 PHE d   1      84.767  20.014  -7.669  0.00  0.00    -0.082 A 
ATOM     77  H21 PHE d   1      82.766  20.683  -8.034  0.00  0.00     0.083 H 
ATOM     78  CD2 PHE d   1      85.595  18.921  -7.486  0.00  0.00    -0.077 A 
ATOM     79  H20 PHE d   1      85.178  21.017  -7.640  0.00  0.00     0.083 H 
ATOM     80  H18 PHE d   1      86.655  19.075  -7.321  0.00  0.00     0.084 H 
ENDBRANCH  67  70
ENDBRANCH   1  67
TORSDOF 23
