REMARK WARNING: 32 MAX_TORS EXCEEDED!!!
REMARK  43 active torsions:
REMARK  status: ('A' for Active; 'I' for Inactive)
REMARK    1  A    between atoms: N_1  and  CA_2 
REMARK    2  A    between atoms: CA_2  and  C_3 
REMARK    3  A    between atoms: CA_2  and  CB_5 
REMARK       I    between atoms: C_3  and  N_10 
REMARK    4  A    between atoms: CB_5  and  CG_6 
REMARK    5  A    between atoms: CG_6  and  CD_7 
REMARK    6  A    between atoms: CD_7  and  CE_8 
REMARK    7  A    between atoms: CE_8  and  NZ_9 
REMARK    8  A    between atoms: N_10  and  CA_11 
REMARK    9  A    between atoms: CA_11  and  C_12 
REMARK   10  A    between atoms: CA_11  and  CB_14 
REMARK       I    between atoms: C_12  and  N_20 
REMARK   11  A    between atoms: CB_14  and  CG_15 
REMARK   12  A    between atoms: N_20  and  CA_21 
REMARK   13  A    between atoms: CA_21  and  C_22 
REMARK   14  A    between atoms: CA_21  and  CB_24 
REMARK       I    between atoms: C_22  and  N_27 
REMARK   15  A    between atoms: CB_24  and  OG1_25 
REMARK   16  A    between atoms: CB_24  and  CG2_26 
REMARK   17  A    between atoms: N_27  and  CA_28 
REMARK   18  A    between atoms: CA_28  and  C_29 
REMARK   19  A    between atoms: CA_28  and  CB_31 
REMARK       I    between atoms: C_29  and  N_36 
REMARK   20  A    between atoms: CB_31  and  CG_32 
REMARK   21  A    between atoms: CG_32  and  CD_33 
REMARK   22  A    between atoms: CD_33  and  CE_34 
REMARK   23  A    between atoms: CE_34  and  NZ_35 
REMARK   24  A    between atoms: N_36  and  CA_37 
REMARK   25  A    between atoms: CA_37  and  C_38 
REMARK   26  A    between atoms: CA_37  and  CB_40 
REMARK       I    between atoms: C_38  and  N_42 
REMARK   27  A    between atoms: CB_40  and  OG_41 
REMARK   28  A    between atoms: N_42  and  CA_43 
REMARK   29  A    between atoms: CA_43  and  C_44 
REMARK   30  A    between atoms: CA_43  and  CB_46 
REMARK       I    between atoms: C_44  and  N_53 
REMARK   31  A    between atoms: CB_46  and  CG_47 
REMARK   32  A    between atoms: N_53  and  CA_54 
REMARK   33  A    between atoms: CA_54  and  C_55 
REMARK   34  A    between atoms: CA_54  and  CB_57 
REMARK       I    between atoms: C_55  and  N_61 
REMARK   35  A    between atoms: CB_57  and  CG1_58 
REMARK   36  A    between atoms: CB_57  and  CG2_59 
REMARK   37  A    between atoms: CG1_58  and  CD1_60 
REMARK   38  A    between atoms: N_61  and  CA_62 
REMARK   39  A    between atoms: CA_62  and  C_63 
REMARK   40  A    between atoms: CA_62  and  CB_65 
REMARK   41  A    between atoms: CB_65  and  CG1_66 
REMARK   42  A    between atoms: CB_65  and  CG2_67 
REMARK   43  A    between atoms: CG1_66  and  CD1_68 
ROOT
ATOM      1  CA  LYS d   1      80.016  14.890  41.706  0.00  0.00     0.089 C 
ATOM      2  H31 LYS d   1      79.405  14.263  41.040  0.00  0.00     0.087 H 
ENDROOT
BRANCH   1   3
ATOM      3  N   LYS d   1      80.923  14.061  42.458  0.00  0.00    -0.346 N 
ATOM      4  C   THR d   1      80.527  12.961  43.070  0.00  0.00     0.243 C 
ATOM      5  O   THR d   1      79.373  12.525  43.007  0.00  0.00    -0.271 OA
ATOM      6  H30 LYS d   1      81.885  14.328  42.518  0.00  0.00     0.163 HD
BRANCH   4   7
ATOM      7  CA  THR d   1      81.601  12.257  43.874  0.00  0.00     0.113 C 
ATOM      8  H24 THR d   1      81.865  12.870  44.748  0.00  0.00     0.091 H 
BRANCH   7   9
ATOM      9  N   THR d   1      81.105  10.990  44.299  0.00  0.00    -0.344 N 
ATOM     10  C   HIS d   1      80.221  10.793  45.254  0.00  0.00     0.241 C 
ATOM     11  O   HIS d   1      79.788  11.695  46.000  0.00  0.00    -0.271 OA
ATOM     12  H23 THR d   1      81.460  10.181  43.831  0.00  0.00     0.163 HD
BRANCH  10  13
ATOM     13  CA  HIS d   1      79.765   9.340  45.291  0.00  0.00     0.094 C 
ATOM     14  H17 HIS d   1      80.441   8.768  44.639  0.00  0.00     0.088 H 
BRANCH  13  15
ATOM     15  N   HIS d   1      79.885   8.758  46.620  0.00  0.00    -0.346 N 
ATOM     16  C   LYS d   1      81.046   8.259  47.076  0.00  0.00     0.249 C 
ATOM     17  O   LYS d   1      82.095   8.268  46.412  0.00  0.00    -0.271 OA
ATOM     18  H16 HIS d   1      79.079   8.729  47.211  0.00  0.00     0.163 HD
BRANCH  16  19
ATOM     19  CA  LYS d   1      81.088   7.681  48.506  0.00  0.00     0.176 C 
ATOM     20  H4  LYS d   1      82.143   7.655  48.815  0.00  0.00     0.099 H 
BRANCH  19  21
ATOM     21  N   LYS d   1      80.372   8.487  49.487  0.00  0.00    -0.067 N 
ATOM     22  H1  LYS d   1      80.441   8.052  50.394  0.00  0.00     0.275 HD
ATOM     23  H2  LYS d   1      79.402   8.557  49.221  0.00  0.00     0.275 HD
ATOM     24  H3  LYS d   1      80.778   9.409  49.525  0.00  0.00     0.275 HD
ENDBRANCH  19  21
BRANCH  19  25
ATOM     25  CB  LYS d   1      80.562   6.244  48.513  0.00  0.00    -0.030 C 
ATOM     26  H5  LYS d   1      79.463   6.283  48.511  0.00  0.00     0.036 H 
ATOM     27  H6  LYS d   1      80.910   5.758  49.437  0.00  0.00     0.036 H 
BRANCH  25  28
ATOM     28  CG  LYS d   1      81.008   5.387  47.330  0.00  0.00    -0.061 C 
ATOM     29  H7  LYS d   1      80.887   5.970  46.405  0.00  0.00     0.033 H 
ATOM     30  H8  LYS d   1      80.373   4.490  47.284  0.00  0.00     0.033 H 
BRANCH  28  31
ATOM     31  CD  LYS d   1      82.461   4.953  47.448  0.00  0.00    -0.043 C 
ATOM     32  H9  LYS d   1      82.665   4.667  48.490  0.00  0.00     0.035 H 
ATOM     33  H10 LYS d   1      83.110   5.795  47.165  0.00  0.00     0.035 H 
BRANCH  31  34
ATOM     34  CE  LYS d   1      82.763   3.767  46.540  0.00  0.00     0.080 C 
ATOM     35  H11 LYS d   1      82.171   2.906  46.883  0.00  0.00     0.075 H 
ATOM     36  H12 LYS d   1      83.834   3.530  46.620  0.00  0.00     0.075 H 
BRANCH  34  37
ATOM     37  NZ  LYS d   1      82.441   4.022  45.105  0.00  0.00    -0.079 N 
ATOM     38  H13 LYS d   1      82.662   3.203  44.560  0.00  0.00     0.274 HD
ATOM     39  H14 LYS d   1      82.984   4.804  44.773  0.00  0.00     0.274 HD
ATOM     40  H15 LYS d   1      81.459   4.231  45.013  0.00  0.00     0.274 HD
ENDBRANCH  34  37
ENDBRANCH  31  34
ENDBRANCH  28  31
ENDBRANCH  25  28
ENDBRANCH  19  25
ENDBRANCH  16  19
ENDBRANCH  13  15
BRANCH  13  41
ATOM     41  CB  HIS d   1      78.327   9.230  44.668  0.00  0.00     0.002 C 
ATOM     42  H18 HIS d   1      78.376   9.590  43.630  0.00  0.00     0.046 H 
ATOM     43  H19 HIS d   1      77.652   9.876  45.249  0.00  0.00     0.046 H 
BRANCH  41  44
ATOM     44  CG  HIS d   1      77.748   7.838  44.655  0.00  0.00     0.030 A 
ATOM     45  ND1 HIS d   1      76.392   7.595  44.527  0.00  0.00    -0.353 N 
ATOM     46  CE1 HIS d   1      76.197   6.282  44.569  0.00  0.00     0.063 A 
ATOM     47  H20 HIS d   1      75.659   8.310  44.418  0.00  0.00     0.166 HD
ATOM     48  NE2 HIS d   1      77.363   5.678  44.700  0.00  0.00    -0.254 NA
ATOM     49  H22 HIS d   1      75.231   5.784  44.506  0.00  0.00     0.143 H 
ATOM     50  CD2 HIS d   1      78.344   6.631  44.784  0.00  0.00     0.025 A 
ATOM     51  H21 HIS d   1      79.408   6.450  44.928  0.00  0.00     0.117 H 
ENDBRANCH  41  44
ENDBRANCH  13  41
ENDBRANCH  10  13
ENDBRANCH   7   9
BRANCH   7  52
ATOM     52  CB  THR d   1      82.829  12.018  43.033  0.00  0.00     0.060 C 
ATOM     53  H25 THR d   1      83.463  12.916  43.005  0.00  0.00     0.086 H 
BRANCH  52  54
ATOM     54  OG1 THR d   1      82.409  11.653  41.712  0.00  0.00    -0.393 OA
ATOM     55  H26 THR d   1      83.173  11.499  41.169  0.00  0.00     0.210 HD
ENDBRANCH  52  54
BRANCH  52  56
ATOM     56  CG2 THR d   1      83.577  10.853  43.628  0.00  0.00    -0.050 C 
ATOM     57  H27 THR d   1      84.481  10.655  43.033  0.00  0.00     0.031 H 
ATOM     58  H28 THR d   1      82.932   9.962  43.623  0.00  0.00     0.031 H 
ATOM     59  H29 THR d   1      83.864  11.092  44.663  0.00  0.00     0.031 H 
ENDBRANCH  52  56
ENDBRANCH   7  52
ENDBRANCH   4   7
ENDBRANCH   1   3
BRANCH   1  60
ATOM     60  C   LYS d   1      80.878  15.815  40.879  0.00  0.00     0.241 C 
ATOM     61  O   LYS d   1      81.914  16.288  41.350  0.00  0.00    -0.271 OA
ATOM     62  N   SER d   1      80.459  16.045  39.641  0.00  0.00    -0.344 N 
ATOM     63  H43 SER d   1      79.605  15.622  39.338  0.00  0.00     0.163 HD
BRANCH  62  64
ATOM     64  CA  SER d   1      81.189  16.886  38.706  0.00  0.00     0.109 C 
ATOM     65  H44 SER d   1      82.099  16.345  38.407  0.00  0.00     0.090 H 
BRANCH  64  66
ATOM     66  C   SER d   1      81.615  18.222  39.302  0.00  0.00     0.243 C 
ATOM     67  O   SER d   1      80.889  18.833  40.086  0.00  0.00    -0.271 OA
ATOM     68  N   PHE d   1      82.811  18.654  38.923  0.00  0.00    -0.346 N 
ATOM     69  H48 PHE d   1      83.385  18.049  38.371  0.00  0.00     0.163 HD
BRANCH  68  70
ATOM     70  CA  PHE d   1      83.324  19.968  39.275  0.00  0.00     0.093 C 
ATOM     71  H49 PHE d   1      82.483  20.671  39.365  0.00  0.00     0.088 H 
BRANCH  70  72
ATOM     72  C   PHE d   1      84.234  20.421  38.143  0.00  0.00     0.241 C 
ATOM     73  O   PHE d   1      84.673  19.604  37.334  0.00  0.00    -0.271 OA
ATOM     74  N   ILE d   1      84.516  21.716  38.078  0.00  0.00    -0.346 N 
ATOM     75  H57 ILE d   1      84.192  22.330  38.798  0.00  0.00     0.163 HD
BRANCH  74  76
ATOM     76  CA  ILE d   1      85.293  22.252  36.968  0.00  0.00     0.092 C 
ATOM     77  H58 ILE d   1      85.276  21.510  36.156  0.00  0.00     0.088 H 
BRANCH  76  78
ATOM     78  C   ILE d   1      86.748  22.497  37.359  0.00  0.00     0.241 C 
ATOM     79  O   ILE d   1      87.037  22.957  38.464  0.00  0.00    -0.271 OA
ATOM     80  N   ILE d   1      87.658  22.167  36.447  0.00  0.00    -0.344 N 
ATOM     81  H68 ILE d   1      87.362  21.687  35.621  0.00  0.00     0.163 HD
BRANCH  80  82
ATOM     82  CA  ILE d   1      89.072  22.481  36.610  0.00  0.00     0.099 C 
ATOM     83  H69 ILE d   1      89.191  23.056  37.540  0.00  0.00     0.090 H 
BRANCH  82  84
ATOM     84  C   ILE d   1      89.566  23.328  35.443  0.00  0.00     0.197 C 
ATOM     85  O   ILE d   1      88.849  23.537  34.463  0.00  0.00    -0.646 OA
ATOM     86  OXT ILE d   1      90.693  23.822  35.451  0.00  0.00    -0.646 OA
ENDBRANCH  82  84
BRANCH  82  87
ATOM     87  CB  ILE d   1      89.932  21.212  36.709  0.00  0.00    -0.029 C 
ATOM     88  H70 ILE d   1      90.992  21.505  36.669  0.00  0.00     0.043 H 
BRANCH  87  89
ATOM     89  CG1 ILE d   1      89.643  20.284  35.528  0.00  0.00    -0.063 C 
ATOM     90  H71 ILE d   1      89.477  20.902  34.633  0.00  0.00     0.033 H 
ATOM     91  H72 ILE d   1      88.731  19.712  35.752  0.00  0.00     0.033 H 
BRANCH  89  92
ATOM     92  CD1 ILE d   1      90.758  19.307  35.232  0.00  0.00    -0.076 C 
ATOM     93  H76 ILE d   1      90.476  18.678  34.374  0.00  0.00     0.027 H 
ATOM     94  H77 ILE d   1      90.931  18.671  36.112  0.00  0.00     0.027 H 
ATOM     95  H78 ILE d   1      91.678  19.861  34.994  0.00  0.00     0.027 H 
ENDBRANCH  89  92
ENDBRANCH  87  89
BRANCH  87  96
ATOM     96  CG2 ILE d   1      89.682  20.504  38.029  0.00  0.00    -0.070 C 
ATOM     97  H73 ILE d   1      89.897  21.192  38.860  0.00  0.00     0.028 H 
ATOM     98  H74 ILE d   1      90.337  19.624  38.103  0.00  0.00     0.028 H 
ATOM     99  H75 ILE d   1      88.631  20.184  38.080  0.00  0.00     0.028 H 
ENDBRANCH  87  96
ENDBRANCH  82  87
ENDBRANCH  80  82
ENDBRANCH  76  78
BRANCH  76 100
ATOM    100  CB  ILE d   1      84.675  23.564  36.439  0.00  0.00    -0.030 C 
ATOM    101  H59 ILE d   1      84.720  24.317  37.239  0.00  0.00     0.043 H 
BRANCH 100 102
ATOM    102  CG1 ILE d   1      83.211  23.342  36.058  0.00  0.00    -0.063 C 
ATOM    103  H60 ILE d   1      82.641  23.140  36.977  0.00  0.00     0.033 H 
ATOM    104  H61 ILE d   1      83.155  22.469  35.392  0.00  0.00     0.033 H 
BRANCH 102 105
ATOM    105  CD1 ILE d   1      82.577  24.521  35.353  0.00  0.00    -0.076 C 
ATOM    106  H65 ILE d   1      81.530  24.285  35.113  0.00  0.00     0.027 H 
ATOM    107  H66 ILE d   1      83.127  24.732  34.424  0.00  0.00     0.027 H 
ATOM    108  H67 ILE d   1      82.613  25.403  36.009  0.00  0.00     0.027 H 
ENDBRANCH 102 105
ENDBRANCH 100 102
BRANCH 100 109
ATOM    109  CG2 ILE d   1      85.453  24.087  35.239  0.00  0.00    -0.071 C 
ATOM    110  H62 ILE d   1      86.504  24.243  35.523  0.00  0.00     0.028 H 
ATOM    111  H63 ILE d   1      85.017  25.041  34.907  0.00  0.00     0.028 H 
ATOM    112  H64 ILE d   1      85.400  23.355  34.420  0.00  0.00     0.028 H 
ENDBRANCH 100 109
ENDBRANCH  76 100
ENDBRANCH  74  76
ENDBRANCH  70  72
BRANCH  70 113
ATOM    113  CB  PHE d   1      84.072  19.936  40.611  0.00  0.00    -0.014 C 
ATOM    114  H50 PHE d   1      83.377  19.587  41.389  0.00  0.00     0.043 H 
ATOM    115  H51 PHE d   1      84.403  20.958  40.847  0.00  0.00     0.043 H 
BRANCH 113 116
ATOM    116  CG  PHE d   1      85.276  19.036  40.614  0.00  0.00    -0.056 A 
ATOM    117  CD1 PHE d   1      86.545  19.554  40.412  0.00  0.00    -0.077 A 
ATOM    118  CE1 PHE d   1      87.653  18.730  40.415  0.00  0.00    -0.082 A 
ATOM    119  H52 PHE d   1      86.669  20.619  40.250  0.00  0.00     0.084 H 
ATOM    120  CZ  PHE d   1      87.502  17.374  40.624  0.00  0.00    -0.083 A 
ATOM    121  H54 PHE d   1      88.640  19.148  40.253  0.00  0.00     0.083 H 
ATOM    122  CE2 PHE d   1      86.244  16.845  40.826  0.00  0.00    -0.082 A 
ATOM    123  H56 PHE d   1      88.371  16.726  40.629  0.00  0.00     0.083 H 
ATOM    124  CD2 PHE d   1      85.140  17.674  40.823  0.00  0.00    -0.077 A 
ATOM    125  H55 PHE d   1      86.123  15.780  40.987  0.00  0.00     0.083 H 
ATOM    126  H53 PHE d   1      84.154  17.253  40.986  0.00  0.00     0.084 H 
ENDBRANCH 113 116
ENDBRANCH  70 113
ENDBRANCH  68  70
ENDBRANCH  64  66
BRANCH  64 127
ATOM    127  CB  SER d   1      80.339  17.133  37.462  0.00  0.00     0.044 C 
ATOM    128  H45 SER d   1      80.061  16.167  37.016  0.00  0.00     0.077 H 
ATOM    129  H46 SER d   1      80.922  17.718  36.735  0.00  0.00     0.077 H 
BRANCH 127 130
ATOM    130  OG  SER d   1      79.163  17.847  37.799  0.00  0.00    -0.398 OA
ATOM    131  H47 SER d   1      78.656  17.343  38.425  0.00  0.00     0.209 HD
ENDBRANCH 127 130
ENDBRANCH  64 127
ENDBRANCH  62  64
ENDBRANCH   1  60
BRANCH   1 132
ATOM    132  CB  LYS d   1      79.085  15.663  42.638  0.00  0.00    -0.038 C 
ATOM    133  H32 LYS d   1      79.589  15.782  43.609  0.00  0.00     0.036 H 
ATOM    134  H33 LYS d   1      78.165  15.075  42.772  0.00  0.00     0.036 H 
BRANCH 132 135
ATOM    135  CG  LYS d   1      78.704  17.028  42.134  0.00  0.00    -0.061 C 
ATOM    136  H34 LYS d   1      78.282  16.934  41.123  0.00  0.00     0.033 H 
ATOM    137  H35 LYS d   1      79.601  17.663  42.099  0.00  0.00     0.033 H 
BRANCH 135 138
ATOM    138  CD  LYS d   1      77.681  17.666  43.040  0.00  0.00    -0.043 C 
ATOM    139  H36 LYS d   1      77.980  17.515  44.088  0.00  0.00     0.035 H 
ATOM    140  H37 LYS d   1      76.701  17.198  42.867  0.00  0.00     0.035 H 
BRANCH 138 141
ATOM    141  CE  LYS d   1      77.582  19.145  42.759  0.00  0.00     0.080 C 
ATOM    142  H38 LYS d   1      77.105  19.646  43.614  0.00  0.00     0.075 H 
ATOM    143  H39 LYS d   1      76.974  19.303  41.856  0.00  0.00     0.075 H 
BRANCH 141 144
ATOM    144  NZ  LYS d   1      78.935  19.721  42.546  0.00  0.00    -0.079 N 
ATOM    145  H40 LYS d   1      78.854  20.708  42.359  0.00  0.00     0.274 HD
ATOM    146  H41 LYS d   1      79.374  19.266  41.761  0.00  0.00     0.274 HD
ATOM    147  H42 LYS d   1      79.494  19.580  43.373  0.00  0.00     0.274 HD
ENDBRANCH 141 144
ENDBRANCH 138 141
ENDBRANCH 135 138
ENDBRANCH 132 135
ENDBRANCH   1 132
TORSDOF 43
