REMARK  6 active torsions:
REMARK  status: ('A' for Active; 'I' for Inactive)
REMARK    1  A    between atoms: C16_2  and  S19_22 
REMARK    2  A    between atoms: C8_14  and  C13_3 
REMARK    3  A    between atoms: C10_6  and  C24_17 
REMARK    4  A    between atoms: C10_6  and  C23_18 
REMARK    5  A    between atoms: C7_15  and  C3_12 
REMARK    6  A    between atoms: S19_22  and  N22_24 
ROOT
ATOM      1  C11 949 d   1      -1.929   4.507 -34.116  0.00  0.00     0.197 A 
ATOM      2  C10 949 d   1      -1.621   5.619 -33.161  0.00  0.00     0.125 A 
ATOM      3  C8  949 d   1      -2.798   3.799 -32.164  0.00  0.00     0.095 A 
ATOM      4  C7  949 d   1      -2.625   3.428 -33.435  0.00  0.00     0.058 A 
ATOM      5  O12 949 d   1      -1.663   4.537 -35.304  0.00  0.00    -0.289 OA
ATOM      6  O9  949 d   1      -2.269   5.136 -31.990  0.00  0.00    -0.331 OA
ENDROOT
BRANCH   3   7
ATOM      7  C13 949 d   1      -3.230   3.103 -30.902  0.00  0.00    -0.002 A 
ATOM      8  C14 949 d   1      -2.967   1.763 -30.669  0.00  0.00    -0.069 A 
ATOM      9  C15 949 d   1      -3.329   1.194 -29.447  0.00  0.00    -0.059 A 
ATOM     10  H7  949 d   1      -2.484   1.161 -31.430  0.00  0.00     0.085 H 
ATOM     11  C16 949 d   1      -3.942   1.951 -28.451  0.00  0.00     0.079 A 
ATOM     12  H1  949 d   1      -3.129   0.143 -29.270  0.00  0.00     0.085 H 
ATOM     13  C17 949 d   1      -4.165   3.309 -28.665  0.00  0.00    -0.059 A 
ATOM     14  C18 949 d   1      -3.811   3.874 -29.889  0.00  0.00    -0.069 A 
ATOM     15  H2  949 d   1      -4.609   3.920 -27.888  0.00  0.00     0.085 H 
ATOM     16  H8  949 d   1      -3.989   4.930 -30.059  0.00  0.00     0.085 H 
BRANCH  11  17
ATOM     17  S19 949 d   1      -4.312   1.294 -27.032  0.00  0.00     0.256 S 
ATOM     18  O21 949 d   1      -3.079   1.264 -26.339  0.00  0.00    -0.201 OA
ATOM     19  O20 949 d   1      -5.255   2.117 -26.315  0.00  0.00    -0.201 OA
BRANCH  17  20
ATOM     20  N22 949 d   1      -4.862  -0.210 -27.141  0.00  0.00    -0.324 N 
ATOM     21  H15 949 d   1      -5.121  -0.709 -26.314  0.00  0.00     0.169 HD
ATOM     22  H16 949 d   1      -4.946  -0.648 -28.036  0.00  0.00     0.169 HD
ENDBRANCH  17  20
ENDBRANCH  11  17
ENDBRANCH   3   7
BRANCH   4  23
ATOM     23  C3  949 d   1      -3.003   2.170 -34.147  0.00  0.00    -0.017 A 
ATOM     24  C2  949 d   1      -4.301   1.708 -34.133  0.00  0.00    -0.035 A 
ATOM     25  C1  949 d   1      -4.615   0.548 -34.812  0.00  0.00     0.117 A 
ATOM     26  H3  949 d   1      -5.069   2.251 -33.593  0.00  0.00     0.089 H 
ATOM     27  C6  949 d   1      -3.649  -0.172 -35.512  0.00  0.00    -0.046 A 
ATOM     28  F25 949 d   1      -5.876   0.122 -34.778  0.00  0.00    -0.206 F 
ATOM     29  C5  949 d   1      -2.347   0.301 -35.520  0.00  0.00    -0.079 A 
ATOM     30  H4  949 d   1      -3.911  -1.083 -36.039  0.00  0.00     0.088 H 
ATOM     31  C4  949 d   1      -2.029   1.470 -34.840  0.00  0.00    -0.072 A 
ATOM     32  H5  949 d   1      -1.577  -0.241 -36.057  0.00  0.00     0.083 H 
ATOM     33  H6  949 d   1      -1.009   1.838 -34.852  0.00  0.00     0.084 H 
ENDBRANCH   4  23
BRANCH   2  34
ATOM     34  C24 949 d   1      -0.121   5.743 -32.907  0.00  0.00    -0.041 C 
ATOM     35  H9  949 d   1       0.065   6.568 -32.203  0.00  0.00     0.032 H 
ATOM     36  H10 949 d   1       0.396   5.948 -33.856  0.00  0.00     0.032 H 
ATOM     37  H11 949 d   1       0.257   4.803 -32.479  0.00  0.00     0.032 H 
ENDBRANCH   2  34
BRANCH   2  38
ATOM     38  C23 949 d   1      -2.267   6.910 -33.633  0.00  0.00    -0.041 C 
ATOM     39  H12 949 d   1      -3.342   6.744 -33.794  0.00  0.00     0.032 H 
ATOM     40  H13 949 d   1      -1.800   7.230 -34.576  0.00  0.00     0.032 H 
ATOM     41  H14 949 d   1      -2.127   7.690 -32.871  0.00  0.00     0.032 H 
ENDBRANCH   2  38
TORSDOF 6
