REMARK  11 active torsions:
REMARK  status: ('A' for Active; 'I' for Inactive)
REMARK    1  A    between atoms: CAS_7  and  CAR_6 
REMARK    2  A    between atoms: CBE_8  and  CAS_7 
REMARK       I    between atoms: NBA_10  and  CBE_8 
REMARK    3  A    between atoms: CBG_11  and  NBA_10 
REMARK    4  A    between atoms: CBJ_16  and  NBS_17 
REMARK    5  A    between atoms: CBF_21  and  CAB_22 
REMARK    6  A    between atoms: C2_23  and  NBB_24 
REMARK    7  A    between atoms: NBB_24  and  CBK_25 
REMARK    8  A    between atoms: CBL_26  and  OBC_28 
REMARK    9  A    between atoms: OBC_28  and  CAA_29 
REMARK   10  A    between atoms: CBI_32  and  NBR_33 
REMARK   11  A    between atoms: NBQ_36  and  CAC_37 
ROOT
ATOM      1  C4  F62 d   1      -0.585 -52.295 123.246  0.00  0.00     0.169 A 
ATOM      2  C5  F62 d   1      -1.157 -53.286 122.478  0.00  0.00     0.035 A 
ATOM      3  C6  F62 d   1      -1.930 -54.239 123.100  0.00  0.00     0.035 A 
ATOM      4  N1  F62 d   1      -2.099 -54.164 124.461  0.00  0.00    -0.074 NA
ATOM      5  N3  F62 d   1      -0.773 -52.271 124.566  0.00  0.00    -0.043 NA
ATOM      6  NBS F62 d   1       0.152 -51.356 122.659  0.00  0.00    -0.262 N 
ATOM      7  CBM F62 d   1       0.379 -51.365 121.348  0.00  0.00     0.254 A 
ATOM      8  OAG F62 d   1       1.073 -50.495 120.847  0.00  0.00    -0.268 OA
ATOM      9  CAQ F62 d   1      -0.173 -52.330 120.533  0.00  0.00    -0.010 A 
ATOM     10  CBF F62 d   1      -0.954 -53.311 121.104  0.00  0.00    -0.041 A 
ATOM     11  C2  F62 d   1      -1.525 -53.193 125.159  0.00  0.00     0.728 A 
ATOM     12  H1  F62 d   1      -2.396 -55.033 122.528  0.00  0.00     0.117 H 
ATOM     13  H12 F62 d   1       0.005 -52.317 119.459  0.00  0.00     0.092 H 
ENDROOT
BRANCH  11  14
ATOM     14  NBB F62 d   1      -1.731 -53.189 126.461  0.00  0.00    -0.185 N 
ATOM     15  H16 F62 d   1      -2.284 -53.942 126.895  0.00  0.00     0.184 HD
BRANCH  14  16
ATOM     16  CBK F62 d   1      -1.235 -52.230 127.206  0.00  0.00     0.082 A 
ATOM     17  CBL F62 d   1      -1.933 -51.975 128.362  0.00  0.00     0.097 A 
ATOM     18  CAP F62 d   1      -1.524 -51.010 129.243  0.00  0.00    -0.023 A 
ATOM     19  CBI F62 d   1      -0.381 -50.300 128.943  0.00  0.00     0.033 A 
ATOM     20  H17 F62 d   1      -2.083 -50.810 130.150  0.00  0.00     0.091 H 
ATOM     21  CAL F62 d   1       0.335 -50.553 127.783  0.00  0.00    -0.055 A 
ATOM     22  CAM F62 d   1      -0.088 -51.534 126.897  0.00  0.00    -0.052 A 
ATOM     23  H22 F62 d   1       1.230 -49.981 127.567  0.00  0.00     0.087 H 
ATOM     24  H21 F62 d   1       0.467 -51.745 125.990  0.00  0.00     0.087 H 
BRANCH  17  25
ATOM     25  OBC F62 d   1      -3.033 -52.720 128.573  0.00  0.00    -0.354 OA
BRANCH  25  26
ATOM     26  CAA F62 d   1      -3.549 -52.485 129.871  0.00  0.00     0.010 C 
ATOM     27  H18 F62 d   1      -4.447 -53.102 130.026  0.00  0.00     0.066 H 
ATOM     28  H19 F62 d   1      -3.812 -51.422 129.974  0.00  0.00     0.066 H 
ATOM     29  H20 F62 d   1      -2.789 -52.749 130.621  0.00  0.00     0.066 H 
ENDBRANCH  25  26
ENDBRANCH  17  25
BRANCH  19  30
ATOM     30  NBR F62 d   1       0.008 -49.356 129.792  0.00  0.00    -0.378 N 
ATOM     31  CAV F62 d   1      -0.975 -48.857 130.770  0.00  0.00     0.018 C 
ATOM     32  CAT F62 d   1      -0.324 -48.298 131.997  0.00  0.00     0.098 C 
ATOM     33  H23 F62 d   1      -1.632 -49.688 131.066  0.00  0.00     0.066 H 
ATOM     34  H24 F62 d   1      -1.575 -48.066 130.296  0.00  0.00     0.066 H 
ATOM     35  NBQ F62 d   1       0.789 -47.430 131.633  0.00  0.00    -0.072 N 
ATOM     36  H25 F62 d   1       0.050 -49.126 132.618  0.00  0.00     0.078 H 
ATOM     37  H26 F62 d   1      -1.064 -47.718 132.567  0.00  0.00     0.078 H 
ATOM     38  CAU F62 d   1       1.829 -48.246 131.015  0.00  0.00     0.098 C 
ATOM     39  H27 F62 d   1       0.483 -46.706 131.002  0.00  0.00     0.279 HD
ATOM     40  CAW F62 d   1       1.363 -48.798 129.695  0.00  0.00     0.018 C 
ATOM     41  H31 F62 d   1       2.079 -49.081 131.686  0.00  0.00     0.078 H 
ATOM     42  H32 F62 d   1       2.723 -47.627 130.851  0.00  0.00     0.078 H 
ATOM     43  H33 F62 d   1       1.364 -47.989 128.949  0.00  0.00     0.066 H 
ATOM     44  H34 F62 d   1       2.054 -49.592 129.376  0.00  0.00     0.066 H 
BRANCH  35  45
ATOM     45  CAC F62 d   1       1.334 -46.851 132.860  0.00  0.00     0.066 C 
ATOM     46  H28 F62 d   1       2.177 -46.190 132.611  0.00  0.00     0.068 H 
ATOM     47  H29 F62 d   1       1.683 -47.657 133.522  0.00  0.00     0.068 H 
ATOM     48  H30 F62 d   1       0.552 -46.270 133.370  0.00  0.00     0.068 H 
ENDBRANCH  35  45
ENDBRANCH  19  30
ENDBRANCH  14  16
ENDBRANCH  11  14
BRANCH   6  49
ATOM     49  CBJ F62 d   1       0.730 -50.434 123.409  0.00  0.00     0.046 A 
ATOM     50  CAO F62 d   1       2.071 -50.626 123.653  0.00  0.00    -0.031 A 
ATOM     51  CBG F62 d   1       2.792 -49.747 124.428  0.00  0.00     0.036 A 
ATOM     52  H8  F62 d   1       2.570 -51.488 123.225  0.00  0.00     0.090 H 
ATOM     53  CAJ F62 d   1       2.148 -48.650 124.972  0.00  0.00    -0.057 A 
ATOM     54  CAI F62 d   1       0.795 -48.454 124.728  0.00  0.00    -0.079 A 
ATOM     55  H9  F62 d   1       2.697 -47.946 125.586  0.00  0.00     0.086 H 
ATOM     56  CAK F62 d   1       0.072 -49.347 123.948  0.00  0.00    -0.056 A 
ATOM     57  H10 F62 d   1       0.296 -47.591 125.153  0.00  0.00     0.083 H 
ATOM     58  H11 F62 d   1      -0.986 -49.194 123.766  0.00  0.00     0.086 H 
BRANCH  51  59
ATOM     59  NBA F62 d   1       4.080 -49.980 124.627  0.00  0.00    -0.327 N 
ATOM     60  CBE F62 d   1       4.627 -49.412 125.691  0.00  0.00     0.221 C 
ATOM     61  OAF F62 d   1       4.008 -48.699 126.465  0.00  0.00    -0.273 OA
ATOM     62  H7  F62 d   1       4.612 -50.555 124.006  0.00  0.00     0.169 HD
BRANCH  60  63
ATOM     63  CAS F62 d   1       6.101 -49.703 125.907  0.00  0.00     0.006 C 
ATOM     64  H5  F62 d   1       6.702 -49.116 125.197  0.00  0.00     0.046 H 
ATOM     65  H6  F62 d   1       6.384 -49.435 126.936  0.00  0.00     0.046 H 
BRANCH  63  66
ATOM     66  CAR F62 d   1       6.344 -51.181 125.680  0.00  0.00    -0.068 C 
ATOM     67  H2  F62 d   1       7.410 -51.405 125.834  0.00  0.00     0.028 H 
ATOM     68  H3  F62 d   1       6.058 -51.446 124.651  0.00  0.00     0.028 H 
ATOM     69  H4  F62 d   1       5.740 -51.765 126.390  0.00  0.00     0.028 H 
ENDBRANCH  63  66
ENDBRANCH  60  63
ENDBRANCH  51  59
ENDBRANCH   6  49
BRANCH  10  70
ATOM     70  CAB F62 d   1      -1.518 -54.292 120.310  0.00  0.00    -0.050 C 
ATOM     71  H13 F62 d   1      -2.102 -54.981 120.938  0.00  0.00     0.033 H 
ATOM     72  H14 F62 d   1      -0.722 -54.850 119.796  0.00  0.00     0.033 H 
ATOM     73  H15 F62 d   1      -2.179 -53.825 119.564  0.00  0.00     0.033 H 
ENDBRANCH  10  70
TORSDOF 11
