REMARK  11 active torsions:
REMARK  status: ('A' for Active; 'I' for Inactive)
REMARK    1  A    between atoms: CAV_2  and  OAW_3 
REMARK    2  A    between atoms: CAT_4  and  OAU_5 
REMARK    3  A    between atoms: CAQ_8  and  CAP_9 
REMARK    4  A    between atoms: CAP_9  and  CAO_10 
REMARK    5  A    between atoms: CAO_10  and  CAM_11 
REMARK    6  A    between atoms: CAM_11  and  OAL_13 
REMARK    7  A    between atoms: OAL_13  and  CAK_14 
REMARK    8  A    between atoms: CAD_16  and  CAB_17 
REMARK    9  A    between atoms: CAD_16  and  OAE_20 
REMARK   10  A    between atoms: CAG_22  and  OAH_23 
REMARK   11  A    between atoms: CAI_24  and  OAJ_25 
ROOT
ATOM      1  CAK MOL d   1       0.348   3.058   3.402  0.00  0.00     0.078 C 
ATOM      2  CAY MOL d   1       0.408   1.885   4.410  0.00  0.00     0.001 C 
ATOM      3  CAD MOL d   1       1.764   1.232   4.474  0.00  0.00     0.150 C 
ATOM      4  CAF MOL d   1       2.226   0.725   3.082  0.00  0.00    -0.000 C 
ATOM      5  CAG MOL d   1       2.272   1.946   2.150  0.00  0.00     0.066 C 
ATOM      6  CAI MOL d   1       0.901   2.583   2.043  0.00  0.00     0.086 C 
ATOM      7  H10 MOL d   1      -0.680   3.437   3.308  0.00  0.00     0.088 H 
ATOM      8  H11 MOL d   1      -0.332   1.128   4.111  0.00  0.00     0.042 H 
ATOM      9  H12 MOL d   1       0.156   2.269   5.410  0.00  0.00     0.042 H 
ATOM     10  H14 MOL d   1       1.513  -0.018   2.695  0.00  0.00     0.042 H 
ATOM     11  H15 MOL d   1       3.225   0.271   3.158  0.00  0.00     0.042 H 
ATOM     12  H16 MOL d   1       2.993   2.675   2.549  0.00  0.00     0.087 H 
ATOM     13  H18 MOL d   1       0.201   1.855   1.606  0.00  0.00     0.090 H 
ENDROOT
BRANCH   1  14
ATOM     14  OAL MOL d   1       1.239   4.075   3.828  0.00  0.00    -0.313 OA
BRANCH  14  15
ATOM     15  CAM MOL d   1       0.927   4.772   4.966  0.00  0.00     0.259 C 
ATOM     16  OAN MOL d   1      -0.106   4.545   5.524  0.00  0.00    -0.265 OA
BRANCH  15  17
ATOM     17  CAO MOL d   1       2.006   5.739   5.401  0.00  0.00     0.019 C 
ATOM     18  H8  MOL d   1       2.962   5.197   5.450  0.00  0.00     0.048 H 
ATOM     19  H9  MOL d   1       2.078   6.542   4.652  0.00  0.00     0.048 H 
BRANCH  17  20
ATOM     20  CAP MOL d   1       1.742   6.359   6.738  0.00  0.00    -0.033 C 
ATOM     21  H6  MOL d   1       0.746   6.826   6.715  0.00  0.00     0.040 H 
ATOM     22  H7  MOL d   1       1.757   5.565   7.499  0.00  0.00     0.040 H 
BRANCH  20  23
ATOM     23  CAQ MOL d   1       2.760   7.417   7.127  0.00  0.00    -0.055 A 
ATOM     24  CAX MOL d   1       3.885   7.779   6.356  0.00  0.00    -0.042 A 
ATOM     25  CAV MOL d   1       4.702   8.807   6.798  0.00  0.00     0.099 A 
ATOM     26  H1  MOL d   1       4.107   7.260   5.431  0.00  0.00     0.088 H 
ATOM     27  CAT MOL d   1       4.441   9.437   8.006  0.00  0.00     0.098 A 
ATOM     28  CAS MOL d   1       3.338   9.075   8.763  0.00  0.00    -0.048 A 
ATOM     29  CAR MOL d   1       2.495   8.072   8.320  0.00  0.00    -0.074 A 
ATOM     30  H4  MOL d   1       3.136   9.578   9.702  0.00  0.00     0.087 H 
ATOM     31  H5  MOL d   1       1.626   7.798   8.906  0.00  0.00     0.084 H 
BRANCH  25  32
ATOM     32  OAW MOL d   1       5.853   9.159   6.079  0.00  0.00    -0.358 OA
ATOM     33  H2  MOL d   1       6.293   9.877   6.519  0.00  0.00     0.217 HD
ENDBRANCH  25  32
BRANCH  27  34
ATOM     34  OAU MOL d   1       5.299  10.437   8.466  0.00  0.00    -0.358 OA
ATOM     35  H3  MOL d   1       4.983  10.764   9.300  0.00  0.00     0.217 HD
ENDBRANCH  27  34
ENDBRANCH  20  23
ENDBRANCH  17  20
ENDBRANCH  15  17
ENDBRANCH  14  15
ENDBRANCH   1  14
BRANCH   6  36
ATOM     36  OAJ MOL d   1       1.013   3.708   1.205  0.00  0.00    -0.390 OA
ATOM     37  H19 MOL d   1       1.317   3.434   0.348  0.00  0.00     0.210 HD
ENDBRANCH   6  36
BRANCH   3  38
ATOM     38  CAB MOL d   1       1.654   0.046   5.422  0.00  0.00     0.209 C 
ATOM     39  OAC MOL d   1       0.643  -0.838   5.254  0.00  0.00    -0.646 OA
ATOM     40  OAA MOL d   1       2.625  -0.133   6.358  0.00  0.00    -0.646 OA
ENDBRANCH   3  38
BRANCH   3  41
ATOM     41  OAE MOL d   1       2.689   2.128   5.030  0.00  0.00    -0.379 OA
ATOM     42  H13 MOL d   1       2.780   2.882   4.459  0.00  0.00     0.211 HD
ENDBRANCH   3  41
BRANCH   5  43
ATOM     43  OAH MOL d   1       2.654   1.564   0.827  0.00  0.00    -0.393 OA
ATOM     44  H17 MOL d   1       2.675   2.333   0.270  0.00  0.00     0.210 HD
ENDBRANCH   5  43
TORSDOF 11
