REMARK WARNING: 32 MAX_TORS EXCEEDED!!!
REMARK  40 active torsions:
REMARK  status: ('A' for Active; 'I' for Inactive)
REMARK    1  A    between atoms: N_1  and  CA_2 
REMARK    2  A    between atoms: CA_2  and  C_3 
REMARK    3  A    between atoms: CA_2  and  CB_5 
REMARK       I    between atoms: C_3  and  N_9 
REMARK    4  A    between atoms: CB_5  and  CG_6 
REMARK    5  A    between atoms: N_9  and  CA_10 
REMARK    6  A    between atoms: CA_10  and  CB_11 
REMARK    7  A    between atoms: CA_10  and  C_13 
REMARK    8  A    between atoms: CB_11  and  OG_12 
REMARK    9  A    between atoms: OG_12  and  P_15 
REMARK       I    between atoms: C_13  and  N_19 
REMARK   10  A    between atoms: N_19  and  CA_20 
REMARK   11  A    between atoms: CA_20  and  C_21 
REMARK   12  A    between atoms: CA_20  and  CB_23 
REMARK       I    between atoms: C_21  and  N_31 
REMARK   13  A    between atoms: CB_23  and  CG_24 
REMARK   14  A    between atoms: CZ_29  and  OH_30 
REMARK   15  A    between atoms: N_31  and  CA_32 
REMARK   16  A    between atoms: CA_32  and  C_33 
REMARK   17  A    between atoms: CA_32  and  CB_35 
REMARK       I    between atoms: C_33  and  N_40 
REMARK   18  A    between atoms: CB_35  and  CG_36 
REMARK   19  A    between atoms: CG_36  and  CD_37 
REMARK   20  A    between atoms: N_40  and  CA_41 
REMARK   21  A    between atoms: CA_41  and  C_42 
REMARK   22  A    between atoms: CA_41  and  CB_44 
REMARK       I    between atoms: C_42  and  N_47 
REMARK   23  A    between atoms: CB_44  and  CG1_45 
REMARK   24  A    between atoms: CB_44  and  CG2_46 
REMARK   25  A    between atoms: N_47  and  CA_48 
REMARK   26  A    between atoms: CA_48  and  C_49 
REMARK   27  A    between atoms: CA_48  and  CB_51 
REMARK       I    between atoms: C_49  and  N_55 
REMARK   28  A    between atoms: CB_51  and  CG_52 
REMARK   29  A    between atoms: CG_52  and  CD1_53 
REMARK   30  A    between atoms: CG_52  and  CD2_54 
REMARK   31  A    between atoms: N_55  and  CA_56 
REMARK   32  A    between atoms: CA_56  and  C_57 
REMARK   33  A    between atoms: CA_56  and  CB_59 
REMARK       I    between atoms: C_57  and  N_63 
REMARK   34  A    between atoms: CB_59  and  CG_60 
REMARK   35  A    between atoms: N_63  and  CA_64 
REMARK   36  A    between atoms: CA_64  and  C_65 
REMARK   37  A    between atoms: CA_64  and  CB_67 
REMARK   38  A    between atoms: CB_67  and  CG_68 
REMARK   39  A    between atoms: CG_68  and  CD1_69 
REMARK   40  A    between atoms: CG_68  and  CD2_70 
ROOT
ATOM      1  C   GLU d   1      17.060   2.956  17.847  0.00  0.00     0.241 C 
ATOM      2  O   GLU d   1      16.672   1.808  17.990  0.00  0.00    -0.271 OA
ATOM      3  N   VAL d   1      17.868   3.541  18.718  0.00  0.00    -0.346 N 
ATOM      4  H26 VAL d   1      18.216   4.458  18.522  0.00  0.00     0.163 HD
ENDROOT
BRANCH   3   5
ATOM      5  CA  VAL d   1      18.262   2.878  19.957  0.00  0.00     0.092 C 
ATOM      6  H27 VAL d   1      18.441   1.813  19.750  0.00  0.00     0.088 H 
BRANCH   5   7
ATOM      7  C   VAL d   1      17.116   3.013  20.954  0.00  0.00     0.241 C 
ATOM      8  O   VAL d   1      16.595   4.116  21.144  0.00  0.00    -0.271 OA
ATOM      9  N   LEU d   1      16.726   1.889  21.563  0.00  0.00    -0.346 N 
ATOM     10  H35 LEU d   1      17.154   1.027  21.292  0.00  0.00     0.163 HD
BRANCH   9  11
ATOM     11  CA  LEU d   1      15.705   1.861  22.605  0.00  0.00     0.089 C 
ATOM     12  H36 LEU d   1      15.193   2.834  22.629  0.00  0.00     0.087 H 
BRANCH  11  13
ATOM     13  C   LEU d   1      16.376   1.611  23.959  0.00  0.00     0.241 C 
ATOM     14  O   LEU d   1      16.501   0.469  24.378  0.00  0.00    -0.271 OA
ATOM     15  N   ASP d   1      16.810   2.683  24.627  0.00  0.00    -0.346 N 
ATOM     16  H46 ASP d   1      16.767   3.576  24.180  0.00  0.00     0.163 HD
BRANCH  15  17
ATOM     17  CA  ASP d   1      17.350   2.605  25.995  0.00  0.00     0.098 C 
ATOM     18  H47 ASP d   1      17.750   1.592  26.152  0.00  0.00     0.088 H 
BRANCH  17  19
ATOM     19  C   ASP d   1      16.257   2.872  27.036  0.00  0.00     0.241 C 
ATOM     20  O   ASP d   1      15.234   3.497  26.738  0.00  0.00    -0.271 OA
ATOM     21  N   LEU d   1      16.515   2.425  28.263  0.00  0.00    -0.345 N 
ATOM     22  H50 LEU d   1      17.361   1.914  28.412  0.00  0.00     0.163 HD
BRANCH  21  23
ATOM     23  CA  LEU d   1      15.629   2.641  29.401  0.00  0.00     0.096 C 
ATOM     24  H51 LEU d   1      14.670   3.032  29.030  0.00  0.00     0.089 H 
BRANCH  23  25
ATOM     25  C   LEU d   1      16.249   3.674  30.328  0.00  0.00     0.196 C 
ATOM     26  O   LEU d   1      15.744   3.926  31.424  0.00  0.00    -0.646 OA
ATOM     27  OXT LEU d   1      17.271   4.283  30.005  0.00  0.00    -0.646 OA
ENDBRANCH  23  25
BRANCH  23  28
ATOM     28  CB  LEU d   1      15.356   1.328  30.151  0.00  0.00    -0.034 C 
ATOM     29  H52 LEU d   1      14.860   0.662  29.429  0.00  0.00     0.037 H 
ATOM     30  H53 LEU d   1      14.654   1.580  30.960  0.00  0.00     0.037 H 
BRANCH  28  31
ATOM     31  CG  LEU d   1      16.479   0.490  30.804  0.00  0.00    -0.059 C 
ATOM     32  H54 LEU d   1      17.201   1.194  31.242  0.00  0.00     0.038 H 
BRANCH  31  33
ATOM     33  CD1 LEU d   1      15.901  -0.361  31.937  0.00  0.00    -0.073 C 
ATOM     34  H55 LEU d   1      16.705  -0.954  32.397  0.00  0.00     0.028 H 
ATOM     35  H56 LEU d   1      15.132  -1.036  31.533  0.00  0.00     0.028 H 
ATOM     36  H57 LEU d   1      15.450   0.296  32.696  0.00  0.00     0.028 H 
ENDBRANCH  31  33
BRANCH  31  37
ATOM     37  CD2 LEU d   1      17.247  -0.389  29.810  0.00  0.00    -0.073 C 
ATOM     38  H58 LEU d   1      17.654   0.239  29.004  0.00  0.00     0.028 H 
ATOM     39  H59 LEU d   1      16.566  -1.139  29.382  0.00  0.00     0.028 H 
ATOM     40  H60 LEU d   1      18.072  -0.897  30.331  0.00  0.00     0.028 H 
ENDBRANCH  31  37
ENDBRANCH  28  31
ENDBRANCH  23  28
ENDBRANCH  21  23
ENDBRANCH  17  19
BRANCH  17  41
ATOM     41  CB  ASP d   1      18.484   3.624  26.204  0.00  0.00     0.043 C 
ATOM     42  H48 ASP d   1      18.804   3.580  27.255  0.00  0.00     0.052 H 
ATOM     43  H49 ASP d   1      18.096   4.629  25.981  0.00  0.00     0.052 H 
BRANCH  41  44
ATOM     44  CG  ASP d   1      19.701   3.364  25.314  0.00  0.00     0.175 C 
ATOM     45  OD1 ASP d   1      19.987   2.187  24.977  0.00  0.00    -0.648 OA
ATOM     46  OD2 ASP d   1      20.380   4.359  24.956  0.00  0.00    -0.648 OA
ENDBRANCH  41  44
ENDBRANCH  17  41
ENDBRANCH  15  17
ENDBRANCH  11  13
BRANCH  11  47
ATOM     47  CB  LEU d   1      14.669   0.763  22.330  0.00  0.00    -0.035 C 
ATOM     48  H37 LEU d   1      14.027   0.690  23.220  0.00  0.00     0.037 H 
ATOM     49  H38 LEU d   1      15.220  -0.180  22.197  0.00  0.00     0.037 H 
BRANCH  47  50
ATOM     50  CG  LEU d   1      13.746   0.926  21.114  0.00  0.00    -0.059 C 
ATOM     51  H39 LEU d   1      14.377   0.898  20.214  0.00  0.00     0.038 H 
BRANCH  50  52
ATOM     52  CD1 LEU d   1      12.782  -0.245  21.049  0.00  0.00    -0.073 C 
ATOM     53  H40 LEU d   1      12.121  -0.128  20.178  0.00  0.00     0.028 H 
ATOM     54  H41 LEU d   1      12.177  -0.273  21.967  0.00  0.00     0.028 H 
ATOM     55  H42 LEU d   1      13.350  -1.183  20.955  0.00  0.00     0.028 H 
ENDBRANCH  50  52
BRANCH  50  56
ATOM     56  CD2 LEU d   1      12.987   2.255  21.095  0.00  0.00    -0.073 C 
ATOM     57  H43 LEU d   1      13.704   3.088  21.143  0.00  0.00     0.028 H 
ATOM     58  H44 LEU d   1      12.311   2.304  21.961  0.00  0.00     0.028 H 
ATOM     59  H45 LEU d   1      12.401   2.329  20.167  0.00  0.00     0.028 H 
ENDBRANCH  50  56
ENDBRANCH  47  50
ENDBRANCH  11  47
ENDBRANCH   9  11
ENDBRANCH   5   7
BRANCH   5  60
ATOM     60  CB  VAL d   1      19.550   3.488  20.552  0.00  0.00    -0.033 C 
ATOM     61  H28 VAL d   1      19.389   4.567  20.693  0.00  0.00     0.042 H 
BRANCH  60  62
ATOM     62  CG1 VAL d   1      19.862   2.871  21.914  0.00  0.00    -0.071 C 
ATOM     63  H29 VAL d   1      20.782   3.320  22.318  0.00  0.00     0.028 H 
ATOM     64  H30 VAL d   1      20.002   1.786  21.802  0.00  0.00     0.028 H 
ATOM     65  H31 VAL d   1      19.027   3.063  22.604  0.00  0.00     0.028 H 
ENDBRANCH  60  62
BRANCH  60  66
ATOM     66  CG2 VAL d   1      20.717   3.301  19.586  0.00  0.00    -0.071 C 
ATOM     67  H32 VAL d   1      20.466   3.754  18.616  0.00  0.00     0.028 H 
ATOM     68  H33 VAL d   1      20.912   2.227  19.450  0.00  0.00     0.028 H 
ATOM     69  H34 VAL d   1      21.614   3.788  19.996  0.00  0.00     0.028 H 
ENDBRANCH  60  66
ENDBRANCH   5  60
ENDBRANCH   3   5
BRANCH   1  70
ATOM     70  CA  GLU d   1      16.597   3.797  16.661  0.00  0.00     0.090 C 
ATOM     71  H21 GLU d   1      17.209   4.709  16.604  0.00  0.00     0.087 H 
BRANCH  70  72
ATOM     72  N   GLU d   1      16.783   3.018  15.442  0.00  0.00    -0.346 N 
ATOM     73  C   TYR d   1      17.659   3.373  14.507  0.00  0.00     0.241 C 
ATOM     74  O   TYR d   1      18.199   4.473  14.485  0.00  0.00    -0.271 OA
ATOM     75  H20 GLU d   1      16.235   2.192  15.306  0.00  0.00     0.163 HD
BRANCH  73  76
ATOM     76  CA  TYR d   1      17.977   2.336  13.436  0.00  0.00     0.093 C 
ATOM     77  H12 TYR d   1      17.056   1.810  13.144  0.00  0.00     0.088 H 
BRANCH  76  78
ATOM     78  N   TYR d   1      18.526   3.037  12.287  0.00  0.00    -0.346 N 
ATOM     79  C   SEP d   1      17.757   3.580  11.355  0.00  0.00     0.243 C 
ATOM     80  O   SEP d   1      16.533   3.417  11.311  0.00  0.00    -0.271 OA
ATOM     81  H11 TYR d   1      19.519   3.112  12.197  0.00  0.00     0.163 HD
BRANCH  79  82
ATOM     82  CA  SEP d   1      18.488   4.394  10.310  0.00  0.00     0.110 C 
ATOM     83  H8  SEP d   1      19.451   3.904  10.106  0.00  0.00     0.090 H 
BRANCH  82  84
ATOM     84  N   SEP d   1      17.714   4.375   9.064  0.00  0.00    -0.344 N 
ATOM     85  C   ASP d   1      17.708   3.288   8.294  0.00  0.00     0.249 C 
ATOM     86  O   ASP d   1      18.464   2.333   8.488  0.00  0.00    -0.271 OA
ATOM     87  H7  SEP d   1      17.189   5.181   8.792  0.00  0.00     0.163 HD
BRANCH  85  88
ATOM     88  CA  ASP d   1      16.718   3.252   7.125  0.00  0.00     0.185 C 
ATOM     89  H4  ASP d   1      16.613   2.203   6.811  0.00  0.00     0.100 H 
BRANCH  88  90
ATOM     90  N   ASP d   1      15.359   3.738   7.525  0.00  0.00    -0.066 N 
ATOM     91  H1  ASP d   1      14.741   3.698   6.730  0.00  0.00     0.275 HD
ATOM     92  H2  ASP d   1      15.425   4.689   7.852  0.00  0.00     0.275 HD
ATOM     93  H3  ASP d   1      14.997   3.154   8.262  0.00  0.00     0.275 HD
ENDBRANCH  88  90
BRANCH  88  94
ATOM     94  CB  ASP d   1      17.270   4.043   5.931  0.00  0.00     0.050 C 
ATOM     95  H5  ASP d   1      17.372   5.098   6.225  0.00  0.00     0.052 H 
ATOM     96  H6  ASP d   1      16.558   3.962   5.096  0.00  0.00     0.052 H 
BRANCH  94  97
ATOM     97  CG  ASP d   1      18.634   3.532   5.462  0.00  0.00     0.175 C 
ATOM     98  OD1 ASP d   1      18.884   2.297   5.464  0.00  0.00    -0.648 OA
ATOM     99  OD2 ASP d   1      19.471   4.376   5.095  0.00  0.00    -0.648 OA
ENDBRANCH  94  97
ENDBRANCH  88  94
ENDBRANCH  85  88
ENDBRANCH  82  84
BRANCH  82 100
ATOM    100  CB  SEP d   1      18.801   5.797  10.838  0.00  0.00     0.059 C 
ATOM    101  H9  SEP d   1      19.517   6.285  10.160  0.00  0.00     0.079 H 
ATOM    102  H10 SEP d   1      19.245   5.713  11.841  0.00  0.00     0.079 H 
BRANCH 100 103
ATOM    103  OG  SEP d   1      17.620   6.591  10.917  0.00  0.00    -0.280 OA
BRANCH 103 104
ATOM    104  P   SEP d   1      17.375   7.956  10.078  0.00  0.00     0.422 P 
ATOM    105  O1P SEP d   1      18.374   7.981   8.940  0.00  0.00    -0.617 OA
ATOM    106  O2P SEP d   1      17.597   9.032  11.121  0.00  0.00    -0.617 OA
ATOM    107  O3P SEP d   1      15.943   7.851   9.599  0.00  0.00    -0.617 OA
ENDBRANCH 103 104
ENDBRANCH 100 103
ENDBRANCH  82 100
ENDBRANCH  79  82
ENDBRANCH  76  78
BRANCH  76 108
ATOM    108  CB  TYR d   1      18.990   1.319  13.970  0.00  0.00    -0.014 C 
ATOM    109  H13 TYR d   1      18.633   0.963  14.948  0.00  0.00     0.043 H 
ATOM    110  H14 TYR d   1      19.955   1.832  14.096  0.00  0.00     0.043 H 
BRANCH 108 111
ATOM    111  CG  TYR d   1      19.214   0.106  13.079  0.00  0.00    -0.056 A 
ATOM    112  CD1 TYR d   1      20.043   0.177  11.974  0.00  0.00    -0.074 A 
ATOM    113  CE1 TYR d   1      20.252  -0.927  11.158  0.00  0.00    -0.051 A 
ATOM    114  H15 TYR d   1      20.539   1.112  11.741  0.00  0.00     0.084 H 
ATOM    115  CZ  TYR d   1      19.625  -2.135  11.452  0.00  0.00     0.065 A 
ATOM    116  H17 TYR d   1      20.902  -0.849  10.294  0.00  0.00     0.087 H 
ATOM    117  CE2 TYR d   1      18.794  -2.228  12.552  0.00  0.00    -0.051 A 
ATOM    118  CD2 TYR d   1      18.586  -1.108  13.348  0.00  0.00    -0.074 A 
ATOM    119  H18 TYR d   1      18.308  -3.167  12.792  0.00  0.00     0.087 H 
ATOM    120  H16 TYR d   1      17.919  -1.181  14.199  0.00  0.00     0.084 H 
BRANCH 115 121
ATOM    121  OH  TYR d   1      19.841  -3.229  10.637  0.00  0.00    -0.361 OA
ATOM    122  H19 TYR d   1      20.434  -2.987   9.935  0.00  0.00     0.217 HD
ENDBRANCH 115 121
ENDBRANCH 108 111
ENDBRANCH  76 108
ENDBRANCH  73  76
ENDBRANCH  70  72
BRANCH  70 123
ATOM    123  CB  GLU d   1      15.127   4.201  16.827  0.00  0.00    -0.029 C 
ATOM    124  H22 GLU d   1      14.549   3.300  17.079  0.00  0.00     0.037 H 
ATOM    125  H23 GLU d   1      14.772   4.608  15.869  0.00  0.00     0.037 H 
BRANCH 123 126
ATOM    126  CG  GLU d   1      14.877   5.244  17.909  0.00  0.00     0.018 C 
ATOM    127  H24 GLU d   1      15.468   6.141  17.673  0.00  0.00     0.049 H 
ATOM    128  H25 GLU d   1      15.205   4.832  18.875  0.00  0.00     0.049 H 
BRANCH 126 129
ATOM    129  CD  GLU d   1      13.404   5.647  18.026  0.00  0.00     0.172 C 
ATOM    130  OE1 GLU d   1      12.903   5.750  19.181  0.00  0.00    -0.648 OA
ATOM    131  OE2 GLU d   1      12.742   5.844  16.970  0.00  0.00    -0.648 OA
ENDBRANCH 126 129
ENDBRANCH 123 126
ENDBRANCH  70 123
ENDBRANCH   1  70
TORSDOF 40
