REMARK  7 active torsions:
REMARK  status: ('A' for Active; 'I' for Inactive)
REMARK    1  A    between atoms: CAA_1  and  OAQ_2 
REMARK    2  A    between atoms: OAQ_2  and  CAS_3 
REMARK    3  A    between atoms: CAU_8  and  NBB_9 
REMARK    4  A    between atoms: NBA_14  and  CAP_15 
REMARK    5  A    between atoms: CAP_15  and  CAV_16 
REMARK    6  A    between atoms: CAT_25  and  OAC_26 
REMARK    7  A    between atoms: CAW_27  and  OAD_28 
ROOT
ATOM      1  NBB MOL d   1      39.966   8.285   2.897  0.00  0.00    -0.379 N 
ATOM      2  CAO MOL d   1      40.242   6.848   3.278  0.00  0.00     0.006 C 
ATOM      3  CAM MOL d   1      41.435   6.752   4.246  0.00  0.00    -0.002 C 
ATOM      4  CAN MOL d   1      40.525   9.365   3.803  0.00  0.00     0.006 C 
ATOM      5  CAL MOL d   1      40.689   8.853   5.318  0.00  0.00    -0.002 C 
ATOM      6  NBA MOL d   1      40.909   7.395   5.437  0.00  0.00    -0.289 NA
ATOM      7  H8  MOL d   1      40.470   6.272   2.369  0.00  0.00     0.066 H 
ATOM      8  H9  MOL d   1      39.350   6.427   3.764  0.00  0.00     0.066 H 
ATOM      9  H10 MOL d   1      42.311   7.290   3.855  0.00  0.00     0.058 H 
ATOM     10  H11 MOL d   1      41.706   5.704   4.444  0.00  0.00     0.058 H 
ATOM     11  H12 MOL d   1      39.842  10.227   3.791  0.00  0.00     0.066 H 
ATOM     12  H13 MOL d   1      41.511   9.672   3.423  0.00  0.00     0.066 H 
ATOM     13  H14 MOL d   1      39.775   9.112   5.872  0.00  0.00     0.058 H 
ATOM     14  H15 MOL d   1      41.549   9.371   5.768  0.00  0.00     0.058 H 
ENDROOT
BRANCH   6  15
ATOM     15  CAP MOL d   1      41.888   7.131   6.546  0.00  0.00    -0.035 C 
ATOM     16  H16 MOL d   1      42.809   7.703   6.652  0.00  0.00     0.103 H 
BRANCH  15  17
ATOM     17  CAV MOL d   1      41.524   6.045   7.486  0.00  0.00    -0.025 A 
ATOM     18  CAK MOL d   1      40.366   5.231   7.367  0.00  0.00     0.042 A 
ATOM     19  CAX MOL d   1      40.024   4.194   8.241  0.00  0.00     0.268 A 
ATOM     20  H17 MOL d   1      40.434   4.766   6.372  0.00  0.00     0.055 H 
ATOM     21  H18 MOL d   1      39.514   5.927   7.389  0.00  0.00     0.055 H 
ATOM     22  OAB MOL d   1      38.971   3.592   8.023  0.00  0.00    -0.265 OA
ATOM     23  OAR MOL d   1      40.852   3.878   9.278  0.00  0.00    -0.275 OA
ATOM     24  CAZ MOL d   1      42.039   4.580   9.405  0.00  0.00     0.126 A 
ATOM     25  CAY MOL d   1      42.385   5.658   8.548  0.00  0.00     0.009 A 
ATOM     26  CAW MOL d   1      42.901   4.186  10.423  0.00  0.00     0.134 A 
ATOM     27  CAJ MOL d   1      43.634   6.276   8.785  0.00  0.00    -0.067 A 
ATOM     28  CAI MOL d   1      44.499   5.882   9.813  0.00  0.00    -0.047 A 
ATOM     29  H19 MOL d   1      43.936   7.093   8.140  0.00  0.00     0.085 H 
ATOM     30  CAT MOL d   1      44.137   4.834  10.637  0.00  0.00     0.101 A 
ATOM     31  H20 MOL d   1      45.443   6.394   9.961  0.00  0.00     0.087 H 
BRANCH  30  32
ATOM     32  OAC MOL d   1      44.963   4.430  11.639  0.00  0.00    -0.358 OA
ATOM     33  H21 MOL d   1      44.563   3.704  12.104  0.00  0.00     0.217 HD
ENDBRANCH  30  32
BRANCH  26  34
ATOM     34  OAD MOL d   1      42.484   3.150  11.200  0.00  0.00    -0.356 OA
ATOM     35  H22 MOL d   1      43.110   2.438  11.139  0.00  0.00     0.218 HD
ENDBRANCH  26  34
ENDBRANCH  15  17
ENDBRANCH   6  15
BRANCH   1  36
ATOM     36  CAU MOL d   1      39.188   8.537   1.787  0.00  0.00     0.030 A 
ATOM     37  CAH MOL d   1      39.257   7.777   0.591  0.00  0.00    -0.055 A 
ATOM     38  CAF MOL d   1      38.420   8.057  -0.502  0.00  0.00    -0.049 A 
ATOM     39  H5  MOL d   1      39.970   6.964   0.519  0.00  0.00     0.087 H 
ATOM     40  CAS MOL d   1      37.485   9.098  -0.429  0.00  0.00     0.068 A 
ATOM     41  H4  MOL d   1      38.498   7.465  -1.407  0.00  0.00     0.087 H 
ATOM     42  CAE MOL d   1      37.405   9.852   0.742  0.00  0.00    -0.049 A 
ATOM     43  CAG MOL d   1      38.234   9.571   1.829  0.00  0.00    -0.055 A 
ATOM     44  H6  MOL d   1      36.691  10.665   0.808  0.00  0.00     0.087 H 
ATOM     45  H7  MOL d   1      38.141  10.165   2.731  0.00  0.00     0.087 H 
BRANCH  40  46
ATOM     46  OAQ MOL d   1      36.651   9.400  -1.477  0.00  0.00    -0.356 OA
BRANCH  46  47
ATOM     47  CAA MOL d   1      35.219   9.295  -1.217  0.00  0.00     0.010 C 
ATOM     48  H1  MOL d   1      34.661   9.560  -2.127  0.00  0.00     0.066 H 
ATOM     49  H2  MOL d   1      34.943   9.982  -0.404  0.00  0.00     0.066 H 
ATOM     50  H3  MOL d   1      34.974   8.263  -0.924  0.00  0.00     0.066 H 
ENDBRANCH  46  47
ENDBRANCH  40  46
ENDBRANCH   1  36
TORSDOF 7
