REMARK  6 active torsions:
REMARK  status: ('A' for Active; 'I' for Inactive)
REMARK    1  A    between atoms: CAA_1  and  CAH_2 
REMARK    2  A    between atoms: CAH_2  and  CAI_3 
REMARK    3  A    between atoms: CAI_3  and  CAJ_4 
REMARK    4  A    between atoms: CAJ_4  and  CAM_5 
REMARK    5  A    between atoms: CAL_14  and  OAC_15 
REMARK    6  A    between atoms: CAN_16  and  OAD_17 
ROOT
ATOM      1  CAM MOL d   1      -3.084   5.743  32.095  0.00  0.00    -0.039 A 
ATOM      2  CAG MOL d   1      -2.333   6.938  32.094  0.00  0.00    -0.003 A 
ATOM      3  CAO MOL d   1      -1.558   7.328  30.983  0.00  0.00     0.288 A 
ATOM      4  OAB MOL d   1      -0.946   8.391  31.048  0.00  0.00    -0.260 OA
ATOM      5  OAK MOL d   1      -1.426   6.514  29.900  0.00  0.00    -0.272 OA
ATOM      6  CAQ MOL d   1      -2.090   5.314  29.891  0.00  0.00     0.126 A 
ATOM      7  CAP MOL d   1      -2.941   4.904  30.958  0.00  0.00     0.007 A 
ATOM      8  CAF MOL d   1      -3.586   3.643  30.817  0.00  0.00    -0.067 A 
ATOM      9  CAE MOL d   1      -3.392   2.844  29.680  0.00  0.00    -0.047 A 
ATOM     10  CAL MOL d   1      -2.550   3.260  28.647  0.00  0.00     0.101 A 
ATOM     11  CAN MOL d   1      -1.889   4.508  28.760  0.00  0.00     0.134 A 
ATOM     12  H10 MOL d   1      -2.353   7.577  32.976  0.00  0.00     0.093 H 
ATOM     13  H11 MOL d   1      -4.242   3.292  31.606  0.00  0.00     0.085 H 
ATOM     14  H12 MOL d   1      -3.903   1.891  29.603  0.00  0.00     0.087 H 
ENDROOT
BRANCH   1  15
ATOM     15  CAJ MOL d   1      -3.863   5.413  33.245  0.00  0.00    -0.040 C 
ATOM     16  H8  MOL d   1      -3.647   4.378  33.548  0.00  0.00     0.040 H 
ATOM     17  H9  MOL d   1      -3.608   6.097  34.068  0.00  0.00     0.040 H 
BRANCH  15  18
ATOM     18  CAI MOL d   1      -5.359   5.547  32.913  0.00  0.00    -0.062 C 
ATOM     19  H6  MOL d   1      -5.500   6.394  32.225  0.00  0.00     0.033 H 
ATOM     20  H7  MOL d   1      -5.704   4.621  32.430  0.00  0.00     0.033 H 
BRANCH  18  21
ATOM     21  CAH MOL d   1      -6.186   5.788  34.179  0.00  0.00    -0.068 C 
ATOM     22  H4  MOL d   1      -5.767   5.194  35.005  0.00  0.00     0.032 H 
ATOM     23  H5  MOL d   1      -6.148   6.856  34.439  0.00  0.00     0.032 H 
BRANCH  21  24
ATOM     24  CAA MOL d   1      -7.662   5.370  33.946  0.00  0.00    -0.077 C 
ATOM     25  H1  MOL d   1      -8.243   5.549  34.863  0.00  0.00     0.027 H 
ATOM     26  H2  MOL d   1      -7.704   4.302  33.688  0.00  0.00     0.027 H 
ATOM     27  H3  MOL d   1      -8.085   5.963  33.122  0.00  0.00     0.027 H 
ENDBRANCH  21  24
ENDBRANCH  18  21
ENDBRANCH  15  18
ENDBRANCH   1  15
BRANCH  11  28
ATOM     28  OAD MOL d   1      -1.054   4.995  27.792  0.00  0.00    -0.356 OA
ATOM     29  H14 MOL d   1      -0.332   4.391  27.665  0.00  0.00     0.218 HD
ENDBRANCH  11  28
BRANCH  10  30
ATOM     30  OAC MOL d   1      -2.349   2.484  27.548  0.00  0.00    -0.358 OA
ATOM     31  H13 MOL d   1      -1.751   2.925  26.956  0.00  0.00     0.217 HD
ENDBRANCH  10  30
TORSDOF 6
