REMARK  7 active torsions:
REMARK  status: ('A' for Active; 'I' for Inactive)
REMARK    1  A    between atoms: CAA_1  and  OAQ_2 
REMARK    2  A    between atoms: OAQ_2  and  CAS_3 
REMARK    3  A    between atoms: CAU_8  and  NBB_9 
REMARK    4  A    between atoms: NBA_14  and  CAP_15 
REMARK    5  A    between atoms: CAP_15  and  CAV_16 
REMARK    6  A    between atoms: CAT_25  and  OAC_26 
REMARK    7  A    between atoms: CAW_27  and  OAD_28 
ROOT
ATOM      1  NBB MOL d   1      -4.112  23.903  34.228  0.00  0.00    -0.378 N 
ATOM      2  CAO MOL d   1      -4.127  23.844  35.743  0.00  0.00     0.018 C 
ATOM      3  CAM MOL d   1      -2.868  24.322  36.486  0.00  0.00     0.098 C 
ATOM      4  CAN MOL d   1      -3.602  25.134  33.647  0.00  0.00     0.018 C 
ATOM      5  CAL MOL d   1      -2.527  25.740  34.594  0.00  0.00     0.098 C 
ATOM      6  NBA MOL d   1      -1.867  24.741  35.485  0.00  0.00    -0.064 N 
ATOM      7  H8  MOL d   1      -4.301  22.796  36.030  0.00  0.00     0.066 H 
ATOM      8  H9  MOL d   1      -4.968  24.463  36.088  0.00  0.00     0.066 H 
ATOM      9  H10 MOL d   1      -2.462  23.501  37.096  0.00  0.00     0.078 H 
ATOM     10  H11 MOL d   1      -3.121  25.172  37.137  0.00  0.00     0.078 H 
ATOM     11  H12 MOL d   1      -4.427  25.851  33.521  0.00  0.00     0.066 H 
ATOM     12  H13 MOL d   1      -3.150  24.919  32.667  0.00  0.00     0.066 H 
ATOM     13  H14 MOL d   1      -3.011  26.499  35.226  0.00  0.00     0.078 H 
ATOM     14  H15 MOL d   1      -1.752  26.217  33.976  0.00  0.00     0.078 H 
ATOM     15  H16 MOL d   1      -1.594  23.928  34.955  0.00  0.00     0.280 HD
ENDROOT
BRANCH   6  16
ATOM     16  CAP MOL d   1      -0.653  25.383  35.999  0.00  0.00     0.108 C 
ATOM     17  H17 MOL d   1      -0.958  26.313  36.501  0.00  0.00     0.083 H 
ATOM     18  H18 MOL d   1      -0.016  25.625  35.136  0.00  0.00     0.083 H 
BRANCH  16  19
ATOM     19  CAV MOL d   1       0.147  24.631  36.930  0.00  0.00    -0.014 A 
ATOM     20  CAK MOL d   1       0.035  25.028  38.256  0.00  0.00    -0.002 A 
ATOM     21  CAX MOL d   1       0.804  24.426  39.238  0.00  0.00     0.288 A 
ATOM     22  H19 MOL d   1      -0.663  25.819  38.526  0.00  0.00     0.093 H 
ATOM     23  OAB MOL d   1       0.576  24.865  40.356  0.00  0.00    -0.260 OA
ATOM     24  OAR MOL d   1       1.680  23.370  38.972  0.00  0.00    -0.272 OA
ATOM     25  CAZ MOL d   1       1.866  22.965  37.648  0.00  0.00     0.126 A 
ATOM     26  CAY MOL d   1       1.099  23.602  36.620  0.00  0.00     0.009 A 
ATOM     27  CAW MOL d   1       2.812  21.924  37.337  0.00  0.00     0.134 A 
ATOM     28  CAJ MOL d   1       1.344  23.159  35.297  0.00  0.00    -0.067 A 
ATOM     29  CAI MOL d   1       2.269  22.143  34.975  0.00  0.00    -0.047 A 
ATOM     30  H20 MOL d   1       0.792  23.625  34.489  0.00  0.00     0.085 H 
ATOM     31  CAT MOL d   1       3.008  21.521  35.995  0.00  0.00     0.101 A 
ATOM     32  H21 MOL d   1       2.409  21.843  33.943  0.00  0.00     0.087 H 
BRANCH  31  33
ATOM     33  OAC MOL d   1       3.927  20.541  35.729  0.00  0.00    -0.358 OA
ATOM     34  H22 MOL d   1       4.319  20.247  36.543  0.00  0.00     0.217 HD
ENDBRANCH  31  33
BRANCH  27  35
ATOM     35  OAD MOL d   1       3.554  21.295  38.316  0.00  0.00    -0.356 OA
ATOM     36  H23 MOL d   1       4.479  21.433  38.148  0.00  0.00     0.218 HD
ENDBRANCH  27  35
ENDBRANCH  16  19
ENDBRANCH   6  16
BRANCH   1  37
ATOM     37  CAU MOL d   1      -4.694  22.926  33.457  0.00  0.00     0.030 A 
ATOM     38  CAH MOL d   1      -4.182  22.448  32.238  0.00  0.00    -0.055 A 
ATOM     39  CAF MOL d   1      -4.864  21.438  31.526  0.00  0.00    -0.049 A 
ATOM     40  H5  MOL d   1      -3.259  22.857  31.843  0.00  0.00     0.087 H 
ATOM     41  CAS MOL d   1      -6.077  20.895  31.993  0.00  0.00     0.068 A 
ATOM     42  H4  MOL d   1      -4.444  21.071  30.597  0.00  0.00     0.087 H 
ATOM     43  CAE MOL d   1      -6.586  21.362  33.200  0.00  0.00    -0.049 A 
ATOM     44  CAG MOL d   1      -5.903  22.359  33.891  0.00  0.00    -0.055 A 
ATOM     45  H6  MOL d   1      -7.507  20.953  33.599  0.00  0.00     0.087 H 
ATOM     46  H7  MOL d   1      -6.330  22.719  34.820  0.00  0.00     0.087 H 
BRANCH  41  47
ATOM     47  OAQ MOL d   1      -6.729  19.910  31.294  0.00  0.00    -0.356 OA
BRANCH  47  48
ATOM     48  CAA MOL d   1      -8.172  19.869  31.314  0.00  0.00     0.010 C 
ATOM     49  H1  MOL d   1      -8.523  19.022  30.706  0.00  0.00     0.066 H 
ATOM     50  H2  MOL d   1      -8.571  20.807  30.901  0.00  0.00     0.066 H 
ATOM     51  H3  MOL d   1      -8.521  19.746  32.350  0.00  0.00     0.066 H 
ENDBRANCH  47  48
ENDBRANCH  41  47
ENDBRANCH   1  37
TORSDOF 7
