REMARK  6 active torsions:
REMARK  status: ('A' for Active; 'I' for Inactive)
REMARK    1  A    between atoms: CAA_1  and  CAH_2 
REMARK    2  A    between atoms: CAH_2  and  CAI_3 
REMARK    3  A    between atoms: CAI_3  and  CAJ_4 
REMARK    4  A    between atoms: CAJ_4  and  CAM_5 
REMARK    5  A    between atoms: CAL_14  and  OAC_15 
REMARK    6  A    between atoms: CAN_16  and  OAD_17 
ROOT
ATOM      1  CAM MOL d   1      22.417  12.944  76.006  0.00  0.00    -0.039 A 
ATOM      2  CAG MOL d   1      22.572  12.629  74.659  0.00  0.00    -0.003 A 
ATOM      3  CAO MOL d   1      21.851  11.561  74.086  0.00  0.00     0.288 A 
ATOM      4  OAB MOL d   1      22.087  11.247  72.915  0.00  0.00    -0.260 OA
ATOM      5  OAK MOL d   1      20.876  10.909  74.793  0.00  0.00    -0.272 OA
ATOM      6  CAQ MOL d   1      20.681  11.218  76.112  0.00  0.00     0.126 A 
ATOM      7  CAP MOL d   1      21.455  12.226  76.738  0.00  0.00     0.007 A 
ATOM      8  CAF MOL d   1      21.221  12.436  78.123  0.00  0.00    -0.067 A 
ATOM      9  CAE MOL d   1      20.231  11.702  78.827  0.00  0.00    -0.047 A 
ATOM     10  CAL MOL d   1      19.459  10.735  78.167  0.00  0.00     0.101 A 
ATOM     11  CAN MOL d   1      19.686  10.502  76.817  0.00  0.00     0.134 A 
ATOM     12  H10 MOL d   1      23.255  13.212  74.043  0.00  0.00     0.093 H 
ATOM     13  H11 MOL d   1      21.812  13.173  78.654  0.00  0.00     0.085 H 
ATOM     14  H12 MOL d   1      20.070  11.890  79.882  0.00  0.00     0.087 H 
ENDROOT
BRANCH   1  15
ATOM     15  CAJ MOL d   1      23.138  14.034  76.536  0.00  0.00    -0.040 C 
ATOM     16  H8  MOL d   1      23.512  14.649  75.704  0.00  0.00     0.040 H 
ATOM     17  H9  MOL d   1      22.461  14.635  77.161  0.00  0.00     0.040 H 
BRANCH  15  18
ATOM     18  CAI MOL d   1      24.337  13.581  77.396  0.00  0.00    -0.062 C 
ATOM     19  H6  MOL d   1      24.039  12.719  78.010  0.00  0.00     0.033 H 
ATOM     20  H7  MOL d   1      25.168  13.291  76.737  0.00  0.00     0.033 H 
BRANCH  18  21
ATOM     21  CAH MOL d   1      24.796  14.736  78.322  0.00  0.00    -0.068 C 
ATOM     22  H4  MOL d   1      24.966  15.643  77.722  0.00  0.00     0.032 H 
ATOM     23  H5  MOL d   1      24.019  14.934  79.075  0.00  0.00     0.032 H 
BRANCH  21  24
ATOM     24  CAA MOL d   1      26.105  14.332  79.027  0.00  0.00    -0.077 C 
ATOM     25  H1  MOL d   1      26.434  15.149  79.685  0.00  0.00     0.027 H 
ATOM     26  H2  MOL d   1      26.881  14.133  78.273  0.00  0.00     0.027 H 
ATOM     27  H3  MOL d   1      25.934  13.425  79.626  0.00  0.00     0.027 H 
ENDBRANCH  21  24
ENDBRANCH  18  21
ENDBRANCH  15  18
ENDBRANCH   1  15
BRANCH  11  28
ATOM     28  OAD MOL d   1      18.932   9.556  76.193  0.00  0.00    -0.356 OA
ATOM     29  H14 MOL d   1      19.189   9.499  75.280  0.00  0.00     0.218 HD
ENDBRANCH  11  28
BRANCH  10  30
ATOM     30  OAC MOL d   1      18.497  10.006  78.770  0.00  0.00    -0.358 OA
ATOM     31  H13 MOL d   1      18.105   9.416  78.137  0.00  0.00     0.217 HD
ENDBRANCH  10  30
TORSDOF 6
