REMARK  9 active torsions:
REMARK  status: ('A' for Active; 'I' for Inactive)
REMARK    1  A    between atoms: C6_3  and  NAB_27 
REMARK    2  A    between atoms: NBN_31  and  CAA_7 
REMARK    3  A    between atoms: CAP_15  and  CAO_14 
REMARK    4  A    between atoms: CBB_20  and  CAP_15 
REMARK    5  A    between atoms: CAS_18  and  CBG_24 
REMARK    6  A    between atoms: OAZ_34  and  CAS_18 
REMARK       I    between atoms: NBM_30  and  CBB_20 
REMARK    7  A    between atoms: CBH_25  and  CBE_22 
REMARK    8  A    between atoms: CBF_23  and  OAZ_34 
REMARK    9  A    between atoms: CBL_26  and  NBO_32 
ROOT
ATOM      1  C4  80U d   1      26.119  12.839  38.809  0.00  0.00     0.164 A 
ATOM      2  C5  80U d   1      27.275  13.207  39.355  0.00  0.00     0.088 A 
ATOM      3  C6  80U d   1      27.739  14.449  39.215  0.00  0.00     0.139 A 
ATOM      4  N1  80U d   1      27.063  15.374  38.523  0.00  0.00    -0.224 NA
ATOM      5  N3  80U d   1      25.387  13.712  38.102  0.00  0.00    -0.222 NA
ATOM      6  C2  80U d   1      25.846  15.021  37.938  0.00  0.00     0.091 A 
ATOM      7  CBH 80U d   1      27.712  12.112  39.960  0.00  0.00     0.105 A 
ATOM      8  NAY 80U d   1      26.828  11.138  39.774  0.00  0.00    -0.169 NA
ATOM      9  NBO 80U d   1      25.922  11.554  39.110  0.00  0.00    -0.244 N 
ATOM     10  H1  80U d   1      25.271  15.744  37.371  0.00  0.00     0.146 H 
ENDROOT
BRANCH   7  11
ATOM     11  CBE 80U d   1      28.833  11.962  40.665  0.00  0.00    -0.003 A 
ATOM     12  CAJ 80U d   1      29.765  11.001  40.289  0.00  0.00    -0.068 A 
ATOM     13  CAK 80U d   1      30.930  10.824  41.028  0.00  0.00    -0.048 A 
ATOM     14  H6  80U d   1      29.583  10.386  39.415  0.00  0.00     0.085 H 
ATOM     15  CBF 80U d   1      31.161  11.609  42.158  0.00  0.00     0.091 A 
ATOM     16  H7  80U d   1      31.657  10.078  40.727  0.00  0.00     0.087 H 
ATOM     17  CBD 80U d   1      30.228  12.563  42.541  0.00  0.00     0.068 A 
ATOM     18  CAM 80U d   1      29.063  12.736  41.799  0.00  0.00    -0.047 A 
ATOM     19 CLA  80U d   1      30.531  13.526  43.945  0.00  0.00    -0.081 Cl
ATOM     20  H9  80U d   1      28.332  13.476  42.105  0.00  0.00     0.087 H 
BRANCH  15  21
ATOM     21  OAZ 80U d   1      32.267  11.528  42.967  0.00  0.00    -0.342 OA
BRANCH  21  22
ATOM     22  CAS 80U d   1      33.297  10.596  42.599  0.00  0.00     0.081 C 
ATOM     23  H21 80U d   1      33.823  10.253  43.502  0.00  0.00     0.087 H 
ATOM     24  H22 80U d   1      32.846   9.733  42.087  0.00  0.00     0.087 H 
BRANCH  22  25
ATOM     25  CBG 80U d   1      34.288  11.286  41.662  0.00  0.00     0.129 A 
ATOM     26  NAW 80U d   1      34.702  10.800  40.499  0.00  0.00    -0.244 NA
ATOM     27  CAH 80U d   1      35.549  11.695  39.998  0.00  0.00     0.019 A 
ATOM     28  CAL 80U d   1      35.645  12.714  40.853  0.00  0.00    -0.003 A 
ATOM     29  H5  80U d   1      36.076  11.610  39.049  0.00  0.00     0.117 H 
ATOM     30  NBN 80U d   1      34.856  12.460  41.894  0.00  0.00    -0.346 N 
ATOM     31  H8  80U d   1      36.263  13.601  40.722  0.00  0.00     0.113 H 
BRANCH  30  32
ATOM     32  CAA 80U d   1      34.655  13.319  43.080  0.00  0.00    -0.013 C 
ATOM     33  H2  80U d   1      35.265  14.229  42.981  0.00  0.00     0.057 H 
ATOM     34  H3  80U d   1      34.958  12.772  43.985  0.00  0.00     0.057 H 
ATOM     35  H4  80U d   1      33.593  13.595  43.157  0.00  0.00     0.057 H 
ENDBRANCH  30  32
ENDBRANCH  22  25
ENDBRANCH  21  22
ENDBRANCH  15  21
ENDBRANCH   7  11
BRANCH   3  36
ATOM     36  NAB 80U d   1      28.903  14.724  39.795  0.00  0.00    -0.383 N 
ATOM     37  H26 80U d   1      29.306  15.668  39.718  0.00  0.00     0.157 HD
ATOM     38  H27 80U d   1      29.401  13.993  40.322  0.00  0.00     0.157 HD
ENDBRANCH   3  36
BRANCH   9  39
ATOM     39  CBL 80U d   1      24.742  10.762  38.704  0.00  0.00     0.052 C 
ATOM     40  CAQ 80U d   1      23.719  10.781  39.836  0.00  0.00    -0.041 C 
ATOM     41  CAN 80U d   1      22.489   9.975  39.470  0.00  0.00    -0.048 C 
ATOM     42  H17 80U d   1      24.175  10.351  40.740  0.00  0.00     0.036 H 
ATOM     43  H18 80U d   1      23.422  11.821  40.035  0.00  0.00     0.036 H 
ATOM     44  CAR 80U d   1      22.899   8.535  39.288  0.00  0.00    -0.002 C 
ATOM     45  H10 80U d   1      22.058  10.360  38.534  0.00  0.00     0.035 H 
ATOM     46  H11 80U d   1      21.743  10.050  40.275  0.00  0.00     0.035 H 
ATOM     47  NBM 80U d   1      23.927   8.454  38.236  0.00  0.00    -0.350 N 
ATOM     48  H19 80U d   1      22.024   7.937  38.994  0.00  0.00     0.064 H 
ATOM     49  H20 80U d   1      23.308   8.146  40.233  0.00  0.00     0.064 H 
ATOM     50  CAU 80U d   1      25.125   9.327  38.341  0.00  0.00     0.018 C 
ATOM     51  CBB 80U d   1      23.724   7.604  37.214  0.00  0.00     0.219 C 
ATOM     52  H23 80U d   1      25.792   8.927  39.119  0.00  0.00     0.067 H 
ATOM     53  H24 80U d   1      25.650   9.331  37.375  0.00  0.00     0.067 H 
ATOM     54  OAE 80U d   1      22.728   6.889  37.128  0.00  0.00    -0.273 OA
ATOM     55  H25 80U d   1      24.294  11.232  37.816  0.00  0.00     0.078 H 
BRANCH  51  56
ATOM     56  CAP 80U d   1      24.805   7.552  36.130  0.00  0.00     0.006 C 
ATOM     57  H15 80U d   1      25.148   8.572  35.902  0.00  0.00     0.046 H 
ATOM     58  H16 80U d   1      25.654   6.950  36.485  0.00  0.00     0.046 H 
BRANCH  56  59
ATOM     59  CAO 80U d   1      24.215   6.915  34.869  0.00  0.00    -0.068 C 
ATOM     60  H12 80U d   1      24.985   6.873  34.084  0.00  0.00     0.028 H 
ATOM     61  H13 80U d   1      23.365   7.518  34.517  0.00  0.00     0.028 H 
ATOM     62  H14 80U d   1      23.871   5.896  35.099  0.00  0.00     0.028 H 
ENDBRANCH  56  59
ENDBRANCH  51  56
ENDBRANCH   9  39
TORSDOF 9
