REMARK  6 active torsions:
REMARK  status: ('A' for Active; 'I' for Inactive)
REMARK    1  A    between atoms: C1_1  and  C2_4 
REMARK    2  A    between atoms: C2_4  and  C3_5 
REMARK    3  A    between atoms: C3_5  and  O7_6 
REMARK    4  A    between atoms: C3_5  and  C4_7 
REMARK    5  A    between atoms: C3_5  and  C6_11 
REMARK    6  A    between atoms: C4_7  and  C5_8 
ROOT
ATOM      1  C3  CIT d   1      14.316   4.346  -3.771  0.00  0.00     0.164 C 
ENDROOT
BRANCH   1   2
ATOM      2  C2  CIT d   1      14.668   4.950  -5.131  0.00  0.00     0.054 C 
ATOM      3  H1  CIT d   1      14.263   5.972  -5.178  0.00  0.00     0.054 H 
ATOM      4  H2  CIT d   1      15.763   4.984  -5.228  0.00  0.00     0.054 H 
BRANCH   2   5
ATOM      5  C1  CIT d   1      14.104   4.152  -6.287  0.00  0.00     0.176 C 
ATOM      6  O1  CIT d   1      14.833   3.919  -7.304  0.00  0.00    -0.648 OA
ATOM      7  O2  CIT d   1      12.921   3.711  -6.227  0.00  0.00    -0.648 OA
ENDBRANCH   2   5
ENDBRANCH   1   2
BRANCH   1   8
ATOM      8  O7  CIT d   1      14.692   2.985  -3.690  0.00  0.00    -0.378 OA
ATOM      9  H3  CIT d   1      14.459   2.644  -2.835  0.00  0.00     0.211 HD
ENDBRANCH   1   8
BRANCH   1  10
ATOM     10  C4  CIT d   1      15.013   5.176  -2.706  0.00  0.00     0.054 C 
ATOM     11  H4  CIT d   1      14.440   5.102  -1.770  0.00  0.00     0.054 H 
ATOM     12  H5  CIT d   1      15.040   6.224  -3.038  0.00  0.00     0.054 H 
BRANCH  10  13
ATOM     13  C5  CIT d   1      16.438   4.710  -2.444  0.00  0.00     0.176 C 
ATOM     14  O3  CIT d   1      17.411   5.088  -3.171  0.00  0.00    -0.648 OA
ATOM     15  O4  CIT d   1      16.634   3.953  -1.454  0.00  0.00    -0.648 OA
ENDBRANCH  10  13
ENDBRANCH   1  10
BRANCH   1  16
ATOM     16  C6  CIT d   1      12.837   4.466  -3.445  0.00  0.00     0.210 C 
ATOM     17  O5  CIT d   1      12.286   5.567  -3.662  0.00  0.00    -0.646 OA
ATOM     18  O6  CIT d   1      12.186   3.510  -2.930  0.00  0.00    -0.646 OA
ENDBRANCH   1  16
TORSDOF 6
