REMARK  9 active torsions:
REMARK  status: ('A' for Active; 'I' for Inactive)
REMARK    1  A    between atoms: PB_1  and  O3A_5 
REMARK    2  A    between atoms: O3A_5  and  PA_6 
REMARK    3  A    between atoms: PA_6  and  O5'_9 
REMARK    4  A    between atoms: O5'_9  and  C5'_10 
REMARK    5  A    between atoms: C5'_10  and  C4'_11 
REMARK    6  A    between atoms: C3'_13  and  O3'_14 
REMARK    7  A    between atoms: C2'_15  and  O2'_16 
REMARK    8  A    between atoms: C1'_17  and  N9_18 
REMARK    9  A    between atoms: C2_25  and  N2_26 
ROOT
ATOM      1  C4' GDP d   1       7.362 -10.302  34.262  0.00  0.00     0.089 C 
ATOM      2  O4' GDP d   1       8.518  -9.750  34.884  0.00  0.00    -0.353 OA
ATOM      3  C3' GDP d   1       6.172  -9.503  34.759  0.00  0.00     0.091 C 
ATOM      4  C2' GDP d   1       6.776  -8.238  35.313  0.00  0.00     0.105 C 
ATOM      5  C1' GDP d   1       8.133  -8.711  35.781  0.00  0.00     0.139 C 
ATOM      6  H3  GDP d   1       7.245 -11.364  34.525  0.00  0.00     0.090 H 
ATOM      7  H4  GDP d   1       5.451  -9.304  33.953  0.00  0.00     0.091 H 
ATOM      8  H6  GDP d   1       6.871  -7.466  34.535  0.00  0.00     0.093 H 
ATOM      9  H8  GDP d   1       8.076  -9.097  36.810  0.00  0.00     0.122 H 
ENDROOT
BRANCH   5  10
ATOM     10  N9  GDP d   1       9.086  -7.580  35.725  0.00  0.00    -0.295 N 
ATOM     11  C8  GDP d   1       9.282  -6.721  34.693  0.00  0.00     0.071 A 
ATOM     12  N7  GDP d   1      10.244  -5.816  35.010  0.00  0.00    -0.234 NA
ATOM     13  H9  GDP d   1       8.745  -6.753  33.746  0.00  0.00     0.144 H 
ATOM     14  C5  GDP d   1      10.677  -6.116  36.260  0.00  0.00     0.171 A 
ATOM     15  C6  GDP d   1      11.667  -5.584  37.203  0.00  0.00     0.292 A 
ATOM     16  C4  GDP d   1       9.900  -7.280  36.716  0.00  0.00     0.161 A 
ATOM     17  O6  GDP d   1      12.371  -4.590  36.921  0.00  0.00    -0.265 OA
ATOM     18  N1  GDP d   1      11.795  -6.176  38.406  0.00  0.00    -0.154 N 
ATOM     19  C2  GDP d   1      11.062  -7.248  38.768  0.00  0.00     0.680 A 
ATOM     20  H10 GDP d   1      12.459  -5.806  39.056  0.00  0.00     0.187 HD
ATOM     21  N3  GDP d   1      10.136  -7.808  37.952  0.00  0.00    -0.174 N 
ATOM     22  H13 GDP d   1       9.608  -8.635  38.266  0.00  0.00     0.186 HD
BRANCH  19  23
ATOM     23  N2  GDP d   1      11.258  -7.782  40.004  0.00  0.00    -0.234 N 
ATOM     24  H11 GDP d   1      10.710  -8.601  40.304  0.00  0.00     0.174 HD
ATOM     25  H12 GDP d   1      11.954  -7.367  40.640  0.00  0.00     0.174 HD
ENDBRANCH  19  23
ENDBRANCH   5  10
BRANCH   4  26
ATOM     26  O2' GDP d   1       5.996  -7.733  36.389  0.00  0.00    -0.388 OA
ATOM     27  H7  GDP d   1       5.956  -8.382  37.082  0.00  0.00     0.210 HD
ENDBRANCH   4  26
BRANCH   1  28
ATOM     28  C5' GDP d   1       7.522 -10.153  32.763  0.00  0.00     0.058 C 
ATOM     29  H1  GDP d   1       8.380 -10.750  32.421  0.00  0.00     0.079 H 
ATOM     30  H2  GDP d   1       6.609 -10.500  32.257  0.00  0.00     0.079 H 
BRANCH  28  31
ATOM     31  O5' GDP d   1       7.745  -8.771  32.459  0.00  0.00    -0.287 OA
BRANCH  31  32
ATOM     32  PA  GDP d   1       7.303  -8.243  31.020  0.00  0.00     0.418 P 
ATOM     33  O1A GDP d   1       5.891  -8.690  30.724  0.00  0.00    -0.624 OA
ATOM     34  O2A GDP d   1       7.494  -6.741  30.985  0.00  0.00    -0.624 OA
BRANCH  32  35
ATOM     35  O3A GDP d   1       8.402  -9.010  30.116  0.00  0.00    -0.173 OA
BRANCH  35  36
ATOM     36  PB  GDP d   1       8.418  -9.107  28.507  0.00  0.00     0.431 P 
ATOM     37  O1B GDP d   1       7.516  -8.053  27.880  0.00  0.00    -0.616 OA
ATOM     38  O2B GDP d   1       7.975 -10.499  28.119  0.00  0.00    -0.616 OA
ATOM     39  O3B GDP d   1       9.860  -8.933  28.098  0.00  0.00    -0.616 OA
ENDBRANCH  35  36
ENDBRANCH  32  35
ENDBRANCH  31  32
ENDBRANCH  28  31
ENDBRANCH   1  28
BRANCH   3  40
ATOM     40  O3' GDP d   1       5.548 -10.181  35.855  0.00  0.00    -0.390 OA
ATOM     41  H5  GDP d   1       4.805  -9.673  36.158  0.00  0.00     0.210 HD
ENDBRANCH   3  40
TORSDOF 9
