REMARK WARNING: 32 MAX_TORS EXCEEDED!!!
REMARK  81 active torsions:
REMARK  status: ('A' for Active; 'I' for Inactive)
REMARK    1  A    between atoms: N_1  and  CA_2 
REMARK    2  A    between atoms: CA_2  and  C_3 
REMARK    3  A    between atoms: CA_2  and  CB_5 
REMARK       I    between atoms: C_3  and  N_13 
REMARK    4  A    between atoms: CB_5  and  CG_6 
REMARK    5  A    between atoms: CZ_11  and  OH_12 
REMARK    6  A    between atoms: N_13  and  CA_14 
REMARK    7  A    between atoms: CA_14  and  C_15 
REMARK    8  A    between atoms: CA_14  and  CB_17 
REMARK       I    between atoms: C_15  and  N_20 
REMARK    9  A    between atoms: CB_17  and  CG1_18 
REMARK   10  A    between atoms: CB_17  and  CG2_19 
REMARK   11  A    between atoms: N_20  and  CA_21 
REMARK   12  A    between atoms: CA_21  and  C_22 
REMARK       I    between atoms: C_22  and  N_24 
REMARK   13  A    between atoms: N_24  and  CA_25 
REMARK   14  A    between atoms: CA_25  and  C_26 
REMARK   15  A    between atoms: CA_25  and  CB_28 
REMARK       I    between atoms: C_26  and  N_33 
REMARK   16  A    between atoms: CB_28  and  CG_29 
REMARK   17  A    between atoms: CG_29  and  CD_30 
REMARK   18  A    between atoms: N_33  and  CA_34 
REMARK   19  A    between atoms: CA_34  and  C_35 
REMARK   20  A    between atoms: CA_34  and  CB_37 
REMARK       I    between atoms: C_35  and  N_41 
REMARK   21  A    between atoms: CB_37  and  CG_38 
REMARK   22  A    between atoms: N_41  and  CA_42 
REMARK   23  A    between atoms: CA_42  and  C_43 
REMARK   24  A    between atoms: CA_42  and  CB_45 
REMARK       I    between atoms: C_43  and  N_49 
REMARK   25  A    between atoms: CB_45  and  CG_46 
REMARK   26  A    between atoms: N_49  and  CA_50 
REMARK   27  A    between atoms: CA_50  and  C_51 
REMARK   28  A    between atoms: CA_50  and  CB_53 
REMARK       I    between atoms: C_51  and  N_58 
REMARK   29  A    between atoms: CB_53  and  CG_54 
REMARK   30  A    between atoms: CG_54  and  CD_55 
REMARK   31  A    between atoms: N_58  and  CA_59 
REMARK   32  A    between atoms: CA_59  and  C_60 
REMARK   33  A    between atoms: CA_59  and  CB_62 
REMARK       I    between atoms: C_60  and  N_67 
REMARK   34  A    between atoms: CB_62  and  CG_63 
REMARK   35  A    between atoms: CG_63  and  CD_64 
REMARK   36  A    between atoms: N_67  and  CA_68 
REMARK   37  A    between atoms: CA_68  and  C_69 
REMARK   38  A    between atoms: CA_68  and  CB_71 
REMARK       I    between atoms: C_69  and  N_75 
REMARK   39  A    between atoms: CB_71  and  CG_72 
REMARK   40  A    between atoms: N_75  and  CA_76 
REMARK   41  A    between atoms: CA_76  and  C_77 
REMARK   42  A    between atoms: CA_76  and  CB_79 
REMARK       I    between atoms: C_77  and  N_83 
REMARK   43  A    between atoms: CB_79  and  CG_80 
REMARK   44  A    between atoms: N_83  and  CA_84 
REMARK   45  A    between atoms: CA_84  and  C_85 
REMARK   46  A    between atoms: CA_84  and  CB_87 
REMARK       I    between atoms: C_85  and  N_91 
REMARK   47  A    between atoms: CB_87  and  CG_88 
REMARK   48  A    between atoms: N_91  and  CA_92 
REMARK   49  A    between atoms: CA_92  and  C_93 
REMARK   50  A    between atoms: CA_92  and  CB_95 
REMARK       I    between atoms: C_93  and  N_102 
REMARK   51  A    between atoms: CB_95  and  CG_96 
REMARK   52  A    between atoms: N_102  and  CA_103 
REMARK   53  A    between atoms: CA_103  and  C_104 
REMARK   54  A    between atoms: CA_103  and  CB_106 
REMARK       I    between atoms: C_104  and  N_110 
REMARK   55  A    between atoms: CB_106  and  CG_107 
REMARK       I    between atoms: CG_107  and  ND2_109 
REMARK   56  A    between atoms: N_110  and  CA_111 
REMARK   57  A    between atoms: CA_111  and  C_112 
REMARK   58  A    between atoms: CA_111  and  CB_114 
REMARK       I    between atoms: C_112  and  N_119 
REMARK   59  A    between atoms: CB_114  and  CG_115 
REMARK   60  A    between atoms: CG_115  and  CD_116 
REMARK   61  A    between atoms: N_119  and  CA_120 
REMARK   62  A    between atoms: CA_120  and  C_121 
REMARK   63  A    between atoms: CA_120  and  CB_123 
REMARK       I    between atoms: C_121  and  N_127 
REMARK   64  A    between atoms: CB_123  and  CG_124 
REMARK       I    between atoms: CG_124  and  ND2_126 
REMARK   65  A    between atoms: N_127  and  CA_128 
REMARK   66  A    between atoms: CA_128  and  C_129 
REMARK   67  A    between atoms: CA_128  and  CB_131 
REMARK       I    between atoms: C_129  and  N_135 
REMARK   68  A    between atoms: CB_131  and  CG_132 
REMARK   69  A    between atoms: N_135  and  CA_136 
REMARK   70  A    between atoms: CA_136  and  C_137 
REMARK   71  A    between atoms: CA_136  and  CB_139 
REMARK       I    between atoms: C_137  and  N_144 
REMARK   72  A    between atoms: CB_139  and  CG_140 
REMARK   73  A    between atoms: CG_140  and  CD_141 
REMARK   74  A    between atoms: N_144  and  CA_145 
REMARK   75  A    between atoms: CA_145  and  C_146 
REMARK   76  A    between atoms: CA_145  and  CB_148 
REMARK       I    between atoms: C_146  and  N_152 
REMARK   77  A    between atoms: CB_148  and  CG_149 
REMARK   78  A    between atoms: N_152  and  CA_153 
REMARK   79  A    between atoms: CA_153  and  C_154 
REMARK   80  A    between atoms: CA_153  and  CB_156 
REMARK   81  A    between atoms: CB_156  and  CG_157 
ROOT
ATOM      1  CA  ASP d   1      -3.477   8.419  15.365  0.00  0.00     0.098 C 
ATOM      2  H55 ASP d   1      -2.994   7.446  15.541  0.00  0.00     0.088 H 
ENDROOT
BRANCH   1   3
ATOM      3  N   ASP d   1      -2.832   9.029  14.201  0.00  0.00    -0.345 N 
ATOM      4  C   ASP d   1      -1.634   8.649  13.805  0.00  0.00     0.241 C 
ATOM      5  O   ASP d   1      -0.996   7.757  14.363  0.00  0.00    -0.271 OA
ATOM      6  H54 ASP d   1      -3.310   9.748  13.697  0.00  0.00     0.163 HD
BRANCH   4   7
ATOM      7  CA  ASP d   1      -1.055   9.385  12.611  0.00  0.00     0.098 C 
ATOM      8  H51 ASP d   1      -1.868   9.637  11.914  0.00  0.00     0.088 H 
BRANCH   7   9
ATOM      9  N   ASP d   1      -0.410  10.608  13.042  0.00  0.00    -0.346 N 
ATOM     10  C   GLU d   1      -0.547  11.724  12.361  0.00  0.00     0.241 C 
ATOM     11  O   GLU d   1      -1.232  11.808  11.345  0.00  0.00    -0.271 OA
ATOM     12  H50 ASP d   1       0.149  10.603  13.871  0.00  0.00     0.163 HD
BRANCH  10  13
ATOM     13  CA  GLU d   1       0.200  12.927  12.886  0.00  0.00     0.090 C 
ATOM     14  H45 GLU d   1       0.677  12.667  13.842  0.00  0.00     0.087 H 
BRANCH  13  15
ATOM     15  N   GLU d   1       1.237  13.285  11.928  0.00  0.00    -0.346 N 
ATOM     16  C   GLU d   1       2.447  13.670  12.298  0.00  0.00     0.241 C 
ATOM     17  O   GLU d   1       2.801  13.747  13.475  0.00  0.00    -0.271 OA
ATOM     18  H44 GLU d   1       1.026  13.238  10.952  0.00  0.00     0.163 HD
BRANCH  16  19
ATOM     19  CA  GLU d   1       3.416  13.991  11.162  0.00  0.00     0.090 C 
ATOM     20  H39 GLU d   1       4.251  14.579  11.571  0.00  0.00     0.087 H 
BRANCH  19  21
ATOM     21  N   GLU d   1       3.959  12.751  10.613  0.00  0.00    -0.346 N 
ATOM     22  C   ASP d   1       4.666  12.695   9.484  0.00  0.00     0.241 C 
ATOM     23  O   ASP d   1       4.902  13.669   8.770  0.00  0.00    -0.271 OA
ATOM     24  H38 GLU d   1       3.792  11.899  11.110  0.00  0.00     0.163 HD
BRANCH  22  25
ATOM     25  CA  ASP d   1       5.202  11.320   9.120  0.00  0.00     0.098 C 
ATOM     26  H35 ASP d   1       6.110  11.451   8.512  0.00  0.00     0.088 H 
BRANCH  25  27
ATOM     27  N   ASP d   1       5.573  10.606  10.341  0.00  0.00    -0.345 N 
ATOM     28  C   ASP d   1       6.503  11.113  11.140  0.00  0.00     0.241 C 
ATOM     29  O   ASP d   1       7.100  12.143  10.863  0.00  0.00    -0.271 OA
ATOM     30  H34 ASP d   1       5.128   9.741  10.572  0.00  0.00     0.163 HD
BRANCH  28  31
ATOM     31  CA  ASP d   1       6.854  10.366  12.410  0.00  0.00     0.098 C 
ATOM     32  H31 ASP d   1       6.205  10.725  13.222  0.00  0.00     0.088 H 
BRANCH  31  33
ATOM     33  N   ASP d   1       6.651   8.931  12.267  0.00  0.00    -0.346 N 
ATOM     34  C   GLU d   1       6.026   8.223  13.195  0.00  0.00     0.241 C 
ATOM     35  O   GLU d   1       5.559   8.725  14.222  0.00  0.00    -0.271 OA
ATOM     36  H30 ASP d   1       6.992   8.469  11.448  0.00  0.00     0.163 HD
BRANCH  34  37
ATOM     37  CA  GLU d   1       5.907   6.726  12.937  0.00  0.00     0.090 C 
ATOM     38  H25 GLU d   1       6.406   6.489  11.986  0.00  0.00     0.087 H 
BRANCH  37  39
ATOM     39  N   GLU d   1       6.568   6.001  14.008  0.00  0.00    -0.346 N 
ATOM     40  C   GLY d   1       7.843   5.652  13.929  0.00  0.00     0.236 C 
ATOM     41  O   GLY d   1       8.553   5.908  12.957  0.00  0.00    -0.272 OA
ATOM     42  H24 GLU d   1       6.047   5.759  14.826  0.00  0.00     0.163 HD
BRANCH  40  43
ATOM     43  CA  GLY d   1       8.408   4.921  15.127  0.00  0.00     0.069 C 
ATOM     44  H22 GLY d   1       7.672   4.181  15.475  0.00  0.00     0.078 H 
ATOM     45  H23 GLY d   1       9.333   4.406  14.829  0.00  0.00     0.078 H 
BRANCH  43  46
ATOM     46  N   GLY d   1       8.705   5.836  16.211  0.00  0.00    -0.351 N 
ATOM     47  C   VAL d   1       7.778   6.154  17.103  0.00  0.00     0.241 C 
ATOM     48  O   VAL d   1       6.631   5.709  17.065  0.00  0.00    -0.271 OA
ATOM     49  H21 GLY d   1       9.620   6.232  16.287  0.00  0.00     0.163 HD
BRANCH  47  50
ATOM     50  CA  VAL d   1       8.198   7.138  18.192  0.00  0.00     0.092 C 
ATOM     51  H13 VAL d   1       9.243   7.433  18.017  0.00  0.00     0.088 H 
BRANCH  50  52
ATOM     52  N   VAL d   1       7.368   8.340  18.145  0.00  0.00    -0.346 N 
ATOM     53  C   TYR d   1       7.341   9.133  17.074  0.00  0.00     0.249 C 
ATOM     54  O   TYR d   1       8.013   8.916  16.070  0.00  0.00    -0.271 OA
ATOM     55  H12 VAL d   1       6.805   8.574  18.938  0.00  0.00     0.163 HD
BRANCH  53  56
ATOM     56  CA  TYR d   1       6.432  10.357  17.144  0.00  0.00     0.179 C 
ATOM     57  H4  TYR d   1       6.976  11.162  17.660  0.00  0.00     0.099 H 
BRANCH  56  58
ATOM     58  N   TYR d   1       6.093  10.821  15.783  0.00  0.00    -0.066 N 
ATOM     59  H1  TYR d   1       5.493  11.629  15.843  0.00  0.00     0.275 HD
ATOM     60  H2  TYR d   1       5.617  10.085  15.286  0.00  0.00     0.275 HD
ATOM     61  H3  TYR d   1       6.938  11.066  15.291  0.00  0.00     0.275 HD
ENDBRANCH  56  58
BRANCH  56  62
ATOM     62  CB  TYR d   1       5.154  10.049  17.944  0.00  0.00    -0.006 C 
ATOM     63  H5  TYR d   1       4.655  11.002  18.172  0.00  0.00     0.043 H 
ATOM     64  H6  TYR d   1       5.449   9.556  18.882  0.00  0.00     0.043 H 
BRANCH  62  65
ATOM     65  CG  TYR d   1       4.156   9.152  17.233  0.00  0.00    -0.056 A 
ATOM     66  CD1 TYR d   1       4.251   7.770  17.322  0.00  0.00    -0.074 A 
ATOM     67  CE1 TYR d   1       3.339   6.948  16.690  0.00  0.00    -0.051 A 
ATOM     68  H7  TYR d   1       5.056   7.328  17.898  0.00  0.00     0.084 H 
ATOM     69  CZ  TYR d   1       2.315   7.502  15.953  0.00  0.00     0.065 A 
ATOM     70  H9  TYR d   1       3.428   5.871  16.773  0.00  0.00     0.087 H 
ATOM     71  CE2 TYR d   1       2.196   8.872  15.848  0.00  0.00    -0.051 A 
ATOM     72  CD2 TYR d   1       3.113   9.690  16.486  0.00  0.00    -0.074 A 
ATOM     73  H10 TYR d   1       1.389   9.306  15.269  0.00  0.00     0.087 H 
ATOM     74  H8  TYR d   1       3.017  10.767  16.402  0.00  0.00     0.084 H 
BRANCH  69  75
ATOM     75  OH  TYR d   1       1.405   6.681  15.330  0.00  0.00    -0.361 OA
ATOM     76  H11 TYR d   1       0.535   6.862  15.666  0.00  0.00     0.217 HD
ENDBRANCH  69  75
ENDBRANCH  62  65
ENDBRANCH  56  62
ENDBRANCH  53  56
ENDBRANCH  50  52
BRANCH  50  77
ATOM     77  CB  VAL d   1       8.108   6.444  19.568  0.00  0.00    -0.033 C 
ATOM     78  H14 VAL d   1       7.096   6.026  19.677  0.00  0.00     0.042 H 
BRANCH  77  79
ATOM     79  CG1 VAL d   1       9.108   5.300  19.666  0.00  0.00    -0.071 C 
ATOM     80  H15 VAL d   1       9.024   4.823  20.654  0.00  0.00     0.028 H 
ATOM     81  H16 VAL d   1      10.127   5.692  19.534  0.00  0.00     0.028 H 
ATOM     82  H17 VAL d   1       8.895   4.559  18.882  0.00  0.00     0.028 H 
ENDBRANCH  77  79
BRANCH  77  83
ATOM     83  CG2 VAL d   1       8.331   7.450  20.689  0.00  0.00    -0.071 C 
ATOM     84  H18 VAL d   1       7.599   8.267  20.600  0.00  0.00     0.028 H 
ATOM     85  H19 VAL d   1       9.349   7.860  20.616  0.00  0.00     0.028 H 
ATOM     86  H20 VAL d   1       8.206   6.950  21.661  0.00  0.00     0.028 H 
ENDBRANCH  77  83
ENDBRANCH  50  77
ENDBRANCH  47  50
ENDBRANCH  43  46
ENDBRANCH  40  43
ENDBRANCH  37  39
BRANCH  37  87
ATOM     87  CB  GLU d   1       4.436   6.306  12.835  0.00  0.00    -0.029 C 
ATOM     88  H26 GLU d   1       3.931   6.584  13.772  0.00  0.00     0.037 H 
ATOM     89  H27 GLU d   1       4.396   5.214  12.707  0.00  0.00     0.037 H 
BRANCH  87  90
ATOM     90  CG  GLU d   1       3.688   6.951  11.678  0.00  0.00     0.018 C 
ATOM     91  H28 GLU d   1       3.472   7.997  11.939  0.00  0.00     0.049 H 
ATOM     92  H29 GLU d   1       2.743   6.409  11.525  0.00  0.00     0.049 H 
BRANCH  90  93
ATOM     93  CD  GLU d   1       4.475   6.928  10.382  0.00  0.00     0.172 C 
ATOM     94  OE1 GLU d   1       5.265   7.864  10.148  0.00  0.00    -0.648 OA
ATOM     95  OE2 GLU d   1       4.313   5.976   9.591  0.00  0.00    -0.648 OA
ENDBRANCH  90  93
ENDBRANCH  87  90
ENDBRANCH  37  87
ENDBRANCH  34  37
ENDBRANCH  31  33
BRANCH  31  96
ATOM     96  CB  ASP d   1       8.310  10.685  12.761  0.00  0.00     0.043 C 
ATOM     97  H32 ASP d   1       8.896  10.724  11.831  0.00  0.00     0.052 H 
ATOM     98  H33 ASP d   1       8.700   9.884  13.407  0.00  0.00     0.052 H 
BRANCH  96  99
ATOM     99  CG  ASP d   1       8.460  12.011  13.486  0.00  0.00     0.175 C 
ATOM    100  OD1 ASP d   1       7.963  12.127  14.626  0.00  0.00    -0.648 OA
ATOM    101  OD2 ASP d   1       9.075  12.938  12.914  0.00  0.00    -0.648 OA
ENDBRANCH  96  99
ENDBRANCH  31  96
ENDBRANCH  28  31
ENDBRANCH  25  27
BRANCH  25 102
ATOM    102  CB  ASP d   1       4.185  10.550   8.280  0.00  0.00     0.043 C 
ATOM    103  H36 ASP d   1       3.219  11.074   8.318  0.00  0.00     0.052 H 
ATOM    104  H37 ASP d   1       4.070   9.538   8.696  0.00  0.00     0.052 H 
BRANCH 102 105
ATOM    105  CG  ASP d   1       4.632  10.442   6.834  0.00  0.00     0.175 C 
ATOM    106  OD1 ASP d   1       5.037  11.474   6.247  0.00  0.00    -0.648 OA
ATOM    107  OD2 ASP d   1       4.618   9.318   6.287  0.00  0.00    -0.648 OA
ENDBRANCH 102 105
ENDBRANCH  25 102
ENDBRANCH  22  25
ENDBRANCH  19  21
BRANCH  19 108
ATOM    108  CB  GLU d   1       2.718  14.839  10.095  0.00  0.00    -0.029 C 
ATOM    109  H40 GLU d   1       1.630  14.759  10.238  0.00  0.00     0.037 H 
ATOM    110  H41 GLU d   1       2.987  14.447   9.103  0.00  0.00     0.037 H 
BRANCH 108 111
ATOM    111  CG  GLU d   1       3.109  16.305  10.160  0.00  0.00     0.018 C 
ATOM    112  H42 GLU d   1       4.194  16.373  10.329  0.00  0.00     0.049 H 
ATOM    113  H43 GLU d   1       2.577  16.774  11.001  0.00  0.00     0.049 H 
BRANCH 111 114
ATOM    114  CD  GLU d   1       2.769  17.057   8.893  0.00  0.00     0.172 C 
ATOM    115  OE1 GLU d   1       1.568  17.239   8.609  0.00  0.00    -0.648 OA
ATOM    116  OE2 GLU d   1       3.704  17.455   8.170  0.00  0.00    -0.648 OA
ENDBRANCH 111 114
ENDBRANCH 108 111
ENDBRANCH  19 108
ENDBRANCH  16  19
ENDBRANCH  13  15
BRANCH  13 117
ATOM    117  CB  GLU d   1      -0.778  14.076  13.129  0.00  0.00    -0.029 C 
ATOM    118  H46 GLU d   1      -0.434  14.643  14.007  0.00  0.00     0.037 H 
ATOM    119  H47 GLU d   1      -1.770  13.648  13.335  0.00  0.00     0.037 H 
BRANCH 117 120
ATOM    120  CG  GLU d   1      -0.906  15.036  11.961  0.00  0.00     0.018 C 
ATOM    121  H48 GLU d   1      -0.894  14.455  11.027  0.00  0.00     0.049 H 
ATOM    122  H49 GLU d   1      -0.047  15.723  11.976  0.00  0.00     0.049 H 
BRANCH 120 123
ATOM    123  CD  GLU d   1      -2.180  15.857  12.002  0.00  0.00     0.172 C 
ATOM    124  OE1 GLU d   1      -2.976  15.675  12.943  0.00  0.00    -0.648 OA
ATOM    125  OE2 GLU d   1      -2.393  16.673  11.073  0.00  0.00    -0.648 OA
ENDBRANCH 120 123
ENDBRANCH 117 120
ENDBRANCH  13 117
ENDBRANCH  10  13
ENDBRANCH   7   9
BRANCH   7 126
ATOM    126  CB  ASP d   1      -0.051   8.481  11.903  0.00  0.00     0.043 C 
ATOM    127  H52 ASP d   1      -0.607   7.708  11.352  0.00  0.00     0.052 H 
ATOM    128  H53 ASP d   1       0.584   8.003  12.664  0.00  0.00     0.052 H 
BRANCH 126 129
ATOM    129  CG  ASP d   1       0.845   9.218  10.924  0.00  0.00     0.175 C 
ATOM    130  OD1 ASP d   1       1.801   9.893  11.369  0.00  0.00    -0.648 OA
ATOM    131  OD2 ASP d   1       0.596   9.106   9.707  0.00  0.00    -0.648 OA
ENDBRANCH 126 129
ENDBRANCH   7 126
ENDBRANCH   4   7
ENDBRANCH   1   3
BRANCH   1 132
ATOM    132  C   ASP d   1      -4.963   8.164  15.152  0.00  0.00     0.241 C 
ATOM    133  O   ASP d   1      -5.436   7.057  15.404  0.00  0.00    -0.271 OA
ATOM    134  N   ASP d   1      -5.697   9.171  14.683  0.00  0.00    -0.345 N 
ATOM    135  H58 ASP d   1      -5.256  10.050  14.499  0.00  0.00     0.163 HD
BRANCH 134 136
ATOM    136  CA  ASP d   1      -7.137   9.026  14.429  0.00  0.00     0.098 C 
ATOM    137  H59 ASP d   1      -7.595   8.544  15.305  0.00  0.00     0.088 H 
BRANCH 136 138
ATOM    138  C   ASP d   1      -7.369   8.141  13.213  0.00  0.00     0.241 C 
ATOM    139  O   ASP d   1      -8.481   8.038  12.692  0.00  0.00    -0.271 OA
ATOM    140  N   PHE d   1      -6.292   7.504  12.790  0.00  0.00    -0.346 N 
ATOM    141  H62 PHE d   1      -5.434   7.659  13.279  0.00  0.00     0.163 HD
BRANCH 140 142
ATOM    142  CA  PHE d   1      -6.276   6.607  11.677  0.00  0.00     0.093 C 
ATOM    143  H63 PHE d   1      -6.490   7.156  10.748  0.00  0.00     0.088 H 
BRANCH 142 144
ATOM    144  C   PHE d   1      -7.324   5.515  11.866  0.00  0.00     0.241 C 
ATOM    145  O   PHE d   1      -7.212   4.677  12.759  0.00  0.00    -0.271 OA
ATOM    146  N   ASN d   1      -8.322   5.523  11.007  0.00  0.00    -0.346 N 
ATOM    147  H71 ASN d   1      -8.328   6.204  10.274  0.00  0.00     0.163 HD
BRANCH 146 148
ATOM    148  CA  ASN d   1      -9.415   4.570  11.095  0.00  0.00     0.097 C 
ATOM    149  H72 ASN d   1      -9.493   4.227  12.137  0.00  0.00     0.088 H 
BRANCH 148 150
ATOM    150  C   ASN d   1      -9.166   3.365  10.211  0.00  0.00     0.241 C 
ATOM    151  O   ASN d   1      -8.785   3.503   9.051  0.00  0.00    -0.271 OA
ATOM    152  N   GLU d   1      -9.377   2.187  10.768  0.00  0.00    -0.346 N 
ATOM    153  H77 GLU d   1      -9.674   2.147  11.722  0.00  0.00     0.163 HD
BRANCH 152 154
ATOM    154  CA  GLU d   1      -9.191   0.948  10.036  0.00  0.00     0.090 C 
ATOM    155  H78 GLU d   1      -8.306   1.043   9.390  0.00  0.00     0.087 H 
BRANCH 154 156
ATOM    156  C   GLU d   1     -10.403   0.666   9.186  0.00  0.00     0.241 C 
ATOM    157  O   GLU d   1     -11.403   1.385   9.253  0.00  0.00    -0.271 OA
ATOM    158  N   ASN d   1     -10.321  -0.383   8.391  0.00  0.00    -0.346 N 
ATOM    159  H83 ASN d   1      -9.481  -0.924   8.364  0.00  0.00     0.163 HD
BRANCH 158 160
ATOM    160  CA  ASN d   1     -11.443  -0.751   7.559  0.00  0.00     0.097 C 
ATOM    161  H84 ASN d   1     -12.350  -0.713   8.181  0.00  0.00     0.088 H 
BRANCH 160 162
ATOM    162  C   ASN d   1     -11.305  -2.168   7.021  0.00  0.00     0.241 C 
ATOM    163  O   ASN d   1     -12.296  -2.794   6.653  0.00  0.00    -0.271 OA
ATOM    164  N   ASP d   1     -10.080  -2.676   6.974  0.00  0.00    -0.345 N 
ATOM    165  H89 ASP d   1      -9.304  -2.122   7.276  0.00  0.00     0.163 HD
BRANCH 164 166
ATOM    166  CA  ASP d   1      -9.849  -4.033   6.488  0.00  0.00     0.098 C 
ATOM    167  H90 ASP d   1     -10.555  -4.235   5.669  0.00  0.00     0.088 H 
BRANCH 166 168
ATOM    168  C   ASP d   1     -10.099  -5.041   7.605  0.00  0.00     0.241 C 
ATOM    169  O   ASP d   1     -10.290  -6.229   7.347  0.00  0.00    -0.271 OA
ATOM    170  N   GLU d   1     -10.061  -4.541   8.847  0.00  0.00    -0.346 N 
ATOM    171  H93 GLU d   1      -9.849  -3.570   8.959  0.00  0.00     0.163 HD
BRANCH 170 172
ATOM    172  CA  GLU d   1     -10.313  -5.338  10.050  0.00  0.00     0.090 C 
ATOM    173  H94 GLU d   1     -10.466  -4.640  10.886  0.00  0.00     0.087 H 
BRANCH 172 174
ATOM    174  C   GLU d   1      -9.127  -6.223  10.393  0.00  0.00     0.241 C 
ATOM    175  O   GLU d   1      -8.065  -6.132   9.767  0.00  0.00    -0.271 OA
ATOM    176  N   ASP d   1      -9.302  -7.068  11.400  0.00  0.00    -0.346 N 
ATOM    177  H99 ASP d   1     -10.182  -7.091  11.875  0.00  0.00     0.163 HD
BRANCH 176 178
ATOM    178  CA  ASP d   1      -8.242  -7.956  11.822  0.00  0.00     0.098 C 
ATOM    179 0H10 ASP d   1      -7.301  -7.387  11.793  0.00  0.00     0.088 H 
BRANCH 178 180
ATOM    180  C   ASP d   1      -8.105  -9.137  10.877  0.00  0.00     0.241 C 
ATOM    181  O   ASP d   1      -8.710 -10.193  11.072  0.00  0.00    -0.271 OA
ATOM    182  N   ASP d   1      -7.335  -8.928   9.827  0.00  0.00    -0.344 N 
ATOM    183 3H10 ASP d   1      -6.918  -8.027   9.706  0.00  0.00     0.163 HD
BRANCH 182 184
ATOM    184  CA  ASP d   1      -7.072  -9.960   8.842  0.00  0.00     0.105 C 
ATOM    185 4H10 ASP d   1      -8.015 -10.468   8.591  0.00  0.00     0.090 H 
BRANCH 184 186
ATOM    186  C   ASP d   1      -6.099 -10.976   9.421  0.00  0.00     0.197 C 
ATOM    187  O   ASP d   1      -6.478 -12.155   9.553  0.00  0.00    -0.646 OA
ATOM    188  OXT ASP d   1      -4.975 -10.574   9.788  0.00  0.00    -0.646 OA
ENDBRANCH 184 186
BRANCH 184 189
ATOM    189  CB  ASP d   1      -6.492  -9.335   7.577  0.00  0.00     0.044 C 
ATOM    190 5H10 ASP d   1      -5.469  -8.994   7.792  0.00  0.00     0.053 H 
ATOM    191 6H10 ASP d   1      -7.114  -8.473   7.295  0.00  0.00     0.053 H 
BRANCH 189 192
ATOM    192  CG  ASP d   1      -6.444 -10.296   6.410  0.00  0.00     0.175 C 
ATOM    193  OD1 ASP d   1      -5.417 -10.975   6.238  0.00  0.00    -0.648 OA
ATOM    194  OD2 ASP d   1      -7.430 -10.344   5.641  0.00  0.00    -0.648 OA
ENDBRANCH 189 192
ENDBRANCH 184 189
ENDBRANCH 182 184
ENDBRANCH 178 180
BRANCH 178 195
ATOM    195  CB  ASP d   1      -8.442  -8.453  13.253  0.00  0.00     0.043 C 
ATOM    196 1H10 ASP d   1      -9.367  -9.046  13.299  0.00  0.00     0.052 H 
ATOM    197 2H10 ASP d   1      -8.529  -7.585  13.924  0.00  0.00     0.052 H 
BRANCH 195 198
ATOM    198  CG  ASP d   1      -7.280  -9.315  13.710  0.00  0.00     0.175 C 
ATOM    199  OD1 ASP d   1      -7.499 -10.500  14.028  0.00  0.00    -0.648 OA
ATOM    200  OD2 ASP d   1      -6.133  -8.807  13.721  0.00  0.00    -0.648 OA
ENDBRANCH 195 198
ENDBRANCH 178 195
ENDBRANCH 176 178
ENDBRANCH 172 174
BRANCH 172 201
ATOM    201  CB  GLU d   1     -11.579  -6.185   9.907  0.00  0.00    -0.029 C 
ATOM    202  H95 GLU d   1     -11.300  -7.246   9.992  0.00  0.00     0.037 H 
ATOM    203  H96 GLU d   1     -12.013  -5.998   8.914  0.00  0.00     0.037 H 
BRANCH 201 204
ATOM    204  CG  GLU d   1     -12.631  -5.879  10.957  0.00  0.00     0.018 C 
ATOM    205  H97 GLU d   1     -13.407  -6.658  10.915  0.00  0.00     0.049 H 
ATOM    206  H98 GLU d   1     -13.080  -4.901  10.730  0.00  0.00     0.049 H 
BRANCH 204 207
ATOM    207  CD  GLU d   1     -12.064  -5.837  12.359  0.00  0.00     0.172 C 
ATOM    208  OE1 GLU d   1     -12.079  -4.754  12.976  0.00  0.00    -0.648 OA
ATOM    209  OE2 GLU d   1     -11.586  -6.889  12.832  0.00  0.00    -0.648 OA
ENDBRANCH 204 207
ENDBRANCH 201 204
ENDBRANCH 172 201
ENDBRANCH 170 172
ENDBRANCH 166 168
BRANCH 166 210
ATOM    210  CB  ASP d   1      -8.429  -4.179   5.948  0.00  0.00     0.043 C 
ATOM    211  H91 ASP d   1      -7.911  -4.957   6.528  0.00  0.00     0.052 H 
ATOM    212  H92 ASP d   1      -7.906  -3.220   6.073  0.00  0.00     0.052 H 
BRANCH 210 213
ATOM    213  CG  ASP d   1      -8.392  -4.563   4.481  0.00  0.00     0.175 C 
ATOM    214  OD1 ASP d   1      -8.594  -5.755   4.170  0.00  0.00    -0.648 OA
ATOM    215  OD2 ASP d   1      -8.142  -3.674   3.640  0.00  0.00    -0.648 OA
ENDBRANCH 210 213
ENDBRANCH 166 210
ENDBRANCH 164 166
ENDBRANCH 160 162
BRANCH 160 216
ATOM    216  CB  ASN d   1     -11.615   0.243   6.410  0.00  0.00     0.036 C 
ATOM    217  H85 ASN d   1     -11.252  -0.222   5.482  0.00  0.00     0.051 H 
ATOM    218  H86 ASN d   1     -11.019   1.142   6.627  0.00  0.00     0.051 H 
BRANCH 216 219
ATOM    219  CG  ASN d   1     -13.063   0.652   6.218  0.00  0.00     0.217 C 
ATOM    220  OD1 ASN d   1     -13.788   0.073   5.409  0.00  0.00    -0.274 OA
ATOM    221  ND2 ASN d   1     -13.498   1.650   6.971  0.00  0.00    -0.370 N 
ATOM    222  H87 ASN d   1     -14.444   1.963   6.888  0.00  0.00     0.159 HD
ATOM    223  H88 ASN d   1     -12.881   2.091   7.623  0.00  0.00     0.159 HD
ENDBRANCH 216 219
ENDBRANCH 160 216
ENDBRANCH 158 160
ENDBRANCH 154 156
BRANCH 154 224
ATOM    224  CB  GLU d   1      -8.989  -0.216  10.996  0.00  0.00    -0.029 C 
ATOM    225  H79 GLU d   1      -9.268  -1.146  10.479  0.00  0.00     0.037 H 
ATOM    226  H80 GLU d   1      -9.646  -0.069  11.866  0.00  0.00     0.037 H 
BRANCH 224 227
ATOM    227  CG  GLU d   1      -7.570  -0.348  11.486  0.00  0.00     0.018 C 
ATOM    228  H81 GLU d   1      -7.579  -0.888  12.444  0.00  0.00     0.049 H 
ATOM    229  H82 GLU d   1      -7.156   0.660  11.637  0.00  0.00     0.049 H 
BRANCH 227 230
ATOM    230  CD  GLU d   1      -6.677  -1.097  10.518  0.00  0.00     0.172 C 
ATOM    231  OE1 GLU d   1      -7.194  -1.626   9.513  0.00  0.00    -0.648 OA
ATOM    232  OE2 GLU d   1      -5.450  -1.150  10.766  0.00  0.00    -0.648 OA
ENDBRANCH 227 230
ENDBRANCH 224 227
ENDBRANCH 154 224
ENDBRANCH 152 154
ENDBRANCH 148 150
BRANCH 148 233
ATOM    233  CB  ASN d   1     -10.733   5.243  10.701  0.00  0.00     0.036 C 
ATOM    234  H73 ASN d   1     -11.352   4.514  10.158  0.00  0.00     0.051 H 
ATOM    235  H74 ASN d   1     -10.510   6.096  10.044  0.00  0.00     0.051 H 
BRANCH 233 236
ATOM    236  CG  ASN d   1     -11.515   5.745  11.899  0.00  0.00     0.217 C 
ATOM    237  OD1 ASN d   1     -12.440   5.086  12.370  0.00  0.00    -0.274 OA
ATOM    238  ND2 ASN d   1     -11.141   6.909  12.409  0.00  0.00    -0.370 N 
ATOM    239  H75 ASN d   1     -11.623   7.286  13.200  0.00  0.00     0.159 HD
ATOM    240  H76 ASN d   1     -10.377   7.410  12.003  0.00  0.00     0.159 HD
ENDBRANCH 233 236
ENDBRANCH 148 233
ENDBRANCH 146 148
ENDBRANCH 142 144
BRANCH 142 241
ATOM    241  CB  PHE d   1      -4.888   6.014  11.615  0.00  0.00    -0.014 C 
ATOM    242  H64 PHE d   1      -4.982   4.918  11.646  0.00  0.00     0.043 H 
ATOM    243  H65 PHE d   1      -4.329   6.359  12.497  0.00  0.00     0.043 H 
BRANCH 241 244
ATOM    244  CG  PHE d   1      -4.113   6.375  10.410  0.00  0.00    -0.056 A 
ATOM    245  CD1 PHE d   1      -2.839   6.884  10.522  0.00  0.00    -0.077 A 
ATOM    246  CE1 PHE d   1      -2.104   7.164   9.399  0.00  0.00    -0.082 A 
ATOM    247  H66 PHE d   1      -2.415   7.064  11.503  0.00  0.00     0.084 H 
ATOM    248  CZ  PHE d   1      -2.648   6.941   8.155  0.00  0.00    -0.083 A 
ATOM    249  H68 PHE d   1      -1.099   7.559   9.491  0.00  0.00     0.083 H 
ATOM    250  CE2 PHE d   1      -3.923   6.442   8.038  0.00  0.00    -0.082 A 
ATOM    251  H70 PHE d   1      -2.069   7.160   7.265  0.00  0.00     0.083 H 
ATOM    252  CD2 PHE d   1      -4.645   6.156   9.164  0.00  0.00    -0.077 A 
ATOM    253  H69 PHE d   1      -4.355   6.276   7.058  0.00  0.00     0.083 H 
ATOM    254  H67 PHE d   1      -5.647   5.753   9.071  0.00  0.00     0.084 H 
ENDBRANCH 241 244
ENDBRANCH 142 241
ENDBRANCH 140 142
ENDBRANCH 136 138
BRANCH 136 255
ATOM    255  CB  ASP d   1      -7.811  10.388  14.223  0.00  0.00     0.043 C 
ATOM    256  H60 ASP d   1      -7.845  10.911  15.190  0.00  0.00     0.052 H 
ATOM    257  H61 ASP d   1      -8.836  10.220  13.861  0.00  0.00     0.052 H 
BRANCH 255 258
ATOM    258  CG  ASP d   1      -7.085  11.268  13.224  0.00  0.00     0.175 C 
ATOM    259  OD1 ASP d   1      -6.692  10.770  12.145  0.00  0.00    -0.648 OA
ATOM    260  OD2 ASP d   1      -6.894  12.461  13.529  0.00  0.00    -0.648 OA
ENDBRANCH 255 258
ENDBRANCH 136 255
ENDBRANCH 134 136
ENDBRANCH   1 132
BRANCH   1 261
ATOM    261  CB  ASP d   1      -3.261   9.290  16.608  0.00  0.00     0.043 C 
ATOM    262  H56 ASP d   1      -2.304   9.010  17.073  0.00  0.00     0.052 H 
ATOM    263  H57 ASP d   1      -4.081   9.102  17.316  0.00  0.00     0.052 H 
BRANCH 261 264
ATOM    264  CG  ASP d   1      -3.228  10.776  16.283  0.00  0.00     0.175 C 
ATOM    265  OD1 ASP d   1      -2.343  11.480  16.805  0.00  0.00    -0.648 OA
ATOM    266  OD2 ASP d   1      -4.072  11.236  15.481  0.00  0.00    -0.648 OA
ENDBRANCH 261 264
ENDBRANCH   1 261
TORSDOF 81
