REMARK WARNING: 32 MAX_TORS EXCEEDED!!!
REMARK  37 active torsions:
REMARK  status: ('A' for Active; 'I' for Inactive)
REMARK    1  A    between atoms: N_1  and  CA_2 
REMARK    2  A    between atoms: CA_2  and  C_3 
REMARK    3  A    between atoms: CA_2  and  CB_5 
REMARK       I    between atoms: C_3  and  N_6 
REMARK    4  A    between atoms: N_6  and  CA_7 
REMARK    5  A    between atoms: CA_7  and  C_8 
REMARK    6  A    between atoms: CA_7  and  CB_10 
REMARK       I    between atoms: C_8  and  N_11 
REMARK    7  A    between atoms: N_11  and  CA_12 
REMARK    8  A    between atoms: CA_12  and  C_13 
REMARK    9  A    between atoms: CA_12  and  CB_15 
REMARK       I    between atoms: C_13  and  N_17 
REMARK   10  A    between atoms: CB_15  and  OG_16 
REMARK   11  A    between atoms: N_17  and  CA_18 
REMARK   12  A    between atoms: CA_18  and  C_19 
REMARK   13  A    between atoms: CA_18  and  CB_21 
REMARK       I    between atoms: C_19  and  N_28 
REMARK   14  A    between atoms: CB_21  and  CG_22 
REMARK   15  A    between atoms: CG_22  and  CD_23 
REMARK   16  A    between atoms: CD_23  and  NE_24 
REMARK       I    between atoms: NE_24  and  CZ_25 
REMARK       I    between atoms: CZ_25  and  NH1_26 
REMARK       I    between atoms: CZ_25  and  NH2_27 
REMARK   17  A    between atoms: N_28  and  CA_29 
REMARK   18  A    between atoms: CA_29  and  C_30 
REMARK   19  A    between atoms: CA_29  and  CB_32 
REMARK       I    between atoms: C_30  and  N_35 
REMARK   20  A    between atoms: CB_32  and  OG1_33 
REMARK   21  A    between atoms: CB_32  and  CG2_34 
REMARK   22  A    between atoms: CA_36  and  C_37 
REMARK       I    between atoms: C_37  and  N_42 
REMARK   23  A    between atoms: N_42  and  CA_43 
REMARK   24  A    between atoms: CA_43  and  C_44 
REMARK   25  A    between atoms: CA_43  and  CB_46 
REMARK       I    between atoms: C_44  and  N_47 
REMARK   26  A    between atoms: N_47  and  CA_48 
REMARK   27  A    between atoms: CA_48  and  C_49 
REMARK   28  A    between atoms: CA_48  and  CB_51 
REMARK       I    between atoms: C_49  and  N_55 
REMARK   29  A    between atoms: CB_51  and  CG_52 
REMARK   30  A    between atoms: N_55  and  CA_56 
REMARK   31  A    between atoms: CA_56  and  C_57 
REMARK       I    between atoms: C_57  and  N_59 
REMARK   32  A    between atoms: N_59  and  CA_60 
REMARK   33  A    between atoms: CA_60  and  C_61 
REMARK   34  A    between atoms: CA_60  and  CB_63 
REMARK   35  A    between atoms: CB_63  and  CG_64 
REMARK   36  A    between atoms: CG_64  and  CD_65 
REMARK   37  A    between atoms: CD_65  and  NE_66 
REMARK       I    between atoms: NE_66  and  CZ_67 
REMARK       I    between atoms: CZ_67  and  NH1_68 
ROOT
ATOM      1  C   THR d   1      20.052  45.055  27.510  0.00  0.00     0.245 C 
ATOM      2  O   THR d   1      20.620  43.976  27.303  0.00  0.00    -0.271 OA
ATOM      3  N   PRO d   1      20.304  45.772  28.609  0.00  0.00    -0.337 N 
ATOM      4  CA  PRO d   1      21.390  45.370  29.518  0.00  0.00     0.091 C 
ATOM      5  CB  PRO d   1      21.464  46.533  30.513  0.00  0.00    -0.036 C 
ATOM      6  CG  PRO d   1      20.916  47.698  29.760  0.00  0.00    -0.048 C 
ATOM      7  CD  PRO d   1      19.815  47.126  28.931  0.00  0.00    -0.001 C 
ATOM      8  H38 PRO d   1      22.333  45.278  28.959  0.00  0.00     0.087 H 
ATOM      9  H39 PRO d   1      22.505  46.720  30.817  0.00  0.00     0.036 H 
ATOM     10  H40 PRO d   1      20.854  46.323  31.404  0.00  0.00     0.036 H 
ATOM     11  H41 PRO d   1      21.691  48.146  29.121  0.00  0.00     0.035 H 
ATOM     12  H42 PRO d   1      20.526  48.459  30.452  0.00  0.00     0.035 H 
ATOM     13  H43 PRO d   1      18.875  47.081  29.501  0.00  0.00     0.064 H 
ATOM     14  H44 PRO d   1      19.662  47.718  28.017  0.00  0.00     0.064 H 
ENDROOT
BRANCH   1  15
ATOM     15  CA  THR d   1      19.065  45.619  26.484  0.00  0.00     0.114 C 
ATOM     16  H32 THR d   1      19.296  46.683  26.329  0.00  0.00     0.091 H 
BRANCH  15  17
ATOM     17  N   THR d   1      19.200  44.929  25.210  0.00  0.00    -0.344 N 
ATOM     18  C   ARG d   1      19.574  45.532  24.085  0.00  0.00     0.241 C 
ATOM     19  O   ARG d   1      19.868  46.729  24.037  0.00  0.00    -0.271 OA
ATOM     20  H31 THR d   1      19.001  43.950  25.179  0.00  0.00     0.163 HD
BRANCH  18  21
ATOM     21  CA  ARG d   1      19.614  44.669  22.827  0.00  0.00     0.089 C 
ATOM     22  H19 ARG d   1      19.177  43.687  23.062  0.00  0.00     0.087 H 
BRANCH  21  23
ATOM     23  N   ARG d   1      18.823  45.289  21.768  0.00  0.00    -0.346 N 
ATOM     24  C   SER d   1      17.498  45.374  21.871  0.00  0.00     0.243 C 
ATOM     25  O   SER d   1      16.888  45.021  22.887  0.00  0.00    -0.271 OA
ATOM     26  H18 ARG d   1      19.281  45.654  20.957  0.00  0.00     0.163 HD
BRANCH  24  27
ATOM     27  CA  SER d   1      16.706  45.938  20.699  0.00  0.00     0.109 C 
ATOM     28  H14 SER d   1      16.040  46.722  21.089  0.00  0.00     0.090 H 
BRANCH  27  29
ATOM     29  N   SER d   1      17.554  46.547  19.680  0.00  0.00    -0.344 N 
ATOM     30  C   LEU d   1      18.132  47.726  19.925  0.00  0.00     0.240 C 
ATOM     31  O   LEU d   1      17.991  48.313  21.005  0.00  0.00    -0.271 OA
ATOM     32  H13 SER d   1      17.701  46.086  18.805  0.00  0.00     0.163 HD
BRANCH  30  33
ATOM     33  CA  LEU d   1      18.979  48.356  18.824  0.00  0.00     0.086 C 
ATOM     34  H9  LEU d   1      19.727  49.006  19.302  0.00  0.00     0.086 H 
BRANCH  33  35
ATOM     35  N   LEU d   1      19.691  47.356  18.033  0.00  0.00    -0.346 N 
ATOM     36  C   SER d   1      20.745  46.705  18.536  0.00  0.00     0.248 C 
ATOM     37  O   SER d   1      21.080  46.771  19.721  0.00  0.00    -0.271 OA
ATOM     38  H8  LEU d   1      19.386  47.155  17.102  0.00  0.00     0.163 HD
BRANCH  36  39
ATOM     39  CA  SER d   1      21.527  45.840  17.551  0.00  0.00     0.172 C 
ATOM     40  H4  SER d   1      21.996  46.503  16.809  0.00  0.00     0.098 H 
BRANCH  39  41
ATOM     41  N   SER d   1      22.588  45.094  18.226  0.00  0.00    -0.067 N 
ATOM     42  H1  SER d   1      23.086  44.533  17.552  0.00  0.00     0.275 HD
ATOM     43  H2  SER d   1      22.183  44.495  18.928  0.00  0.00     0.275 HD
ATOM     44  H3  SER d   1      23.227  45.740  18.663  0.00  0.00     0.275 HD
ENDBRANCH  39  41
BRANCH  39  45
ATOM     45  CB  SER d   1      20.577  44.891  16.816  0.00  0.00    -0.042 C 
ATOM     46  H5  SER d   1      19.789  45.475  16.317  0.00  0.00     0.030 H 
ATOM     47  H6  SER d   1      20.119  44.199  17.538  0.00  0.00     0.030 H 
ATOM     48  H7  SER d   1      21.140  44.318  16.065  0.00  0.00     0.030 H 
ENDBRANCH  39  45
ENDBRANCH  36  39
ENDBRANCH  33  35
BRANCH  33  49
ATOM     49  CB  LEU d   1      18.103  49.217  17.912  0.00  0.00    -0.049 C 
ATOM     50  H10 LEU d   1      17.571  49.967  18.516  0.00  0.00     0.030 H 
ATOM     51  H11 LEU d   1      17.373  48.578  17.395  0.00  0.00     0.030 H 
ATOM     52  H12 LEU d   1      18.735  49.726  17.170  0.00  0.00     0.030 H 
ENDBRANCH  33  49
ENDBRANCH  30  33
ENDBRANCH  27  29
BRANCH  27  53
ATOM     53  CB  SER d   1      15.838  44.828  20.090  0.00  0.00     0.044 C 
ATOM     54  H15 SER d   1      15.432  44.207  20.902  0.00  0.00     0.077 H 
ATOM     55  H16 SER d   1      16.463  44.207  19.431  0.00  0.00     0.077 H 
BRANCH  53  56
ATOM     56  OG  SER d   1      14.760  45.360  19.334  0.00  0.00    -0.398 OA
ATOM     57  H17 SER d   1      14.212  45.894  19.898  0.00  0.00     0.209 HD
ENDBRANCH  53  56
ENDBRANCH  27  53
ENDBRANCH  24  27
ENDBRANCH  21  23
BRANCH  21  58
ATOM     58  CB  ARG d   1      21.056  44.459  22.360  0.00  0.00    -0.036 C 
ATOM     59  H20 ARG d   1      21.574  45.429  22.394  0.00  0.00     0.036 H 
ATOM     60  H21 ARG d   1      21.033  44.091  21.323  0.00  0.00     0.036 H 
BRANCH  58  61
ATOM     61  CG  ARG d   1      21.852  43.459  23.207  0.00  0.00    -0.048 C 
ATOM     62  H22 ARG d   1      21.224  42.576  23.395  0.00  0.00     0.035 H 
ATOM     63  H23 ARG d   1      22.112  43.934  24.164  0.00  0.00     0.035 H 
BRANCH  61  64
ATOM     64  CD  ARG d   1      23.146  43.007  22.511  0.00  0.00     0.009 C 
ATOM     65  H24 ARG d   1      23.835  43.862  22.443  0.00  0.00     0.064 H 
ATOM     66  H25 ARG d   1      22.904  42.650  21.499  0.00  0.00     0.064 H 
BRANCH  64  67
ATOM     67  NE  ARG d   1      23.796  41.929  23.254  0.00  0.00    -0.227 N 
ATOM     68  CZ  ARG d   1      24.657  42.114  24.247  0.00  0.00     0.665 C 
ATOM     69  NH1 ARG d   1      25.010  43.334  24.608  0.00  0.00    -0.235 N 
ATOM     70  NH2 ARG d   1      25.173  41.073  24.875  0.00  0.00    -0.235 N 
ATOM     71  H27 ARG d   1      25.679  43.470  25.380  0.00  0.00     0.174 HD
ATOM     72  H28 ARG d   1      24.617  44.150  24.118  0.00  0.00     0.174 HD
ATOM     73  H29 ARG d   1      24.902  40.118  24.599  0.00  0.00     0.174 HD
ATOM     74  H30 ARG d   1      25.846  41.216  25.641  0.00  0.00     0.174 HD
ATOM     75  H26 ARG d   1      23.570  40.960  22.989  0.00  0.00     0.177 HD
ENDBRANCH  64  67
ENDBRANCH  61  64
ENDBRANCH  58  61
ENDBRANCH  21  58
ENDBRANCH  18  21
ENDBRANCH  15  17
BRANCH  15  76
ATOM     76  CB  THR d   1      17.624  45.506  27.006  0.00  0.00     0.060 C 
ATOM     77  H33 THR d   1      17.576  45.935  28.018  0.00  0.00     0.086 H 
BRANCH  76  78
ATOM     78  OG1 THR d   1      17.234  44.131  27.061  0.00  0.00    -0.393 OA
ATOM     79  H34 THR d   1      16.343  44.068  27.384  0.00  0.00     0.210 HD
ENDBRANCH  76  78
BRANCH  76  80
ATOM     80  CG2 THR d   1      16.665  46.271  26.096  0.00  0.00    -0.050 C 
ATOM     81  H35 THR d   1      15.640  46.179  26.484  0.00  0.00     0.031 H 
ATOM     82  H36 THR d   1      16.711  45.852  25.080  0.00  0.00     0.031 H 
ATOM     83  H37 THR d   1      16.953  47.332  26.069  0.00  0.00     0.031 H 
ENDBRANCH  76  80
ENDBRANCH  15  76
ENDBRANCH   1  15
BRANCH   4  84
ATOM     84  C   PRO d   1      21.130  44.060  30.246  0.00  0.00     0.241 C 
ATOM     85  O   PRO d   1      19.996  43.726  30.603  0.00  0.00    -0.271 OA
ATOM     86  N   ALA d   1      22.222  43.325  30.468  0.00  0.00    -0.346 N 
ATOM     87  H45 ALA d   1      23.083  43.599  30.040  0.00  0.00     0.163 HD
BRANCH  86  88
ATOM     88  CA  ALA d   1      22.202  42.138  31.312  0.00  0.00     0.086 C 
ATOM     89  H46 ALA d   1      21.490  41.414  30.888  0.00  0.00     0.086 H 
BRANCH  88  90
ATOM     90  C   ALA d   1      21.773  42.482  32.734  0.00  0.00     0.240 C 
ATOM     91  O   ALA d   1      22.032  43.578  33.233  0.00  0.00    -0.271 OA
ATOM     92  N   ASP d   1      21.135  41.524  33.409  0.00  0.00    -0.346 N 
ATOM     93  H50 ASP d   1      20.834  40.693  32.941  0.00  0.00     0.163 HD
BRANCH  92  94
ATOM     94  CA  ASP d   1      20.879  41.698  34.836  0.00  0.00     0.098 C 
ATOM     95  H51 ASP d   1      20.341  42.646  34.983  0.00  0.00     0.088 H 
BRANCH  94  96
ATOM     96  C   ASP d   1      22.193  41.757  35.598  0.00  0.00     0.241 C 
ATOM     97  O   ASP d   1      23.077  40.922  35.401  0.00  0.00    -0.271 OA
ATOM     98  N   GLY d   1      22.327  42.761  36.458  0.00  0.00    -0.351 N 
ATOM     99  H54 GLY d   1      21.609  43.455  36.518  0.00  0.00     0.163 HD
BRANCH  98 100
ATOM    100  CA  GLY d   1      23.490  42.869  37.307  0.00  0.00     0.069 C 
ATOM    101  H55 GLY d   1      24.357  42.435  36.786  0.00  0.00     0.078 H 
ATOM    102  H56 GLY d   1      23.307  42.315  38.239  0.00  0.00     0.078 H 
BRANCH 100 103
ATOM    103  C   GLY d   1      23.787  44.316  37.642  0.00  0.00     0.236 C 
ATOM    104  O   GLY d   1      22.994  45.212  37.378  0.00  0.00    -0.272 OA
ATOM    105  N   ARG d   1      24.959  44.511  38.229  0.00  0.00    -0.345 N 
ATOM    106  H57 ARG d   1      25.556  43.723  38.379  0.00  0.00     0.163 HD
BRANCH 105 107
ATOM    107  CA  ARG d   1      25.418  45.829  38.668  0.00  0.00     0.096 C 
ATOM    108  H58 ARG d   1      25.134  46.581  37.917  0.00  0.00     0.089 H 
BRANCH 107 109
ATOM    109  C   ARG d   1      26.931  45.792  38.788  0.00  0.00     0.196 C 
ATOM    110  O   ARG d   1      27.482  44.767  39.192  0.00  0.00    -0.646 OA
ATOM    111  OXT ARG d   1      27.665  46.752  38.476  0.00  0.00    -0.646 OA
ENDBRANCH 107 109
BRANCH 107 112
ATOM    112  CB  ARG d   1      24.765  46.201  40.011  0.00  0.00    -0.035 C 
ATOM    113  H59 ARG d   1      24.858  45.335  40.683  0.00  0.00     0.036 H 
ATOM    114  H60 ARG d   1      23.701  46.407  39.823  0.00  0.00     0.036 H 
BRANCH 112 115
ATOM    115  CG  ARG d   1      25.351  47.401  40.718  0.00  0.00    -0.047 C 
ATOM    116  H61 ARG d   1      25.032  48.318  40.200  0.00  0.00     0.035 H 
ATOM    117  H62 ARG d   1      26.449  47.332  40.700  0.00  0.00     0.035 H 
BRANCH 115 118
ATOM    118  CD  ARG d   1      24.874  47.451  42.170  0.00  0.00     0.009 C 
ATOM    119  H63 ARG d   1      25.273  48.362  42.640  0.00  0.00     0.064 H 
ATOM    120  H64 ARG d   1      25.261  46.567  42.698  0.00  0.00     0.064 H 
BRANCH 118 121
ATOM    121  NE  ARG d   1      23.415  47.465  42.288  0.00  0.00    -0.227 N 
ATOM    122  CZ  ARG d   1      22.702  46.555  42.949  0.00  0.00     0.665 C 
ATOM    123  NH1 ARG d   1      23.309  45.546  43.568  0.00  0.00    -0.235 N 
ATOM    124  NH2 ARG d   1      21.376  46.656  43.001  0.00  0.00    -0.235 N 
ATOM    125  H66 ARG d   1      22.753  44.845  44.078  0.00  0.00     0.174 HD
ATOM    126  H67 ARG d   1      24.335  45.466  43.538  0.00  0.00     0.174 HD
ATOM    127  H68 ARG d   1      20.900  47.435  42.524  0.00  0.00     0.174 HD
ATOM    128  H69 ARG d   1      20.826  45.955  43.518  0.00  0.00     0.174 HD
ATOM    129  H65 ARG d   1      22.904  48.232  41.828  0.00  0.00     0.177 HD
ENDBRANCH 118 121
ENDBRANCH 115 118
ENDBRANCH 112 115
ENDBRANCH 107 112
ENDBRANCH 105 107
ENDBRANCH 100 103
ENDBRANCH  98 100
ENDBRANCH  94  96
BRANCH  94 130
ATOM    130  CB  ASP d   1      20.016  40.559  35.377  0.00  0.00     0.043 C 
ATOM    131  H52 ASP d   1      20.116  40.530  36.472  0.00  0.00     0.052 H 
ATOM    132  H53 ASP d   1      20.375  39.611  34.951  0.00  0.00     0.052 H 
BRANCH 130 133
ATOM    133  CG  ASP d   1      18.545  40.726  35.025  0.00  0.00     0.175 C 
ATOM    134  OD1 ASP d   1      18.128  41.861  34.713  0.00  0.00    -0.648 OA
ATOM    135  OD2 ASP d   1      17.816  39.719  35.041  0.00  0.00    -0.648 OA
ENDBRANCH 130 133
ENDBRANCH  94 130
ENDBRANCH  92  94
ENDBRANCH  88  90
BRANCH  88 136
ATOM    136  CB  ALA d   1      23.589  41.510  31.359  0.00  0.00    -0.049 C 
ATOM    137  H47 ALA d   1      23.565  40.615  31.998  0.00  0.00     0.030 H 
ATOM    138  H48 ALA d   1      24.306  42.235  31.771  0.00  0.00     0.030 H 
ATOM    139  H49 ALA d   1      23.898  41.226  30.342  0.00  0.00     0.030 H 
ENDBRANCH  88 136
ENDBRANCH  86  88
ENDBRANCH   4  84
TORSDOF 37
