REMARK WARNING: 32 MAX_TORS EXCEEDED!!!
REMARK  39 active torsions:
REMARK  status: ('A' for Active; 'I' for Inactive)
REMARK    1  A    between atoms: N_1  and  CA_2 
REMARK    2  A    between atoms: CA_2  and  C_3 
REMARK    3  A    between atoms: CA_2  and  CB_5 
REMARK       I    between atoms: C_3  and  N_12 
REMARK    4  A    between atoms: CB_5  and  CG_6 
REMARK    5  A    between atoms: CG_6  and  CD_7 
REMARK    6  A    between atoms: CD_7  and  NE_8 
REMARK       I    between atoms: NE_8  and  CZ_9 
REMARK       I    between atoms: CZ_9  and  NH1_10 
REMARK       I    between atoms: CZ_9  and  NH2_11 
REMARK    7  A    between atoms: N_12  and  CA_13 
REMARK    8  A    between atoms: CA_20  and  CB_23 
REMARK    9  A    between atoms: CB_23  and  CG1_24 
REMARK   10  A    between atoms: CB_23  and  CG2_25 
REMARK   11  A    between atoms: CG1_24  and  CD1_26 
REMARK   12  A    between atoms: CA_28  and  CB_31 
REMARK   13  A    between atoms: CB_31  and  CG_32 
REMARK   14  A    between atoms: CG_32  and  CD1_33 
REMARK   15  A    between atoms: CG_32  and  CD2_34 
REMARK   16  A    between atoms: CA_36  and  C_39 
REMARK       I    between atoms: C_39  and  N_41 
REMARK   17  A    between atoms: N_41  and  CA_42 
REMARK   18  A    between atoms: CA_42  and  C_43 
REMARK   19  A    between atoms: CA_42  and  CB_45 
REMARK       I    between atoms: C_43  and  N_52 
REMARK   20  A    between atoms: CB_45  and  CG_46 
REMARK   21  A    between atoms: CG_46  and  CD_47 
REMARK   22  A    between atoms: CD_47  and  NE_48 
REMARK       I    between atoms: NE_48  and  CZ_49 
REMARK       I    between atoms: CZ_49  and  NH1_50 
REMARK   23  A    between atoms: N_52  and  CA_53 
REMARK   24  A    between atoms: CA_53  and  C_54 
REMARK   25  A    between atoms: CA_53  and  CB_56 
REMARK       I    between atoms: C_54  and  N_60 
REMARK   26  A    between atoms: CB_56  and  CG_57 
REMARK   27  A    between atoms: CG_57  and  CD1_58 
REMARK   28  A    between atoms: CG_57  and  CD2_59 
REMARK   29  A    between atoms: N_60  and  CA_61 
REMARK   30  A    between atoms: CA_61  and  C_62 
REMARK   31  A    between atoms: CA_61  and  CB_64 
REMARK       I    between atoms: C_62  and  N_68 
REMARK   32  A    between atoms: CB_64  and  CG_65 
REMARK   33  A    between atoms: CG_65  and  CD1_66 
REMARK   34  A    between atoms: CG_65  and  CD2_67 
REMARK   35  A    between atoms: N_68  and  CA_69 
REMARK   36  A    between atoms: CA_69  and  C_70 
REMARK   37  A    between atoms: CA_69  and  CB_72 
REMARK       I    between atoms: C_70  and  N_77 
REMARK   38  A    between atoms: CB_72  and  CG_73 
REMARK   39  A    between atoms: CG_73  and  CD_74 
REMARK       I    between atoms: CD_74  and  NE2_76 
ROOT
ATOM      1  CA  IAS d   1     -25.037  -7.110  24.248  0.00  0.00     0.097 C 
ATOM      2  C   IAS d   1     -24.047  -6.576  23.195  0.00  0.00     0.240 C 
ATOM      3  O   IAS d   1     -24.452  -6.265  22.127  0.00  0.00    -0.271 OA
ATOM      4  CB  IAS d   1     -25.731  -8.323  23.653  0.00  0.00     0.036 C 
ATOM      5  CG  IAS d   1     -24.789  -9.530  23.693  0.00  0.00     0.220 C 
ATOM      6  OD1 IAS d   1     -24.021  -9.695  24.575  0.00  0.00    -0.274 OA
ATOM      7  H17 IAS d   1     -24.505  -7.378  25.173  0.00  0.00     0.088 H 
ATOM      8  H18 IAS d   1     -26.008  -8.110  22.610  0.00  0.00     0.051 H 
ATOM      9  H19 IAS d   1     -26.637  -8.547  24.235  0.00  0.00     0.051 H 
ATOM     10  N   ILE d   1     -24.844 -10.424  22.677  0.00  0.00    -0.347 N 
ATOM     11  CA  ILE d   1     -23.980 -11.601  22.634  0.00  0.00     0.092 C 
ATOM     12  C   ILE d   1     -22.549 -11.212  22.358  0.00  0.00     0.241 C 
ATOM     13  O   ILE d   1     -21.594 -11.648  22.947  0.00  0.00    -0.271 OA
ATOM     14  H20 ILE d   1     -25.496 -10.274  21.934  0.00  0.00     0.163 HD
ATOM     15  H21 ILE d   1     -24.008 -12.070  23.629  0.00  0.00     0.088 H 
ATOM     16  N   LEU d   1     -22.310 -10.159  21.337  0.00  0.00    -0.346 N 
ATOM     17  CA  LEU d   1     -21.010  -9.670  20.962  0.00  0.00     0.089 C 
ATOM     18  C   LEU d   1     -20.238  -9.169  22.192  0.00  0.00     0.241 C 
ATOM     19  O   LEU d   1     -19.142  -9.543  22.469  0.00  0.00    -0.271 OA
ATOM     20  H31 LEU d   1     -23.107  -9.764  20.880  0.00  0.00     0.163 HD
ATOM     21  H32 LEU d   1     -20.438 -10.447  20.434  0.00  0.00     0.087 H 
ATOM     22  N   DNP d   1     -20.987  -8.153  22.936  0.00  0.00    -0.344 N 
ATOM     23  CA  DNP d   1     -20.570  -7.450  24.132  0.00  0.00     0.104 C 
ATOM     24  CB  DNP d   1     -21.831  -6.709  24.662  0.00  0.00     0.022 C 
ATOM     25  NG  DNP d   1     -22.591  -6.370  23.422  0.00  0.00    -0.357 N 
ATOM     26  H42 DNP d   1     -21.890  -7.918  22.577  0.00  0.00     0.163 HD
ATOM     27  H43 DNP d   1     -19.776  -6.724  23.904  0.00  0.00     0.090 H 
ATOM     28  H44 DNP d   1     -21.549  -5.798  25.210  0.00  0.00     0.067 H 
ATOM     29  H45 DNP d   1     -22.423  -7.363  25.318  0.00  0.00     0.067 H 
ATOM     30  H46 DNP d   1     -22.070  -5.965  22.671  0.00  0.00     0.162 HD
ENDROOT
BRANCH  23  31
ATOM     31  C   DNP d   1     -20.040  -8.503  25.138  0.00  0.00     0.242 C 
ATOM     32  O   DNP d   1     -18.931  -8.451  25.566  0.00  0.00    -0.271 OA
ATOM     33  N   ARG d   1     -21.010  -9.602  25.493  0.00  0.00    -0.346 N 
ATOM     34  H47 ARG d   1     -21.919  -9.599  25.077  0.00  0.00     0.163 HD
BRANCH  33  35
ATOM     35  CA  ARG d   1     -20.662 -10.668  26.424  0.00  0.00     0.089 C 
ATOM     36  H48 ARG d   1     -20.425 -10.228  27.404  0.00  0.00     0.087 H 
BRANCH  35  37
ATOM     37  C   ARG d   1     -19.470 -11.475  25.916  0.00  0.00     0.241 C 
ATOM     38  O   ARG d   1     -18.573 -11.744  26.630  0.00  0.00    -0.271 OA
ATOM     39  N   LEU d   1     -19.408 -11.988  24.510  0.00  0.00    -0.346 N 
ATOM     40  H60 LEU d   1     -20.128 -11.794  23.844  0.00  0.00     0.163 HD
BRANCH  39  41
ATOM     41  CA  LEU d   1     -18.227 -12.793  24.167  0.00  0.00     0.089 C 
ATOM     42  H61 LEU d   1     -18.140 -13.623  24.884  0.00  0.00     0.087 H 
BRANCH  41  43
ATOM     43  C   LEU d   1     -16.946 -11.960  24.211  0.00  0.00     0.241 C 
ATOM     44  O   LEU d   1     -15.917 -12.480  24.498  0.00  0.00    -0.271 OA
ATOM     45  N   LEU d   1     -17.005 -10.531  23.892  0.00  0.00    -0.346 N 
ATOM     46  H71 LEU d   1     -17.871 -10.095  23.646  0.00  0.00     0.163 HD
BRANCH  45  47
ATOM     47  CA  LEU d   1     -15.765  -9.762  23.943  0.00  0.00     0.089 C 
ATOM     48  H72 LEU d   1     -14.993 -10.279  23.355  0.00  0.00     0.087 H 
BRANCH  47  49
ATOM     49  C   LEU d   1     -15.289  -9.629  25.401  0.00  0.00     0.241 C 
ATOM     50  O   LEU d   1     -14.117  -9.705  25.643  0.00  0.00    -0.271 OA
ATOM     51  N   GLN d   1     -16.294  -9.428  26.473  0.00  0.00    -0.346 N 
ATOM     52  H82 GLN d   1     -17.268  -9.397  26.248  0.00  0.00     0.163 HD
BRANCH  51  53
ATOM     53  CA  GLN d   1     -15.853  -9.275  27.868  0.00  0.00     0.089 C 
ATOM     54  H83 GLN d   1     -15.076  -8.497  27.887  0.00  0.00     0.087 H 
BRANCH  53  55
ATOM     55  C   GLN d   1     -15.269 -10.542  28.470  0.00  0.00     0.238 C 
ATOM     56  O   GLN d   1     -14.320 -10.474  29.166  0.00  0.00    -0.271 OA
ATOM     57  N   NH2 d   1     -16.012 -11.785  28.367  0.00  0.00    -0.368 N 
ATOM     58  H90 NH2 d   1     -15.638 -12.625  28.759  0.00  0.00     0.159 HD
ATOM     59  H91 NH2 d   1     -16.898 -11.801  27.904  0.00  0.00     0.159 HD
ENDBRANCH  53  55
BRANCH  53  60
ATOM     60  CB  GLN d   1     -17.026  -8.827  28.767  0.00  0.00    -0.030 C 
ATOM     61  H84 GLN d   1     -16.839  -9.180  29.792  0.00  0.00     0.037 H 
ATOM     62  H85 GLN d   1     -17.954  -9.279  28.387  0.00  0.00     0.037 H 
BRANCH  60  63
ATOM     63  CG  GLN d   1     -17.196  -7.309  28.795  0.00  0.00     0.011 C 
ATOM     64  H86 GLN d   1     -16.931  -6.885  27.815  0.00  0.00     0.047 H 
ATOM     65  H87 GLN d   1     -16.548  -6.874  29.570  0.00  0.00     0.047 H 
BRANCH  63  66
ATOM     66  CD  GLN d   1     -18.667  -7.008  29.114  0.00  0.00     0.215 C 
ATOM     67  OE1 GLN d   1     -19.438  -6.747  28.253  0.00  0.00    -0.274 OA
ATOM     68  NE2 GLN d   1     -19.166  -7.030  30.482  0.00  0.00    -0.370 N 
ATOM     69  H88 GLN d   1     -20.128  -6.831  30.666  0.00  0.00     0.159 HD
ATOM     70  H89 GLN d   1     -18.546  -7.244  31.237  0.00  0.00     0.159 HD
ENDBRANCH  63  66
ENDBRANCH  60  63
ENDBRANCH  53  60
ENDBRANCH  51  53
ENDBRANCH  47  49
BRANCH  47  71
ATOM     71  CB  LEU d   1     -16.002  -8.374  23.356  0.00  0.00    -0.035 C 
ATOM     72  H73 LEU d   1     -15.158  -7.720  23.619  0.00  0.00     0.037 H 
ATOM     73  H74 LEU d   1     -16.931  -7.958  23.773  0.00  0.00     0.037 H 
BRANCH  71  74
ATOM     74  CG  LEU d   1     -16.123  -8.452  21.833  0.00  0.00    -0.059 C 
ATOM     75  H75 LEU d   1     -16.901  -9.175  21.547  0.00  0.00     0.038 H 
BRANCH  74  76
ATOM     76  CD1 LEU d   1     -16.465  -7.052  21.301  0.00  0.00    -0.073 C 
ATOM     77  H76 LEU d   1     -16.556  -7.088  20.205  0.00  0.00     0.028 H 
ATOM     78  H77 LEU d   1     -15.666  -6.349  21.579  0.00  0.00     0.028 H 
ATOM     79  H78 LEU d   1     -17.417  -6.716  21.737  0.00  0.00     0.028 H 
ENDBRANCH  74  76
BRANCH  74  80
ATOM     80  CD2 LEU d   1     -14.775  -8.859  21.248  0.00  0.00    -0.073 C 
ATOM     81  H79 LEU d   1     -14.504  -9.861  21.613  0.00  0.00     0.028 H 
ATOM     82  H80 LEU d   1     -14.007  -8.136  21.559  0.00  0.00     0.028 H 
ATOM     83  H81 LEU d   1     -14.841  -8.875  20.150  0.00  0.00     0.028 H 
ENDBRANCH  74  80
ENDBRANCH  71  74
ENDBRANCH  47  71
ENDBRANCH  45  47
ENDBRANCH  41  43
BRANCH  41  84
ATOM     84  CB  LEU d   1     -18.397 -13.344  22.777  0.00  0.00    -0.035 C 
ATOM     85  H62 LEU d   1     -17.404 -13.601  22.381  0.00  0.00     0.037 H 
ATOM     86  H63 LEU d   1     -18.853 -12.566  22.147  0.00  0.00     0.037 H 
BRANCH  84  87
ATOM     87  CG  LEU d   1     -19.282 -14.596  22.718  0.00  0.00    -0.059 C 
ATOM     88  H64 LEU d   1     -18.658 -15.458  22.438  0.00  0.00     0.038 H 
BRANCH  87  89
ATOM     89  CD1 LEU d   1     -20.016 -14.935  24.005  0.00  0.00    -0.073 C 
ATOM     90  H65 LEU d   1     -20.618 -15.844  23.855  0.00  0.00     0.028 H 
ATOM     91  H66 LEU d   1     -20.676 -14.100  24.282  0.00  0.00     0.028 H 
ATOM     92  H67 LEU d   1     -19.286 -15.107  24.809  0.00  0.00     0.028 H 
ENDBRANCH  87  89
BRANCH  87  93
ATOM     93  CD2 LEU d   1     -20.313 -14.324  21.642  0.00  0.00    -0.073 C 
ATOM     94  H68 LEU d   1     -19.803 -14.076  20.700  0.00  0.00     0.028 H 
ATOM     95  H69 LEU d   1     -20.948 -13.480  21.948  0.00  0.00     0.028 H 
ATOM     96  H70 LEU d   1     -20.936 -15.219  21.497  0.00  0.00     0.028 H 
ENDBRANCH  87  93
ENDBRANCH  84  87
ENDBRANCH  41  84
ENDBRANCH  39  41
ENDBRANCH  35  37
BRANCH  35  97
ATOM     97  CB  ARG d   1     -21.828 -11.657  26.559  0.00  0.00    -0.036 C 
ATOM     98  H49 ARG d   1     -21.728 -12.452  25.805  0.00  0.00     0.036 H 
ATOM     99  H50 ARG d   1     -22.781 -11.128  26.410  0.00  0.00     0.036 H 
BRANCH  97 100
ATOM    100  CG  ARG d   1     -21.792 -12.283  27.992  0.00  0.00    -0.048 C 
ATOM    101  H51 ARG d   1     -22.451 -11.700  28.652  0.00  0.00     0.035 H 
ATOM    102  H52 ARG d   1     -20.761 -12.242  28.373  0.00  0.00     0.035 H 
BRANCH 100 103
ATOM    103  CD  ARG d   1     -22.268 -13.764  27.987  0.00  0.00     0.009 C 
ATOM    104  H53 ARG d   1     -22.390 -14.109  29.024  0.00  0.00     0.064 H 
ATOM    105  H54 ARG d   1     -21.515 -14.385  27.480  0.00  0.00     0.064 H 
BRANCH 103 106
ATOM    106  NE  ARG d   1     -23.564 -13.888  27.274  0.00  0.00    -0.227 N 
ATOM    107  CZ  ARG d   1     -23.797 -14.773  26.136  0.00  0.00     0.665 C 
ATOM    108  NH1 ARG d   1     -24.965 -14.717  25.638  0.00  0.00    -0.235 N 
ATOM    109  NH2 ARG d   1     -22.797 -15.319  25.582  0.00  0.00    -0.235 N 
ATOM    110  H56 ARG d   1     -25.210 -15.310  24.832  0.00  0.00     0.174 HD
ATOM    111  H57 ARG d   1     -25.666 -14.079  26.040  0.00  0.00     0.174 HD
ATOM    112  H58 ARG d   1     -21.883 -15.320  26.056  0.00  0.00     0.174 HD
ATOM    113  H59 ARG d   1     -22.898 -15.762  24.658  0.00  0.00     0.174 HD
ATOM    114  H55 ARG d   1     -24.351 -13.312  27.604  0.00  0.00     0.177 HD
ENDBRANCH 103 106
ENDBRANCH 100 103
ENDBRANCH  97 100
ENDBRANCH  35  97
ENDBRANCH  33  35
ENDBRANCH  23  31
BRANCH  17 115
ATOM    115  CB  LEU d   1     -21.260  -8.447  20.073  0.00  0.00    -0.035 C 
ATOM    116  H33 LEU d   1     -21.201  -7.551  20.708  0.00  0.00     0.037 H 
ATOM    117  H34 LEU d   1     -22.274  -8.535  19.657  0.00  0.00     0.037 H 
BRANCH 115 118
ATOM    118  CG  LEU d   1     -20.290  -8.259  18.907  0.00  0.00    -0.059 C 
ATOM    119  H35 LEU d   1     -20.600  -8.923  18.087  0.00  0.00     0.038 H 
BRANCH 118 120
ATOM    120  CD1 LEU d   1     -20.374  -6.806  18.427  0.00  0.00    -0.073 C 
ATOM    121  H36 LEU d   1     -19.680  -6.657  17.587  0.00  0.00     0.028 H 
ATOM    122  H37 LEU d   1     -20.102  -6.131  19.252  0.00  0.00     0.028 H 
ATOM    123  H38 LEU d   1     -21.401  -6.587  18.098  0.00  0.00     0.028 H 
ENDBRANCH 118 120
BRANCH 118 124
ATOM    124  CD2 LEU d   1     -18.845  -8.609  19.283  0.00  0.00    -0.073 C 
ATOM    125  H39 LEU d   1     -18.798  -9.653  19.625  0.00  0.00     0.028 H 
ATOM    126  H40 LEU d   1     -18.504  -7.943  20.089  0.00  0.00     0.028 H 
ATOM    127  H41 LEU d   1     -18.196  -8.482  18.404  0.00  0.00     0.028 H 
ENDBRANCH 118 124
ENDBRANCH 115 118
ENDBRANCH  17 115
BRANCH   1 128
ATOM    128  N   IAS d   1     -26.071  -6.096  24.525  0.00  0.00    -0.346 N 
ATOM    129  C   ARG d   1     -25.788  -4.836  25.275  0.00  0.00     0.249 C 
ATOM    130  O   ARG d   1     -24.699  -4.607  25.677  0.00  0.00    -0.271 OA
ATOM    131  H16 IAS d   1     -27.001  -6.259  24.197  0.00  0.00     0.163 HD
BRANCH 129 132
ATOM    132  CA  ARG d   1     -26.927  -3.818  25.521  0.00  0.00     0.176 C 
ATOM    133  H4  ARG d   1     -27.731  -4.313  26.085  0.00  0.00     0.099 H 
BRANCH 132 134
ATOM    134  N   ARG d   1     -26.452  -2.698  26.288  0.00  0.00    -0.067 N 
ATOM    135  H1  ARG d   1     -27.208  -2.048  26.437  0.00  0.00     0.275 HD
ATOM    136  H2  ARG d   1     -25.708  -2.239  25.787  0.00  0.00     0.275 HD
ATOM    137  H3  ARG d   1     -26.108  -3.022  27.178  0.00  0.00     0.275 HD
ENDBRANCH 132 134
BRANCH 132 138
ATOM    138  CB  ARG d   1     -27.488  -3.345  24.156  0.00  0.00    -0.029 C 
ATOM    139  H5  ARG d   1     -28.416  -2.782  24.333  0.00  0.00     0.036 H 
ATOM    140  H6  ARG d   1     -27.708  -4.230  23.540  0.00  0.00     0.036 H 
BRANCH 138 141
ATOM    141  CG  ARG d   1     -26.500  -2.440  23.386  0.00  0.00    -0.047 C 
ATOM    142  H7  ARG d   1     -25.473  -2.732  23.649  0.00  0.00     0.035 H 
ATOM    143  H8  ARG d   1     -26.672  -1.395  23.683  0.00  0.00     0.035 H 
BRANCH 141 144
ATOM    144  CD  ARG d   1     -26.676  -2.559  21.842  0.00  0.00     0.009 C 
ATOM    145  H9  ARG d   1     -26.075  -3.409  21.485  0.00  0.00     0.064 H 
ATOM    146  H10 ARG d   1     -26.312  -1.631  21.376  0.00  0.00     0.064 H 
BRANCH 144 147
ATOM    147  NE  ARG d   1     -28.069  -2.770  21.437  0.00  0.00    -0.227 N 
ATOM    148  CZ  ARG d   1     -28.620  -2.190  20.210  0.00  0.00     0.665 C 
ATOM    149  NH1 ARG d   1     -29.827  -2.416  19.898  0.00  0.00    -0.235 N 
ATOM    150  NH2 ARG d   1     -27.914  -1.463  19.460  0.00  0.00    -0.235 N 
ATOM    151  H12 ARG d   1     -30.221  -2.011  19.037  0.00  0.00     0.174 HD
ATOM    152  H13 ARG d   1     -30.415  -3.005  20.506  0.00  0.00     0.174 HD
ATOM    153  H14 ARG d   1     -26.931  -1.272  19.704  0.00  0.00     0.174 HD
ATOM    154  H15 ARG d   1     -28.320  -1.060  18.604  0.00  0.00     0.174 HD
ATOM    155  H11 ARG d   1     -28.680  -3.345  22.035  0.00  0.00     0.177 HD
ENDBRANCH 144 147
ENDBRANCH 141 144
ENDBRANCH 138 141
ENDBRANCH 132 138
ENDBRANCH 129 132
ENDBRANCH   1 128
BRANCH  11 156
ATOM    156  CB  ILE d   1     -24.512 -12.668  21.593  0.00  0.00    -0.030 C 
ATOM    157  H22 ILE d   1     -24.680 -12.123  20.652  0.00  0.00     0.043 H 
BRANCH 156 158
ATOM    158  CG1 ILE d   1     -25.868 -13.340  21.984  0.00  0.00    -0.063 C 
ATOM    159  H23 ILE d   1     -26.567 -12.543  22.277  0.00  0.00     0.033 H 
ATOM    160  H24 ILE d   1     -25.682 -13.999  22.844  0.00  0.00     0.033 H 
BRANCH 158 161
ATOM    161  CD1 ILE d   1     -26.545 -14.181  20.881  0.00  0.00    -0.076 C 
ATOM    162  H28 ILE d   1     -27.485 -14.602  21.266  0.00  0.00     0.027 H 
ATOM    163  H29 ILE d   1     -25.874 -14.998  20.579  0.00  0.00     0.027 H 
ATOM    164  H30 ILE d   1     -26.759 -13.542  20.012  0.00  0.00     0.027 H 
ENDBRANCH 158 161
ENDBRANCH 156 158
BRANCH 156 165
ATOM    165  CG2 ILE d   1     -23.477 -13.798  21.302  0.00  0.00    -0.071 C 
ATOM    166  H25 ILE d   1     -22.512 -13.349  21.024  0.00  0.00     0.028 H 
ATOM    167  H26 ILE d   1     -23.841 -14.425  20.475  0.00  0.00     0.028 H 
ATOM    168  H27 ILE d   1     -23.347 -14.417  22.202  0.00  0.00     0.028 H 
ENDBRANCH 156 165
ENDBRANCH  11 156
TORSDOF 39
