REMARK  12 active torsions:
REMARK  status: ('A' for Active; 'I' for Inactive)
REMARK    1  A    between atoms: C1_1  and  C2_2 
REMARK    2  A    between atoms: C3_3  and  C1_1 
REMARK    3  A    between atoms: C1_1  and  N1_24 
REMARK    4  A    between atoms: C2_2  and  C5_5 
REMARK       I    between atoms: N4_27  and  C3_3 
REMARK    5  A    between atoms: C16_16  and  C4_4 
REMARK    6  A    between atoms: C11_11  and  C12_12 
REMARK       I    between atoms: N1_24  and  C11_11 
REMARK    7  A    between atoms: C18_18  and  C15_15 
REMARK    8  A    between atoms: C15_15  and  O2_29 
REMARK    9  A    between atoms: C19_19  and  C18_18 
REMARK   10  A    between atoms: C18_18  and  N4_27 
REMARK   11  A    between atoms: C20_20  and  C19_19 
REMARK   12  A    between atoms: C21_21  and  O5_32 
ROOT
ATOM      1  C3  5GI d   1     -22.463  -3.431  98.496  0.00  0.00     0.241 C 
ATOM      2  N4  5GI d   1     -23.005  -2.485  99.391  0.00  0.00    -0.353 N 
ATOM      3  O3  5GI d   1     -21.679  -4.258  98.834  0.00  0.00    -0.271 OA
ATOM      4  H28 5GI d   1     -23.656  -1.823  99.019  0.00  0.00     0.163 HD
ENDROOT
BRANCH   1   5
ATOM      5  C1  5GI d   1     -22.891  -3.380  97.069  0.00  0.00     0.093 C 
ATOM      6  H1  5GI d   1     -23.146  -2.356  96.757  0.00  0.00     0.088 H 
BRANCH   5   7
ATOM      7  C2  5GI d   1     -24.078  -4.288  96.901  0.00  0.00    -0.014 C 
ATOM      8  H2  5GI d   1     -24.727  -4.196  97.784  0.00  0.00     0.043 H 
ATOM      9  H3  5GI d   1     -23.725  -5.326  96.813  0.00  0.00     0.043 H 
BRANCH   7  10
ATOM     10  C5  5GI d   1     -24.880  -3.930  95.657  0.00  0.00    -0.056 A 
ATOM     11  C6  5GI d   1     -25.300  -2.663  95.457  0.00  0.00    -0.074 A 
ATOM     12  C8  5GI d   1     -26.013  -2.368  94.321  0.00  0.00    -0.045 A 
ATOM     13  H7  5GI d   1     -25.078  -1.889  96.183  0.00  0.00     0.084 H 
ATOM     14  C9  5GI d   1     -26.276  -3.371  93.408  0.00  0.00     0.116 A 
ATOM     15  H9  5GI d   1     -26.366  -1.359  94.142  0.00  0.00     0.088 H 
ATOM     16  C10 5GI d   1     -25.852  -4.627  93.606  0.00  0.00    -0.045 A 
ATOM     17  F1  5GI d   1     -26.945  -3.119  92.315  0.00  0.00    -0.206 F 
ATOM     18  C7  5GI d   1     -25.155  -4.929  94.739  0.00  0.00    -0.074 A 
ATOM     19  H10 5GI d   1     -26.061  -5.396  92.872  0.00  0.00     0.088 H 
ATOM     20  H8  5GI d   1     -24.819  -5.944  94.919  0.00  0.00     0.084 H 
ENDBRANCH   7  10
ENDBRANCH   5   7
BRANCH   5  21
ATOM     21  N1  5GI d   1     -21.791  -3.860  96.363  0.00  0.00    -0.342 N 
ATOM     22  C11 5GI d   1     -20.729  -2.985  96.098  0.00  0.00     0.273 C 
ATOM     23  O4  5GI d   1     -20.746  -1.826  96.438  0.00  0.00    -0.266 OA
ATOM     24  H25 5GI d   1     -21.759  -4.810  96.051  0.00  0.00     0.163 HD
BRANCH  22  25
ATOM     25  C12 5GI d   1     -19.509  -3.517  95.384  0.00  0.00     0.154 A 
ATOM     26  C14 5GI d   1     -18.168  -3.108  95.625  0.00  0.00    -0.017 A 
ATOM     27  C16 5GI d   1     -17.406  -3.915  94.725  0.00  0.00     0.077 A 
ATOM     28  H13 5GI d   1     -17.808  -2.358  96.328  0.00  0.00     0.091 H 
ATOM     29  O1  5GI d   1     -18.243  -4.661  94.077  0.00  0.00    -0.218 OA
ATOM     30  N2  5GI d   1     -19.476  -4.447  94.470  0.00  0.00    -0.123 NA
BRANCH  27  31
ATOM     31  C4  5GI d   1     -15.915  -3.906  94.553  0.00  0.00    -0.029 C 
ATOM     32  H4  5GI d   1     -15.471  -3.170  95.239  0.00  0.00     0.036 H 
ATOM     33  H5  5GI d   1     -15.667  -3.637  93.516  0.00  0.00     0.036 H 
ATOM     34  H6  5GI d   1     -15.514  -4.905  94.778  0.00  0.00     0.036 H 
ENDBRANCH  27  31
ENDBRANCH  22  25
ENDBRANCH   5  21
ENDBRANCH   1   5
BRANCH   2  35
ATOM     35  C18 5GI d   1     -22.704  -2.394 100.777  0.00  0.00     0.033 C 
ATOM     36  H18 5GI d   1     -22.261  -3.349 101.096  0.00  0.00     0.075 H 
BRANCH  35  37
ATOM     37  C15 5GI d   1     -23.968  -2.236 101.532  0.00  0.00     0.035 C 
ATOM     38  H14 5GI d   1     -24.698  -1.724 100.887  0.00  0.00     0.077 H 
ATOM     39  H15 5GI d   1     -23.769  -1.620 102.421  0.00  0.00     0.077 H 
BRANCH  37  40
ATOM     40  O2  5GI d   1     -24.456  -3.310 101.901  0.00  0.00    -0.399 OA
ATOM     41  H29 5GI d   1     -24.642  -3.850 101.142  0.00  0.00     0.209 HD
ENDBRANCH  37  40
ENDBRANCH  35  37
BRANCH  35  42
ATOM     42  C19 5GI d   1     -21.641  -1.325 100.995  0.00  0.00    -0.037 C 
ATOM     43  H19 5GI d   1     -21.345  -1.411 102.051  0.00  0.00     0.036 H 
ATOM     44  H20 5GI d   1     -22.149  -0.363 100.834  0.00  0.00     0.036 H 
BRANCH  42  45
ATOM     45  C20 5GI d   1     -20.308  -1.237 100.189  0.00  0.00    -0.002 C 
ATOM     46  C21 5GI d   1     -19.423  -0.222 100.876  0.00  0.00     0.193 C 
ATOM     47  N3  5GI d   1     -18.063  -0.090 100.361  0.00  0.00    -0.049 N 
ATOM     48  H22 5GI d   1     -19.339  -0.524 101.930  0.00  0.00     0.129 H 
ATOM     49  C13 5GI d   1     -17.397  -1.343 100.010  0.00  0.00     0.085 C 
ATOM     50  H26 5GI d   1     -18.099   0.485  99.534  0.00  0.00     0.280 HD
ATOM     51  H27 5GI d   1     -17.508   0.370 101.066  0.00  0.00     0.280 HD
ATOM     52  C17 5GI d   1     -18.310  -2.365  99.358  0.00  0.00    -0.042 C 
ATOM     53  H11 5GI d   1     -16.578  -1.116  99.312  0.00  0.00     0.075 H 
ATOM     54  H12 5GI d   1     -16.984  -1.784 100.929  0.00  0.00     0.075 H 
ATOM     55  C22 5GI d   1     -19.555  -2.511 100.119  0.00  0.00    -0.056 C 
ATOM     56  H16 5GI d   1     -17.795  -3.336  99.319  0.00  0.00     0.035 H 
ATOM     57  H17 5GI d   1     -18.549  -2.035  98.336  0.00  0.00     0.035 H 
ATOM     58  H23 5GI d   1     -19.312  -2.838 101.141  0.00  0.00     0.033 H 
ATOM     59  H24 5GI d   1     -20.184  -3.270  99.631  0.00  0.00     0.033 H 
ATOM     60  H21 5GI d   1     -20.537  -0.906  99.165  0.00  0.00     0.046 H 
BRANCH  46  61
ATOM     61  O5  5GI d   1     -20.044   0.990 100.818  0.00  0.00    -0.369 OA
ATOM     62  H30 5GI d   1     -19.562   1.617 101.345  0.00  0.00     0.212 HD
ENDBRANCH  46  61
ENDBRANCH  42  45
ENDBRANCH  35  42
ENDBRANCH   2  35
TORSDOF 12
