REMARK  11 active torsions:
REMARK  status: ('A' for Active; 'I' for Inactive)
REMARK    1  A    between atoms: C1_1  and  C2_2 
REMARK    2  A    between atoms: C3_3  and  C1_1 
REMARK    3  A    between atoms: C1_1  and  N1_24 
REMARK    4  A    between atoms: C2_2  and  C5_5 
REMARK       I    between atoms: N4_27  and  C3_3 
REMARK    5  A    between atoms: C16_16  and  C4_4 
REMARK    6  A    between atoms: C11_11  and  C12_12 
REMARK       I    between atoms: N1_24  and  C11_11 
REMARK    7  A    between atoms: C18_18  and  C15_15 
REMARK    8  A    between atoms: C19_19  and  C18_18 
REMARK    9  A    between atoms: C18_18  and  N4_27 
REMARK   10  A    between atoms: C20_20  and  C19_19 
REMARK   11  A    between atoms: C21_21  and  O5_32 
ROOT
ATOM      1  C1  5GI d   1       1.076   6.295  25.931  0.00  0.00     0.093 C 
ATOM      2  H1  5GI d   1       0.931   5.271  25.555  0.00  0.00     0.088 H 
ENDROOT
BRANCH   1   3
ATOM      3  C2  5GI d   1       1.459   7.216  24.805  0.00  0.00    -0.014 C 
ATOM      4  H2  5GI d   1       2.543   7.140  24.633  0.00  0.00     0.043 H 
ATOM      5  H3  5GI d   1       1.204   8.249  25.085  0.00  0.00     0.043 H 
BRANCH   3   6
ATOM      6  C5  5GI d   1       0.726   6.855  23.519  0.00  0.00    -0.056 A 
ATOM      7  C6  5GI d   1       0.760   5.590  23.046  0.00  0.00    -0.074 A 
ATOM      8  C8  5GI d   1       0.083   5.293  21.890  0.00  0.00    -0.045 A 
ATOM      9  H7  5GI d   1       1.314   4.821  23.572  0.00  0.00     0.084 H 
ATOM     10  C9  5GI d   1      -0.623   6.289  21.244  0.00  0.00     0.116 A 
ATOM     11  H9  5GI d   1       0.102   4.287  21.488  0.00  0.00     0.088 H 
ATOM     12  C10 5GI d   1      -0.660   7.541  21.718  0.00  0.00    -0.045 A 
ATOM     13  F1  5GI d   1      -1.283   6.034  20.146  0.00  0.00    -0.206 F 
ATOM     14  C7  5GI d   1       0.022   7.847  22.860  0.00  0.00    -0.074 A 
ATOM     15  H10 5GI d   1      -1.227   8.305  21.199  0.00  0.00     0.088 H 
ATOM     16  H8  5GI d   1       0.012   8.859  23.248  0.00  0.00     0.084 H 
ENDBRANCH   3   6
ENDBRANCH   1   3
BRANCH   1  17
ATOM     17  C3  5GI d   1       2.147   6.356  26.966  0.00  0.00     0.241 C 
ATOM     18  N4  5GI d   1       3.205   5.426  26.890  0.00  0.00    -0.348 N 
ATOM     19  H27 5GI d   1       3.183   4.768  26.138  0.00  0.00     0.163 HD
ATOM     20  O3  5GI d   1       2.075   7.177  27.823  0.00  0.00    -0.271 OA
BRANCH  18  21
ATOM     21  C18 5GI d   1       4.300   5.346  27.793  0.00  0.00     0.063 C 
ATOM     22  H17 5GI d   1       4.276   6.278  28.377  0.00  0.00     0.083 H 
BRANCH  21  23
ATOM     23  C15 5GI d   1       5.631   5.436  27.044  0.00  0.00     0.110 C 
ATOM     24  O2  5GI d   1       6.048   6.549  26.801  0.00  0.00    -0.305 OA
ATOM     25  H14 5GI d   1       6.178   4.544  26.743  0.00  0.00     0.146 H 
ENDBRANCH  21  23
BRANCH  21  26
ATOM     26  C19 5GI d   1       4.022   4.267  28.831  0.00  0.00    -0.033 C 
ATOM     27  H18 5GI d   1       4.823   4.361  29.579  0.00  0.00     0.037 H 
ATOM     28  H19 5GI d   1       4.127   3.309  28.300  0.00  0.00     0.037 H 
BRANCH  26  29
ATOM     29  C20 5GI d   1       2.695   4.154  29.645  0.00  0.00    -0.002 C 
ATOM     30  C21 5GI d   1       2.915   3.135  30.740  0.00  0.00     0.193 C 
ATOM     31  N3  5GI d   1       1.835   2.981  31.712  0.00  0.00    -0.049 N 
ATOM     32  H21 5GI d   1       3.809   3.447  31.300  0.00  0.00     0.129 H 
ATOM     33  C13 5GI d   1       1.199   4.222  32.149  0.00  0.00     0.085 C 
ATOM     34  H25 5GI d   1       1.125   2.398  31.297  0.00  0.00     0.280 HD
ATOM     35  H26 5GI d   1       2.213   2.523  32.526  0.00  0.00     0.280 HD
ATOM     36  C17 5GI d   1       1.023   5.248  31.045  0.00  0.00    -0.042 C 
ATOM     37  H11 5GI d   1       0.206   3.977  32.555  0.00  0.00     0.075 H 
ATOM     38  H12 5GI d   1       1.819   4.668  32.940  0.00  0.00     0.075 H 
ATOM     39  C22 5GI d   1       2.268   5.417  30.289  0.00  0.00    -0.056 C 
ATOM     40  H15 5GI d   1       0.738   6.212  31.491  0.00  0.00     0.035 H 
ATOM     41  H16 5GI d   1       0.229   4.911  30.362  0.00  0.00     0.035 H 
ATOM     42  H22 5GI d   1       3.059   5.752  30.976  0.00  0.00     0.033 H 
ATOM     43  H23 5GI d   1       2.112   6.178  29.511  0.00  0.00     0.033 H 
ATOM     44  H20 5GI d   1       1.895   3.815  28.970  0.00  0.00     0.046 H 
BRANCH  30  45
ATOM     45  O5  5GI d   1       3.166   1.930  30.155  0.00  0.00    -0.369 OA
ATOM     46  H28 5GI d   1       3.423   1.303  30.821  0.00  0.00     0.212 HD
ENDBRANCH  30  45
ENDBRANCH  26  29
ENDBRANCH  21  26
ENDBRANCH  18  21
ENDBRANCH   1  17
BRANCH   1  47
ATOM     47  N1  5GI d   1      -0.062   6.754  26.587  0.00  0.00    -0.342 N 
ATOM     48  C11 5GI d   1      -0.773   5.864  27.404  0.00  0.00     0.273 C 
ATOM     49  O4  5GI d   1      -0.445   4.708  27.538  0.00  0.00    -0.266 OA
ATOM     50  H24 5GI d   1      -0.367   7.700  26.478  0.00  0.00     0.163 HD
BRANCH  48  51
ATOM     51  C12 5GI d   1      -1.975   6.373  28.164  0.00  0.00     0.154 A 
ATOM     52  C14 5GI d   1      -2.369   5.950  29.463  0.00  0.00    -0.017 A 
ATOM     53  C16 5GI d   1      -3.531   6.738  29.732  0.00  0.00     0.077 A 
ATOM     54  H13 5GI d   1      -1.898   5.204  30.101  0.00  0.00     0.091 H 
ATOM     55  O1  5GI d   1      -3.733   7.487  28.695  0.00  0.00    -0.218 OA
ATOM     56  N2  5GI d   1      -2.816   7.293  27.778  0.00  0.00    -0.123 NA
BRANCH  53  57
ATOM     57  C4  5GI d   1      -4.368   6.709  30.977  0.00  0.00    -0.029 C 
ATOM     58  H4  5GI d   1      -3.951   5.975  31.682  0.00  0.00     0.036 H 
ATOM     59  H5  5GI d   1      -5.399   6.426  30.719  0.00  0.00     0.036 H 
ATOM     60  H6  5GI d   1      -4.367   7.706  31.443  0.00  0.00     0.036 H 
ENDBRANCH  53  57
ENDBRANCH  48  51
ENDBRANCH   1  47
TORSDOF 11
