REMARK WARNING: 32 MAX_TORS EXCEEDED!!!
REMARK  48 active torsions:
REMARK  status: ('A' for Active; 'I' for Inactive)
REMARK    1  A    between atoms: CA_2  and  N_1 
REMARK    2  A    between atoms: C_3  and  CA_2 
REMARK    3  A    between atoms: CA_2  and  CB_5 
REMARK       I    between atoms: N_12  and  C_3 
REMARK    4  A    between atoms: CB_5  and  CG_6 
REMARK    5  A    between atoms: CG_6  and  CD_7 
REMARK    6  A    between atoms: CD_7  and  NE_8 
REMARK    7  A    between atoms: NE_8  and  CZ_9 
REMARK    8  A    between atoms: CZ_9  and  NH1_10 
REMARK    9  A    between atoms: CZ_9  and  NH2_11 
REMARK   10  A    between atoms: CA_13  and  N_12 
REMARK   11  A    between atoms: CA_20  and  CB_23 
REMARK   12  A    between atoms: CB_23  and  CG1_24 
REMARK   13  A    between atoms: CB_23  and  CG2_25 
REMARK   14  A    between atoms: CG1_24  and  CD1_26 
REMARK   15  A    between atoms: CA_29  and  CB_31 
REMARK   16  A    between atoms: CB_31  and  CAI_32 
REMARK   17  A    between atoms: CAI_32  and  CAB_33 
REMARK   18  A    between atoms: CAI_32  and  CAC_34 
REMARK   19  A    between atoms: CAI_32  and  CAA_35 
REMARK   20  A    between atoms: C_38  and  CA_37 
REMARK       I    between atoms: N_42  and  C_38 
REMARK   21  A    between atoms: CA_43  and  N_42 
REMARK   22  A    between atoms: C_44  and  CA_43 
REMARK   23  A    between atoms: CA_43  and  CB_46 
REMARK       I    between atoms: N_56  and  C_44 
REMARK   24  A    between atoms: CB_46  and  CG_47 
REMARK   25  A    between atoms: CG_47  and  CD_48 
REMARK   26  A    between atoms: CD_48  and  NE_49 
REMARK   27  A    between atoms: NE_49  and  CZ_50 
REMARK   28  A    between atoms: CZ_50  and  NH1_51 
REMARK   29  A    between atoms: CZ_50  and  NH2_52 
REMARK   30  A    between atoms: C_54  and  CA_55 
REMARK       I    between atoms: N_65  and  C_54 
REMARK   31  A    between atoms: CA_55  and  N_56 
REMARK   32  A    between atoms: CA_55  and  CB_57 
REMARK   33  A    between atoms: CB_57  and  CAI_58 
REMARK   34  A    between atoms: CAI_58  and  CAB_59 
REMARK   35  A    between atoms: CAI_58  and  CAC_60 
REMARK   36  A    between atoms: CAI_58  and  CAA_61 
REMARK   37  A    between atoms: CA_64  and  C_63 
REMARK       I    between atoms: C_63  and  N_71 
REMARK   38  A    between atoms: CA_64  and  N_65 
REMARK   39  A    between atoms: CA_64  and  CB_66 
REMARK   40  A    between atoms: CB_66  and  CAI_67 
REMARK   41  A    between atoms: CAI_67  and  CAB_68 
REMARK   42  A    between atoms: CAI_67  and  CAC_69 
REMARK   43  A    between atoms: CAI_67  and  CAA_70 
REMARK   44  A    between atoms: N_71  and  CA_72 
REMARK   45  A    between atoms: CA_72  and  C_73 
REMARK   46  A    between atoms: CA_72  and  CB_75 
REMARK       I    between atoms: C_73  and  N_80 
REMARK   47  A    between atoms: CB_75  and  CG_76 
REMARK   48  A    between atoms: CG_76  and  CD_77 
REMARK       I    between atoms: CD_77  and  NE2_79 
ROOT
ATOM      1  N   ARG d   1       7.382  20.527  91.301  0.00  0.00    -0.346 N 
ATOM      2  H53 ARG d   1       6.669  20.290  90.641  0.00  0.00     0.163 HD
ATOM      3  C   DPP d   1       7.987  21.713  91.212  0.00  0.00     0.242 C 
ATOM      4  O   DPP d   1       8.866  22.080  91.954  0.00  0.00    -0.271 OA
ENDROOT
BRANCH   3   5
ATOM      5  CA  DPP d   1       7.581  22.654  90.135  0.00  0.00     0.104 C 
ATOM      6  N   DPP d   1       7.088  21.964  88.986  0.00  0.00    -0.344 N 
ATOM      7  C   0JY d   1       7.925  21.367  88.179  0.00  0.00     0.241 C 
ATOM      8  H48 DPP d   1       6.106  21.938  88.799  0.00  0.00     0.163 HD
ATOM      9  O   0JY d   1       9.122  21.347  88.386  0.00  0.00    -0.271 OA
ATOM     10  CA  0JY d   1       7.305  20.741  86.976  0.00  0.00     0.090 C 
ATOM     11  N   0JY d   1       6.052  20.085  87.296  0.00  0.00    -0.346 N 
ATOM     12  H35 0JY d   1       8.005  20.013  86.539  0.00  0.00     0.087 H 
ATOM     13  C   ILE d   1       5.970  19.150  88.205  0.00  0.00     0.241 C 
ATOM     14  H36 0JY d   1       5.224  20.357  86.805  0.00  0.00     0.163 HD
ATOM     15  CA  ILE d   1       4.597  18.592  88.491  0.00  0.00     0.092 C 
ATOM     16  O   ILE d   1       6.860  18.710  88.827  0.00  0.00    -0.271 OA
ATOM     17  N   ILE d   1       3.578  19.633  88.390  0.00  0.00    -0.347 N 
ATOM     18  H25 ILE d   1       4.598  18.228  89.529  0.00  0.00     0.088 H 
ATOM     19  CG  IAS d   1       3.615  20.495  89.421  0.00  0.00     0.220 C 
ATOM     20  H24 ILE d   1       2.924  19.698  87.636  0.00  0.00     0.163 HD
ATOM     21  CB  IAS d   1       2.619  21.640  89.438  0.00  0.00     0.036 C 
ATOM     22  OD1 IAS d   1       4.420  20.316  90.310  0.00  0.00    -0.274 OA
ATOM     23  CA  IAS d   1       3.021  22.749  90.424  0.00  0.00     0.097 C 
ATOM     24  H22 IAS d   1       2.558  22.070  88.427  0.00  0.00     0.051 H 
ATOM     25  H23 IAS d   1       1.634  21.247  89.730  0.00  0.00     0.051 H 
ATOM     26  C   IAS d   1       4.402  23.174  90.030  0.00  0.00     0.240 C 
ATOM     27  H21 IAS d   1       3.035  22.343  91.446  0.00  0.00     0.088 H 
ATOM     28  O   IAS d   1       4.664  23.485  88.875  0.00  0.00    -0.271 OA
ATOM     29  NG  DPP d   1       5.323  23.206  90.977  0.00  0.00    -0.357 N 
ATOM     30  CB  DPP d   1       6.630  23.725  90.662  0.00  0.00     0.022 C 
ATOM     31  H52 DPP d   1       5.116  22.875  91.898  0.00  0.00     0.162 HD
ATOM     32  H50 DPP d   1       6.522  24.507  89.896  0.00  0.00     0.067 H 
ATOM     33  H51 DPP d   1       7.064  24.162  91.574  0.00  0.00     0.067 H 
ATOM     34  H49 DPP d   1       8.492  23.179  89.812  0.00  0.00     0.090 H 
BRANCH  10  35
ATOM     35  CB  0JY d   1       6.988  21.843  85.972  0.00  0.00    -0.032 C 
ATOM     36  H37 0JY d   1       6.547  22.685  86.525  0.00  0.00     0.037 H 
ATOM     37  H38 0JY d   1       6.250  21.446  85.259  0.00  0.00     0.037 H 
BRANCH  35  38
ATOM     38  CAI 0JY d   1       8.167  22.379  85.171  0.00  0.00    -0.049 C 
BRANCH  38  39
ATOM     39  CAB 0JY d   1       9.259  21.357  84.889  0.00  0.00    -0.070 C 
ATOM     40  H39 0JY d   1      10.064  21.831  84.309  0.00  0.00     0.028 H 
ATOM     41  H40 0JY d   1       8.838  20.519  84.314  0.00  0.00     0.028 H 
ATOM     42  H41 0JY d   1       9.664  20.982  85.840  0.00  0.00     0.028 H 
ENDBRANCH  38  39
BRANCH  38  43
ATOM     43  CAC 0JY d   1       7.566  22.886  83.868  0.00  0.00    -0.070 C 
ATOM     44  H42 0JY d   1       6.780  23.623  84.089  0.00  0.00     0.028 H 
ATOM     45  H43 0JY d   1       7.132  22.042  83.312  0.00  0.00     0.028 H 
ATOM     46  H44 0JY d   1       8.352  23.360  83.261  0.00  0.00     0.028 H 
ENDBRANCH  38  43
BRANCH  38  47
ATOM     47  CAA 0JY d   1       8.833  23.545  85.873  0.00  0.00    -0.070 C 
ATOM     48  H45 0JY d   1       9.275  23.199  86.819  0.00  0.00     0.028 H 
ATOM     49  H46 0JY d   1       8.085  24.324  86.081  0.00  0.00     0.028 H 
ATOM     50  H47 0JY d   1       9.623  23.958  85.229  0.00  0.00     0.028 H 
ENDBRANCH  38  47
ENDBRANCH  35  38
ENDBRANCH  10  35
BRANCH  15  51
ATOM     51  CB  ILE d   1       4.256  17.359  87.558  0.00  0.00    -0.030 C 
ATOM     52  H26 ILE d   1       4.048  17.776  86.561  0.00  0.00     0.043 H 
BRANCH  51  53
ATOM     53  CG1 ILE d   1       2.994  16.545  87.990  0.00  0.00    -0.063 C 
ATOM     54  H27 ILE d   1       2.181  17.260  88.183  0.00  0.00     0.033 H 
ATOM     55  H28 ILE d   1       3.240  16.010  88.919  0.00  0.00     0.033 H 
BRANCH  53  56
ATOM     56  CD1 ILE d   1       2.480  15.509  86.969  0.00  0.00    -0.076 C 
ATOM     57  H32 ILE d   1       1.595  15.000  87.377  0.00  0.00     0.027 H 
ATOM     58  H33 ILE d   1       3.269  14.769  86.769  0.00  0.00     0.027 H 
ATOM     59  H34 ILE d   1       2.210  16.020  86.033  0.00  0.00     0.027 H 
ENDBRANCH  53  56
ENDBRANCH  51  53
BRANCH  51  60
ATOM     60  CG2 ILE d   1       5.448  16.364  87.411  0.00  0.00    -0.071 C 
ATOM     61  H29 ILE d   1       6.350  16.915  87.107  0.00  0.00     0.028 H 
ATOM     62  H30 ILE d   1       5.204  15.610  86.648  0.00  0.00     0.028 H 
ATOM     63  H31 ILE d   1       5.630  15.865  88.374  0.00  0.00     0.028 H 
ENDBRANCH  51  60
ENDBRANCH  15  51
BRANCH  23  64
ATOM     64  N   IAS d   1       2.101  23.879  90.388  0.00  0.00    -0.346 N 
ATOM     65  C   ARG d   1       2.359  25.070  90.966  0.00  0.00     0.249 C 
ATOM     66  O   ARG d   1       3.320  25.252  91.695  0.00  0.00    -0.271 OA
ATOM     67  H20 IAS d   1       1.231  23.765  89.909  0.00  0.00     0.163 HD
BRANCH  65  68
ATOM     68  CA  ARG d   1       1.475  26.252  90.640  0.00  0.00     0.176 C 
ATOM     69  H4  ARG d   1       2.103  26.945  90.062  0.00  0.00     0.099 H 
BRANCH  68  70
ATOM     70  N   ARG d   1       0.321  25.899  89.763  0.00  0.00    -0.067 N 
ATOM     71  H1  ARG d   1      -0.228  26.725  89.582  0.00  0.00     0.275 HD
ATOM     72  H2  ARG d   1      -0.252  25.209  90.223  0.00  0.00     0.275 HD
ATOM     73  H3  ARG d   1       0.663  25.526  88.891  0.00  0.00     0.275 HD
ENDBRANCH  68  70
BRANCH  68  74
ATOM     74  CB  ARG d   1       1.001  27.032  91.881  0.00  0.00    -0.029 C 
ATOM     75  H5  ARG d   1       0.046  27.515  91.625  0.00  0.00     0.036 H 
ATOM     76  H6  ARG d   1       1.756  27.803  92.096  0.00  0.00     0.036 H 
BRANCH  74  77
ATOM     77  CG  ARG d   1       0.781  26.227  93.170  0.00  0.00    -0.040 C 
ATOM     78  H7  ARG d   1       1.555  26.519  93.895  0.00  0.00     0.035 H 
ATOM     79  H8  ARG d   1       0.887  25.159  92.931  0.00  0.00     0.035 H 
BRANCH  77  80
ATOM     80  CD  ARG d   1      -0.587  26.439  93.818  0.00  0.00     0.086 C 
ATOM     81  H9  ARG d   1      -1.135  25.485  93.810  0.00  0.00     0.075 H 
ATOM     82  H10 ARG d   1      -1.144  27.187  93.234  0.00  0.00     0.075 H 
BRANCH  80  83
ATOM     83  NE  ARG d   1      -0.474  26.911  95.213  0.00  0.00    -0.022 N 
ATOM     84  H11 ARG d   1       0.152  27.700  95.252  0.00  0.00     0.281 HD
ATOM     85  H12 ARG d   1      -0.115  26.168  95.792  0.00  0.00     0.281 HD
BRANCH  83  86
ATOM     86  CZ  ARG d   1      -1.811  27.315  95.699  0.00  0.00     0.398 C 
ATOM     87  H13 ARG d   1      -2.562  26.902  95.010  0.00  0.00     0.177 H 
BRANCH  86  88
ATOM     88  NH1 ARG d   1      -2.063  26.771  97.052  0.00  0.00    -0.026 N 
ATOM     89  H14 ARG d   1      -2.978  27.057  97.364  0.00  0.00     0.278 HD
ATOM     90  H15 ARG d   1      -1.365  27.121  97.690  0.00  0.00     0.278 HD
ATOM     91  H16 ARG d   1      -2.018  25.764  97.023  0.00  0.00     0.278 HD
ENDBRANCH  86  88
BRANCH  86  92
ATOM     92  NH2 ARG d   1      -1.968  28.785  95.731  0.00  0.00    -0.026 N 
ATOM     93  H17 ARG d   1      -1.797  29.161  94.811  0.00  0.00     0.278 HD
ATOM     94  H18 ARG d   1      -1.308  29.179  96.383  0.00  0.00     0.278 HD
ATOM     95  H19 ARG d   1      -2.905  29.017  96.020  0.00  0.00     0.278 HD
ENDBRANCH  86  92
ENDBRANCH  83  86
ENDBRANCH  80  83
ENDBRANCH  77  80
ENDBRANCH  74  77
ENDBRANCH  68  74
ENDBRANCH  65  68
ENDBRANCH  23  64
ENDBRANCH   3   5
BRANCH   1  96
ATOM     96  CA  ARG d   1       7.740  19.571  92.340  0.00  0.00     0.089 C 
ATOM     97  H54 ARG d   1       8.090  20.151  93.207  0.00  0.00     0.087 H 
BRANCH  96  98
ATOM     98  C   ARG d   1       8.876  18.708  91.907  0.00  0.00     0.241 C 
ATOM     99  O   ARG d   1       9.563  18.221  92.762  0.00  0.00    -0.271 OA
ATOM    100  N   0JY d   1       9.112  18.473  90.632  0.00  0.00    -0.346 N 
ATOM    101  H71 0JY d   1       8.558  18.917  89.927  0.00  0.00     0.163 HD
BRANCH 100 102
ATOM    102  CA  0JY d   1      10.173  17.572  90.260  0.00  0.00     0.090 C 
ATOM    103  H70 0JY d   1      10.229  16.770  91.010  0.00  0.00     0.087 H 
BRANCH 102 104
ATOM    104  C   0JY d   1      11.472  18.283  90.202  0.00  0.00     0.241 C 
ATOM    105  O   0JY d   1      12.510  17.815  90.624  0.00  0.00    -0.271 OA
ATOM    106  N   0JY d   1      11.390  19.469  89.673  0.00  0.00    -0.346 N 
ATOM    107  H84 0JY d   1      10.536  19.761  89.243  0.00  0.00     0.163 HD
BRANCH 106 108
ATOM    108  CA  0JY d   1      12.501  20.354  89.700  0.00  0.00     0.090 C 
ATOM    109  H83 0JY d   1      13.388  19.910  89.224  0.00  0.00     0.087 H 
BRANCH 108 110
ATOM    110  C   0JY d   1      12.805  20.657  91.130  0.00  0.00     0.241 C 
ATOM    111  O   0JY d   1      13.934  20.541  91.559  0.00  0.00    -0.271 OA
ATOM    112  N   GLN d   1      11.739  20.985  91.862  0.00  0.00    -0.346 N 
ATOM    113  H96 GLN d   1      10.884  21.123  91.362  0.00  0.00     0.163 HD
BRANCH 112 114
ATOM    114  CA  GLN d   1      11.676  21.166  93.313  0.00  0.00     0.089 C 
ATOM    115  H97 GLN d   1      10.750  20.674  93.645  0.00  0.00     0.087 H 
BRANCH 114 116
ATOM    116  C   GLN d   1      11.548  22.628  93.675  0.00  0.00     0.238 C 
ATOM    117  O   GLN d   1      12.401  23.411  93.299  0.00  0.00    -0.271 OA
ATOM    118  N   NH2 d   1      10.437  23.097  94.441  0.00  0.00    -0.368 N 
ATOM    119 4H10 NH2 d   1      10.364  24.067  94.674  0.00  0.00     0.159 HD
ATOM    120 5H10 NH2 d   1       9.732  22.456  94.744  0.00  0.00     0.159 HD
ENDBRANCH 114 116
BRANCH 114 121
ATOM    121  CB  GLN d   1      12.814  20.495  94.081  0.00  0.00    -0.030 C 
ATOM    122  H98 GLN d   1      12.734  20.758  95.146  0.00  0.00     0.037 H 
ATOM    123  H99 GLN d   1      13.776  20.854  93.686  0.00  0.00     0.037 H 
BRANCH 121 124
ATOM    124  CG  GLN d   1      12.749  18.985  93.935  0.00  0.00     0.011 C 
ATOM    125 0H10 GLN d   1      13.687  18.645  93.472  0.00  0.00     0.047 H 
ATOM    126 1H10 GLN d   1      11.904  18.740  93.274  0.00  0.00     0.047 H 
BRANCH 124 127
ATOM    127  CD  GLN d   1      12.562  18.223  95.252  0.00  0.00     0.215 C 
ATOM    128  OE1 GLN d   1      12.720  18.764  96.338  0.00  0.00    -0.274 OA
ATOM    129  NE2 GLN d   1      12.237  16.919  95.180  0.00  0.00    -0.370 N 
ATOM    130 2H10 GLN d   1      12.107  16.389  96.018  0.00  0.00     0.159 HD
ATOM    131 3H10 GLN d   1      12.126  16.480  94.288  0.00  0.00     0.159 HD
ENDBRANCH 124 127
ENDBRANCH 121 124
ENDBRANCH 114 121
ENDBRANCH 112 114
ENDBRANCH 108 110
BRANCH 108 132
ATOM    132  CB  0JY d   1      12.010  21.534  88.897  0.00  0.00    -0.032 C 
ATOM    133  H85 0JY d   1      11.170  21.986  89.444  0.00  0.00     0.037 H 
ATOM    134  H86 0JY d   1      11.655  21.156  87.927  0.00  0.00     0.037 H 
BRANCH 132 135
ATOM    135  CAI 0JY d   1      13.017  22.617  88.626  0.00  0.00    -0.049 C 
BRANCH 135 136
ATOM    136  CAB 0JY d   1      12.951  23.584  89.796  0.00  0.00    -0.070 C 
ATOM    137  H87 0JY d   1      13.675  24.398  89.640  0.00  0.00     0.028 H 
ATOM    138  H88 0JY d   1      13.194  23.050  90.727  0.00  0.00     0.028 H 
ATOM    139  H89 0JY d   1      11.937  24.004  89.868  0.00  0.00     0.028 H 
ENDBRANCH 135 136
BRANCH 135 140
ATOM    140  CAC 0JY d   1      14.446  22.145  88.452  0.00  0.00    -0.070 C 
ATOM    141  H90 0JY d   1      14.500  21.444  87.606  0.00  0.00     0.028 H 
ATOM    142  H91 0JY d   1      14.779  21.638  89.370  0.00  0.00     0.028 H 
ATOM    143  H92 0JY d   1      15.096  23.010  88.254  0.00  0.00     0.028 H 
ENDBRANCH 135 140
BRANCH 135 144
ATOM    144  CAA 0JY d   1      12.573  23.231  87.313  0.00  0.00    -0.070 C 
ATOM    145  H93 0JY d   1      11.536  23.585  87.406  0.00  0.00     0.028 H 
ATOM    146  H94 0JY d   1      12.632  22.475  86.516  0.00  0.00     0.028 H 
ATOM    147  H95 0JY d   1      13.229  24.078  87.064  0.00  0.00     0.028 H 
ENDBRANCH 135 144
ENDBRANCH 132 135
ENDBRANCH 108 132
ENDBRANCH 106 108
ENDBRANCH 102 104
BRANCH 102 148
ATOM    148  CB  0JY d   1       9.936  16.961  88.891  0.00  0.00    -0.032 C 
ATOM    149  H72 0JY d   1      10.910  16.827  88.397  0.00  0.00     0.037 H 
ATOM    150  H73 0JY d   1       9.319  17.656  88.303  0.00  0.00     0.037 H 
BRANCH 148 151
ATOM    151  CAI 0JY d   1       9.235  15.621  88.935  0.00  0.00    -0.049 C 
BRANCH 151 152
ATOM    152  CAB 0JY d   1      10.037  14.555  89.662  0.00  0.00    -0.070 C 
ATOM    153  H74 0JY d   1       9.476  13.609  89.659  0.00  0.00     0.028 H 
ATOM    154  H75 0JY d   1      10.214  14.873  90.700  0.00  0.00     0.028 H 
ATOM    155  H76 0JY d   1      11.001  14.411  89.153  0.00  0.00     0.028 H 
ENDBRANCH 151 152
BRANCH 151 156
ATOM    156  CAC 0JY d   1       9.084  15.164  87.493  0.00  0.00    -0.070 C 
ATOM    157  H77 0JY d   1       8.506  15.912  86.930  0.00  0.00     0.028 H 
ATOM    158  H78 0JY d   1       8.557  14.199  87.468  0.00  0.00     0.028 H 
ATOM    159  H79 0JY d   1      10.079  15.051  87.038  0.00  0.00     0.028 H 
ENDBRANCH 151 156
BRANCH 151 160
ATOM    160  CAA 0JY d   1       7.885  15.800  89.597  0.00  0.00    -0.070 C 
ATOM    161  H80 0JY d   1       8.027  16.130  90.637  0.00  0.00     0.028 H 
ATOM    162  H81 0JY d   1       7.342  14.843  89.587  0.00  0.00     0.028 H 
ATOM    163  H82 0JY d   1       7.305  16.556  89.048  0.00  0.00     0.028 H 
ENDBRANCH 151 160
ENDBRANCH 148 151
ENDBRANCH 102 148
ENDBRANCH 100 102
ENDBRANCH  96  98
BRANCH  96 164
ATOM    164  CB  ARG d   1       6.517  18.751  92.814  0.00  0.00    -0.036 C 
ATOM    165  H55 ARG d   1       5.810  18.712  91.972  0.00  0.00     0.036 H 
ATOM    166  H56 ARG d   1       6.063  19.304  93.649  0.00  0.00     0.036 H 
BRANCH 164 167
ATOM    167  CG  ARG d   1       6.727  17.296  93.296  0.00  0.00    -0.040 C 
ATOM    168  H57 ARG d   1       7.115  17.322  94.325  0.00  0.00     0.035 H 
ATOM    169  H58 ARG d   1       7.465  16.813  92.638  0.00  0.00     0.035 H 
BRANCH 167 170
ATOM    170  CD  ARG d   1       5.444  16.462  93.281  0.00  0.00     0.086 C 
ATOM    171  H59 ARG d   1       4.630  17.053  92.837  0.00  0.00     0.075 H 
ATOM    172  H60 ARG d   1       5.177  16.185  94.311  0.00  0.00     0.075 H 
BRANCH 170 173
ATOM    173  NE  ARG d   1       5.652  15.235  92.481  0.00  0.00    -0.022 N 
ATOM    174  H61 ARG d   1       5.897  14.486  93.109  0.00  0.00     0.281 HD
ATOM    175  H62 ARG d   1       6.414  15.400  91.842  0.00  0.00     0.281 HD
BRANCH 173 176
ATOM    176  CZ  ARG d   1       4.466  14.812  91.692  0.00  0.00     0.398 C 
ATOM    177  H63 ARG d   1       3.668  14.511  92.386  0.00  0.00     0.177 H 
BRANCH 176 178
ATOM    178  NH1 ARG d   1       4.773  13.677  90.777  0.00  0.00    -0.026 N 
ATOM    179  H64 ARG d   1       3.943  13.425  90.264  0.00  0.00     0.278 HD
ATOM    180  H65 ARG d   1       5.088  12.886  91.317  0.00  0.00     0.278 HD
ATOM    181  H66 ARG d   1       5.496  13.952  90.131  0.00  0.00     0.278 HD
ENDBRANCH 176 178
BRANCH 176 182
ATOM    182  NH2 ARG d   1       4.006  15.930  90.864  0.00  0.00    -0.026 N 
ATOM    183  H67 ARG d   1       3.789  16.718  91.454  0.00  0.00     0.278 HD
ATOM    184  H68 ARG d   1       3.181  15.654  90.355  0.00  0.00     0.278 HD
ATOM    185  H69 ARG d   1       4.732  16.187  90.214  0.00  0.00     0.278 HD
ENDBRANCH 176 182
ENDBRANCH 173 176
ENDBRANCH 170 173
ENDBRANCH 167 170
ENDBRANCH 164 167
ENDBRANCH  96 164
ENDBRANCH   1  96
TORSDOF 48
