REMARK  9 active torsions:
REMARK  status: ('A' for Active; 'I' for Inactive)
REMARK    1  A    between atoms: C6_3  and  NAB_29 
REMARK    2  A    between atoms: CBD_22  and  CAA_7 
REMARK    3  A    between atoms: CAQ_16  and  CAP_15 
REMARK    4  A    between atoms: CBC_21  and  CAQ_16 
REMARK    5  A    between atoms: CAT_19  and  CBG_24 
REMARK    6  A    between atoms: OBA_35  and  CAT_19 
REMARK       I    between atoms: NBO_32  and  CBC_21 
REMARK    7  A    between atoms: CBJ_27  and  CBH_25 
REMARK    8  A    between atoms: CBI_26  and  OBA_35 
REMARK    9  A    between atoms: CBN_28  and  NBP_33 
ROOT
ATOM      1  C4  816 d   1     -37.284  18.591 -61.384  0.00  0.00     0.164 A 
ATOM      2  C5  816 d   1     -36.324  18.056 -62.103  0.00  0.00     0.088 A 
ATOM      3  C6  816 d   1     -36.530  17.745 -63.374  0.00  0.00     0.139 A 
ATOM      4  N1  816 d   1     -37.705  17.948 -63.965  0.00  0.00    -0.224 NA
ATOM      5  N3  816 d   1     -38.482  18.824 -61.919  0.00  0.00    -0.222 NA
ATOM      6  C2  816 d   1     -38.734  18.503 -63.241  0.00  0.00     0.091 A 
ATOM      7  CBJ 816 d   1     -35.317  17.975 -61.250  0.00  0.00     0.105 A 
ATOM      8  NAZ 816 d   1     -35.721  18.465 -60.088  0.00  0.00    -0.169 NA
ATOM      9  NBP 816 d   1     -36.796  18.796 -60.167  0.00  0.00    -0.244 N 
ATOM     10  H1  816 d   1     -39.705  18.682 -63.689  0.00  0.00     0.146 H 
ENDROOT
BRANCH   7  11
ATOM     11  CBH 816 d   1     -34.084  17.527 -61.463  0.00  0.00    -0.003 A 
ATOM     12  CAL 816 d   1     -33.474  16.704 -60.529  0.00  0.00    -0.068 A 
ATOM     13  CAM 816 d   1     -32.176  16.245 -60.725  0.00  0.00    -0.048 A 
ATOM     14  H8  816 d   1     -34.015  16.415 -59.635  0.00  0.00     0.085 H 
ATOM     15  CBI 816 d   1     -31.495  16.634 -61.864  0.00  0.00     0.090 A 
ATOM     16  H9  816 d   1     -31.706  15.593 -59.997  0.00  0.00     0.087 H 
ATOM     17  CBF 816 d   1     -32.092  17.455 -62.786  0.00  0.00     0.068 A 
ATOM     18  CAN 816 d   1     -33.380  17.914 -62.592  0.00  0.00    -0.047 A 
ATOM     19 CLA  816 d   1     -31.267  17.875 -64.075  0.00  0.00    -0.081 Cl
ATOM     20  H10 816 d   1     -33.838  18.574 -63.320  0.00  0.00     0.087 H 
BRANCH  15  21
ATOM     21  OBA 816 d   1     -30.232  16.244 -62.149  0.00  0.00    -0.344 OA
BRANCH  21  22
ATOM     22  CAT 816 d   1     -29.614  15.684 -61.000  0.00  0.00     0.066 C 
ATOM     23  H22 816 d   1     -28.551  15.966 -60.972  0.00  0.00     0.084 H 
ATOM     24  H23 816 d   1     -30.114  16.049 -60.091  0.00  0.00     0.084 H 
BRANCH  22  25
ATOM     25  CBG 816 d   1     -29.734  14.316 -61.084  0.00  0.00     0.059 A 
ATOM     26  CAK 816 d   1     -29.349  13.508 -60.031  0.00  0.00    -0.057 A 
ATOM     27  CAH 816 d   1     -29.485  12.133 -60.142  0.00  0.00    -0.079 A 
ATOM     28  H7  816 d   1     -28.944  13.946 -59.126  0.00  0.00     0.086 H 
ATOM     29  CAJ 816 d   1     -30.006  11.595 -61.307  0.00  0.00    -0.059 A 
ATOM     30  H5  816 d   1     -29.187  11.486 -59.325  0.00  0.00     0.083 H 
ATOM     31  CBD 816 d   1     -30.374  12.450 -62.331  0.00  0.00     0.031 A 
ATOM     32  H6  816 d   1     -30.123  10.523 -61.415  0.00  0.00     0.086 H 
ATOM     33  NAY 816 d   1     -30.229  13.772 -62.197  0.00  0.00    -0.256 NA
BRANCH  31  34
ATOM     34  CAA 816 d   1     -30.895  11.938 -63.503  0.00  0.00    -0.035 C 
ATOM     35  H2  816 d   1     -30.941  10.841 -63.435  0.00  0.00     0.035 H 
ATOM     36  H3  816 d   1     -30.252  12.226 -64.347  0.00  0.00     0.035 H 
ATOM     37  H4  816 d   1     -31.907  12.338 -63.660  0.00  0.00     0.035 H 
ENDBRANCH  31  34
ENDBRANCH  22  25
ENDBRANCH  21  22
ENDBRANCH  15  21
ENDBRANCH   7  11
BRANCH   3  38
ATOM     38  NAB 816 d   1     -35.510  17.217 -64.031  0.00  0.00    -0.383 N 
ATOM     39  H27 816 d   1     -35.615  16.956 -65.022  0.00  0.00     0.157 HD
ATOM     40  H28 816 d   1     -34.611  17.067 -63.551  0.00  0.00     0.157 HD
ENDBRANCH   3  38
BRANCH   9  41
ATOM     41  CBN 816 d   1     -37.579  19.370 -59.092  0.00  0.00     0.052 C 
ATOM     42  CAR 816 d   1     -37.974  20.793 -59.427  0.00  0.00    -0.041 C 
ATOM     43  CAO 816 d   1     -36.748  21.684 -59.441  0.00  0.00    -0.048 C 
ATOM     44  H18 816 d   1     -38.451  20.814 -60.418  0.00  0.00     0.036 H 
ATOM     45  H19 816 d   1     -38.683  21.161 -58.671  0.00  0.00     0.036 H 
ATOM     46  CAS 816 d   1     -36.250  21.820 -58.031  0.00  0.00    -0.002 C 
ATOM     47  H11 816 d   1     -37.012  22.675 -59.840  0.00  0.00     0.035 H 
ATOM     48  H12 816 d   1     -35.967  21.232 -60.070  0.00  0.00     0.035 H 
ATOM     49  NBO 816 d   1     -36.828  20.728 -57.251  0.00  0.00    -0.350 N 
ATOM     50  H20 816 d   1     -36.566  22.787 -57.613  0.00  0.00     0.064 H 
ATOM     51  H21 816 d   1     -35.152  21.754 -58.013  0.00  0.00     0.064 H 
ATOM     52  CAV 816 d   1     -36.801  19.377 -57.811  0.00  0.00     0.018 C 
ATOM     53  CBC 816 d   1     -37.414  20.960 -56.081  0.00  0.00     0.219 C 
ATOM     54  H24 816 d   1     -35.761  19.079 -58.009  0.00  0.00     0.067 H 
ATOM     55  H25 816 d   1     -37.255  18.672 -57.099  0.00  0.00     0.067 H 
ATOM     56  OAE 816 d   1     -37.498  22.063 -55.550  0.00  0.00    -0.273 OA
ATOM     57  H26 816 d   1     -38.488  18.766 -58.957  0.00  0.00     0.078 H 
BRANCH  53  58
ATOM     58  CAQ 816 d   1     -37.989  19.728 -55.421  0.00  0.00     0.006 C 
ATOM     59  H16 816 d   1     -37.194  18.984 -55.265  0.00  0.00     0.046 H 
ATOM     60  H17 816 d   1     -38.434  19.998 -54.452  0.00  0.00     0.046 H 
BRANCH  58  61
ATOM     61  CAP 816 d   1     -39.058  19.155 -56.335  0.00  0.00    -0.068 C 
ATOM     62  H13 816 d   1     -39.491  18.255 -55.873  0.00  0.00     0.028 H 
ATOM     63  H14 816 d   1     -38.609  18.890 -57.303  0.00  0.00     0.028 H 
ATOM     64  H15 816 d   1     -39.848  19.904 -56.490  0.00  0.00     0.028 H 
ENDBRANCH  58  61
ENDBRANCH  53  58
ENDBRANCH   9  41
TORSDOF 9
