REMARK  22 active torsions:
REMARK  status: ('A' for Active; 'I' for Inactive)
REMARK    1  A    between atoms: N_1  and  CA_2 
REMARK    2  A    between atoms: CA_2  and  C_3 
REMARK       I    between atoms: C_3  and  N_5 
REMARK    3  A    between atoms: N_5  and  CA_6 
REMARK    4  A    between atoms: CA_6  and  C_7 
REMARK    5  A    between atoms: CA_6  and  CB_9 
REMARK       I    between atoms: C_7  and  N_16 
REMARK    6  A    between atoms: CB_9  and  CG_10 
REMARK    7  A    between atoms: N_16  and  CA_17 
REMARK    8  A    between atoms: CA_17  and  C_18 
REMARK       I    between atoms: C_18  and  N_20 
REMARK    9  A    between atoms: N_20  and  CA_21 
REMARK   10  A    between atoms: CA_21  and  C_22 
REMARK   11  A    between atoms: CA_21  and  CB_24 
REMARK       I    between atoms: C_22  and  N_28 
REMARK   12  A    between atoms: CB_24  and  CG_25 
REMARK   13  A    between atoms: CG_25  and  CD1_26 
REMARK   14  A    between atoms: CG_25  and  CD2_27 
REMARK   15  A    between atoms: N_28  and  CA_29 
REMARK   16  A    between atoms: CA_29  and  C_30 
REMARK   17  A    between atoms: CA_29  and  CB_32 
REMARK       I    between atoms: C_30  and  N_39 
REMARK   18  A    between atoms: CB_32  and  CG_33 
REMARK   19  A    between atoms: N_39  and  CA_40 
REMARK   20  A    between atoms: CA_40  and  C_41 
REMARK   21  A    between atoms: CA_40  and  CB_43 
REMARK   22  A    between atoms: CB_43  and  CG_44 
ROOT
ATOM      1  CA  LEU d   1     -14.323  11.732  23.683  0.00  0.00     0.089 C 
ATOM      2  H19 LEU d   1     -14.687  12.719  24.003  0.00  0.00     0.087 H 
ENDROOT
BRANCH   1   3
ATOM      3  N   LEU d   1     -15.458  10.789  24.037  0.00  0.00    -0.346 N 
ATOM      4  C   GLY d   1     -16.681  10.939  23.452  0.00  0.00     0.236 C 
ATOM      5  O   GLY d   1     -16.885  11.857  22.649  0.00  0.00    -0.272 OA
ATOM      6  H18 LEU d   1     -15.309  10.056  24.701  0.00  0.00     0.163 HD
BRANCH   4   7
ATOM      7  CA  GLY d   1     -17.780   9.984  23.768  0.00  0.00     0.069 C 
ATOM      8  H16 GLY d   1     -18.349  10.406  24.609  0.00  0.00     0.078 H 
ATOM      9  H17 GLY d   1     -18.427   9.924  22.881  0.00  0.00     0.078 H 
BRANCH   7  10
ATOM     10  N   GLY d   1     -17.412   8.616  24.133  0.00  0.00    -0.351 N 
ATOM     11  C   PHE d   1     -16.621   7.833  23.358  0.00  0.00     0.241 C 
ATOM     12  O   PHE d   1     -16.106   8.237  22.298  0.00  0.00    -0.271 OA
ATOM     13  H15 GLY d   1     -17.759   8.241  24.993  0.00  0.00     0.163 HD
BRANCH  11  14
ATOM     14  CA  PHE d   1     -16.252   6.464  23.927  0.00  0.00     0.093 C 
ATOM     15  H7  PHE d   1     -15.157   6.374  23.974  0.00  0.00     0.088 H 
BRANCH  14  16
ATOM     16  N   PHE d   1     -16.804   6.300  25.279  0.00  0.00    -0.346 N 
ATOM     17  C   GLY d   1     -16.107   6.703  26.341  0.00  0.00     0.243 C 
ATOM     18  O   GLY d   1     -15.043   7.369  26.241  0.00  0.00    -0.272 OA
ATOM     19  H6  PHE d   1     -17.705   5.885  25.402  0.00  0.00     0.163 HD
BRANCH  17  20
ATOM     20  CA  GLY d   1     -16.735   6.403  27.701  0.00  0.00     0.152 C 
ATOM     21  H4  GLY d   1     -16.004   5.854  28.313  0.00  0.00     0.090 H 
ATOM     22  H5  GLY d   1     -16.982   7.356  28.192  0.00  0.00     0.090 H 
BRANCH  20  23
ATOM     23  N   GLY d   1     -17.984   5.581  27.591  0.00  0.00    -0.071 N 
ATOM     24  H1  GLY d   1     -18.357   5.412  28.512  0.00  0.00     0.274 HD
ATOM     25  H2  GLY d   1     -17.769   4.701  27.149  0.00  0.00     0.274 HD
ATOM     26  H3  GLY d   1     -18.665   6.077  27.038  0.00  0.00     0.274 HD
ENDBRANCH  20  23
ENDBRANCH  17  20
ENDBRANCH  14  16
BRANCH  14  27
ATOM     27  CB  PHE d   1     -16.805   5.394  23.007  0.00  0.00    -0.014 C 
ATOM     28  H8  PHE d   1     -16.473   5.612  21.981  0.00  0.00     0.043 H 
ATOM     29  H9  PHE d   1     -17.904   5.430  23.052  0.00  0.00     0.043 H 
BRANCH  27  30
ATOM     30  CG  PHE d   1     -16.371   4.036  23.357  0.00  0.00    -0.056 A 
ATOM     31  CD1 PHE d   1     -16.962   2.951  22.730  0.00  0.00    -0.077 A 
ATOM     32  CE1 PHE d   1     -16.551   1.641  23.011  0.00  0.00    -0.082 A 
ATOM     33  H10 PHE d   1     -17.755   3.118  22.010  0.00  0.00     0.084 H 
ATOM     34  CZ  PHE d   1     -15.585   1.408  24.043  0.00  0.00    -0.083 A 
ATOM     35  H12 PHE d   1     -16.962   0.809  22.451  0.00  0.00     0.083 H 
ATOM     36  CE2 PHE d   1     -14.980   2.506  24.682  0.00  0.00    -0.082 A 
ATOM     37  H14 PHE d   1     -15.323   0.396  24.329  0.00  0.00     0.083 H 
ATOM     38  CD2 PHE d   1     -15.412   3.819  24.372  0.00  0.00    -0.077 A 
ATOM     39  H13 PHE d   1     -14.189   2.348  25.406  0.00  0.00     0.083 H 
ATOM     40  H11 PHE d   1     -15.004   4.663  24.917  0.00  0.00     0.084 H 
ENDBRANCH  27  30
ENDBRANCH  14  27
ENDBRANCH  11  14
ENDBRANCH   7  10
ENDBRANCH   4   7
ENDBRANCH   1   3
BRANCH   1  41
ATOM     41  C   LEU d   1     -14.013  11.870  22.186  0.00  0.00     0.241 C 
ATOM     42  O   LEU d   1     -13.525  12.937  21.748  0.00  0.00    -0.271 OA
ATOM     43  N   PHE d   1     -14.401  10.872  21.388  0.00  0.00    -0.346 N 
ATOM     44  H29 PHE d   1     -14.910  10.102  21.773  0.00  0.00     0.163 HD
BRANCH  43  45
ATOM     45  CA  PHE d   1     -14.087  10.889  19.937  0.00  0.00     0.093 C 
ATOM     46  H30 PHE d   1     -13.252  11.597  19.829  0.00  0.00     0.088 H 
BRANCH  45  47
ATOM     47  C   PHE d   1     -15.187  11.420  19.022  0.00  0.00     0.241 C 
ATOM     48  O   PHE d   1     -15.032  11.567  17.846  0.00  0.00    -0.271 OA
ATOM     49  N   ASP d   1     -16.342  11.739  19.617  0.00  0.00    -0.344 N 
ATOM     50  H38 ASP d   1     -16.439  11.602  20.603  0.00  0.00     0.163 HD
BRANCH  49  51
ATOM     51  CA  ASP d   1     -17.472  12.287  18.852  0.00  0.00     0.105 C 
ATOM     52  H39 ASP d   1     -17.438  11.856  17.840  0.00  0.00     0.090 H 
BRANCH  51  53
ATOM     53  C   ASP d   1     -17.462  13.787  18.725  0.00  0.00     0.197 C 
ATOM     54  O   ASP d   1     -16.724  14.500  19.447  0.00  0.00    -0.646 OA
ATOM     55  OXT ASP d   1     -18.191  14.378  17.893  0.00  0.00    -0.646 OA
ENDBRANCH  51  53
BRANCH  51  56
ATOM     56  CB  ASP d   1     -18.786  11.877  19.531  0.00  0.00     0.044 C 
ATOM     57  H40 ASP d   1     -19.613  12.418  19.047  0.00  0.00     0.053 H 
ATOM     58  H41 ASP d   1     -18.734  12.161  20.592  0.00  0.00     0.053 H 
BRANCH  56  59
ATOM     59  CG  ASP d   1     -19.067  10.394  19.445  0.00  0.00     0.175 C 
ATOM     60  OD1 ASP d   1     -19.631   9.843  20.454  0.00  0.00    -0.648 OA
ATOM     61  OD2 ASP d   1     -18.765   9.805  18.360  0.00  0.00    -0.648 OA
ENDBRANCH  56  59
ENDBRANCH  51  56
ENDBRANCH  49  51
ENDBRANCH  45  47
BRANCH  45  62
ATOM     62  CB  PHE d   1     -13.557   9.518  19.451  0.00  0.00    -0.014 C 
ATOM     63  H31 PHE d   1     -13.252   9.616  18.399  0.00  0.00     0.043 H 
ATOM     64  H32 PHE d   1     -14.371   8.782  19.530  0.00  0.00     0.043 H 
BRANCH  62  65
ATOM     65  CG  PHE d   1     -12.395   9.020  20.234  0.00  0.00    -0.056 A 
ATOM     66  CD1 PHE d   1     -11.140   9.544  19.996  0.00  0.00    -0.077 A 
ATOM     67  CE1 PHE d   1     -10.001   9.065  20.692  0.00  0.00    -0.082 A 
ATOM     68  H33 PHE d   1     -11.023  10.335  19.264  0.00  0.00     0.084 H 
ATOM     69  CZ  PHE d   1     -10.147   8.095  21.647  0.00  0.00    -0.083 A 
ATOM     70  H35 PHE d   1      -9.019   9.465  20.469  0.00  0.00     0.083 H 
ATOM     71  CE2 PHE d   1     -11.418   7.563  21.899  0.00  0.00    -0.082 A 
ATOM     72  H37 PHE d   1      -9.286   7.742  22.203  0.00  0.00     0.083 H 
ATOM     73  CD2 PHE d   1     -12.542   8.049  21.236  0.00  0.00    -0.077 A 
ATOM     74  H36 PHE d   1     -11.528   6.761  22.620  0.00  0.00     0.083 H 
ATOM     75  H34 PHE d   1     -13.528   7.678  21.493  0.00  0.00     0.084 H 
ENDBRANCH  62  65
ENDBRANCH  45  62
ENDBRANCH  43  45
ENDBRANCH   1  41
BRANCH   1  76
ATOM     76  CB  LEU d   1     -12.961  11.519  24.445  0.00  0.00    -0.035 C 
ATOM     77  H20 LEU d   1     -13.185  11.498  25.522  0.00  0.00     0.037 H 
ATOM     78  H21 LEU d   1     -12.319  12.383  24.221  0.00  0.00     0.037 H 
BRANCH  76  79
ATOM     79  CG  LEU d   1     -12.180  10.287  24.127  0.00  0.00    -0.059 C 
ATOM     80  H22 LEU d   1     -11.914  10.303  23.060  0.00  0.00     0.038 H 
BRANCH  79  81
ATOM     81  CD1 LEU d   1     -10.877  10.189  24.930  0.00  0.00    -0.073 C 
ATOM     82  H23 LEU d   1     -10.346   9.266  24.656  0.00  0.00     0.028 H 
ATOM     83  H24 LEU d   1     -11.109  10.173  26.005  0.00  0.00     0.028 H 
ATOM     84  H25 LEU d   1     -10.242  11.058  24.705  0.00  0.00     0.028 H 
ENDBRANCH  79  81
BRANCH  79  85
ATOM     85  CD2 LEU d   1     -13.134   9.066  24.395  0.00  0.00    -0.073 C 
ATOM     86  H26 LEU d   1     -14.052   9.180  23.799  0.00  0.00     0.028 H 
ATOM     87  H27 LEU d   1     -13.392   9.030  25.464  0.00  0.00     0.028 H 
ATOM     88  H28 LEU d   1     -12.625   8.133  24.109  0.00  0.00     0.028 H 
ENDBRANCH  79  85
ENDBRANCH  76  79
ENDBRANCH   1  76
TORSDOF 22
