REMARK  11 active torsions:
REMARK  status: ('A' for Active; 'I' for Inactive)
REMARK    1  A    between atoms: N_1  and  CA_2 
REMARK    2  A    between atoms: CA_2  and  CB_3 
REMARK    3  A    between atoms: CA_2  and  C_6 
REMARK    4  A    between atoms: CB_3  and  CG_4 
REMARK    5  A    between atoms: CG_4  and  SD_5 
REMARK    6  A    between atoms: SD_5  and  C5'_9 
REMARK    7  A    between atoms: C5'_9  and  C4'_10 
REMARK    8  A    between atoms: C3'_12  and  O3'_13 
REMARK    9  A    between atoms: C2'_14  and  O2'_15 
REMARK   10  A    between atoms: C1'_16  and  N9_17 
REMARK   11  A    between atoms: C6_21  and  N6_22 
ROOT
ATOM      1  C4' SAH d   1     -15.394  -1.677  -4.055  0.00  0.00     0.076 C 
ATOM      2  O4' SAH d   1     -16.327  -2.725  -3.920  0.00  0.00    -0.355 OA
ATOM      3  C3' SAH d   1     -14.558  -1.730  -2.791  0.00  0.00     0.090 C 
ATOM      4  C2' SAH d   1     -15.144  -2.895  -2.004  0.00  0.00     0.105 C 
ATOM      5  C1' SAH d   1     -16.557  -2.915  -2.546  0.00  0.00     0.139 C 
ATOM      6  H11 SAH d   1     -15.895  -0.701  -4.133  0.00  0.00     0.088 H 
ATOM      7  H12 SAH d   1     -13.504  -1.929  -3.037  0.00  0.00     0.091 H 
ATOM      8  H14 SAH d   1     -14.601  -3.832  -2.193  0.00  0.00     0.093 H 
ATOM      9  H16 SAH d   1     -17.157  -2.111  -2.096  0.00  0.00     0.122 H 
ENDROOT
BRANCH   1  10
ATOM     10  C5' SAH d   1     -14.599  -1.951  -5.340  0.00  0.00     0.003 C 
ATOM     11  H9  SAH d   1     -14.086  -2.918  -5.228  0.00  0.00     0.052 H 
ATOM     12  H10 SAH d   1     -15.309  -2.007  -6.178  0.00  0.00     0.052 H 
BRANCH  10  13
ATOM     13  SD  SAH d   1     -13.356  -0.693  -5.734  0.00  0.00    -0.166 SA
BRANCH  13  14
ATOM     14  CG  SAH d   1     -14.487   0.539  -6.461  0.00  0.00    -0.021 C 
ATOM     15  H7  SAH d   1     -14.757   0.216  -7.477  0.00  0.00     0.049 H 
ATOM     16  H8  SAH d   1     -15.394   0.597  -5.841  0.00  0.00     0.049 H 
BRANCH  14  17
ATOM     17  CB  SAH d   1     -13.851   1.932  -6.538  0.00  0.00    -0.021 C 
ATOM     18  H5  SAH d   1     -13.587   2.248  -5.518  0.00  0.00     0.037 H 
ATOM     19  H6  SAH d   1     -12.938   1.862  -7.148  0.00  0.00     0.037 H 
BRANCH  17  20
ATOM     20  CA  SAH d   1     -14.764   3.008  -7.156  0.00  0.00     0.183 C 
ATOM     21  H4  SAH d   1     -15.699   3.025  -6.576  0.00  0.00     0.101 H 
BRANCH  20  22
ATOM     22  N   SAH d   1     -15.114   2.777  -8.569  0.00  0.00    -0.065 N 
ATOM     23  H1  SAH d   1     -15.562   1.879  -8.662  0.00  0.00     0.275 HD
ATOM     24  H2  SAH d   1     -14.277   2.795  -9.130  0.00  0.00     0.275 HD
ATOM     25  H3  SAH d   1     -15.743   3.500  -8.882  0.00  0.00     0.275 HD
ENDBRANCH  20  22
BRANCH  20  26
ATOM     26  C   SAH d   1     -14.097   4.356  -7.043  0.00  0.00     0.204 C 
ATOM     27  O   SAH d   1     -13.866   5.038  -8.064  0.00  0.00    -0.646 OA
ATOM     28  OXT SAH d   1     -13.778   4.782  -5.940  0.00  0.00    -0.646 OA
ENDBRANCH  20  26
ENDBRANCH  17  20
ENDBRANCH  14  17
ENDBRANCH  13  14
ENDBRANCH  10  13
ENDBRANCH   1  10
BRANCH   3  29
ATOM     29  O3' SAH d   1     -14.640  -0.493  -2.060  0.00  0.00    -0.390 OA
ATOM     30  H13 SAH d   1     -15.544  -0.328  -1.819  0.00  0.00     0.210 HD
ENDBRANCH   3  29
BRANCH   5  31
ATOM     31  N9  SAH d   1     -17.272  -4.191  -2.438  0.00  0.00    -0.294 N 
ATOM     32  C8  SAH d   1     -16.748  -5.458  -2.528  0.00  0.00     0.071 A 
ATOM     33  N7  SAH d   1     -17.781  -6.330  -2.422  0.00  0.00    -0.236 NA
ATOM     34  H17 SAH d   1     -15.698  -5.714  -2.660  0.00  0.00     0.144 H 
ATOM     35  C5  SAH d   1     -18.954  -5.643  -2.288  0.00  0.00     0.149 A 
ATOM     36  C6  SAH d   1     -20.300  -6.018  -2.182  0.00  0.00     0.155 A 
ATOM     37  C4  SAH d   1     -18.632  -4.290  -2.318  0.00  0.00     0.167 A 
ATOM     38  N1  SAH d   1     -21.255  -5.032  -2.112  0.00  0.00    -0.222 NA
ATOM     39  C2  SAH d   1     -20.907  -3.691  -2.118  0.00  0.00     0.091 A 
ATOM     40  N3  SAH d   1     -19.578  -3.324  -2.212  0.00  0.00    -0.222 NA
ATOM     41  H20 SAH d   1     -21.676  -2.930  -2.049  0.00  0.00     0.146 H 
BRANCH  36  42
ATOM     42  N6  SAH d   1     -20.708  -7.293  -2.156  0.00  0.00    -0.382 N 
ATOM     43  H18 SAH d   1     -21.712  -7.511  -2.077  0.00  0.00     0.157 HD
ATOM     44  H19 SAH d   1     -20.018  -8.056  -2.215  0.00  0.00     0.157 HD
ENDBRANCH  36  42
ENDBRANCH   5  31
BRANCH   4  45
ATOM     45  O2' SAH d   1     -15.210  -2.636  -0.626  0.00  0.00    -0.388 OA
ATOM     46  H15 SAH d   1     -15.758  -1.875  -0.474  0.00  0.00     0.210 HD
ENDBRANCH   4  45
TORSDOF 11
