REMARK  6 active torsions:
REMARK  status: ('A' for Active; 'I' for Inactive)
REMARK    1  A    between atoms: N_1  and  CA_2 
REMARK    2  A    between atoms: CA_2  and  C_3 
REMARK    3  A    between atoms: CA_2  and  CB_5 
REMARK    4  A    between atoms: CB_5  and  CG_6 
REMARK    5  A    between atoms: CG_6  and  CD_7 
REMARK    6  A    between atoms: CD_7  and  NE_8 
REMARK       I    between atoms: NE_8  and  CZ_9 
REMARK       I    between atoms: CZ_9  and  NH1_10 
ROOT
ATOM      1  CG  ARG d   1      25.322  -5.661  51.929  0.00  0.00    -0.047 C 
ATOM      2  H7  ARG d   1      25.444  -4.737  51.344  0.00  0.00     0.035 H 
ATOM      3  H8  ARG d   1      24.379  -6.152  51.647  0.00  0.00     0.035 H 
ENDROOT
BRANCH   1   4
ATOM      4  CB  ARG d   1      25.268  -5.303  53.410  0.00  0.00    -0.028 C 
ATOM      5  H5  ARG d   1      26.261  -4.938  53.711  0.00  0.00     0.036 H 
ATOM      6  H6  ARG d   1      24.527  -4.500  53.542  0.00  0.00     0.036 H 
BRANCH   4   7
ATOM      7  CA  ARG d   1      24.881  -6.475  54.345  0.00  0.00     0.182 C 
ATOM      8  H4  ARG d   1      25.730  -7.173  54.376  0.00  0.00     0.101 H 
BRANCH   7   9
ATOM      9  N   ARG d   1      23.690  -7.227  53.856  0.00  0.00    -0.065 N 
ATOM     10  H1  ARG d   1      23.864  -7.560  52.921  0.00  0.00     0.275 HD
ATOM     11  H2  ARG d   1      22.887  -6.618  53.852  0.00  0.00     0.275 HD
ATOM     12  H3  ARG d   1      23.515  -8.011  54.465  0.00  0.00     0.275 HD
ENDBRANCH   7   9
BRANCH   7  13
ATOM     13  C   ARG d   1      24.625  -5.957  55.785  0.00  0.00     0.204 C 
ATOM     14  O   ARG d   1      23.545  -6.081  56.330  0.00  0.00    -0.646 OA
ATOM     15  OXT ARG d   1      25.504  -5.400  56.404  0.00  0.00    -0.646 OA
ENDBRANCH   7  13
ENDBRANCH   4   7
ENDBRANCH   1   4
BRANCH   1  16
ATOM     16  CD  ARG d   1      26.472  -6.594  51.616  0.00  0.00     0.009 C 
ATOM     17  H9  ARG d   1      26.663  -7.233  52.491  0.00  0.00     0.064 H 
ATOM     18  H10 ARG d   1      27.369  -5.996  51.397  0.00  0.00     0.064 H 
BRANCH  16  19
ATOM     19  NE  ARG d   1      26.177  -7.428  50.482  0.00  0.00    -0.227 N 
ATOM     20  CZ  ARG d   1      26.132  -7.033  49.216  0.00  0.00     0.665 C 
ATOM     21  NH1 ARG d   1      26.433  -5.788  48.840  0.00  0.00    -0.235 N 
ATOM     22  NH2 ARG d   1      25.792  -7.932  48.294  0.00  0.00    -0.235 N 
ATOM     23  H12 ARG d   1      26.385  -5.524  47.846  0.00  0.00     0.174 HD
ATOM     24  H13 ARG d   1      26.714  -5.091  49.544  0.00  0.00     0.174 HD
ATOM     25  H14 ARG d   1      25.558  -8.895  48.575  0.00  0.00     0.174 HD
ATOM     26  H15 ARG d   1      25.763  -7.664  47.300  0.00  0.00     0.174 HD
ATOM     27  H11 ARG d   1      25.983  -8.422  50.670  0.00  0.00     0.177 HD
ENDBRANCH  16  19
ENDBRANCH   1  16
TORSDOF 6
