REMARK  10 active torsions:
REMARK  status: ('A' for Active; 'I' for Inactive)
REMARK    1  A    between atoms: C17_26  and  C4_7 
REMARK    2  A    between atoms: C4_7  and  C14_27 
REMARK    3  A    between atoms: S30_9  and  N31_11 
REMARK    4  A    between atoms: C28_14  and  S30_9 
REMARK    5  A    between atoms: N31_11  and  C33_12 
REMARK    6  A    between atoms: N31_11  and  C32_13 
REMARK    7  A    between atoms: C21_19  and  C25_18 
REMARK    8  A    between atoms: C14_27  and  C16_28 
REMARK    9  A    between atoms: C14_27  and  C15_29 
REMARK   10  A    between atoms: C10_31  and  C13_32 
ROOT
ATOM      1  N9  G45 d   1      30.802 -23.994  99.515  0.00  0.00    -0.196 NA
ATOM      2  C8  G45 d   1      30.465 -23.814  98.415  0.00  0.00     0.073 C 
ATOM      3  N7  G45 d   1      30.252 -21.288  97.576  0.00  0.00    -0.280 NA
ATOM      4  C5  G45 d   1      29.669 -24.376  94.887  0.00  0.00     0.036 A 
ATOM      5  C6  G45 d   1      29.550 -22.982  94.491  0.00  0.00     0.175 A 
ATOM      6  C2  G45 d   1      29.991 -22.332  96.780  0.00  0.00     0.160 C 
ATOM      7  C4  G45 d   1      29.785 -24.828  96.316  0.00  0.00     0.047 C 
ATOM      8  C3  G45 d   1      30.094 -23.612  97.211  0.00  0.00     0.109 C 
ATOM      9  C10 G45 d   1      29.624 -25.046  93.553  0.00  0.00     0.062 A 
ATOM     10  N11 G45 d   1      29.499 -24.072  92.631  0.00  0.00    -0.177 NA
ATOM     11  N12 G45 d   1      29.478 -22.783  93.184  0.00  0.00    -0.256 N 
ATOM     12  O1  G45 d   1      29.561 -22.011  95.433  0.00  0.00    -0.276 OA
ATOM     13  H1  G45 d   1      30.165 -20.349  97.220  0.00  0.00     0.189 HD
ATOM     14  H20 G45 d   1      29.041 -23.586  97.527  0.00  0.00     0.078 H 
ATOM     15  H24 G45 d   1      29.420 -21.884  92.685  0.00  0.00     0.191 HD
ENDROOT
BRANCH   7  16
ATOM     16  C17 G45 d   1      31.000 -25.697  96.494  0.00  0.00    -0.040 A 
ATOM     17  C18 G45 d   1      31.174 -26.474  97.645  0.00  0.00    -0.056 A 
ATOM     18  C19 G45 d   1      32.306 -27.244  97.857  0.00  0.00     0.046 A 
ATOM     19  H11 G45 d   1      30.394 -26.473  98.398  0.00  0.00     0.086 H 
ATOM     20  C20 G45 d   1      33.336 -27.268  96.894  0.00  0.00    -0.052 A 
ATOM     21  C23 G45 d   1      32.409 -27.938  98.920  0.00  0.00     0.099 C 
ATOM     22  C21 G45 d   1      33.177 -26.470  95.754  0.00  0.00    -0.017 A 
ATOM     23  H10 G45 d   1      34.219 -27.882  97.031  0.00  0.00     0.087 H 
ATOM     24  C22 G45 d   1      32.028 -25.702  95.570  0.00  0.00    -0.064 A 
ATOM     25  H12 G45 d   1      31.938 -25.092  94.678  0.00  0.00     0.085 H 
ATOM     26  N24 G45 d   1      32.504 -28.563  99.877  0.00  0.00    -0.191 NA
BRANCH  22  27
ATOM     27  C25 G45 d   1      34.104 -26.403  94.607  0.00  0.00     0.016 A 
ATOM     28  C26 G45 d   1      33.750 -26.324  93.278  0.00  0.00    -0.064 A 
ATOM     29  C27 G45 d   1      34.811 -26.295  92.393  0.00  0.00    -0.053 A 
ATOM     30  H9  G45 d   1      32.712 -26.287  92.950  0.00  0.00     0.085 H 
ATOM     31  C28 G45 d   1      36.012 -26.358  93.059  0.00  0.00     0.116 A 
ATOM     32  H8  G45 d   1      34.709 -26.231  91.311  0.00  0.00     0.086 H 
ATOM     33  S29 G45 d   1      35.818 -26.473  94.768  0.00  0.00    -0.076 SA
BRANCH  31  34
ATOM     34  S30 G45 d   1      37.368 -26.356  92.124  0.00  0.00     0.249 S 
ATOM     35  O35 G45 d   1      37.443 -27.608  91.409  0.00  0.00    -0.205 OA
ATOM     36  O34 G45 d   1      37.029 -25.408  91.119  0.00  0.00    -0.205 OA
BRANCH  34  37
ATOM     37  N31 G45 d   1      38.754 -26.117  92.786  0.00  0.00    -0.214 NA
BRANCH  37  38
ATOM     38  C33 G45 d   1      39.071 -27.231  93.684  0.00  0.00    -0.020 C 
ATOM     39  H2  G45 d   1      40.052 -27.058  94.150  0.00  0.00     0.049 H 
ATOM     40  H3  G45 d   1      39.098 -28.169  93.110  0.00  0.00     0.049 H 
ATOM     41  H4  G45 d   1      38.301 -27.302  94.466  0.00  0.00     0.049 H 
ENDBRANCH  37  38
BRANCH  37  42
ATOM     42  C32 G45 d   1      38.731 -24.882  93.539  0.00  0.00    -0.020 C 
ATOM     43  H5  G45 d   1      39.714 -24.718  94.005  0.00  0.00     0.049 H 
ATOM     44  H6  G45 d   1      37.960 -24.944  94.321  0.00  0.00     0.049 H 
ATOM     45  H7  G45 d   1      38.502 -24.045  92.863  0.00  0.00     0.049 H 
ENDBRANCH  37  42
ENDBRANCH  34  37
ENDBRANCH  31  34
ENDBRANCH  22  27
ENDBRANCH   7  16
BRANCH   7  46
ATOM     46  C14 G45 d   1      28.468 -25.533  96.753  0.00  0.00    -0.044 C 
ATOM     47  H13 G45 d   1      28.617 -25.752  97.821  0.00  0.00     0.041 H 
BRANCH  46  48
ATOM     48  C16 G45 d   1      28.162 -26.895  96.094  0.00  0.00    -0.072 C 
ATOM     49  H14 G45 d   1      27.211 -27.286  96.485  0.00  0.00     0.028 H 
ATOM     50  H15 G45 d   1      28.971 -27.604  96.323  0.00  0.00     0.028 H 
ATOM     51  H16 G45 d   1      28.085 -26.766  95.004  0.00  0.00     0.028 H 
ENDBRANCH  46  48
BRANCH  46  52
ATOM     52  C15 G45 d   1      27.213 -24.643  96.678  0.00  0.00    -0.072 C 
ATOM     53  H17 G45 d   1      27.425 -23.670  97.146  0.00  0.00     0.028 H 
ATOM     54  H18 G45 d   1      26.384 -25.133  97.209  0.00  0.00     0.028 H 
ATOM     55  H19 G45 d   1      26.934 -24.490  95.625  0.00  0.00     0.028 H 
ENDBRANCH  46  52
ENDBRANCH   7  46
BRANCH   9  56
ATOM     56  C13 G45 d   1      29.695 -26.520  93.217  0.00  0.00    -0.033 C 
ATOM     57  H21 G45 d   1      29.632 -26.651  92.127  0.00  0.00     0.035 H 
ATOM     58  H22 G45 d   1      28.858 -27.047  93.698  0.00  0.00     0.035 H 
ATOM     59  H23 G45 d   1      30.647 -26.934  93.582  0.00  0.00     0.035 H 
ENDBRANCH   9  56
TORSDOF 10
