REMARK  9 active torsions:
REMARK  status: ('A' for Active; 'I' for Inactive)
REMARK    1  A    between atoms: C10_10  and  C13_11 
REMARK    2  A    between atoms: C4_13  and  C14_14 
REMARK    3  A    between atoms: C4_13  and  C17_17 
REMARK    4  A    between atoms: C14_14  and  C16_15 
REMARK    5  A    between atoms: C14_14  and  C15_16 
REMARK    6  A    between atoms: C21_23  and  C25_25 
REMARK    7  A    between atoms: C28_27  and  C30_30 
REMARK    8  A    between atoms: C30_30  and  O31_31 
REMARK    9  A    between atoms: O31_31  and  C32_32 
ROOT
ATOM      1  N9  GI8 d   1      19.993 -33.824 -17.335  0.00  0.00    -0.191 NA
ATOM      2  C8  GI8 d   1      20.261 -34.006 -18.454  0.00  0.00     0.101 C 
ATOM      3  C3  GI8 d   1      20.556 -34.204 -19.684  0.00  0.00     0.091 A 
ATOM      4  C2  GI8 d   1      20.623 -35.486 -20.138  0.00  0.00     0.162 A 
ATOM      5  N7  GI8 d   1      20.389 -36.530 -19.346  0.00  0.00    -0.379 N 
ATOM      6  O1  GI8 d   1      20.938 -35.810 -21.516  0.00  0.00    -0.274 OA
ATOM      7  C6  GI8 d   1      21.053 -34.811 -22.441  0.00  0.00     0.175 A 
ATOM      8  N12 GI8 d   1      21.211 -34.979 -23.755  0.00  0.00    -0.256 N 
ATOM      9  N11 GI8 d   1      21.296 -33.673 -24.279  0.00  0.00    -0.177 NA
ATOM     10  C10 GI8 d   1      21.188 -32.720 -23.327  0.00  0.00     0.063 A 
ATOM     11  C5  GI8 d   1      21.016 -33.416 -22.018  0.00  0.00     0.040 A 
ATOM     12  C4  GI8 d   1      20.822 -32.972 -20.585  0.00  0.00     0.064 A 
ATOM     13  H1  GI8 d   1      20.449 -37.486 -19.724  0.00  0.00     0.158 HD
ATOM     14  H2  GI8 d   1      20.148 -36.381 -18.356  0.00  0.00     0.158 HD
ATOM     15  H3  GI8 d   1      21.260 -35.868 -24.273  0.00  0.00     0.191 HD
ENDROOT
BRANCH  12  16
ATOM     16  C14 GI8 d   1      22.081 -32.224 -20.062  0.00  0.00    -0.041 C 
ATOM     17  H7  GI8 d   1      21.928 -32.150 -18.975  0.00  0.00     0.041 H 
BRANCH  16  18
ATOM     18  C16 GI8 d   1      22.276 -30.784 -20.550  0.00  0.00    -0.072 C 
ATOM     19  H8  GI8 d   1      23.196 -30.370 -20.111  0.00  0.00     0.028 H 
ATOM     20  H9  GI8 d   1      21.415 -30.173 -20.242  0.00  0.00     0.028 H 
ATOM     21  H10 GI8 d   1      22.357 -30.776 -21.647  0.00  0.00     0.028 H 
ENDBRANCH  16  18
BRANCH  16  22
ATOM     22  C15 GI8 d   1      23.387 -32.993 -20.254  0.00  0.00    -0.072 C 
ATOM     23  H11 GI8 d   1      23.257 -34.029 -19.906  0.00  0.00     0.028 H 
ATOM     24  H12 GI8 d   1      24.186 -32.509 -19.674  0.00  0.00     0.028 H 
ATOM     25  H13 GI8 d   1      23.658 -32.995 -21.320  0.00  0.00     0.028 H 
ENDBRANCH  16  22
ENDBRANCH  12  16
BRANCH  12  26
ATOM     26  C17 GI8 d   1      19.544 -32.144 -20.493  0.00  0.00    -0.037 A 
ATOM     27  C18 GI8 d   1      19.273 -31.371 -19.359  0.00  0.00    -0.055 A 
ATOM     28  C19 GI8 d   1      18.114 -30.620 -19.225  0.00  0.00     0.046 A 
ATOM     29  H14 GI8 d   1      19.997 -31.358 -18.553  0.00  0.00     0.086 H 
ATOM     30  C23 GI8 d   1      17.926 -29.926 -18.169  0.00  0.00     0.099 C 
ATOM     31  C20 GI8 d   1      17.151 -30.626 -20.241  0.00  0.00    -0.052 A 
ATOM     32  N24 GI8 d   1      17.760 -29.303 -17.218  0.00  0.00    -0.191 NA
ATOM     33  C21 GI8 d   1      17.399 -31.389 -21.379  0.00  0.00    -0.017 A 
ATOM     34  H16 GI8 d   1      16.237 -30.052 -20.144  0.00  0.00     0.087 H 
ATOM     35  C22 GI8 d   1      18.568 -32.149 -21.489  0.00  0.00    -0.064 A 
ATOM     36  H15 GI8 d   1      18.719 -32.758 -22.372  0.00  0.00     0.085 H 
BRANCH  33  37
ATOM     37  C25 GI8 d   1      16.462 -31.461 -22.520  0.00  0.00     0.015 A 
ATOM     38  S29 GI8 d   1      14.785 -31.577 -22.180  0.00  0.00    -0.092 SA
ATOM     39  C28 GI8 d   1      14.319 -31.644 -23.831  0.00  0.00     0.007 A 
ATOM     40  C27 GI8 d   1      15.464 -31.575 -24.625  0.00  0.00    -0.067 A 
ATOM     41  C26 GI8 d   1      16.652 -31.466 -23.893  0.00  0.00    -0.065 A 
ATOM     42  H17 GI8 d   1      15.436 -31.603 -25.713  0.00  0.00     0.085 H 
ATOM     43  H18 GI8 d   1      17.634 -31.392 -24.359  0.00  0.00     0.085 H 
BRANCH  39  44
ATOM     44  C30 GI8 d   1      12.836 -31.772 -24.107  0.00  0.00     0.049 C 
ATOM     45  H19 GI8 d   1      12.319 -31.958 -23.154  0.00  0.00     0.082 H 
ATOM     46  H20 GI8 d   1      12.680 -32.626 -24.782  0.00  0.00     0.082 H 
BRANCH  44  47
ATOM     47  O31 GI8 d   1      12.268 -30.608 -24.711  0.00  0.00    -0.391 OA
BRANCH  47  48
ATOM     48  C32 GI8 d   1      12.608 -30.379 -26.089  0.00  0.00     0.004 C 
ATOM     49  H21 GI8 d   1      12.115 -29.461 -26.441  0.00  0.00     0.066 H 
ATOM     50  H22 GI8 d   1      12.271 -31.232 -26.697  0.00  0.00     0.066 H 
ATOM     51  H23 GI8 d   1      13.698 -30.269 -26.184  0.00  0.00     0.066 H 
ENDBRANCH  47  48
ENDBRANCH  44  47
ENDBRANCH  39  44
ENDBRANCH  33  37
ENDBRANCH  12  26
BRANCH  10  52
ATOM     52  C13 GI8 d   1      21.223 -31.234 -23.596  0.00  0.00    -0.033 C 
ATOM     53  H4  GI8 d   1      21.114 -30.687 -22.648  0.00  0.00     0.035 H 
ATOM     54  H5  GI8 d   1      20.398 -30.964 -24.271  0.00  0.00     0.035 H 
ATOM     55  H6  GI8 d   1      22.182 -30.969 -24.064  0.00  0.00     0.035 H 
ENDBRANCH  10  52
TORSDOF 9
