REMARK  10 active torsions:
REMARK  status: ('A' for Active; 'I' for Inactive)
REMARK    1  A    between atoms: C50_2  and  C49_4 
REMARK    2  A    between atoms: C49_4  and  C42_5 
REMARK    3  A    between atoms: C34_10  and  C20_11 
REMARK    4  A    between atoms: C18_13  and  C35_14 
REMARK    5  A    between atoms: C16_20  and  C4_21 
REMARK    6  A    between atoms: C4_21  and  C14_22 
REMARK    7  A    between atoms: C14_22  and  C36_23 
REMARK    8  A    between atoms: C14_22  and  C15_24 
REMARK    9  A    between atoms: C2_28  and  N7_29 
REMARK   10  A    between atoms: C10_31  and  C13_32 
ROOT
ATOM      1  C4  G57 d   1      30.020  43.293  20.570  0.00  0.00     0.064 C 
ATOM      2  C3  G57 d   1      30.353  42.095  19.662  0.00  0.00     0.091 C 
ATOM      3  C8  G57 d   1      30.789  42.314  18.497  0.00  0.00     0.101 C 
ATOM      4  N9  G57 d   1      31.186  42.528  17.436  0.00  0.00    -0.191 NA
ATOM      5  C2  G57 d   1      30.200  40.803  20.021  0.00  0.00     0.162 C 
ATOM      6  C5  G57 d   1      29.745  42.788  21.942  0.00  0.00     0.040 A 
ATOM      7  C10 G57 d   1      29.589  43.428  23.274  0.00  0.00     0.063 A 
ATOM      8  N11 G57 d   1      29.387  42.416  24.139  0.00  0.00    -0.177 NA
ATOM      9  N12 G57 d   1      29.431  41.135  23.565  0.00  0.00    -0.256 N 
ATOM     10  C6  G57 d   1      29.628  41.377  22.281  0.00  0.00     0.175 A 
ATOM     11  O1  G57 d   1      29.719  40.440  21.317  0.00  0.00    -0.274 OA
ATOM     12  H22 G57 d   1      29.333  40.223  24.034  0.00  0.00     0.191 HD
ENDROOT
BRANCH   1  13
ATOM     13  C16 G57 d   1      31.323  44.098  20.585  0.00  0.00    -0.037 A 
ATOM     14  C17 G57 d   1      31.633  44.909  19.477  0.00  0.00    -0.061 A 
ATOM     15  C18 G57 d   1      32.831  45.606  19.407  0.00  0.00     0.049 A 
ATOM     16  H8  G57 d   1      30.922  44.991  18.663  0.00  0.00     0.085 H 
ATOM     17  C19 G57 d   1      33.749  45.513  20.450  0.00  0.00    -0.058 A 
ATOM     18  C20 G57 d   1      33.483  44.714  21.553  0.00  0.00    -0.025 A 
ATOM     19  H7  G57 d   1      34.678  46.069  20.400  0.00  0.00     0.086 H 
ATOM     20  C21 G57 d   1      32.283  44.003  21.618  0.00  0.00    -0.065 A 
ATOM     21  H9  G57 d   1      32.085  43.368  22.474  0.00  0.00     0.085 H 
BRANCH  15  22
ATOM     22  C35 G57 d   1      33.129  46.479  18.219  0.00  0.00     0.417 C 
ATOM     23  F48 G57 d   1      32.240  46.428  17.272  0.00  0.00    -0.166 F 
ATOM     24  F47 G57 d   1      33.291  47.712  18.662  0.00  0.00    -0.166 F 
ATOM     25  F46 G57 d   1      34.214  46.063  17.629  0.00  0.00    -0.166 F 
ENDBRANCH  15  22
BRANCH  18  26
ATOM     26  C34 G57 d   1      34.479  44.695  22.649  0.00  0.00    -0.025 A 
ATOM     27  C41 G57 d   1      35.840  44.503  22.413  0.00  0.00    -0.066 A 
ATOM     28  C42 G57 d   1      36.752  44.526  23.475  0.00  0.00    -0.047 A 
ATOM     29  H3  G57 d   1      36.194  44.335  21.402  0.00  0.00     0.085 H 
ATOM     30  C43 G57 d   1      36.317  44.765  24.773  0.00  0.00    -0.076 A 
ATOM     31  C44 G57 d   1      34.966  45.001  25.005  0.00  0.00    -0.082 A 
ATOM     32  H4  G57 d   1      37.023  44.767  25.596  0.00  0.00     0.084 H 
ATOM     33  C45 G57 d   1      34.050  44.970  23.943  0.00  0.00    -0.072 A 
ATOM     34  H5  G57 d   1      34.620  45.210  26.011  0.00  0.00     0.083 H 
ATOM     35  H6  G57 d   1      33.000  45.162  24.132  0.00  0.00     0.084 H 
BRANCH  28  36
ATOM     36  C49 G57 d   1      38.228  44.304  23.210  0.00  0.00     0.039 C 
ATOM     37  H1  G57 d   1      38.733  44.065  24.157  0.00  0.00     0.056 H 
ATOM     38  H2  G57 d   1      38.347  43.465  22.509  0.00  0.00     0.056 H 
BRANCH  36  39
ATOM     39  C50 G57 d   1      38.857  45.551  22.609  0.00  0.00     0.176 C 
ATOM     40  O52 G57 d   1      39.941  45.431  21.989  0.00  0.00    -0.648 OA
ATOM     41  O51 G57 d   1      38.293  46.664  22.739  0.00  0.00    -0.648 OA
ENDBRANCH  36  39
ENDBRANCH  28  36
ENDBRANCH  18  26
ENDBRANCH   1  13
BRANCH   1  42
ATOM     42  C14 G57 d   1      28.765  43.998  19.997  0.00  0.00    -0.041 C 
ATOM     43  H10 G57 d   1      28.970  44.131  18.924  0.00  0.00     0.041 H 
BRANCH  42  44
ATOM     44  C36 G57 d   1      27.477  43.154  20.100  0.00  0.00    -0.072 C 
ATOM     45  H11 G57 d   1      26.634  43.718  19.675  0.00  0.00     0.028 H 
ATOM     46  H12 G57 d   1      27.271  42.927  21.156  0.00  0.00     0.028 H 
ATOM     47  H13 G57 d   1      27.608  42.215  19.542  0.00  0.00     0.028 H 
ENDBRANCH  42  44
BRANCH  42  48
ATOM     48  C15 G57 d   1      28.483  45.407  20.563  0.00  0.00    -0.072 C 
ATOM     49  H14 G57 d   1      29.395  46.019  20.495  0.00  0.00     0.028 H 
ATOM     50  H15 G57 d   1      28.175  45.324  21.616  0.00  0.00     0.028 H 
ATOM     51  H16 G57 d   1      27.679  45.882  19.982  0.00  0.00     0.028 H 
ENDBRANCH  42  48
ENDBRANCH   1  42
BRANCH   5  52
ATOM     52  N7  G57 d   1      30.487  39.769  19.231  0.00  0.00    -0.379 N 
ATOM     53  H17 G57 d   1      30.346  38.807  19.570  0.00  0.00     0.158 HD
ATOM     54  H18 G57 d   1      30.850  39.932  18.281  0.00  0.00     0.158 HD
ENDBRANCH   5  52
BRANCH   7  55
ATOM     55  C13 G57 d   1      29.638  44.892  23.622  0.00  0.00    -0.033 C 
ATOM     56  H19 G57 d   1      29.484  45.017  24.704  0.00  0.00     0.035 H 
ATOM     57  H20 G57 d   1      28.847  45.426  23.075  0.00  0.00     0.035 H 
ATOM     58  H21 G57 d   1      30.619  45.303  23.341  0.00  0.00     0.035 H 
ENDBRANCH   7  55
TORSDOF 10
