REMARK  10 active torsions:
REMARK  status: ('A' for Active; 'I' for Inactive)
REMARK    1  A    between atoms: C48_2  and  C47_4 
REMARK    2  A    between atoms: C47_4  and  C46_5 
REMARK    3  A    between atoms: C46_5  and  C42_6 
REMARK    4  A    between atoms: C34_11  and  C20_12 
REMARK    5  A    between atoms: C16_18  and  C4_19 
REMARK    6  A    between atoms: C4_19  and  C14_20 
REMARK    7  A    between atoms: C14_20  and  C36_21 
REMARK    8  A    between atoms: C14_20  and  C15_22 
REMARK    9  A    between atoms: C2_26  and  N7_27 
REMARK   10  A    between atoms: C10_29  and  C13_30 
ROOT
ATOM      1  C4  G6F d   1     -24.683  34.146  59.869  0.00  0.00     0.065 C 
ATOM      2  C3  G6F d   1     -25.908  34.517  59.034  0.00  0.00     0.091 C 
ATOM      3  C8  G6F d   1     -25.969  34.044  57.852  0.00  0.00     0.101 C 
ATOM      4  N9  G6F d   1     -26.026  33.613  56.770  0.00  0.00    -0.191 NA
ATOM      5  C2  G6F d   1     -26.889  35.331  59.505  0.00  0.00     0.162 C 
ATOM      6  C5  G6F d   1     -24.848  34.599  61.282  0.00  0.00     0.040 A 
ATOM      7  C10 G6F d   1     -24.093  34.363  62.545  0.00  0.00     0.063 A 
ATOM      8  N11 G6F d   1     -24.760  35.049  63.490  0.00  0.00    -0.177 NA
ATOM      9  N12 G6F d   1     -25.911  35.730  63.038  0.00  0.00    -0.256 N 
ATOM     10  C6  G6F d   1     -25.932  35.457  61.731  0.00  0.00     0.175 A 
ATOM     11  O1  G6F d   1     -26.848  35.897  60.833  0.00  0.00    -0.274 OA
ATOM     12  H24 G6F d   1     -26.574  36.299  63.584  0.00  0.00     0.191 HD
ENDROOT
BRANCH   1  13
ATOM     13  C16 G6F d   1     -24.577  32.622  59.852  0.00  0.00    -0.035 A 
ATOM     14  C17 G6F d   1     -23.949  31.965  58.785  0.00  0.00    -0.038 A 
ATOM     15  C18 G6F d   1     -23.854  30.585  58.732  0.00  0.00     0.117 A 
ATOM     16  H10 G6F d   1     -23.526  32.554  57.979  0.00  0.00     0.089 H 
ATOM     17  C19 G6F d   1     -24.398  29.802  59.758  0.00  0.00    -0.035 A 
ATOM     18  F35 G6F d   1     -23.244  30.002  57.700  0.00  0.00    -0.206 F 
ATOM     19  C20 G6F d   1     -25.031  30.423  60.835  0.00  0.00    -0.022 A 
ATOM     20  H9  G6F d   1     -24.328  28.721  59.715  0.00  0.00     0.089 H 
ATOM     21  C21 G6F d   1     -25.121  31.817  60.862  0.00  0.00    -0.065 A 
ATOM     22  H11 G6F d   1     -25.629  32.292  61.693  0.00  0.00     0.085 H 
BRANCH  19  23
ATOM     23  C34 G6F d   1     -25.608  29.648  61.973  0.00  0.00    -0.025 A 
ATOM     24  C41 G6F d   1     -26.437  28.541  61.806  0.00  0.00    -0.066 A 
ATOM     25  C42 G6F d   1     -26.932  27.857  62.933  0.00  0.00    -0.057 A 
ATOM     26  H5  G6F d   1     -26.701  28.206  60.809  0.00  0.00     0.085 H 
ATOM     27  C43 G6F d   1     -26.604  28.283  64.219  0.00  0.00    -0.077 A 
ATOM     28  C44 G6F d   1     -25.788  29.380  64.385  0.00  0.00    -0.082 A 
ATOM     29  H6  G6F d   1     -26.989  27.754  65.083  0.00  0.00     0.084 H 
ATOM     30  C45 G6F d   1     -25.293  30.049  63.269  0.00  0.00    -0.072 A 
ATOM     31  H7  G6F d   1     -25.532  29.721  65.382  0.00  0.00     0.083 H 
ATOM     32  H8  G6F d   1     -24.645  30.906  63.413  0.00  0.00     0.084 H 
BRANCH  25  33
ATOM     33  C46 G6F d   1     -27.838  26.652  62.795  0.00  0.00    -0.032 C 
ATOM     34  H3  G6F d   1     -27.973  26.206  63.791  0.00  0.00     0.040 H 
ATOM     35  H4  G6F d   1     -28.811  26.994  62.411  0.00  0.00     0.040 H 
BRANCH  33  36
ATOM     36  C47 G6F d   1     -27.300  25.563  61.847  0.00  0.00     0.019 C 
ATOM     37  H1  G6F d   1     -28.161  25.105  61.339  0.00  0.00     0.049 H 
ATOM     38  H2  G6F d   1     -26.654  26.054  61.104  0.00  0.00     0.049 H 
BRANCH  36  39
ATOM     39  C48 G6F d   1     -26.495  24.445  62.497  0.00  0.00     0.172 C 
ATOM     40  O58 G6F d   1     -25.763  23.772  61.723  0.00  0.00    -0.648 OA
ATOM     41  O55 G6F d   1     -26.573  24.217  63.738  0.00  0.00    -0.648 OA
ENDBRANCH  36  39
ENDBRANCH  33  36
ENDBRANCH  25  33
ENDBRANCH  19  23
ENDBRANCH   1  13
BRANCH   1  42
ATOM     42  C14 G6F d   1     -23.466  34.914  59.284  0.00  0.00    -0.041 C 
ATOM     43  H12 G6F d   1     -23.487  34.706  58.204  0.00  0.00     0.041 H 
BRANCH  42  44
ATOM     44  C36 G6F d   1     -23.521  36.440  59.436  0.00  0.00    -0.072 C 
ATOM     45  H13 G6F d   1     -22.618  36.885  58.992  0.00  0.00     0.028 H 
ATOM     46  H14 G6F d   1     -23.572  36.701  60.504  0.00  0.00     0.028 H 
ATOM     47  H15 G6F d   1     -24.412  36.828  58.921  0.00  0.00     0.028 H 
ENDBRANCH  42  44
BRANCH  42  48
ATOM     48  C15 G6F d   1     -22.095  34.439  59.797  0.00  0.00    -0.072 C 
ATOM     49  H16 G6F d   1     -22.026  33.345  59.700  0.00  0.00     0.028 H 
ATOM     50  H17 G6F d   1     -21.981  34.721  60.854  0.00  0.00     0.028 H 
ATOM     51  H18 G6F d   1     -21.298  34.910  59.203  0.00  0.00     0.028 H 
ENDBRANCH  42  48
ENDBRANCH   1  42
BRANCH   5  52
ATOM     52  N7  G6F d   1     -27.962  35.691  58.802  0.00  0.00    -0.379 N 
ATOM     53  H19 G6F d   1     -28.668  36.312  59.222  0.00  0.00     0.158 HD
ATOM     54  H20 G6F d   1     -28.085  35.348  57.839  0.00  0.00     0.158 HD
ENDBRANCH   5  52
BRANCH   7  55
ATOM     55  C13 G6F d   1     -22.853  33.527  62.792  0.00  0.00    -0.033 C 
ATOM     56  H21 G6F d   1     -22.576  33.587  63.855  0.00  0.00     0.035 H 
ATOM     57  H22 G6F d   1     -22.026  33.907  62.175  0.00  0.00     0.035 H 
ATOM     58  H23 G6F d   1     -23.058  32.480  62.526  0.00  0.00     0.035 H 
ENDBRANCH   7  55
TORSDOF 10
