REMARK  11 active torsions:
REMARK  status: ('A' for Active; 'I' for Inactive)
REMARK    1  A    between atoms: C51_2  and  C50_4 
REMARK    2  A    between atoms: C50_4  and  C49_5 
REMARK    3  A    between atoms: C49_5  and  C42_6 
REMARK    4  A    between atoms: C34_11  and  C20_12 
REMARK    5  A    between atoms: C18_14  and  C35_15 
REMARK    6  A    between atoms: C16_21  and  C4_22 
REMARK    7  A    between atoms: C4_22  and  C14_23 
REMARK    8  A    between atoms: C14_23  and  C36_24 
REMARK    9  A    between atoms: C14_23  and  C15_25 
REMARK   10  A    between atoms: C2_29  and  N7_30 
REMARK   11  A    between atoms: C10_32  and  C13_33 
ROOT
ATOM      1  C4  GCF d   1      20.525  13.950  96.662  0.00  0.00     0.064 C 
ATOM      2  C3  GCF d   1      20.232  12.677  97.480  0.00  0.00     0.091 C 
ATOM      3  C8  GCF d   1      19.738  12.849  98.639  0.00  0.00     0.101 C 
ATOM      4  N9  GCF d   1      19.285  13.007  99.699  0.00  0.00    -0.191 NA
ATOM      5  C2  GCF d   1      20.531  11.432  97.039  0.00  0.00     0.162 C 
ATOM      6  C5  GCF d   1      20.925  13.593  95.264  0.00  0.00     0.040 A 
ATOM      7  C10 GCF d   1      21.139  14.357  93.999  0.00  0.00     0.063 A 
ATOM      8  N11 GCF d   1      21.474  13.437  93.072  0.00  0.00    -0.177 NA
ATOM      9  N12 GCF d   1      21.494  12.102  93.540  0.00  0.00    -0.256 N 
ATOM     10  C6  GCF d   1      21.175  12.220  94.828  0.00  0.00     0.175 A 
ATOM     11  O1  GCF d   1      21.094  11.201  95.734  0.00  0.00    -0.274 OA
ATOM     12  H24 GCF d   1      21.705  11.244  93.011  0.00  0.00     0.191 HD
ENDROOT
BRANCH   1  13
ATOM     13  C16 GCF d   1      19.236  14.771  96.669  0.00  0.00    -0.037 A 
ATOM     14  C17 GCF d   1      18.874  15.556  97.801  0.00  0.00    -0.061 A 
ATOM     15  C18 GCF d   1      17.676  16.280  97.824  0.00  0.00     0.049 A 
ATOM     16  H10 GCF d   1      19.537  15.593  98.658  0.00  0.00     0.085 H 
ATOM     17  C19 GCF d   1      16.820  16.235  96.730  0.00  0.00    -0.058 A 
ATOM     18  C20 GCF d   1      17.147  15.487  95.615  0.00  0.00    -0.025 A 
ATOM     19  H9  GCF d   1      15.889  16.791  96.751  0.00  0.00     0.086 H 
ATOM     20  C21 GCF d   1      18.327  14.741  95.590  0.00  0.00    -0.065 A 
ATOM     21  H11 GCF d   1      18.549  14.127  94.725  0.00  0.00     0.085 H 
BRANCH  15  22
ATOM     22  C35 GCF d   1      17.310  17.117  99.039  0.00  0.00     0.417 C 
ATOM     23  F48 GCF d   1      18.179  17.066 100.044  0.00  0.00    -0.166 F 
ATOM     24  F47 GCF d   1      17.146  18.382  98.676  0.00  0.00    -0.166 F 
ATOM     25  F46 GCF d   1      16.139  16.678  99.476  0.00  0.00    -0.166 F 
ENDBRANCH  15  22
BRANCH  18  26
ATOM     26  C34 GCF d   1      16.228  15.482  94.460  0.00  0.00    -0.025 A 
ATOM     27  C41 GCF d   1      14.870  15.311  94.635  0.00  0.00    -0.066 A 
ATOM     28  C42 GCF d   1      14.018  15.317  93.550  0.00  0.00    -0.057 A 
ATOM     29  H5  GCF d   1      14.470  15.171  95.633  0.00  0.00     0.085 H 
ATOM     30  C43 GCF d   1      14.522  15.490  92.267  0.00  0.00    -0.077 A 
ATOM     31  C44 GCF d   1      15.876  15.664  92.084  0.00  0.00    -0.082 A 
ATOM     32  H6  GCF d   1      13.853  15.488  91.414  0.00  0.00     0.084 H 
ATOM     33  C45 GCF d   1      16.729  15.665  93.179  0.00  0.00    -0.072 A 
ATOM     34  H7  GCF d   1      16.275  15.800  91.085  0.00  0.00     0.083 H 
ATOM     35  H8  GCF d   1      17.793  15.810  93.032  0.00  0.00     0.084 H 
BRANCH  28  36
ATOM     36  C49 GCF d   1      12.541  15.124  93.772  0.00  0.00    -0.032 C 
ATOM     37  H3  GCF d   1      12.025  15.188  92.803  0.00  0.00     0.040 H 
ATOM     38  H4  GCF d   1      12.375  14.129  94.210  0.00  0.00     0.040 H 
BRANCH  36  39
ATOM     39  C50 GCF d   1      11.956  16.189  94.719  0.00  0.00     0.019 C 
ATOM     40  H1  GCF d   1      11.187  15.707  95.341  0.00  0.00     0.049 H 
ATOM     41  H2  GCF d   1      12.769  16.558  95.362  0.00  0.00     0.049 H 
BRANCH  39  42
ATOM     42  C51 GCF d   1      11.323  17.384  94.028  0.00  0.00     0.172 C 
ATOM     43  O61 GCF d   1      11.268  18.460  94.677  0.00  0.00    -0.648 OA
ATOM     44  O58 GCF d   1      10.863  17.272  92.865  0.00  0.00    -0.648 OA
ENDBRANCH  39  42
ENDBRANCH  36  39
ENDBRANCH  28  36
ENDBRANCH  18  26
ENDBRANCH   1  13
BRANCH   1  45
ATOM     45  C14 GCF d   1      21.738  14.643  97.336  0.00  0.00    -0.041 C 
ATOM     46  H12 GCF d   1      21.467  14.725  98.399  0.00  0.00     0.041 H 
BRANCH  45  47
ATOM     47  C36 GCF d   1      23.047  13.842  97.283  0.00  0.00    -0.072 C 
ATOM     48  H13 GCF d   1      23.845  14.410  97.783  0.00  0.00     0.028 H 
ATOM     49  H14 GCF d   1      23.326  13.664  96.234  0.00  0.00     0.028 H 
ATOM     50  H15 GCF d   1      22.908  12.878  97.794  0.00  0.00     0.028 H 
ENDBRANCH  45  47
BRANCH  45  51
ATOM     51  C15 GCF d   1      22.027  16.077  96.851  0.00  0.00    -0.072 C 
ATOM     52  H16 GCF d   1      21.100  16.668  96.882  0.00  0.00     0.028 H 
ATOM     53  H17 GCF d   1      22.408  16.046  95.820  0.00  0.00     0.028 H 
ATOM     54  H18 GCF d   1      22.779  16.541  97.506  0.00  0.00     0.028 H 
ENDBRANCH  45  51
ENDBRANCH   1  45
BRANCH   5  55
ATOM     55  N7  GCF d   1      20.325  10.323  97.730  0.00  0.00    -0.379 N 
ATOM     56  H19 GCF d   1      20.579   9.410  97.326  0.00  0.00     0.158 HD
ATOM     57  H20 GCF d   1      19.910  10.372  98.672  0.00  0.00     0.158 HD
ENDBRANCH   5  55
BRANCH   7  58
ATOM     58  C13 GCF d   1      21.018  15.844  93.757  0.00  0.00    -0.033 C 
ATOM     59  H21 GCF d   1      21.247  16.064  92.704  0.00  0.00     0.035 H 
ATOM     60  H22 GCF d   1      21.727  16.380  94.405  0.00  0.00     0.035 H 
ATOM     61  H23 GCF d   1      19.993  16.171  93.986  0.00  0.00     0.035 H 
ENDBRANCH   7  58
TORSDOF 11
