REMARK  4 active torsions:
REMARK  status: ('A' for Active; 'I' for Inactive)
REMARK       I    between atoms: CAN_2  and  N_3 
REMARK    1  A    between atoms: CA_5  and  C_6 
REMARK       I    between atoms: C_6  and  NAA_8 
REMARK    2  A    between atoms: CAO_11  and  NAK_12 
REMARK    3  A    between atoms: NAK_12  and  OAL_13 
REMARK    4  A    between atoms: OAL_13  and  SAR_14 
ROOT
ATOM      1  OAC NXL d   1       8.141  -2.818  21.883  0.00  0.00    -0.284 OA
ATOM      2  CAN NXL d   1       7.391  -2.036  21.309  0.00  0.00     0.171 C 
ATOM      3  N   NXL d   1       6.164  -1.904  21.546  0.00  0.00    -0.344 N 
ATOM      4  CAJ NXL d   1       5.419  -0.763  21.057  0.00  0.00     0.027 C 
ATOM      5  CA  NXL d   1       5.509  -2.821  22.469  0.00  0.00     0.091 C 
ATOM      6  CB  NXL d   1       4.925  -2.027  23.609  0.00  0.00    -0.036 C 
ATOM      7  CAH NXL d   1       4.146  -0.816  23.154  0.00  0.00    -0.032 C 
ATOM      8  CAO NXL d   1       4.967   0.073  22.230  0.00  0.00     0.147 C 
ATOM      9  H1  NXL d   1       7.822  -1.406  20.532  0.00  0.00     0.180 H 
ATOM     10  H2  NXL d   1       4.541  -1.111  20.493  0.00  0.00     0.067 H 
ATOM     11  H3  NXL d   1       6.061  -0.158  20.400  0.00  0.00     0.067 H 
ATOM     12  H4  NXL d   1       6.288  -3.483  22.875  0.00  0.00     0.087 H 
ATOM     13  H7  NXL d   1       5.747  -1.690  24.258  0.00  0.00     0.036 H 
ATOM     14  H8  NXL d   1       4.251  -2.681  24.181  0.00  0.00     0.036 H 
ATOM     15  H9  NXL d   1       3.849  -0.232  24.037  0.00  0.00     0.036 H 
ATOM     16  H10 NXL d   1       3.247  -1.153  22.617  0.00  0.00     0.036 H 
ATOM     17  H11 NXL d   1       4.283   0.845  21.847  0.00  0.00     0.091 H 
ENDROOT
BRANCH   8  18
ATOM     18  NAK NXL d   1       6.101   0.800  22.838  0.00  0.00     0.061 N 
ATOM     19  H12 NXL d   1       5.791   1.738  23.039  0.00  0.00     0.316 HD
ATOM     20  H13 NXL d   1       6.845   0.831  22.158  0.00  0.00     0.316 HD
BRANCH  18  21
ATOM     21  OAL NXL d   1       6.596   0.296  23.949  0.00  0.00    -0.054 OA
BRANCH  21  22
ATOM     22  SAR NXL d   1       8.043   0.696  24.257  0.00  0.00     0.279 S 
ATOM     23  OAD NXL d   1       7.902   1.789  25.167  0.00  0.00    -0.571 OA
ATOM     24  OAE NXL d   1       8.833  -0.246  24.969  0.00  0.00    -0.571 OA
ATOM     25  OAG NXL d   1       8.748   0.764  22.786  0.00  0.00    -0.571 OA
ENDBRANCH  21  22
ENDBRANCH  18  21
ENDBRANCH   8  18
BRANCH   5  26
ATOM     26  C   NXL d   1       4.467  -3.699  21.866  0.00  0.00     0.238 C 
ATOM     27  O   NXL d   1       4.090  -3.551  20.718  0.00  0.00    -0.271 OA
ATOM     28  NAA NXL d   1       3.889  -4.550  22.718  0.00  0.00    -0.368 N 
ATOM     29  H5  NXL d   1       3.179  -5.176  22.395  0.00  0.00     0.159 HD
ATOM     30  H6  NXL d   1       4.167  -4.561  23.679  0.00  0.00     0.159 HD
ENDBRANCH   5  26
TORSDOF 4
