REMARK  24 active torsions:
REMARK  status: ('A' for Active; 'I' for Inactive)
REMARK    1  A    between atoms: C5_2  and  C6_3 
REMARK    2  A    between atoms: C41_7  and  C3_6 
REMARK       I    between atoms: N_9  and  C41_7 
REMARK    3  A    between atoms: CA_10  and  N_9 
REMARK    4  A    between atoms: C_11  and  CA_10 
REMARK    5  A    between atoms: CA_10  and  CB_13 
REMARK       I    between atoms: N_14  and  C_11 
REMARK    6  A    between atoms: CA_15  and  N_14 
REMARK    7  A    between atoms: C_16  and  CA_15 
REMARK    8  A    between atoms: CA_15  and  CB_18 
REMARK       I    between atoms: N_21  and  C_16 
REMARK    9  A    between atoms: CB_18  and  CG1_19 
REMARK   10  A    between atoms: CB_18  and  CG2_20 
REMARK   11  A    between atoms: CA_22  and  N_21 
REMARK   12  A    between atoms: C_23  and  CA_22 
REMARK   13  A    between atoms: CA_22  and  CB_25 
REMARK       I    between atoms: N5_40  and  C_23 
REMARK   14  A    between atoms: CB_25  and  CG_26 
REMARK   15  A    between atoms: CG_26  and  CD1_27 
REMARK   16  A    between atoms: CG_26  and  CD2_28 
REMARK   17  A    between atoms: C20_30  and  C19_29 
REMARK   18  A    between atoms: C19_29  and  C25_33 
REMARK   19  A    between atoms: C19_29  and  N5_40 
REMARK   20  A    between atoms: C22_32  and  C21_31 
REMARK   21  A    between atoms: O_43  and  C22_32 
REMARK   22  A    between atoms: C25_33  and  C26_34 
REMARK   23  A    between atoms: C_42  and  O_43 
REMARK   24  A    between atoms: C6_49  and  C_42 
ROOT
ATOM      1  CA  MOL d   1     -34.310  36.033 -34.606  0.00  0.00     0.089 C 
ATOM      2  H20 MOL d   1     -33.567  35.392 -35.103  0.00  0.00     0.087 H 
ENDROOT
BRANCH   1   3
ATOM      3  N   MOL d   1     -35.528  35.331 -34.360  0.00  0.00    -0.346 N 
ATOM      4  C   MOL d   1     -35.405  33.909 -33.998  0.00  0.00     0.241 C 
ATOM      5  O   MOL d   1     -34.285  33.373 -33.952  0.00  0.00    -0.271 OA
ATOM      6  H19 MOL d   1     -36.418  35.781 -34.430  0.00  0.00     0.163 HD
BRANCH   4   7
ATOM      7  CA  MOL d   1     -36.637  33.105 -33.705  0.00  0.00     0.092 C 
ATOM      8  H11 MOL d   1     -37.456  33.399 -34.378  0.00  0.00     0.088 H 
BRANCH   7   9
ATOM      9  N   MOL d   1     -36.241  31.739 -33.994  0.00  0.00    -0.346 N 
ATOM     10  C   MOL d   1     -37.118  30.962 -34.840  0.00  0.00     0.240 C 
ATOM     11  O   MOL d   1     -38.162  31.465 -35.254  0.00  0.00    -0.271 OA
ATOM     12  H10 MOL d   1     -35.397  31.352 -33.623  0.00  0.00     0.163 HD
BRANCH  10  13
ATOM     13  CA  MOL d   1     -36.733  29.541 -35.214  0.00  0.00     0.086 C 
ATOM     14  H6  MOL d   1     -36.277  29.027 -34.355  0.00  0.00     0.086 H 
BRANCH  13  15
ATOM     15  N   MOL d   1     -37.890  28.832 -35.656  0.00  0.00    -0.343 N 
ATOM     16  C41 MOL d   1     -38.750  28.278 -34.642  0.00  0.00     0.273 C 
ATOM     17  O42 MOL d   1     -38.463  28.429 -33.477  0.00  0.00    -0.266 OA
ATOM     18  H5  MOL d   1     -38.095  28.724 -36.629  0.00  0.00     0.163 HD
BRANCH  16  19
ATOM     19  C3  MOL d   1     -40.008  27.493 -35.057  0.00  0.00     0.154 A 
ATOM     20  C4  MOL d   1     -40.710  26.577 -34.352  0.00  0.00    -0.017 A 
ATOM     21  C5  MOL d   1     -41.739  26.139 -35.086  0.00  0.00     0.077 A 
ATOM     22  H1  MOL d   1     -40.474  26.247 -33.342  0.00  0.00     0.091 H 
ATOM     23  O1  MOL d   1     -41.682  26.742 -36.212  0.00  0.00    -0.218 OA
ATOM     24  N2  MOL d   1     -40.632  27.600 -36.187  0.00  0.00    -0.123 NA
BRANCH  21  25
ATOM     25  C6  MOL d   1     -42.782  25.133 -34.734  0.00  0.00    -0.029 C 
ATOM     26  H2  MOL d   1     -43.477  25.015 -35.578  0.00  0.00     0.036 H 
ATOM     27  H3  MOL d   1     -43.336  25.474 -33.847  0.00  0.00     0.036 H 
ATOM     28  H4  MOL d   1     -42.302  24.167 -34.517  0.00  0.00     0.036 H 
ENDBRANCH  21  25
ENDBRANCH  16  19
ENDBRANCH  13  15
BRANCH  13  29
ATOM     29  CB  MOL d   1     -35.764  29.629 -36.355  0.00  0.00    -0.049 C 
ATOM     30  H7  MOL d   1     -34.865  30.174 -36.031  0.00  0.00     0.030 H 
ATOM     31  H8  MOL d   1     -36.233  30.163 -37.194  0.00  0.00     0.030 H 
ATOM     32  H9  MOL d   1     -35.483  28.615 -36.676  0.00  0.00     0.030 H 
ENDBRANCH  13  29
ENDBRANCH  10  13
ENDBRANCH   7   9
BRANCH   7  33
ATOM     33  CB  MOL d   1     -37.087  33.346 -32.277  0.00  0.00    -0.033 C 
ATOM     34  H12 MOL d   1     -37.498  34.365 -32.220  0.00  0.00     0.042 H 
BRANCH  33  35
ATOM     35  CG1 MOL d   1     -38.181  32.372 -31.874  0.00  0.00    -0.071 C 
ATOM     36  H13 MOL d   1     -38.486  32.572 -30.836  0.00  0.00     0.028 H 
ATOM     37  H14 MOL d   1     -37.803  31.342 -31.953  0.00  0.00     0.028 H 
ATOM     38  H15 MOL d   1     -39.047  32.497 -32.541  0.00  0.00     0.028 H 
ENDBRANCH  33  35
BRANCH  33  39
ATOM     39  CG2 MOL d   1     -35.928  33.254 -31.315  0.00  0.00    -0.071 C 
ATOM     40  H16 MOL d   1     -35.143  33.963 -31.617  0.00  0.00     0.028 H 
ATOM     41  H17 MOL d   1     -35.522  32.232 -31.326  0.00  0.00     0.028 H 
ATOM     42  H18 MOL d   1     -36.273  33.500 -30.300  0.00  0.00     0.028 H 
ENDBRANCH  33  39
ENDBRANCH   7  33
ENDBRANCH   4   7
ENDBRANCH   1   3
BRANCH   1  43
ATOM     43  C   MOL d   1     -33.844  36.442 -33.198  0.00  0.00     0.241 C 
ATOM     44  O   MOL d   1     -34.634  36.958 -32.415  0.00  0.00    -0.271 OA
ATOM     45  N5  MOL d   1     -32.487  36.198 -32.749  0.00  0.00    -0.351 N 
ATOM     46  H41 MOL d   1     -31.796  35.769 -33.330  0.00  0.00     0.163 HD
BRANCH  45  47
ATOM     47  C19 MOL d   1     -32.210  36.626 -31.389  0.00  0.00     0.030 C 
ATOM     48  H30 MOL d   1     -33.165  36.637 -30.843  0.00  0.00     0.079 H 
BRANCH  47  49
ATOM     49  C20 MOL d   1     -31.695  38.018 -31.414  0.00  0.00    -0.076 C 
ATOM     50  C21 MOL d   1     -31.748  39.398 -31.343  0.00  0.00    -0.012 C 
ATOM     51  H32 MOL d   1     -30.852  39.917 -31.682  0.00  0.00     0.092 H 
ATOM     52  H31 MOL d   1     -30.635  37.852 -31.602  0.00  0.00     0.080 H 
BRANCH  50  53
ATOM     53  C22 MOL d   1     -32.867  40.288 -30.864  0.00  0.00     0.282 C 
ATOM     54  O7  MOL d   1     -33.779  39.855 -30.259  0.00  0.00    -0.260 OA
BRANCH  53  55
ATOM     55  O   MOL d   1     -32.681  41.678 -31.105  0.00  0.00    -0.314 OA
BRANCH  55  56
ATOM     56  C   MOL d   1     -33.698  42.336 -31.891  0.00  0.00     0.053 C 
ATOM     57  H42 MOL d   1     -34.204  41.561 -32.485  0.00  0.00     0.082 H 
ATOM     58  H43 MOL d   1     -33.186  43.039 -32.565  0.00  0.00     0.082 H 
BRANCH  56  59
ATOM     59  C6  MOL d   1     -34.831  43.158 -31.119  0.00  0.00    -0.034 A 
ATOM     60  C1  MOL d   1     -36.175  43.046 -31.513  0.00  0.00    -0.075 A 
ATOM     61  C2  MOL d   1     -37.164  43.766 -30.858  0.00  0.00    -0.082 A 
ATOM     62  H44 MOL d   1     -36.441  42.392 -32.335  0.00  0.00     0.084 H 
ATOM     63  C3  MOL d   1     -36.792  44.612 -29.814  0.00  0.00    -0.083 A 
ATOM     64  H45 MOL d   1     -38.203  43.673 -31.152  0.00  0.00     0.083 H 
ATOM     65  C4  MOL d   1     -35.465  44.757 -29.406  0.00  0.00    -0.082 A 
ATOM     66  H46 MOL d   1     -37.561  45.178 -29.301  0.00  0.00     0.083 H 
ATOM     67  C5  MOL d   1     -34.492  44.020 -30.064  0.00  0.00    -0.075 A 
ATOM     68  H47 MOL d   1     -35.202  45.428 -28.596  0.00  0.00     0.083 H 
ATOM     69  H48 MOL d   1     -33.456  44.111 -29.760  0.00  0.00     0.084 H 
ENDBRANCH  56  59
ENDBRANCH  55  56
ENDBRANCH  53  55
ENDBRANCH  50  53
ENDBRANCH  47  49
BRANCH  47  70
ATOM     70  C25 MOL d   1     -31.294  35.660 -30.653  0.00  0.00    -0.032 C 
ATOM     71  H33 MOL d   1     -30.842  36.155 -29.781  0.00  0.00     0.037 H 
ATOM     72  H34 MOL d   1     -30.500  35.303 -31.325  0.00  0.00     0.037 H 
BRANCH  70  73
ATOM     73  C26 MOL d   1     -32.103  34.580 -30.236  0.00  0.00     0.027 C 
ATOM     74  C27 MOL d   1     -32.995  34.998 -29.061  0.00  0.00    -0.039 C 
ATOM     75  C28 MOL d   1     -33.197  33.791 -28.409  0.00  0.00    -0.004 C 
ATOM     76  H36 MOL d   1     -33.945  35.426 -29.413  0.00  0.00     0.036 H 
ATOM     77  H37 MOL d   1     -32.485  35.723 -28.410  0.00  0.00     0.036 H 
ATOM     78  N6  MOL d   1     -31.860  33.049 -28.540  0.00  0.00    -0.361 N 
ATOM     79  H38 MOL d   1     -34.006  33.221 -28.890  0.00  0.00     0.064 H 
ATOM     80  H39 MOL d   1     -33.446  33.959 -27.351  0.00  0.00     0.064 H 
ATOM     81  C29 MOL d   1     -31.216  33.502 -29.598  0.00  0.00     0.222 C 
ATOM     82  H40 MOL d   1     -31.530  32.336 -27.922  0.00  0.00     0.162 HD
ATOM     83  O8  MOL d   1     -30.109  33.141 -30.014  0.00  0.00    -0.273 OA
ATOM     84  H35 MOL d   1     -32.691  34.190 -31.080  0.00  0.00     0.054 H 
ENDBRANCH  70  73
ENDBRANCH  47  70
ENDBRANCH  45  47
ENDBRANCH   1  43
BRANCH   1  85
ATOM     85  CB  MOL d   1     -34.589  37.238 -35.441  0.00  0.00    -0.035 C 
ATOM     86  H21 MOL d   1     -33.917  38.050 -35.126  0.00  0.00     0.037 H 
ATOM     87  H22 MOL d   1     -35.633  37.544 -35.282  0.00  0.00     0.037 H 
BRANCH  85  88
ATOM     88  CG  MOL d   1     -34.373  36.970 -36.953  0.00  0.00    -0.059 C 
ATOM     89  H23 MOL d   1     -33.444  37.465 -37.270  0.00  0.00     0.038 H 
BRANCH  88  90
ATOM     90  CD1 MOL d   1     -34.262  35.467 -37.273  0.00  0.00    -0.073 C 
ATOM     91  H24 MOL d   1     -34.110  35.333 -38.354  0.00  0.00     0.028 H 
ATOM     92  H25 MOL d   1     -35.188  34.958 -36.967  0.00  0.00     0.028 H 
ATOM     93  H26 MOL d   1     -33.409  35.038 -36.727  0.00  0.00     0.028 H 
ENDBRANCH  88  90
BRANCH  88  94
ATOM     94  CD2 MOL d   1     -35.604  37.589 -37.759  0.00  0.00    -0.073 C 
ATOM     95  H27 MOL d   1     -35.687  38.662 -37.534  0.00  0.00     0.028 H 
ATOM     96  H28 MOL d   1     -36.532  37.079 -37.461  0.00  0.00     0.028 H 
ATOM     97  H29 MOL d   1     -35.441  37.453 -38.838  0.00  0.00     0.028 H 
ENDBRANCH  88  94
ENDBRANCH  85  88
ENDBRANCH   1  85
TORSDOF 24
