REMARK  24 active torsions:
REMARK  status: ('A' for Active; 'I' for Inactive)
REMARK    1  A    between atoms: C5_2  and  C6_3 
REMARK    2  A    between atoms: C41_7  and  C3_6 
REMARK       I    between atoms: N_9  and  C41_7 
REMARK    3  A    between atoms: CA_10  and  N_9 
REMARK    4  A    between atoms: C_11  and  CA_10 
REMARK    5  A    between atoms: CA_10  and  CB_13 
REMARK       I    between atoms: N_14  and  C_11 
REMARK    6  A    between atoms: CA_15  and  N_14 
REMARK    7  A    between atoms: C_16  and  CA_15 
REMARK    8  A    between atoms: CA_15  and  CB_18 
REMARK       I    between atoms: N_21  and  C_16 
REMARK    9  A    between atoms: CB_18  and  CG1_19 
REMARK   10  A    between atoms: CB_18  and  CG2_20 
REMARK   11  A    between atoms: CA_22  and  N_21 
REMARK   12  A    between atoms: C_23  and  CA_22 
REMARK   13  A    between atoms: CA_22  and  CB_25 
REMARK       I    between atoms: N5_40  and  C_23 
REMARK   14  A    between atoms: CB_25  and  CG_26 
REMARK   15  A    between atoms: CG_26  and  CD1_27 
REMARK   16  A    between atoms: CG_26  and  CD2_28 
REMARK   17  A    between atoms: C20_30  and  C19_29 
REMARK   18  A    between atoms: C19_29  and  C25_33 
REMARK   19  A    between atoms: C19_29  and  N5_40 
REMARK   20  A    between atoms: C22_32  and  C21_31 
REMARK   21  A    between atoms: O_43  and  C22_32 
REMARK   22  A    between atoms: C25_33  and  C26_34 
REMARK   23  A    between atoms: C_42  and  O_43 
REMARK   24  A    between atoms: C6_49  and  C_42 
ROOT
ATOM      1  CA  LEU d   1       8.324  36.232   1.646  0.00  0.00     0.089 C 
ATOM      2  H20 LEU d   1       8.139  36.350   0.568  0.00  0.00     0.087 H 
ENDROOT
BRANCH   1   3
ATOM      3  N   LEU d   1       7.302  35.429   2.257  0.00  0.00    -0.346 N 
ATOM      4  C   VAL d   1       7.010  34.075   1.726  0.00  0.00     0.241 C 
ATOM      5  O   VAL d   1       7.635  33.649   0.747  0.00  0.00    -0.271 OA
ATOM      6  H19 LEU d   1       6.788  35.782   3.039  0.00  0.00     0.163 HD
BRANCH   4   7
ATOM      7  CA  VAL d   1       5.946  33.217   2.370  0.00  0.00     0.092 C 
ATOM      8  H11 VAL d   1       5.509  33.757   3.223  0.00  0.00     0.088 H 
BRANCH   7   9
ATOM      9  N   VAL d   1       4.904  32.925   1.394  0.00  0.00    -0.346 N 
ATOM     10  C   ALA d   1       3.562  33.437   1.632  0.00  0.00     0.240 C 
ATOM     11  O   ALA d   1       3.333  34.101   2.652  0.00  0.00    -0.271 OA
ATOM     12  H10 VAL d   1       5.106  32.384   0.578  0.00  0.00     0.163 HD
BRANCH  10  13
ATOM     13  CA  ALA d   1       2.439  33.156   0.633  0.00  0.00     0.086 C 
ATOM     14  H6  ALA d   1       2.660  32.241   0.063  0.00  0.00     0.086 H 
BRANCH  13  15
ATOM     15  N   ALA d   1       1.223  32.983   1.382  0.00  0.00    -0.343 N 
ATOM     16  C41 02J d   1       0.999  31.708   2.042  0.00  0.00     0.273 C 
ATOM     17  O42 02J d   1       1.826  30.827   1.936  0.00  0.00    -0.266 OA
ATOM     18  H5  ALA d   1       0.550  33.720   1.447  0.00  0.00     0.163 HD
BRANCH  16  19
ATOM     19  C3  02J d   1      -0.230  31.621   2.917  0.00  0.00     0.154 A 
ATOM     20  C4  02J d   1      -0.759  32.735   3.503  0.00  0.00    -0.017 A 
ATOM     21  C5  02J d   1      -1.811  32.355   4.249  0.00  0.00     0.077 A 
ATOM     22  H1  02J d   1      -0.393  33.754   3.386  0.00  0.00     0.091 H 
ATOM     23  O1  02J d   1      -1.897  31.045   4.141  0.00  0.00    -0.218 OA
ATOM     24  N2  02J d   1      -0.892  30.565   3.317  0.00  0.00    -0.123 NA
BRANCH  21  25
ATOM     25  C6  02J d   1      -2.711  33.255   5.058  0.00  0.00    -0.029 C 
ATOM     26  H2  02J d   1      -3.481  32.650   5.558  0.00  0.00     0.036 H 
ATOM     27  H3  02J d   1      -3.194  33.985   4.392  0.00  0.00     0.036 H 
ATOM     28  H4  02J d   1      -2.114  33.787   5.814  0.00  0.00     0.036 H 
ENDBRANCH  21  25
ENDBRANCH  16  19
ENDBRANCH  13  15
BRANCH  13  29
ATOM     29  CB  ALA d   1       2.317  34.319  -0.311  0.00  0.00    -0.049 C 
ATOM     30  H7  ALA d   1       3.255  34.435  -0.874  0.00  0.00     0.030 H 
ATOM     31  H8  ALA d   1       2.117  35.237   0.262  0.00  0.00     0.030 H 
ATOM     32  H9  ALA d   1       1.489  34.137  -1.012  0.00  0.00     0.030 H 
ENDBRANCH  13  29
ENDBRANCH  10  13
ENDBRANCH   7   9
BRANCH   7  33
ATOM     33  CB  VAL d   1       6.552  31.921   2.856  0.00  0.00    -0.033 C 
ATOM     34  H12 VAL d   1       6.998  31.381   2.008  0.00  0.00     0.042 H 
BRANCH  33  35
ATOM     35  CG1 VAL d   1       7.619  32.221   3.885  0.00  0.00    -0.071 C 
ATOM     36  H13 VAL d   1       8.061  31.279   4.240  0.00  0.00     0.028 H 
ATOM     37  H14 VAL d   1       7.170  32.758   4.734  0.00  0.00     0.028 H 
ATOM     38  H15 VAL d   1       8.402  32.845   3.430  0.00  0.00     0.028 H 
ENDBRANCH  33  35
BRANCH  33  39
ATOM     39  CG2 VAL d   1       5.469  31.066   3.494  0.00  0.00    -0.071 C 
ATOM     40  H16 VAL d   1       4.690  30.845   2.749  0.00  0.00     0.028 H 
ATOM     41  H17 VAL d   1       5.024  31.610   4.340  0.00  0.00     0.028 H 
ATOM     42  H18 VAL d   1       5.910  30.125   3.854  0.00  0.00     0.028 H 
ENDBRANCH  33  39
ENDBRANCH   7  33
ENDBRANCH   4   7
ENDBRANCH   1   3
BRANCH   1  43
ATOM     43  C   LEU d   1       9.648  35.492   1.899  0.00  0.00     0.241 C 
ATOM     44  O   LEU d   1       9.942  35.149   3.041  0.00  0.00    -0.271 OA
ATOM     45  N5  PJE d   1      10.553  35.160   0.804  0.00  0.00    -0.351 N 
ATOM     46  H39 PJE d   1      10.351  35.415  -0.142  0.00  0.00     0.163 HD
BRANCH  45  47
ATOM     47  C19 PJE d   1      11.769  34.436   1.163  0.00  0.00     0.030 C 
ATOM     48  H30 PJE d   1      11.628  34.040   2.179  0.00  0.00     0.079 H 
BRANCH  47  49
ATOM     49  C20 PJE d   1      12.935  35.368   1.226  0.00  0.00    -0.076 C 
ATOM     50  C21 PJE d   1      13.167  35.792   2.533  0.00  0.00    -0.012 C 
ATOM     51  H32 PJE d   1      12.490  35.499   3.334  0.00  0.00     0.092 H 
ATOM     52  H31 PJE d   1      13.526  35.675   0.364  0.00  0.00     0.080 H 
BRANCH  50  53
ATOM     53  C22 PJE d   1      14.365  36.661   2.828  0.00  0.00     0.282 C 
ATOM     54  O7  PJE d   1      15.356  36.487   2.229  0.00  0.00    -0.260 OA
BRANCH  53  55
ATOM     55  O   010 d   1      14.338  37.633   3.848  0.00  0.00    -0.314 OA
BRANCH  55  56
ATOM     56  C   010 d   1      15.554  37.694   4.642  0.00  0.00     0.053 C 
ATOM     57  H40 010 d   1      15.628  38.687   5.110  0.00  0.00     0.082 H 
ATOM     58  H41 010 d   1      16.421  37.533   3.984  0.00  0.00     0.082 H 
BRANCH  56  59
ATOM     59  C6  010 d   1      15.552  36.580   5.783  0.00  0.00    -0.034 A 
ATOM     60  C1  010 d   1      14.419  36.289   6.551  0.00  0.00    -0.075 A 
ATOM     61  C2  010 d   1      14.484  35.298   7.536  0.00  0.00    -0.082 A 
ATOM     62  H42 010 d   1      13.495  36.830   6.383  0.00  0.00     0.084 H 
ATOM     63  C3  010 d   1      15.677  34.616   7.752  0.00  0.00    -0.083 A 
ATOM     64  H43 010 d   1      13.608  35.062   8.129  0.00  0.00     0.083 H 
ATOM     65  C4  010 d   1      16.810  34.908   6.995  0.00  0.00    -0.082 A 
ATOM     66  H44 010 d   1      15.726  33.849   8.517  0.00  0.00     0.083 H 
ATOM     67  C5  010 d   1      16.741  35.890   6.025  0.00  0.00    -0.075 A 
ATOM     68  H45 010 d   1      17.736  34.370   7.165  0.00  0.00     0.083 H 
ATOM     69  H46 010 d   1      17.624  36.128   5.443  0.00  0.00     0.084 H 
ENDBRANCH  56  59
ENDBRANCH  55  56
ENDBRANCH  53  55
ENDBRANCH  50  53
ENDBRANCH  47  49
BRANCH  47  70
ATOM     70  C25 PJE d   1      11.965  33.229   0.248  0.00  0.00    -0.029 C 
ATOM     71  H33 PJE d   1      12.985  32.831   0.357  0.00  0.00     0.038 H 
ATOM     72  H34 PJE d   1      11.793  33.514  -0.800  0.00  0.00     0.038 H 
BRANCH  70  73
ATOM     73  C26 PJE d   1      11.016  32.261   0.654  0.00  0.00     0.043 C 
ATOM     74  C27 PJE d   1      11.375  31.791   2.073  0.00  0.00    -0.075 C 
ATOM     75  C28 PJE d   1      11.038  30.444   2.085  0.00  0.00    -0.023 C 
ATOM     76  H36 PJE d   1      11.798  32.381   2.885  0.00  0.00     0.080 H 
ATOM     77  N6  PJE d   1      11.166  29.954   0.634  0.00  0.00    -0.337 N 
ATOM     78  H37 PJE d   1      10.742  29.853   2.950  0.00  0.00     0.110 H 
ATOM     79  C29 PJE d   1      11.153  30.979  -0.190  0.00  0.00     0.229 C 
ATOM     80  H38 PJE d   1      11.247  28.997   0.357  0.00  0.00     0.168 HD
ATOM     81  O8  PJE d   1      11.232  30.919  -1.419  0.00  0.00    -0.273 OA
ATOM     82  H35 PJE d   1       9.997  32.673   0.601  0.00  0.00     0.061 H 
ENDBRANCH  70  73
ENDBRANCH  47  70
ENDBRANCH  45  47
ENDBRANCH   1  43
BRANCH   1  83
ATOM     83  CB  LEU d   1       8.373  37.571   2.314  0.00  0.00    -0.035 C 
ATOM     84  H21 LEU d   1       9.426  37.842   2.478  0.00  0.00     0.037 H 
ATOM     85  H22 LEU d   1       7.858  37.498   3.283  0.00  0.00     0.037 H 
BRANCH  83  86
ATOM     86  CG  LEU d   1       7.697  38.696   1.478  0.00  0.00    -0.059 C 
ATOM     87  H23 LEU d   1       8.481  39.358   1.082  0.00  0.00     0.038 H 
BRANCH  86  88
ATOM     88  CD1 LEU d   1       6.887  38.138   0.294  0.00  0.00    -0.073 C 
ATOM     89  H24 LEU d   1       6.431  38.970  -0.263  0.00  0.00     0.028 H 
ATOM     90  H25 LEU d   1       6.096  37.473   0.672  0.00  0.00     0.028 H 
ATOM     91  H26 LEU d   1       7.554  37.573  -0.373  0.00  0.00     0.028 H 
ENDBRANCH  86  88
BRANCH  86  92
ATOM     92  CD2 LEU d   1       6.732  39.539   2.435  0.00  0.00    -0.073 C 
ATOM     93  H27 LEU d   1       7.311  39.938   3.281  0.00  0.00     0.028 H 
ATOM     94  H28 LEU d   1       5.931  38.887   2.814  0.00  0.00     0.028 H 
ATOM     95  H29 LEU d   1       6.290  40.372   1.869  0.00  0.00     0.028 H 
ENDBRANCH  86  92
ENDBRANCH  83  86
ENDBRANCH   1  83
TORSDOF 24
