REMARK  12 active torsions:
REMARK  status: ('A' for Active; 'I' for Inactive)
REMARK    1  A    between atoms: O3_22  and  C1_1 
REMARK    2  A    between atoms: C2_2  and  O2_7 
REMARK    3  A    between atoms: C3_3  and  O3_8 
REMARK    4  A    between atoms: C5_5  and  C6_6 
REMARK    5  A    between atoms: C1_12  and  O1_21 
REMARK    6  A    between atoms: N_20  and  C2_13 
REMARK    7  A    between atoms: C3_14  and  O3_22 
REMARK    8  A    between atoms: C4_15  and  O4_23 
REMARK    9  A    between atoms: C5_16  and  C6_17 
REMARK   10  A    between atoms: C6_17  and  O6_25 
REMARK   11  A    between atoms: C7_18  and  C8_19 
REMARK       I    between atoms: C7_18  and  N_20 
REMARK   12  A    between atoms: O6_25  and  S_27 
ROOT
ATOM      1  H7  GCD d   1      16.359 -17.915  -9.151  0.00  0.00     0.132 H 
ATOM      2  H8  GCD d   1      18.811 -18.116  -7.273  0.00  0.00     0.084 H 
ATOM      3  H9  GCD d   1      16.133 -16.672  -6.840  0.00  0.00     0.091 H 
ATOM      4  H10 GCD d   1      17.435 -14.602  -7.039  0.00  0.00     0.091 H 
ATOM      5  H11 GCD d   1      16.572 -15.571  -9.158  0.00  0.00     0.090 H 
ATOM      6  C1  NG6 d   1      17.434 -17.975  -8.928  0.00  0.00     0.151 C 
ATOM      7  C2  NG6 d   1      17.726 -18.016  -7.426  0.00  0.00     0.087 C 
ATOM      8  C3  NG6 d   1      17.229 -16.742  -6.779  0.00  0.00     0.093 C 
ATOM      9  C4  NG6 d   1      17.874 -15.529  -7.438  0.00  0.00     0.089 C 
ATOM     10  C5  NG6 d   1      17.651 -15.631  -8.953  0.00  0.00     0.090 C 
ATOM     11  O5  NG6 d   1      18.170 -16.871  -9.480  0.00  0.00    -0.349 OA
ENDROOT
BRANCH   8  12
ATOM     12  O3  NG6 d   1      17.660 -16.804  -5.449  0.00  0.00    -0.348 OA
BRANCH  12  13
ATOM     13  C1  GCD d   1      16.822 -16.032  -4.574  0.00  0.00     0.165 C 
ATOM     14  C2  GCD d   1      16.889 -16.722  -3.193  0.00  0.00     0.111 C 
ATOM     15  C3  GCD d   1      15.927 -15.972  -2.270  0.00  0.00     0.084 C 
ATOM     16  H2  GCD d   1      17.911 -16.750  -2.788  0.00  0.00     0.095 H 
ATOM     17  C4  GCD d   1      16.169 -14.444  -2.352  0.00  0.00    -0.034 C 
ATOM     18  H3  GCD d   1      14.896 -16.178  -2.593  0.00  0.00     0.093 H 
ATOM     19  C5  GCD d   1      16.888 -13.906  -3.359  0.00  0.00     0.147 C 
ATOM     20  H4  GCD d   1      15.752 -13.794  -1.585  0.00  0.00     0.085 H 
ATOM     21  O5  GCD d   1      17.347 -14.734  -4.447  0.00  0.00    -0.311 OA
ATOM     22  H1  GCD d   1      15.789 -15.995  -4.950  0.00  0.00     0.134 H 
BRANCH  14  23
ATOM     23  O2  GCD d   1      16.346 -18.040  -3.397  0.00  0.00    -0.388 OA
ATOM     24  H5  GCD d   1      16.922 -18.534  -3.969  0.00  0.00     0.210 HD
ENDBRANCH  14  23
BRANCH  15  25
ATOM     25  O3  GCD d   1      16.092 -16.455  -0.901  0.00  0.00    -0.389 OA
ATOM     26  H6  GCD d   1      15.939 -17.392  -0.876  0.00  0.00     0.210 HD
ENDBRANCH  15  25
BRANCH  19  27
ATOM     27  C6  GCD d   1      17.272 -12.498  -3.471  0.00  0.00     0.233 C 
ATOM     28  O6A GCD d   1      18.058 -12.184  -4.435  0.00  0.00    -0.642 OA
ATOM     29  O6B GCD d   1      16.801 -11.680  -2.642  0.00  0.00    -0.642 OA
ENDBRANCH  19  27
ENDBRANCH  12  13
ENDBRANCH   8  12
BRANCH   7  30
ATOM     30  N   NG6 d   1      17.030 -19.139  -6.771  0.00  0.00    -0.349 N 
ATOM     31  C7  NG6 d   1      17.642 -20.197  -6.190  0.00  0.00     0.214 C 
ATOM     32  O7  NG6 d   1      18.863 -20.267  -5.958  0.00  0.00    -0.274 OA
ATOM     33  H17 GCD d   1      16.030 -19.117  -6.755  0.00  0.00     0.163 HD
BRANCH  31  34
ATOM     34  C8  NG6 d   1      16.699 -21.324  -5.792  0.00  0.00    -0.003 C 
ATOM     35  H14 GCD d   1      17.276 -22.139  -5.330  0.00  0.00     0.040 H 
ATOM     36  H15 GCD d   1      16.182 -21.702  -6.686  0.00  0.00     0.040 H 
ATOM     37  H16 GCD d   1      15.958 -20.945  -5.072  0.00  0.00     0.040 H 
ENDBRANCH  31  34
ENDBRANCH   7  30
BRANCH   9  38
ATOM     38  O4  NG6 d   1      19.292 -15.544  -7.224  0.00  0.00    -0.390 OA
ATOM     39  H19 GCD d   1      19.471 -15.482  -6.293  0.00  0.00     0.210 HD
ENDBRANCH   9  38
BRANCH   6  40
ATOM     40  O1  NG6 d   1      18.042 -19.153  -9.437  0.00  0.00    -0.369 OA
ATOM     41  H18 GCD d   1      17.992 -19.149 -10.386  0.00  0.00     0.212 HD
ENDBRANCH   6  40
BRANCH  10  42
ATOM     42  C6  NG6 d   1      18.359 -14.512  -9.654  0.00  0.00     0.067 C 
ATOM     43  H12 GCD d   1      19.452 -14.580  -9.552  0.00  0.00     0.080 H 
ATOM     44  H13 GCD d   1      18.020 -13.523  -9.312  0.00  0.00     0.080 H 
BRANCH  42  45
ATOM     45  O6  NG6 d   1      17.922 -14.806 -10.968  0.00  0.00    -0.254 OA
BRANCH  45  46
ATOM     46  S   NG6 d   1      17.541 -13.727 -11.912  0.00  0.00     0.251 S 
ATOM     47  O1S NG6 d   1      16.779 -14.177 -13.035  0.00  0.00    -0.572 OA
ATOM     48  O2S NG6 d   1      19.135 -13.401 -12.201  0.00  0.00    -0.572 OA
ATOM     49  O3S NG6 d   1      16.735 -12.762 -11.202  0.00  0.00    -0.572 OA
ENDBRANCH  45  46
ENDBRANCH  42  45
ENDBRANCH  10  42
TORSDOF 12
