REMARK  10 active torsions:
REMARK  status: ('A' for Active; 'I' for Inactive)
REMARK       I    between atoms: N1_5  and  C14_26 
REMARK    1  A    between atoms: S3_28  and  N1_5 
REMARK    2  A    between atoms: C1_10  and  C8_7 
REMARK    3  A    between atoms: C4_14  and  O1_15 
REMARK    4  A    between atoms: O1_15  and  C7_16 
REMARK    5  A    between atoms: C7_16  and  C21_17 
REMARK    6  A    between atoms: C9_19  and  C3_18 
REMARK    7  A    between atoms: S1_20  and  C9_19 
REMARK    8  A    between atoms: C10_21  and  S1_20 
REMARK    9  A    between atoms: C14_26  and  C13_25 
REMARK   10  A    between atoms: S3_28  and  C15_31 
ROOT
ATOM      1  C10 7WL d   1      31.626  -4.679  43.152  0.00  0.00     0.024 A 
ATOM      2  C11 7WL d   1      31.928  -5.831  42.444  0.00  0.00    -0.059 A 
ATOM      3  C12 7WL d   1      33.065  -5.706  41.662  0.00  0.00    -0.043 A 
ATOM      4  S2  7WL d   1      33.784  -4.135  41.768  0.00  0.00    -0.095 SA
ATOM      5  C13 7WL d   1      32.512  -3.672  42.889  0.00  0.00     0.090 A 
ATOM      6  H16 7WL d   1      31.333  -6.741  42.497  0.00  0.00     0.086 H 
ATOM      7  H17 7WL d   1      33.464  -6.511  41.046  0.00  0.00     0.095 H 
ENDROOT
BRANCH   1   8
ATOM      8  S1  7WL d   1      30.325  -4.407  44.285  0.00  0.00    -0.124 SA
BRANCH   8   9
ATOM      9  C9  7WL d   1      29.688  -6.091  44.483  0.00  0.00     0.008 C 
ATOM     10  H14 7WL d   1      29.226  -6.388  43.530  0.00  0.00     0.056 H 
ATOM     11  H15 7WL d   1      30.543  -6.749  44.696  0.00  0.00     0.056 H 
BRANCH   9  12
ATOM     12  C3  7WL d   1      28.673  -6.298  45.566  0.00  0.00    -0.014 A 
ATOM     13  C2  7WL d   1      27.341  -6.280  45.188  0.00  0.00    -0.059 A 
ATOM     14  C1  7WL d   1      26.331  -6.472  46.146  0.00  0.00     0.048 A 
ATOM     15  H6  7WL d   1      27.076  -6.117  44.150  0.00  0.00     0.085 H 
ATOM     16  C6  7WL d   1      26.673  -6.721  47.484  0.00  0.00    -0.066 A 
ATOM     17  C5  7WL d   1      28.010  -6.757  47.838  0.00  0.00    -0.049 A 
ATOM     18  H7  7WL d   1      25.902  -6.883  48.228  0.00  0.00     0.084 H 
ATOM     19  C4  7WL d   1      29.025  -6.539  46.891  0.00  0.00     0.075 A 
ATOM     20  H8  7WL d   1      28.280  -6.958  48.868  0.00  0.00     0.087 H 
BRANCH  14  21
ATOM     21  C8  7WL d   1      24.892  -6.409  45.716  0.00  0.00     0.417 C 
ATOM     22  F3  7WL d   1      24.132  -5.926  46.699  0.00  0.00    -0.166 F 
ATOM     23  F1  7WL d   1      24.843  -5.538  44.701  0.00  0.00    -0.166 F 
ATOM     24  F2  7WL d   1      24.439  -7.610  45.375  0.00  0.00    -0.166 F 
ENDBRANCH  14  21
BRANCH  19  25
ATOM     25  O1  7WL d   1      30.373  -6.542  47.192  0.00  0.00    -0.351 OA
BRANCH  25  26
ATOM     26  C7  7WL d   1      30.846  -6.938  48.486  0.00  0.00     0.023 C 
ATOM     27  H9  7WL d   1      30.250  -7.790  48.846  0.00  0.00     0.074 H 
ATOM     28  H10 7WL d   1      30.740  -6.095  49.185  0.00  0.00     0.074 H 
BRANCH  26  29
ATOM     29  C21 7WL d   1      32.312  -7.346  48.408  0.00  0.00    -0.056 C 
ATOM     30  H11 7WL d   1      32.662  -7.647  49.406  0.00  0.00     0.030 H 
ATOM     31  H12 7WL d   1      32.911  -6.495  48.051  0.00  0.00     0.030 H 
ATOM     32  H13 7WL d   1      32.421  -8.190  47.711  0.00  0.00     0.030 H 
ENDBRANCH  26  29
ENDBRANCH  25  26
ENDBRANCH  19  25
ENDBRANCH   9  12
ENDBRANCH   8   9
ENDBRANCH   1   8
BRANCH   5  33
ATOM     33  C14 7WL d   1      32.455  -2.364  43.449  0.00  0.00     0.273 C 
ATOM     34  N1  7WL d   1      33.488  -1.585  43.062  0.00  0.00    -0.245 N 
ATOM     35  H5  7WL d   1      34.086  -1.896  42.323  0.00  0.00     0.182 HD
ATOM     36  O2  7WL d   1      31.614  -1.953  44.246  0.00  0.00    -0.266 OA
BRANCH  34  37
ATOM     37  S3  7WL d   1      33.789  -0.104  43.797  0.00  0.00     0.265 S 
ATOM     38  O4  7WL d   1      35.164   0.223  43.379  0.00  0.00    -0.200 OA
ATOM     39  O3  7WL d   1      33.436  -0.135  45.211  0.00  0.00    -0.200 OA
BRANCH  37  40
ATOM     40  C15 7WL d   1      32.570   0.866  42.990  0.00  0.00     0.080 A 
ATOM     41  C20 7WL d   1      31.310   0.984  43.615  0.00  0.00    -0.060 A 
ATOM     42  C19 7WL d   1      30.261   1.724  43.005  0.00  0.00    -0.082 A 
ATOM     43  H4  7WL d   1      31.140   0.504  44.572  0.00  0.00     0.085 H 
ATOM     44  C18 7WL d   1      30.516   2.310  41.761  0.00  0.00    -0.083 A 
ATOM     45  H3  7WL d   1      29.296   1.831  43.487  0.00  0.00     0.083 H 
ATOM     46  C17 7WL d   1      31.790   2.184  41.137  0.00  0.00    -0.082 A 
ATOM     47  H2  7WL d   1      29.732   2.869  41.264  0.00  0.00     0.083 H 
ATOM     48  C16 7WL d   1      32.837   1.450  41.741  0.00  0.00    -0.060 A 
ATOM     49  H1  7WL d   1      31.961   2.661  40.179  0.00  0.00     0.083 H 
ATOM     50  H18 7WL d   1      33.803   1.343  41.261  0.00  0.00     0.085 H 
ENDBRANCH  37  40
ENDBRANCH  34  37
ENDBRANCH   5  33
TORSDOF 10
