REMARK  15 active torsions:
REMARK  status: ('A' for Active; 'I' for Inactive)
REMARK    1  A    between atoms: C26_25  and  O1_1 
REMARK    2  A    between atoms: O1_1  and  C39_38 
REMARK    3  A    between atoms: C4_3  and  N11_10 
REMARK    4  A    between atoms: C13_12  and  N8_7 
REMARK    5  A    between atoms: C10_9  and  C12_11 
REMARK    6  A    between atoms: N25_24  and  C16_15 
REMARK    7  A    between atoms: C21_20  and  O24_23 
REMARK    8  A    between atoms: O24_23  and  C32_31 
REMARK    9  A    between atoms: C27_26  and  N25_24 
REMARK   10  A    between atoms: C26_25  and  C27_26 
REMARK   11  A    between atoms: C27_26  and  C28_27 
REMARK   12  A    between atoms: C28_27  and  C29_28 
REMARK   13  A    between atoms: C29_28  and  C30_29 
REMARK   14  A    between atoms: C29_28  and  C31_30 
REMARK   15  A    between atoms: C39_38  and  C40_39 
ROOT
ATOM      1  C13 OOO d   1       5.596  -1.051   0.303  0.00  0.00     0.018 C 
ATOM      2  C14 OOO d   1       5.305   0.432   0.059  0.00  0.00    -0.044 C 
ATOM      3  C15 OOO d   1       6.301   1.330   0.796  0.00  0.00    -0.036 C 
ATOM      4  C16 OOO d   1       6.379   1.064   2.303  0.00  0.00     0.103 C 
ATOM      5  C17 OOO d   1       6.524  -0.441   2.566  0.00  0.00    -0.036 C 
ATOM      6  C18 OOO d   1       5.489  -1.291   1.808  0.00  0.00    -0.044 C 
ATOM      7  H5  OOO d   1       6.633  -1.264   0.004  0.00  0.00     0.073 H 
ATOM      8  H6  OOO d   1       4.289   0.659   0.414  0.00  0.00     0.036 H 
ATOM      9  H7  OOO d   1       5.371   0.636  -1.020  0.00  0.00     0.036 H 
ATOM     10  H8  OOO d   1       6.001   2.377   0.644  0.00  0.00     0.036 H 
ATOM     11  H9  OOO d   1       7.299   1.168   0.364  0.00  0.00     0.036 H 
ATOM     12  H10 OOO d   1       5.460   1.422   2.790  0.00  0.00     0.084 H 
ATOM     13  H11 OOO d   1       6.402  -0.621   3.644  0.00  0.00     0.036 H 
ATOM     14  H12 OOO d   1       7.531  -0.755   2.253  0.00  0.00     0.036 H 
ATOM     15  H13 OOO d   1       5.671  -2.355   2.018  0.00  0.00     0.036 H 
ATOM     16  H14 OOO d   1       4.479  -1.018   2.147  0.00  0.00     0.036 H 
ENDROOT
BRANCH   1  17
ATOM     17  N8  OOO d   1       4.720  -1.880  -0.545  0.00  0.00    -0.335 N 
ATOM     18  C9  OOO d   1       3.558  -1.531  -0.730  0.00  0.00    -0.006 A 
ATOM     19  C10 OOO d   1       3.012  -2.477  -1.585  0.00  0.00     0.008 A 
ATOM     20  H2  OOO d   1       3.059  -0.659  -0.310  0.00  0.00     0.113 H 
ATOM     21  C3  OOO d   1       4.110  -3.447  -1.834  0.00  0.00     0.068 A 
ATOM     22  C4  OOO d   1       4.368  -4.591  -2.530  0.00  0.00     0.137 A 
ATOM     23  C2  OOO d   1       5.186  -2.911  -1.086  0.00  0.00     0.146 A 
ATOM     24  N5  OOO d   1       5.570  -5.148  -2.482  0.00  0.00    -0.224 NA
ATOM     25  C6  OOO d   1       6.514  -4.544  -1.730  0.00  0.00     0.091 A 
ATOM     26  N7  OOO d   1       6.406  -3.421  -0.999  0.00  0.00    -0.223 NA
ATOM     27  H1  OOO d   1       7.484  -5.027  -1.713  0.00  0.00     0.146 H 
BRANCH  19  28
ATOM     28  C12 OOO d   1       1.565  -2.502  -2.083  0.00  0.00    -0.023 A 
ATOM     29  C19 OOO d   1       0.942  -1.382  -2.626  0.00  0.00    -0.070 A 
ATOM     30  C20 OOO d   1      -0.385  -1.440  -3.047  0.00  0.00    -0.049 A 
ATOM     31  H15 OOO d   1       1.495  -0.455  -2.722  0.00  0.00     0.085 H 
ATOM     32  C21 OOO d   1      -1.107  -2.616  -2.927  0.00  0.00     0.076 A 
ATOM     33  H16 OOO d   1      -0.855  -0.560  -3.471  0.00  0.00     0.087 H 
ATOM     34  C22 OOO d   1      -0.499  -3.718  -2.352  0.00  0.00    -0.049 A 
ATOM     35  C23 OOO d   1       0.824  -3.665  -1.935  0.00  0.00    -0.070 A 
ATOM     36  H17 OOO d   1      -1.063  -4.635  -2.225  0.00  0.00     0.087 H 
ATOM     37  H18 OOO d   1       1.282  -4.541  -1.490  0.00  0.00     0.085 H 
BRANCH  32  38
ATOM     38  O24 OOO d   1      -2.465  -2.742  -3.283  0.00  0.00    -0.311 OA
BRANCH  38  39
ATOM     39  C32 OOO d   1      -2.947  -2.232  -4.490  0.00  0.00     0.076 A 
ATOM     40  C33 OOO d   1      -4.193  -1.617  -4.475  0.00  0.00    -0.050 A 
ATOM     41  C34 OOO d   1      -4.739  -1.120  -5.647  0.00  0.00    -0.080 A 
ATOM     42  H31 OOO d   1      -4.739  -1.526  -3.543  0.00  0.00     0.087 H 
ATOM     43  C35 OOO d   1      -4.043  -1.237  -6.835  0.00  0.00    -0.083 A 
ATOM     44  H32 OOO d   1      -5.711  -0.640  -5.632  0.00  0.00     0.083 H 
ATOM     45  C36 OOO d   1      -2.805  -1.863  -6.852  0.00  0.00    -0.080 A 
ATOM     46  H33 OOO d   1      -4.463  -0.840  -7.752  0.00  0.00     0.083 H 
ATOM     47  C37 OOO d   1      -2.256  -2.370  -5.684  0.00  0.00    -0.050 A 
ATOM     48  H34 OOO d   1      -2.263  -1.956  -7.786  0.00  0.00     0.083 H 
ATOM     49  H35 OOO d   1      -1.294  -2.870  -5.704  0.00  0.00     0.087 H 
ENDBRANCH  38  39
ENDBRANCH  32  38
ENDBRANCH  19  28
BRANCH  22  50
ATOM     50  N11 OOO d   1       3.338  -5.210  -3.337  0.00  0.00    -0.383 N 
ATOM     51  H3  OOO d   1       3.542  -6.074  -3.859  0.00  0.00     0.157 HD
ATOM     52  H4  OOO d   1       2.401  -4.787  -3.389  0.00  0.00     0.157 HD
ENDBRANCH  22  50
ENDBRANCH   1  17
BRANCH   4  53
ATOM     53  N25 OOO d   1       7.522   1.814   2.817  0.00  0.00    -0.058 N 
ATOM     54  H19 OOO d   1       7.456   2.764   2.486  0.00  0.00     0.278 HD
ATOM     55  H20 OOO d   1       8.366   1.393   2.462  0.00  0.00     0.278 HD
BRANCH  53  56
ATOM     56  C27 OOO d   1       7.592   1.835   4.273  0.00  0.00     0.185 C 
ATOM     57  H21 OOO d   1       7.620   0.799   4.642  0.00  0.00     0.100 H 
BRANCH  56  58
ATOM     58  C26 OOO d   1       6.394   2.559   4.889  0.00  0.00     0.289 C 
ATOM     59  O38 OOO d   1       5.922   2.161   5.901  0.00  0.00    -0.263 OA
BRANCH  58  60
ATOM     60  O1  OOO d   1       5.853   3.697   4.285  0.00  0.00    -0.320 OA
BRANCH  60  61
ATOM     61  C39 OOO d   1       4.519   3.942   4.635  0.00  0.00     0.025 C 
ATOM     62  H36 OOO d   1       4.244   3.309   5.492  0.00  0.00     0.074 H 
ATOM     63  H37 OOO d   1       3.868   3.705   3.780  0.00  0.00     0.074 H 
BRANCH  61  64
ATOM     64  C40 OOO d   1       4.343   5.413   5.014  0.00  0.00    -0.056 C 
ATOM     65  H38 OOO d   1       3.294   5.598   5.287  0.00  0.00     0.030 H 
ATOM     66  H39 OOO d   1       4.616   6.047   4.158  0.00  0.00     0.030 H 
ATOM     67  H40 OOO d   1       4.992   5.652   5.869  0.00  0.00     0.030 H 
ENDBRANCH  61  64
ENDBRANCH  60  61
ENDBRANCH  58  60
ENDBRANCH  56  58
BRANCH  56  68
ATOM     68  C28 OOO d   1       8.853   2.577   4.720  0.00  0.00    -0.027 C 
ATOM     69  H22 OOO d   1       8.791   2.779   5.800  0.00  0.00     0.037 H 
ATOM     70  H23 OOO d   1       8.927   3.529   4.173  0.00  0.00     0.037 H 
BRANCH  68  71
ATOM     71  C29 OOO d   1      10.095   1.737   4.436  0.00  0.00    -0.059 C 
ATOM     72  H24 OOO d   1      10.018   1.304   3.428  0.00  0.00     0.038 H 
BRANCH  71  73
ATOM     73  C30 OOO d   1      11.340   2.620   4.509  0.00  0.00    -0.073 C 
ATOM     74  H25 OOO d   1      12.233   2.012   4.304  0.00  0.00     0.028 H 
ATOM     75  H26 OOO d   1      11.419   3.060   5.514  0.00  0.00     0.028 H 
ATOM     76  H27 OOO d   1      11.264   3.424   3.762  0.00  0.00     0.028 H 
ENDBRANCH  71  73
BRANCH  71  77
ATOM     77  C31 OOO d   1      10.195   0.608   5.461  0.00  0.00    -0.073 C 
ATOM     78  H28 OOO d   1       9.295  -0.022   5.401  0.00  0.00     0.028 H 
ATOM     79  H29 OOO d   1      10.277   1.036   6.471  0.00  0.00     0.028 H 
ATOM     80  H30 OOO d   1      11.085  -0.003   5.248  0.00  0.00     0.028 H 
ENDBRANCH  71  77
ENDBRANCH  68  71
ENDBRANCH  56  68
ENDBRANCH  53  56
ENDBRANCH   4  53
TORSDOF 15
