REMARK  12 active torsions:
REMARK  status: ('A' for Active; 'I' for Inactive)
REMARK    1  A    between atoms: C3_3  and  N10_10 
REMARK    2  A    between atoms: N7_7  and  C12_12 
REMARK    3  A    between atoms: C9_9  and  C11_11 
REMARK    4  A    between atoms: C15_15  and  N24_24 
REMARK    5  A    between atoms: C20_20  and  O23_23 
REMARK    6  A    between atoms: O23_23  and  C31_31 
REMARK    7  A    between atoms: N24_24  and  C26_26 
REMARK    8  A    between atoms: C26_26  and  C25_25 
REMARK    9  A    between atoms: C26_26  and  C27_27 
REMARK   10  A    between atoms: C27_27  and  C28_28 
REMARK   11  A    between atoms: C28_28  and  C29_29 
REMARK   12  A    between atoms: C28_28  and  C30_30 
ROOT
ATOM      1  C12 OOQ d   1       5.505  -0.828   0.165  0.00  0.00     0.018 C 
ATOM      2  C13 OOQ d   1       5.045   0.615   0.007  0.00  0.00    -0.044 C 
ATOM      3  C14 OOQ d   1       6.084   1.544   0.632  0.00  0.00    -0.036 C 
ATOM      4  C15 OOQ d   1       6.265   1.222   2.111  0.00  0.00     0.103 C 
ATOM      5  C16 OOQ d   1       6.662  -0.240   2.290  0.00  0.00    -0.036 C 
ATOM      6  C17 OOQ d   1       5.621  -1.170   1.644  0.00  0.00    -0.044 C 
ATOM      7  H5  OOQ d   1       6.513  -0.922  -0.265  0.00  0.00     0.073 H 
ATOM      8  H6  OOQ d   1       4.078   0.751   0.514  0.00  0.00     0.036 H 
ATOM      9  H7  OOQ d   1       4.936   0.852  -1.062  0.00  0.00     0.036 H 
ATOM     10  H8  OOQ d   1       5.748   2.586   0.527  0.00  0.00     0.036 H 
ATOM     11  H9  OOQ d   1       7.045   1.414   0.113  0.00  0.00     0.036 H 
ATOM     12  H10 OOQ d   1       5.317   1.401   2.640  0.00  0.00     0.084 H 
ATOM     13  H11 OOQ d   1       6.731  -0.466   3.364  0.00  0.00     0.036 H 
ATOM     14  H12 OOQ d   1       7.640  -0.409   1.816  0.00  0.00     0.036 H 
ATOM     15  H13 OOQ d   1       5.940  -2.217   1.757  0.00  0.00     0.036 H 
ATOM     16  H14 OOQ d   1       4.646  -1.029   2.133  0.00  0.00     0.036 H 
ENDROOT
BRANCH   1  17
ATOM     17  N7  OOQ d   1       4.597  -1.700  -0.644  0.00  0.00    -0.335 N 
ATOM     18  C1  OOQ d   1       5.026  -2.834  -1.198  0.00  0.00     0.146 A 
ATOM     19  C2  OOQ d   1       3.924  -3.442  -1.949  0.00  0.00     0.068 A 
ATOM     20  N6  OOQ d   1       6.239  -3.455  -1.166  0.00  0.00    -0.223 NA
ATOM     21  C3  OOQ d   1       4.197  -4.711  -2.659  0.00  0.00     0.137 A 
ATOM     22  C9  OOQ d   1       2.789  -2.499  -1.790  0.00  0.00     0.008 A 
ATOM     23  N4  OOQ d   1       5.448  -5.216  -2.553  0.00  0.00    -0.224 NA
ATOM     24  C5  OOQ d   1       6.405  -4.610  -1.827  0.00  0.00     0.091 A 
ATOM     25  H1  OOQ d   1       7.376  -5.088  -1.773  0.00  0.00     0.146 H 
ATOM     26  C8  OOQ d   1       3.295  -1.484  -0.966  0.00  0.00    -0.006 A 
ATOM     27  H2  OOQ d   1       2.715  -0.627  -0.626  0.00  0.00     0.113 H 
BRANCH  21  28
ATOM     28  N10 OOQ d   1       3.261  -5.332  -3.411  0.00  0.00    -0.383 N 
ATOM     29  H3  OOQ d   1       3.488  -6.215  -3.891  0.00  0.00     0.157 HD
ATOM     30  H4  OOQ d   1       2.321  -4.923  -3.504  0.00  0.00     0.157 HD
ENDBRANCH  21  28
BRANCH  22  31
ATOM     31  C11 OOQ d   1       1.380  -2.584  -2.262  0.00  0.00    -0.023 A 
ATOM     32  C18 OOQ d   1       0.655  -3.766  -2.076  0.00  0.00    -0.070 A 
ATOM     33  C19 OOQ d   1      -0.685  -3.829  -2.468  0.00  0.00    -0.049 A 
ATOM     34  H15 OOQ d   1       1.131  -4.631  -1.629  0.00  0.00     0.085 H 
ATOM     35  C20 OOQ d   1      -1.302  -2.720  -3.039  0.00  0.00     0.076 A 
ATOM     36  H16 OOQ d   1      -1.246  -4.746  -2.327  0.00  0.00     0.087 H 
ATOM     37  C21 OOQ d   1      -0.584  -1.538  -3.191  0.00  0.00    -0.049 A 
ATOM     38  C22 OOQ d   1       0.753  -1.465  -2.799  0.00  0.00    -0.070 A 
ATOM     39  H17 OOQ d   1      -1.067  -0.666  -3.618  0.00  0.00     0.087 H 
ATOM     40  H18 OOQ d   1       1.302  -0.537  -2.913  0.00  0.00     0.085 H 
BRANCH  35  41
ATOM     41  O23 OOQ d   1      -2.643  -2.788  -3.401  0.00  0.00    -0.311 OA
BRANCH  41  42
ATOM     42  C31 OOQ d   1      -3.143  -2.284  -4.571  0.00  0.00     0.076 A 
ATOM     43  C32 OOQ d   1      -4.401  -1.663  -4.566  0.00  0.00    -0.050 A 
ATOM     44  C33 OOQ d   1      -4.912  -1.170  -5.764  0.00  0.00    -0.080 A 
ATOM     45  H31 OOQ d   1      -4.966  -1.569  -3.645  0.00  0.00     0.087 H 
ATOM     46  C34 OOQ d   1      -4.181  -1.271  -6.942  0.00  0.00    -0.083 A 
ATOM     47  H32 OOQ d   1      -5.890  -0.703  -5.778  0.00  0.00     0.083 H 
ATOM     48  C35 OOQ d   1      -2.927  -1.888  -6.949  0.00  0.00    -0.080 A 
ATOM     49  H33 OOQ d   1      -4.587  -0.868  -7.863  0.00  0.00     0.083 H 
ATOM     50  C36 OOQ d   1      -2.422  -2.398  -5.759  0.00  0.00    -0.050 A 
ATOM     51  H34 OOQ d   1      -2.357  -1.968  -7.868  0.00  0.00     0.083 H 
ATOM     52  H35 OOQ d   1      -1.456  -2.890  -5.754  0.00  0.00     0.087 H 
ENDBRANCH  41  42
ENDBRANCH  35  41
ENDBRANCH  22  31
ENDBRANCH   1  17
BRANCH   4  53
ATOM     53  N24 OOQ d   1       7.315   2.117   2.669  0.00  0.00    -0.057 N 
ATOM     54  H19 OOQ d   1       7.105   3.069   2.412  0.00  0.00     0.278 HD
ATOM     55  H20 OOQ d   1       8.209   1.854   2.284  0.00  0.00     0.278 HD
BRANCH  53  56
ATOM     56  C26 OOQ d   1       7.380   2.021   4.138  0.00  0.00     0.185 C 
ATOM     57  H21 OOQ d   1       7.336   0.964   4.439  0.00  0.00     0.101 H 
BRANCH  56  58
ATOM     58  C25 OOQ d   1       6.238   2.775   4.768  0.00  0.00     0.204 C 
ATOM     59  O37 OOQ d   1       5.861   2.429   5.910  0.00  0.00    -0.646 OA
ATOM     60  O38 OOQ d   1       5.718   3.724   4.149  0.00  0.00    -0.646 OA
ENDBRANCH  56  58
BRANCH  56  61
ATOM     61  C27 OOQ d   1       8.689   2.648   4.623  0.00  0.00    -0.026 C 
ATOM     62  H22 OOQ d   1       8.586   2.905   5.688  0.00  0.00     0.037 H 
ATOM     63  H23 OOQ d   1       8.880   3.562   4.042  0.00  0.00     0.037 H 
BRANCH  61  64
ATOM     64  C28 OOQ d   1       9.871   1.708   4.459  0.00  0.00    -0.059 C 
ATOM     65  H24 OOQ d   1       9.829   1.285   3.444  0.00  0.00     0.038 H 
BRANCH  64  66
ATOM     66  C29 OOQ d   1       9.809   0.549   5.449  0.00  0.00    -0.073 C 
ATOM     67  H25 OOQ d   1      10.679  -0.108   5.300  0.00  0.00     0.028 H 
ATOM     68  H26 OOQ d   1       8.885  -0.024   5.285  0.00  0.00     0.028 H 
ATOM     69  H27 OOQ d   1       9.819   0.943   6.476  0.00  0.00     0.028 H 
ENDBRANCH  64  66
BRANCH  64  70
ATOM     70  C30 OOQ d   1      11.181   2.479   4.596  0.00  0.00    -0.073 C 
ATOM     71  H28 OOQ d   1      11.197   3.307   3.871  0.00  0.00     0.028 H 
ATOM     72  H29 OOQ d   1      12.027   1.803   4.399  0.00  0.00     0.028 H 
ATOM     73  H30 OOQ d   1      11.264   2.883   5.616  0.00  0.00     0.028 H 
ENDBRANCH  64  70
ENDBRANCH  61  64
ENDBRANCH  56  61
ENDBRANCH  53  56
ENDBRANCH   4  53
TORSDOF 12
