REMARK  12 active torsions:
REMARK  status: ('A' for Active; 'I' for Inactive)
REMARK    1  A    between atoms: C3_3  and  N10_10 
REMARK    2  A    between atoms: N7_7  and  C12_12 
REMARK    3  A    between atoms: C9_9  and  C11_11 
REMARK    4  A    between atoms: C15_15  and  N24_24 
REMARK    5  A    between atoms: C20_20  and  O23_23 
REMARK    6  A    between atoms: O23_23  and  C31_31 
REMARK    7  A    between atoms: N24_24  and  C26_26 
REMARK    8  A    between atoms: C26_26  and  C25_25 
REMARK       I    between atoms: C25_25  and  N38_38 
REMARK    9  A    between atoms: C26_26  and  C27_27 
REMARK   10  A    between atoms: C27_27  and  C28_28 
REMARK   11  A    between atoms: C28_28  and  C29_29 
REMARK   12  A    between atoms: C28_28  and  C30_30 
ROOT
ATOM      1  C12 OOS d   1       5.615  -1.177   0.482  0.00  0.00     0.018 C 
ATOM      2  C13 OOS d   1       5.366   0.271   0.159  0.00  0.00    -0.044 C 
ATOM      3  C14 OOS d   1       6.367   1.168   0.916  0.00  0.00    -0.036 C 
ATOM      4  C15 OOS d   1       6.344   0.962   2.434  0.00  0.00     0.103 C 
ATOM      5  C16 OOS d   1       6.440  -0.500   2.730  0.00  0.00    -0.036 C 
ATOM      6  C17 OOS d   1       5.384  -1.339   1.960  0.00  0.00    -0.044 C 
ATOM      7  H5  OOS d   1       6.664  -1.429   0.268  0.00  0.00     0.073 H 
ATOM      8  H6  OOS d   1       4.342   0.538   0.457  0.00  0.00     0.036 H 
ATOM      9  H7  OOS d   1       5.485   0.427  -0.923  0.00  0.00     0.036 H 
ATOM     10  H8  OOS d   1       6.123   2.219   0.703  0.00  0.00     0.036 H 
ATOM     11  H9  OOS d   1       7.380   0.946   0.550  0.00  0.00     0.036 H 
ATOM     12  H10 OOS d   1       5.405   1.354   2.853  0.00  0.00     0.084 H 
ATOM     13  H11 OOS d   1       6.290  -0.651   3.809  0.00  0.00     0.036 H 
ATOM     14  H12 OOS d   1       7.443  -0.851   2.446  0.00  0.00     0.036 H 
ATOM     15  H13 OOS d   1       5.483  -2.399   2.235  0.00  0.00     0.036 H 
ATOM     16  H14 OOS d   1       4.374  -0.987   2.217  0.00  0.00     0.036 H 
ENDROOT
BRANCH   1  17
ATOM     17  N7  OOS d   1       4.769  -1.999  -0.384  0.00  0.00    -0.335 N 
ATOM     18  C1  OOS d   1       5.259  -3.025  -0.957  0.00  0.00     0.146 A 
ATOM     19  C2  OOS d   1       4.170  -3.573  -1.745  0.00  0.00     0.068 A 
ATOM     20  N6  OOS d   1       6.494  -3.546  -0.874  0.00  0.00    -0.223 NA
ATOM     21  C3  OOS d   1       4.429  -4.711  -2.472  0.00  0.00     0.137 A 
ATOM     22  C9  OOS d   1       3.062  -2.582  -1.462  0.00  0.00     0.008 A 
ATOM     23  N4  OOS d   1       5.647  -5.269  -2.421  0.00  0.00    -0.224 NA
ATOM     24  C5  OOS d   1       6.602  -4.664  -1.633  0.00  0.00     0.091 A 
ATOM     25  H1  OOS d   1       7.572  -5.148  -1.618  0.00  0.00     0.146 H 
ATOM     26  C8  OOS d   1       3.590  -1.640  -0.577  0.00  0.00    -0.006 A 
ATOM     27  H2  OOS d   1       3.082  -0.778  -0.148  0.00  0.00     0.113 H 
BRANCH  21  28
ATOM     28  N10 OOS d   1       3.455  -5.286  -3.271  0.00  0.00    -0.383 N 
ATOM     29  H3  OOS d   1       3.667  -6.139  -3.809  0.00  0.00     0.157 HD
ATOM     30  H4  OOS d   1       2.518  -4.861  -3.328  0.00  0.00     0.157 HD
ENDBRANCH  21  28
BRANCH  22  31
ATOM     31  C11 OOS d   1       1.594  -2.589  -1.977  0.00  0.00    -0.023 A 
ATOM     32  C18 OOS d   1       1.009  -1.439  -2.508  0.00  0.00    -0.070 A 
ATOM     33  C19 OOS d   1      -0.323  -1.470  -2.943  0.00  0.00    -0.049 A 
ATOM     34  H15 OOS d   1       1.584  -0.523  -2.584  0.00  0.00     0.085 H 
ATOM     35  C20 OOS d   1      -1.060  -2.642  -2.847  0.00  0.00     0.076 A 
ATOM     36  H16 OOS d   1      -0.778  -0.577  -3.355  0.00  0.00     0.087 H 
ATOM     37  C21 OOS d   1      -0.479  -3.794  -2.287  0.00  0.00    -0.049 A 
ATOM     38  C22 OOS d   1       0.848  -3.766  -1.857  0.00  0.00    -0.070 A 
ATOM     39  H17 OOS d   1      -1.062  -4.703  -2.190  0.00  0.00     0.087 H 
ATOM     40  H18 OOS d   1       1.300  -4.654  -1.431  0.00  0.00     0.085 H 
BRANCH  35  41
ATOM     41  O23 OOS d   1      -2.434  -2.744  -3.218  0.00  0.00    -0.311 OA
BRANCH  41  42
ATOM     42  C31 OOS d   1      -2.936  -2.242  -4.457  0.00  0.00     0.076 A 
ATOM     43  C32 OOS d   1      -2.203  -2.349  -5.647  0.00  0.00    -0.050 A 
ATOM     44  C33 OOS d   1      -2.740  -1.881  -6.827  0.00  0.00    -0.080 A 
ATOM     45  H31 OOS d   1      -1.217  -2.799  -5.639  0.00  0.00     0.087 H 
ATOM     46  C34 OOS d   1      -3.986  -1.313  -6.847  0.00  0.00    -0.083 A 
ATOM     47  H32 OOS d   1      -2.172  -1.963  -7.746  0.00  0.00     0.083 H 
ATOM     48  C35 OOS d   1      -4.735  -1.217  -5.663  0.00  0.00    -0.080 A 
ATOM     49  H33 OOS d   1      -4.395  -0.937  -7.778  0.00  0.00     0.083 H 
ATOM     50  C36 OOS d   1      -4.194  -1.690  -4.465  0.00  0.00    -0.050 A 
ATOM     51  H34 OOS d   1      -5.726  -0.779  -5.678  0.00  0.00     0.083 H 
ATOM     52  H35 OOS d   1      -4.764  -1.622  -3.546  0.00  0.00     0.087 H 
ENDBRANCH  41  42
ENDBRANCH  35  41
ENDBRANCH  22  31
ENDBRANCH   1  17
BRANCH   4  53
ATOM     53  N24 OOS d   1       7.472   1.701   2.992  0.00  0.00    -0.058 N 
ATOM     54  H19 OOS d   1       7.457   2.635   2.614  0.00  0.00     0.278 HD
ATOM     55  H20 OOS d   1       8.323   1.239   2.712  0.00  0.00     0.278 HD
BRANCH  53  56
ATOM     56  C26 OOS d   1       7.459   1.795   4.442  0.00  0.00     0.178 C 
ATOM     57  H21 OOS d   1       7.062   0.856   4.855  0.00  0.00     0.099 H 
BRANCH  56  58
ATOM     58  C25 OOS d   1       6.629   2.932   4.895  0.00  0.00     0.246 C 
ATOM     59  O37 OOS d   1       6.154   3.721   4.080  0.00  0.00    -0.271 OA
ATOM     60  N38 OOS d   1       6.389   3.109   6.334  0.00  0.00    -0.368 N 
ATOM     61  H36 OOS d   1       5.830   3.873   6.657  0.00  0.00     0.159 HD
ATOM     62  H37 OOS d   1       6.785   2.466   6.990  0.00  0.00     0.159 HD
ENDBRANCH  56  58
BRANCH  56  63
ATOM     63  C27 OOS d   1       8.878   2.052   4.994  0.00  0.00    -0.027 C 
ATOM     64  H22 OOS d   1       8.883   1.843   6.074  0.00  0.00     0.037 H 
ATOM     65  H23 OOS d   1       9.141   3.107   4.824  0.00  0.00     0.037 H 
BRANCH  63  66
ATOM     66  C28 OOS d   1       9.934   1.156   4.306  0.00  0.00    -0.059 C 
ATOM     67  H24 OOS d   1       9.621   0.945   3.273  0.00  0.00     0.038 H 
BRANCH  66  68
ATOM     68  C29 OOS d   1      11.279   1.874   4.296  0.00  0.00    -0.073 C 
ATOM     69  H25 OOS d   1      12.031   1.237   3.807  0.00  0.00     0.028 H 
ATOM     70  H26 OOS d   1      11.591   2.082   5.330  0.00  0.00     0.028 H 
ATOM     71  H27 OOS d   1      11.185   2.821   3.744  0.00  0.00     0.028 H 
ENDBRANCH  66  68
BRANCH  66  72
ATOM     72  C30 OOS d   1      10.064  -0.137   5.069  0.00  0.00    -0.073 C 
ATOM     73  H28 OOS d   1       9.095  -0.657   5.077  0.00  0.00     0.028 H 
ATOM     74  H29 OOS d   1      10.374   0.077   6.102  0.00  0.00     0.028 H 
ATOM     75  H30 OOS d   1      10.818  -0.775   4.584  0.00  0.00     0.028 H 
ENDBRANCH  66  72
ENDBRANCH  63  66
ENDBRANCH  56  63
ENDBRANCH  53  56
ENDBRANCH   4  53
TORSDOF 12
