REMARK  13 active torsions:
REMARK  status: ('A' for Active; 'I' for Inactive)
REMARK    1  A    between atoms: C04_6  and  N04_12 
REMARK    2  A    between atoms: N03_7  and  C08_11 
REMARK    3  A    between atoms: C06_9  and  C07_10 
REMARK    4  A    between atoms: C11_15  and  N05_18 
REMARK    5  A    between atoms: N05_18  and  C14_19 
REMARK    6  A    between atoms: C14_19  and  C26_32 
REMARK    7  A    between atoms: C14_19  and  C27_35 
REMARK    8  A    between atoms: C17_22  and  O01_25 
REMARK    9  A    between atoms: O01_25  and  C20_26 
REMARK       I    between atoms: C26_32  and  N06_34 
REMARK   10  A    between atoms: N06_34  and  C31_39 
REMARK   11  A    between atoms: C27_35  and  C28_36 
REMARK   12  A    between atoms: C28_36  and  C29_37 
REMARK   13  A    between atoms: C28_36  and  C30_38 
ROOT
ATOM      1  C08 OOU d   1       5.392  -1.353   0.716  0.00  0.00     0.018 C 
ATOM      2  C09 OOU d   1       5.583   0.074   0.222  0.00  0.00    -0.044 C 
ATOM      3  C10 OOU d   1       6.347   0.929   1.268  0.00  0.00    -0.036 C 
ATOM      4  C11 OOU d   1       5.607   0.932   2.638  0.00  0.00     0.103 C 
ATOM      5  C12 OOU d   1       5.440  -0.512   3.101  0.00  0.00    -0.036 C 
ATOM      6  C13 OOU d   1       4.692  -1.347   2.061  0.00  0.00    -0.044 C 
ATOM      7  H3  OOU d   1       6.368  -1.853   0.809  0.00  0.00     0.073 H 
ATOM      8  H6  OOU d   1       4.597   0.526   0.039  0.00  0.00     0.036 H 
ATOM      9  H7  OOU d   1       6.157   0.056  -0.716  0.00  0.00     0.036 H 
ATOM     10  H8  OOU d   1       6.425   1.962   0.899  0.00  0.00     0.036 H 
ATOM     11  H9  OOU d   1       7.356   0.512   1.405  0.00  0.00     0.036 H 
ATOM     12  H10 OOU d   1       4.618   1.400   2.528  0.00  0.00     0.084 H 
ATOM     13  H11 OOU d   1       4.873  -0.523   4.044  0.00  0.00     0.036 H 
ATOM     14  H12 OOU d   1       6.434  -0.953   3.266  0.00  0.00     0.036 H 
ATOM     15  H13 OOU d   1       4.617  -2.382   2.426  0.00  0.00     0.036 H 
ATOM     16  H14 OOU d   1       3.682  -0.930   1.932  0.00  0.00     0.036 H 
ENDROOT
BRANCH   1  17
ATOM     17  N03 OOU d   1       4.554  -2.058  -0.267  0.00  0.00    -0.335 N 
ATOM     18  C02 OOU d   1       4.940  -3.171  -0.974  0.00  0.00     0.146 A 
ATOM     19  N02 OOU d   1       6.178  -3.761  -0.873  0.00  0.00    -0.223 NA
ATOM     20  C03 OOU d   1       3.838  -3.577  -1.805  0.00  0.00     0.068 A 
ATOM     21  C01 OOU d   1       6.298  -4.832  -1.689  0.00  0.00     0.091 A 
ATOM     22  N01 OOU d   1       5.338  -5.338  -2.552  0.00  0.00    -0.224 NA
ATOM     23  H1  OOU d   1       7.249  -5.352  -1.666  0.00  0.00     0.146 H 
ATOM     24  C04 OOU d   1       4.133  -4.707  -2.592  0.00  0.00     0.137 A 
ATOM     25  C06 OOU d   1       2.762  -2.634  -1.586  0.00  0.00     0.008 A 
ATOM     26  C05 OOU d   1       3.229  -1.766  -0.641  0.00  0.00    -0.006 A 
ATOM     27  H2  OOU d   1       2.646  -0.945  -0.226  0.00  0.00     0.113 H 
BRANCH  24  28
ATOM     28  N04 OOU d   1       3.136  -5.196  -3.488  0.00  0.00    -0.383 N 
ATOM     29  H4  OOU d   1       2.216  -4.735  -3.536  0.00  0.00     0.157 HD
ATOM     30  H5  OOU d   1       3.336  -6.010  -4.087  0.00  0.00     0.157 HD
ENDBRANCH  24  28
BRANCH  25  31
ATOM     31  C07 OOU d   1       1.419  -2.552  -2.077  0.00  0.00    -0.023 A 
ATOM     32  C15 OOU d   1       0.786  -1.427  -2.594  0.00  0.00    -0.070 A 
ATOM     33  C16 OOU d   1      -0.542  -1.460  -3.030  0.00  0.00    -0.049 A 
ATOM     34  H18 OOU d   1       1.339  -0.497  -2.661  0.00  0.00     0.085 H 
ATOM     35  C17 OOU d   1      -1.301  -2.629  -2.932  0.00  0.00     0.076 A 
ATOM     36  H19 OOU d   1      -0.989  -0.566  -3.450  0.00  0.00     0.087 H 
ATOM     37  C18 OOU d   1      -0.691  -3.762  -2.394  0.00  0.00    -0.049 A 
ATOM     38  C19 OOU d   1       0.631  -3.709  -1.973  0.00  0.00    -0.070 A 
ATOM     39  H20 OOU d   1      -1.250  -4.686  -2.304  0.00  0.00     0.087 H 
ATOM     40  H21 OOU d   1       1.074  -4.601  -1.545  0.00  0.00     0.085 H 
BRANCH  35  41
ATOM     41  O01 OOU d   1      -2.630  -2.676  -3.316  0.00  0.00    -0.311 OA
BRANCH  41  42
ATOM     42  C20 OOU d   1      -3.104  -2.197  -4.503  0.00  0.00     0.076 A 
ATOM     43  C21 OOU d   1      -2.332  -2.287  -5.676  0.00  0.00    -0.050 A 
ATOM     44  C22 OOU d   1      -2.834  -1.812  -6.871  0.00  0.00    -0.080 A 
ATOM     45  H22 OOU d   1      -1.343  -2.729  -5.641  0.00  0.00     0.087 H 
ATOM     46  C23 OOU d   1      -4.107  -1.254  -6.917  0.00  0.00    -0.083 A 
ATOM     47  H23 OOU d   1      -2.236  -1.874  -7.773  0.00  0.00     0.083 H 
ATOM     48  C24 OOU d   1      -4.878  -1.183  -5.766  0.00  0.00    -0.080 A 
ATOM     49  H24 OOU d   1      -4.497  -0.874  -7.854  0.00  0.00     0.083 H 
ATOM     50  C25 OOU d   1      -4.391  -1.641  -4.548  0.00  0.00    -0.050 A 
ATOM     51  H25 OOU d   1      -5.876  -0.764  -5.818  0.00  0.00     0.083 H 
ATOM     52  H26 OOU d   1      -4.994  -1.570  -3.650  0.00  0.00     0.087 H 
ENDBRANCH  41  42
ENDBRANCH  35  41
ENDBRANCH  25  31
ENDBRANCH   1  17
BRANCH   4  53
ATOM     53  N05 OOU d   1       6.412   1.701   3.617  0.00  0.00    -0.058 N 
ATOM     54  H15 OOU d   1       7.278   1.204   3.755  0.00  0.00     0.278 HD
ATOM     55  H16 OOU d   1       5.896   1.724   4.483  0.00  0.00     0.278 HD
BRANCH  53  56
ATOM     56  C14 OOU d   1       6.747   3.085   3.265  0.00  0.00     0.178 C 
ATOM     57  H17 OOU d   1       7.465   3.082   2.432  0.00  0.00     0.099 H 
BRANCH  56  58
ATOM     58  C26 OOU d   1       7.399   3.659   4.525  0.00  0.00     0.248 C 
ATOM     59  O02 OOU d   1       6.856   3.550   5.627  0.00  0.00    -0.271 OA
ATOM     60  N06 OOU d   1       8.623   4.290   4.402  0.00  0.00    -0.364 N 
ATOM     61  H27 OOU d   1       9.062   4.369   3.507  0.00  0.00     0.161 HD
BRANCH  60  62
ATOM     62  C31 OOU d   1       9.270   4.840   5.590  0.00  0.00    -0.018 C 
ATOM     63  H37 OOU d   1      10.227   5.301   5.306  0.00  0.00     0.056 H 
ATOM     64  H38 OOU d   1       9.453   4.033   6.315  0.00  0.00     0.056 H 
ATOM     65  H39 OOU d   1       8.617   5.600   6.044  0.00  0.00     0.056 H 
ENDBRANCH  60  62
ENDBRANCH  56  58
BRANCH  56  66
ATOM     66  C27 OOU d   1       5.524   3.981   2.856  0.00  0.00    -0.027 C 
ATOM     67  H28 OOU d   1       4.868   4.106   3.730  0.00  0.00     0.037 H 
ATOM     68  H29 OOU d   1       4.969   3.478   2.050  0.00  0.00     0.037 H 
BRANCH  66  69
ATOM     69  C28 OOU d   1       5.968   5.377   2.361  0.00  0.00    -0.059 C 
ATOM     70  H30 OOU d   1       6.628   5.820   3.121  0.00  0.00     0.038 H 
BRANCH  69  71
ATOM     71  C29 OOU d   1       6.744   5.279   1.034  0.00  0.00    -0.073 C 
ATOM     72  H31 OOU d   1       7.045   6.286   0.710  0.00  0.00     0.028 H 
ATOM     73  H32 OOU d   1       6.101   4.823   0.266  0.00  0.00     0.028 H 
ATOM     74  H33 OOU d   1       7.640   4.657   1.178  0.00  0.00     0.028 H 
ENDBRANCH  69  71
BRANCH  69  75
ATOM     75  C30 OOU d   1       4.751   6.295   2.170  0.00  0.00    -0.073 C 
ATOM     76  H34 OOU d   1       4.194   6.367   3.116  0.00  0.00     0.028 H 
ATOM     77  H35 OOU d   1       4.096   5.879   1.390  0.00  0.00     0.028 H 
ATOM     78  H36 OOU d   1       5.091   7.296   1.867  0.00  0.00     0.028 H 
ENDBRANCH  69  75
ENDBRANCH  66  69
ENDBRANCH  56  66
ENDBRANCH  53  56
ENDBRANCH   4  53
TORSDOF 13
