REMARK  14 active torsions:
REMARK  status: ('A' for Active; 'I' for Inactive)
REMARK    1  A    between atoms: C04_6  and  N06_37 
REMARK    2  A    between atoms: N03_7  and  C19_23 
REMARK    3  A    between atoms: C06_9  and  C07_10 
REMARK    4  A    between atoms: C10_13  and  O01_16 
REMARK    5  A    between atoms: O01_16  and  C13_17 
REMARK    6  A    between atoms: C22_26  and  N04_29 
REMARK    7  A    between atoms: N04_29  and  C25_30 
REMARK    8  A    between atoms: C25_30  and  C26_31 
REMARK    9  A    between atoms: C25_30  and  C27_32 
REMARK   10  A    between atoms: C26_31  and  C30_38 
REMARK       I    between atoms: C27_32  and  N05_34 
REMARK   11  A    between atoms: N05_34  and  C28_35 
REMARK   12  A    between atoms: N05_34  and  C29_36 
REMARK   13  A    between atoms: C30_38  and  C31_39 
REMARK   14  A    between atoms: C30_38  and  C32_40 
ROOT
ATOM      1  C19 OOV d   1      -5.492  -0.524  -0.395  0.00  0.00     0.018 C 
ATOM      2  C20 OOV d   1      -5.061   0.922  -0.099  0.00  0.00    -0.044 C 
ATOM      3  C21 OOV d   1      -6.001   1.923  -0.721  0.00  0.00    -0.036 C 
ATOM      4  C22 OOV d   1      -6.159   1.734  -2.233  0.00  0.00     0.103 C 
ATOM      5  C23 OOV d   1      -6.535   0.270  -2.537  0.00  0.00    -0.036 C 
ATOM      6  C24 OOV d   1      -5.546  -0.731  -1.901  0.00  0.00    -0.044 C 
ATOM      7  H12 OOV d   1      -6.513  -0.672  -0.014  0.00  0.00     0.073 H 
ATOM      8  H13 OOV d   1      -4.051   1.083  -0.503  0.00  0.00     0.036 H 
ATOM      9  H14 OOV d   1      -5.048   1.074   0.990  0.00  0.00     0.036 H 
ATOM     10  H15 OOV d   1      -5.611   2.934  -0.533  0.00  0.00     0.036 H 
ATOM     11  H16 OOV d   1      -6.989   1.817  -0.249  0.00  0.00     0.036 H 
ATOM     12  H17 OOV d   1      -5.197   1.952  -2.721  0.00  0.00     0.084 H 
ATOM     13  H18 OOV d   1      -6.535   0.123  -3.627  0.00  0.00     0.036 H 
ATOM     14  H19 OOV d   1      -7.542   0.073  -2.140  0.00  0.00     0.036 H 
ATOM     15  H20 OOV d   1      -5.878  -1.757  -2.116  0.00  0.00     0.036 H 
ATOM     16  H21 OOV d   1      -4.544  -0.573  -2.326  0.00  0.00     0.036 H 
ENDROOT
BRANCH   1  17
ATOM     17  N03 OOV d   1      -4.618  -1.418   0.354  0.00  0.00    -0.335 N 
ATOM     18  C02 OOV d   1      -5.038  -2.581   0.916  0.00  0.00     0.146 A 
ATOM     19  N02 OOV d   1      -6.306  -3.086   0.789  0.00  0.00    -0.223 NA
ATOM     20  C03 OOV d   1      -3.950  -3.163   1.623  0.00  0.00     0.068 A 
ATOM     21  C01 OOV d   1      -6.476  -4.259   1.428  0.00  0.00     0.091 A 
ATOM     22  N01 OOV d   1      -5.536  -4.930   2.147  0.00  0.00    -0.224 NA
ATOM     23  H1  OOV d   1      -7.458  -4.713   1.363  0.00  0.00     0.146 H 
ATOM     24  C04 OOV d   1      -4.287  -4.386   2.230  0.00  0.00     0.137 A 
ATOM     25  C06 OOV d   1      -2.816  -2.271   1.490  0.00  0.00     0.008 A 
ATOM     26  C05 OOV d   1      -3.283  -1.212   0.705  0.00  0.00    -0.006 A 
ATOM     27  H2  OOV d   1      -2.689  -0.349   0.409  0.00  0.00     0.113 H 
BRANCH  24  28
ATOM     28  N06 OOV d   1      -3.318  -5.044   2.987  0.00  0.00    -0.383 N 
ATOM     29  H33 OOV d   1      -2.369  -4.651   3.063  0.00  0.00     0.157 HD
ATOM     30  H34 OOV d   1      -3.551  -5.923   3.470  0.00  0.00     0.157 HD
ENDBRANCH  24  28
BRANCH  25  31
ATOM     31  C07 OOV d   1      -1.457  -2.327   1.948  0.00  0.00    -0.023 A 
ATOM     32  C08 OOV d   1      -0.784  -1.253   2.523  0.00  0.00    -0.070 A 
ATOM     33  C09 OOV d   1       0.553  -1.346   2.929  0.00  0.00    -0.049 A 
ATOM     34  H3  OOV d   1      -1.311  -0.316   2.661  0.00  0.00     0.085 H 
ATOM     35  C10 OOV d   1       1.283  -2.521   2.768  0.00  0.00     0.076 A 
ATOM     36  H4  OOV d   1       1.031  -0.483   3.379  0.00  0.00     0.087 H 
ATOM     37  C11 OOV d   1       0.641  -3.614   2.174  0.00  0.00    -0.049 A 
ATOM     38  C12 OOV d   1      -0.702  -3.502   1.774  0.00  0.00    -0.070 A 
ATOM     39  H5  OOV d   1       1.178  -4.544   2.023  0.00  0.00     0.087 H 
ATOM     40  H6  OOV d   1      -1.177  -4.359   1.311  0.00  0.00     0.085 H 
BRANCH  35  41
ATOM     41  O01 OOV d   1       2.621  -2.604   3.149  0.00  0.00    -0.311 OA
BRANCH  41  42
ATOM     42  C13 OOV d   1       3.114  -2.084   4.320  0.00  0.00     0.076 A 
ATOM     43  C14 OOV d   1       4.371  -1.436   4.330  0.00  0.00    -0.050 A 
ATOM     44  C15 OOV d   1       4.863  -0.947   5.546  0.00  0.00    -0.080 A 
ATOM     45  H7  OOV d   1       4.941  -1.320   3.416  0.00  0.00     0.087 H 
ATOM     46  C16 OOV d   1       4.138  -1.071   6.723  0.00  0.00    -0.083 A 
ATOM     47  H8  OOV d   1       5.832  -0.461   5.569  0.00  0.00     0.083 H 
ATOM     48  C17 OOV d   1       2.903  -1.721   6.702  0.00  0.00    -0.080 A 
ATOM     49  H9  OOV d   1       4.527  -0.667   7.650  0.00  0.00     0.083 H 
ATOM     50  C18 OOV d   1       2.400  -2.215   5.512  0.00  0.00    -0.050 A 
ATOM     51  H10 OOV d   1       2.337  -1.839   7.619  0.00  0.00     0.083 H 
ATOM     52  H11 OOV d   1       1.436  -2.712   5.505  0.00  0.00     0.087 H 
ENDBRANCH  41  42
ENDBRANCH  35  41
ENDBRANCH  25  31
ENDBRANCH   1  17
BRANCH   4  53
ATOM     53  N04 OOV d   1      -7.160   2.682  -2.740  0.00  0.00    -0.058 N 
ATOM     54  H22 OOV d   1      -6.990   3.574  -2.303  0.00  0.00     0.278 HD
ATOM     55  H23 OOV d   1      -8.070   2.344  -2.470  0.00  0.00     0.278 HD
BRANCH  53  56
ATOM     56  C25 OOV d   1      -7.169   2.888  -4.195  0.00  0.00     0.178 C 
ATOM     57  H24 OOV d   1      -6.883   1.963  -4.718  0.00  0.00     0.099 H 
BRANCH  56  58
ATOM     58  C26 OOV d   1      -8.571   3.335  -4.695  0.00  0.00    -0.027 C 
ATOM     59  H25 OOV d   1      -8.475   3.727  -5.718  0.00  0.00     0.037 H 
ATOM     60  H26 OOV d   1      -8.949   4.128  -4.033  0.00  0.00     0.037 H 
BRANCH  58  61
ATOM     61  C30 OOV d   1      -9.569   2.179  -4.700  0.00  0.00    -0.059 C 
ATOM     62  H35 OOV d   1      -9.371   1.557  -3.814  0.00  0.00     0.038 H 
BRANCH  61  63
ATOM     63  C31 OOV d   1     -11.015   2.679  -4.617  0.00  0.00    -0.073 C 
ATOM     64  H36 OOV d   1     -11.701   1.819  -4.623  0.00  0.00     0.028 H 
ATOM     65  H37 OOV d   1     -11.230   3.325  -5.481  0.00  0.00     0.028 H 
ATOM     66  H38 OOV d   1     -11.152   3.251  -3.688  0.00  0.00     0.028 H 
ENDBRANCH  61  63
BRANCH  61  67
ATOM     67  C32 OOV d   1      -9.386   1.310  -5.947  0.00  0.00    -0.073 C 
ATOM     68  H39 OOV d   1      -8.346   0.956  -5.998  0.00  0.00     0.028 H 
ATOM     69  H40 OOV d   1      -9.616   1.903  -6.844  0.00  0.00     0.028 H 
ATOM     70  H41 OOV d   1     -10.065   0.446  -5.895  0.00  0.00     0.028 H 
ENDBRANCH  61  67
ENDBRANCH  58  61
ENDBRANCH  56  58
BRANCH  56  71
ATOM     71  C27 OOV d   1      -6.111   3.974  -4.412  0.00  0.00     0.249 C 
ATOM     72  O02 OOV d   1      -5.699   4.675  -3.496  0.00  0.00    -0.271 OA
ATOM     73  N05 OOV d   1      -5.585   4.133  -5.712  0.00  0.00    -0.359 N 
BRANCH  73  74
ATOM     74  C28 OOV d   1      -5.994   3.336  -6.870  0.00  0.00    -0.017 C 
ATOM     75  H27 OOV d   1      -5.431   3.663  -7.757  0.00  0.00     0.056 H 
ATOM     76  H28 OOV d   1      -7.071   3.473  -7.048  0.00  0.00     0.056 H 
ATOM     77  H29 OOV d   1      -5.787   2.273  -6.675  0.00  0.00     0.056 H 
ENDBRANCH  73  74
BRANCH  73  78
ATOM     78  C29 OOV d   1      -4.568   5.157  -5.966  0.00  0.00    -0.017 C 
ATOM     79  H30 OOV d   1      -4.341   5.689  -5.030  0.00  0.00     0.056 H 
ATOM     80  H31 OOV d   1      -4.946   5.872  -6.712  0.00  0.00     0.056 H 
ATOM     81  H32 OOV d   1      -3.654   4.679  -6.347  0.00  0.00     0.056 H 
ENDBRANCH  73  78
ENDBRANCH  56  71
ENDBRANCH  53  56
ENDBRANCH   4  53
TORSDOF 14
