REMARK  8 active torsions:
REMARK  status: ('A' for Active; 'I' for Inactive)
REMARK    1  A    between atoms: C17_7  and  O23_29 
REMARK    2  A    between atoms: C20_10  and  O28_30 
REMARK    3  A    between atoms: O23_29  and  C29_15 
REMARK    4  A    between atoms: C29_15  and  C31_31 
REMARK    5  A    between atoms: C29_15  and  C32_32 
REMARK    6  A    between atoms: O28_30  and  C30_16 
REMARK    7  A    between atoms: C4_18  and  N16_26 
REMARK    8  A    between atoms: C5_19  and  C8_22 
ROOT
ATOM      1  C1  LQA d   1      30.689  13.110  10.288  0.00  0.00     0.101 A 
ATOM      2  C2  LQA d   1      28.204  11.943   9.810  0.00  0.00     0.047 A 
ATOM      3  C11 LQA d   1      25.676  12.195   9.364  0.00  0.00    -0.035 A 
ATOM      4  C12 LQA d   1      29.224   9.877   8.987  0.00  0.00     0.005 C 
ATOM      5  C13 LQA d   1      24.468  11.595   9.014  0.00  0.00     0.105 A 
ATOM      6  C14 LQA d   1      24.370  10.245   8.786  0.00  0.00     0.105 A 
ATOM      7  C18 LQA d   1      25.479   9.400   8.914  0.00  0.00    -0.041 A 
ATOM      8  C24 LQA d   1      27.948   9.114   9.415  0.00  0.00    -0.025 C 
ATOM      9  C25 LQA d   1      22.445  11.161   8.326  0.00  0.00     0.115 C 
ATOM     10  N3  LQA d   1      29.314  11.259   9.494  0.00  0.00    -0.330 N 
ATOM     11  C4  LQA d   1      30.530  11.791   9.633  0.00  0.00     0.144 A 
ATOM     12  C5  LQA d   1      29.586  13.809  10.620  0.00  0.00     0.001 A 
ATOM     13  C6  LQA d   1      28.285  13.180  10.344  0.00  0.00    -0.044 A 
ATOM     14  C7  LQA d   1      26.819  11.378   9.516  0.00  0.00    -0.000 A 
ATOM     15  C9  LQA d   1      26.712   9.996   9.232  0.00  0.00    -0.041 A 
ATOM     16  C10 LQA d   1      32.021  13.625  10.495  0.00  0.00     0.104 C 
ATOM     17  N15 LQA d   1      33.090  14.038  10.635  0.00  0.00    -0.191 NA
ATOM     18  O21 LQA d   1      23.260  12.249   8.884  0.00  0.00    -0.323 OA
ATOM     19  O22 LQA d   1      23.077   9.853   8.496  0.00  0.00    -0.323 OA
ATOM     20  H1  LQA d   1      25.738  13.266   9.517  0.00  0.00     0.089 H 
ATOM     21  H2  LQA d   1      29.250   9.913   7.888  0.00  0.00     0.065 H 
ATOM     22  H3  LQA d   1      30.097   9.319   9.356  0.00  0.00     0.065 H 
ATOM     23  H4  LQA d   1      25.390   8.329   8.774  0.00  0.00     0.088 H 
ATOM     24  H6  LQA d   1      28.035   8.827  10.473  0.00  0.00     0.042 H 
ATOM     25  H7  LQA d   1      27.842   8.210   8.798  0.00  0.00     0.042 H 
ATOM     26  H8  LQA d   1      22.296  11.345   7.252  0.00  0.00     0.118 H 
ATOM     27  H9  LQA d   1      21.470  11.152   8.835  0.00  0.00     0.118 H 
ATOM     28  H16 LQA d   1      27.370  13.723  10.575  0.00  0.00     0.088 H 
ENDROOT
BRANCH  11  29
ATOM     29  N16 LQA d   1      31.618  11.230   9.266  0.00  0.00    -0.282 NA
ATOM     30  H17 LQA d   1      32.499  11.699   9.406  0.00  0.00     0.188 HD
ENDBRANCH  11  29
BRANCH  12  31
ATOM     31  C8  LQA d   1      29.633  15.115  11.392  0.00  0.00    -0.021 A 
ATOM     32  C19 LQA d   1      30.353  15.089  12.599  0.00  0.00    -0.037 A 
ATOM     33  C20 LQA d   1      30.514  16.227  13.402  0.00  0.00     0.102 A 
ATOM     34  H5  LQA d   1      30.800  14.155  12.921  0.00  0.00     0.089 H 
ATOM     35  C17 LQA d   1      29.813  17.392  13.054  0.00  0.00     0.102 A 
ATOM     36  C27 LQA d   1      29.030  17.425  11.862  0.00  0.00    -0.047 A 
ATOM     37  C26 LQA d   1      28.936  16.284  11.022  0.00  0.00    -0.069 A 
ATOM     38  H11 LQA d   1      28.500  18.332  11.594  0.00  0.00     0.087 H 
ATOM     39  H10 LQA d   1      28.341  16.311  10.116  0.00  0.00     0.085 H 
BRANCH  33  40
ATOM     40  O28 LQA d   1      31.306  16.226  14.572  0.00  0.00    -0.353 OA
BRANCH  40  41
ATOM     41  C30 LQA d   1      32.283  15.216  14.903  0.00  0.00     0.010 C 
ATOM     42  H13 LQA d   1      32.752  15.462  15.867  0.00  0.00     0.066 H 
ATOM     43  H14 LQA d   1      33.054  15.180  14.119  0.00  0.00     0.066 H 
ATOM     44  H15 LQA d   1      31.788  14.236  14.975  0.00  0.00     0.066 H 
ENDBRANCH  40  41
ENDBRANCH  33  40
BRANCH  35  45
ATOM     45  O23 LQA d   1      30.013  18.467  13.937  0.00  0.00    -0.344 OA
BRANCH  45  46
ATOM     46  C29 LQA d   1      29.154  19.598  14.176  0.00  0.00     0.038 C 
ATOM     47  H12 LQA d   1      28.696  19.962  13.245  0.00  0.00     0.082 H 
BRANCH  46  48
ATOM     48  C31 LQA d   1      28.067  19.218  15.211  0.00  0.00    -0.052 C 
ATOM     49  H18 LQA d   1      27.413  20.084  15.391  0.00  0.00     0.030 H 
ATOM     50  H19 LQA d   1      28.547  18.919  16.154  0.00  0.00     0.030 H 
ATOM     51  H20 LQA d   1      27.468  18.381  14.823  0.00  0.00     0.030 H 
ENDBRANCH  46  48
BRANCH  46  52
ATOM     52  C32 LQA d   1      30.085  20.661  14.816  0.00  0.00    -0.052 C 
ATOM     53  H21 LQA d   1      29.507  21.571  15.035  0.00  0.00     0.030 H 
ATOM     54  H22 LQA d   1      30.899  20.904  14.117  0.00  0.00     0.030 H 
ATOM     55  H23 LQA d   1      30.509  20.263  15.749  0.00  0.00     0.030 H 
ENDBRANCH  46  52
ENDBRANCH  45  46
ENDBRANCH  35  45
ENDBRANCH  12  31
TORSDOF 8
