REMARK  5 active torsions:
REMARK  status: ('A' for Active; 'I' for Inactive)
REMARK    1  A    between atoms: C2_1  and  N1_17 
REMARK    2  A    between atoms: C3_2  and  N4_18 
REMARK    3  A    between atoms: C11_3  and  C22_12 
REMARK    4  A    between atoms: C6_20  and  C21_11 
REMARK    5  A    between atoms: N8_22  and  C10_24 
ROOT
ATOM      1  C2  LQB d   1      35.128  78.813  -7.731  0.00  0.00     0.093 A 
ATOM      2  C3  LQB d   1      35.371  78.118  -8.942  0.00  0.00     0.131 A 
ATOM      3  C13 LQB d   1      34.978  76.776  -9.054  0.00  0.00    -0.046 A 
ATOM      4  C18 LQB d   1      34.393  76.111  -7.976  0.00  0.00    -0.055 A 
ATOM      5  C7  LQB d   1      34.553  78.119  -6.644  0.00  0.00    -0.027 A 
ATOM      6  C10 LQB d   1      34.199  76.751  -6.737  0.00  0.00     0.032 A 
ATOM      7  H3  LQB d   1      35.131  76.249  -9.989  0.00  0.00     0.087 H 
ATOM      8  H6  LQB d   1      34.081  75.080  -8.095  0.00  0.00     0.087 H 
ATOM      9  H19 LQB d   1      34.378  78.647  -5.714  0.00  0.00     0.090 H 
ENDROOT
BRANCH   6  10
ATOM     10  N8  LQB d   1      33.570  76.084  -5.712  0.00  0.00    -0.376 N 
ATOM     11  C12 LQB d   1      32.847  74.833  -5.954  0.00  0.00     0.019 C 
ATOM     12  C14 LQB d   1      31.349  75.088  -5.696  0.00  0.00    -0.034 A 
ATOM     13  H1  LQB d   1      32.997  74.511  -6.995  0.00  0.00     0.071 H 
ATOM     14  H2  LQB d   1      33.215  74.052  -5.272  0.00  0.00     0.071 H 
ATOM     15  C19 LQB d   1      30.937  76.094  -4.776  0.00  0.00    -0.049 A 
ATOM     16  C23 LQB d   1      30.387  74.377  -6.436  0.00  0.00    -0.075 A 
ATOM     17  C20 LQB d   1      31.943  76.981  -4.013  0.00  0.00    -0.025 C 
ATOM     18  C24 LQB d   1      29.567  76.329  -4.594  0.00  0.00    -0.076 A 
ATOM     19  C17 LQB d   1      33.421  76.659  -4.366  0.00  0.00    -0.001 C 
ATOM     20  H7  LQB d   1      31.744  78.033  -4.263  0.00  0.00     0.042 H 
ATOM     21  H8  LQB d   1      31.798  76.827  -2.933  0.00  0.00     0.042 H 
ATOM     22  H4  LQB d   1      33.810  75.939  -3.631  0.00  0.00     0.064 H 
ATOM     23  H5  LQB d   1      34.006  77.589  -4.314  0.00  0.00     0.064 H 
ATOM     24  C26 LQB d   1      28.611  75.581  -5.313  0.00  0.00    -0.082 A 
ATOM     25  H16 LQB d   1      29.240  77.091  -3.896  0.00  0.00     0.084 H 
ATOM     26  C25 LQB d   1      29.020  74.603  -6.223  0.00  0.00    -0.082 A 
ATOM     27  H18 LQB d   1      27.554  75.766  -5.159  0.00  0.00     0.083 H 
ATOM     28  H17 LQB d   1      28.282  74.020  -6.763  0.00  0.00     0.083 H 
ATOM     29  H15 LQB d   1      30.704  73.650  -7.175  0.00  0.00     0.084 H 
ENDBRANCH   6  10
BRANCH   1  30
ATOM     30  N1  LQB d   1      35.524  80.118  -7.609  0.00  0.00    -0.236 N 
ATOM     31  N5  LQB d   1      36.818  80.502  -7.708  0.00  0.00    -0.172 NA
ATOM     32  C11 LQB d   1      36.932  81.759  -7.606  0.00  0.00     0.053 A 
ATOM     33  C9  LQB d   1      35.574  82.289  -7.452  0.00  0.00    -0.034 A 
ATOM     34  C6  LQB d   1      34.787  81.208  -7.469  0.00  0.00     0.035 A 
ATOM     35  H20 LQB d   1      35.273  83.330  -7.347  0.00  0.00     0.089 H 
BRANCH  32  36
ATOM     36  C22 LQB d   1      38.222  82.524  -7.667  0.00  0.00    -0.034 C 
ATOM     37  H12 LQB d   1      38.017  83.598  -7.549  0.00  0.00     0.035 H 
ATOM     38  H13 LQB d   1      38.707  82.348  -8.638  0.00  0.00     0.035 H 
ATOM     39  H14 LQB d   1      38.887  82.187  -6.858  0.00  0.00     0.035 H 
ENDBRANCH  32  36
BRANCH  34  40
ATOM     40  C21 LQB d   1      33.288  81.302  -7.309  0.00  0.00    -0.035 C 
ATOM     41  H9  LQB d   1      32.995  82.358  -7.217  0.00  0.00     0.035 H 
ATOM     42  H10 LQB d   1      32.981  80.756  -6.405  0.00  0.00     0.035 H 
ATOM     43  H11 LQB d   1      32.797  80.861  -8.189  0.00  0.00     0.035 H 
ENDBRANCH  34  40
ENDBRANCH   1  30
BRANCH   2  44
ATOM     44  N4  LQB d   1      35.919  78.713 -10.033  0.00  0.00    -0.113 N 
ATOM     45  O15 LQB d   1      35.139  79.574 -10.817  0.00  0.00    -0.532 OA
ATOM     46  O16 LQB d   1      37.074  78.516 -10.353  0.00  0.00    -0.532 OA
ENDBRANCH   2  44
TORSDOF 5
