REMARK  9 active torsions:
REMARK  status: ('A' for Active; 'I' for Inactive)
REMARK    1  A    between atoms: C2_2  and  C1_1 
REMARK    2  A    between atoms: N6_21  and  C12_5 
REMARK    3  A    between atoms: C12_5  and  C10_25 
REMARK    4  A    between atoms: C14_6  and  O17_27 
REMARK    5  A    between atoms: N4_19  and  C15_7 
REMARK    6  A    between atoms: N13_26  and  C20_11 
REMARK    7  A    between atoms: N13_26  and  C21_12 
REMARK    8  A    between atoms: O17_27  and  C23_14 
REMARK    9  A    between atoms: C7_22  and  N13_26 
ROOT
ATOM      1  C2  LQD d   1      32.316  15.719  34.081  0.00  0.00     0.026 C 
ATOM      2  C11 LQD d   1      30.298  17.121  34.226  0.00  0.00     0.111 C 
ATOM      3  N6  LQD d   1      30.504  16.765  32.811  0.00  0.00    -0.064 N 
ATOM      4  C7  LQD d   1      31.094  16.022  34.997  0.00  0.00     0.135 C 
ATOM      5  C9  LQD d   1      31.923  16.369  32.726  0.00  0.00     0.093 C 
ATOM      6  H1  LQD d   1      33.206  16.222  34.488  0.00  0.00     0.053 H 
ATOM      7  H3  LQD d   1      29.230  17.090  34.488  0.00  0.00     0.079 H 
ATOM      8  H4  LQD d   1      30.700  18.122  34.442  0.00  0.00     0.079 H 
ATOM      9  H27 LQD d   1      29.964  15.927  32.663  0.00  0.00     0.280 HD
ATOM     10  H28 LQD d   1      30.463  15.122  35.044  0.00  0.00     0.088 H 
ATOM     11  H29 LQD d   1      32.061  15.645  31.910  0.00  0.00     0.077 H 
ATOM     12  H30 LQD d   1      32.548  17.255  32.541  0.00  0.00     0.077 H 
ENDROOT
BRANCH   1  13
ATOM     13  C1  LQD d   1      32.653  14.235  33.937  0.00  0.00    -0.022 A 
ATOM     14  C3  LQD d   1      33.853  13.647  34.114  0.00  0.00    -0.013 A 
ATOM     15  N4  LQD d   1      33.774  12.355  33.888  0.00  0.00    -0.360 N 
ATOM     16  H2  LQD d   1      34.763  14.171  34.404  0.00  0.00     0.112 H 
ATOM     17  C8  LQD d   1      32.521  11.995  33.529  0.00  0.00     0.044 A 
ATOM     18  C18 LQD d   1      32.017  10.723  33.173  0.00  0.00    -0.056 A 
ATOM     19  C5  LQD d   1      31.708  13.129  33.512  0.00  0.00    -0.001 A 
ATOM     20  C25 LQD d   1      30.659  10.635  32.809  0.00  0.00    -0.081 A 
ATOM     21  H11 LQD d   1      32.654   9.846  33.180  0.00  0.00     0.087 H 
ATOM     22  C24 LQD d   1      29.842  11.789  32.799  0.00  0.00    -0.082 A 
ATOM     23  H24 LQD d   1      30.237   9.675  32.534  0.00  0.00     0.083 H 
ATOM     24  C16 LQD d   1      30.356  13.063  33.137  0.00  0.00    -0.070 A 
ATOM     25  H23 LQD d   1      28.797  11.695  32.526  0.00  0.00     0.083 H 
ATOM     26  H10 LQD d   1      29.733  13.950  33.108  0.00  0.00     0.084 H 
BRANCH  15  27
ATOM     27  C15 LQD d   1      34.904  11.419  33.993  0.00  0.00    -0.014 C 
ATOM     28  H7  LQD d   1      35.806  11.967  34.302  0.00  0.00     0.057 H 
ATOM     29  H8  LQD d   1      35.079  10.945  33.016  0.00  0.00     0.057 H 
ATOM     30  H9  LQD d   1      34.671  10.646  34.740  0.00  0.00     0.057 H 
ENDBRANCH  15  27
ENDBRANCH   1  13
BRANCH   4  31
ATOM     31  N13 LQD d   1      31.478  16.333  36.417  0.00  0.00    -0.072 N 
ATOM     32  H31 LQD d   1      32.345  16.839  36.323  0.00  0.00     0.279 HD
BRANCH  31  33
ATOM     33  C20 LQD d   1      30.575  17.251  37.152  0.00  0.00     0.066 C 
ATOM     34  H13 LQD d   1      30.957  17.402  38.172  0.00  0.00     0.068 H 
ATOM     35  H14 LQD d   1      29.567  16.814  37.199  0.00  0.00     0.068 H 
ATOM     36  H15 LQD d   1      30.532  18.218  36.630  0.00  0.00     0.068 H 
ENDBRANCH  31  33
BRANCH  31  37
ATOM     37  C21 LQD d   1      31.805  15.171  37.285  0.00  0.00     0.066 C 
ATOM     38  H16 LQD d   1      32.475  14.486  36.744  0.00  0.00     0.068 H 
ATOM     39  H17 LQD d   1      30.879  14.642  37.553  0.00  0.00     0.068 H 
ATOM     40  H18 LQD d   1      32.303  15.525  38.200  0.00  0.00     0.068 H 
ENDBRANCH  31  37
ENDBRANCH   4  31
BRANCH   3  41
ATOM     41  C12 LQD d   1      30.033  17.678  31.735  0.00  0.00     0.110 C 
ATOM     42  H5  LQD d   1      30.547  17.426  30.796  0.00  0.00     0.083 H 
ATOM     43  H6  LQD d   1      30.266  18.716  32.014  0.00  0.00     0.083 H 
BRANCH  41  44
ATOM     44  C10 LQD d   1      28.512  17.536  31.534  0.00  0.00     0.001 A 
ATOM     45  C14 LQD d   1      27.955  16.553  30.679  0.00  0.00     0.076 A 
ATOM     46  C22 LQD d   1      26.543  16.497  30.544  0.00  0.00    -0.050 A 
ATOM     47  C27 LQD d   1      25.703  17.377  31.256  0.00  0.00    -0.080 A 
ATOM     48  H19 LQD d   1      26.102  15.763  29.880  0.00  0.00     0.087 H 
ATOM     49  C26 LQD d   1      26.270  18.333  32.123  0.00  0.00    -0.082 A 
ATOM     50  H26 LQD d   1      24.627  17.319  31.137  0.00  0.00     0.083 H 
ATOM     51  C19 LQD d   1      27.667  18.415  32.244  0.00  0.00    -0.072 A 
ATOM     52  H25 LQD d   1      25.633  19.000  32.692  0.00  0.00     0.083 H 
ATOM     53  H12 LQD d   1      28.103  19.166  32.893  0.00  0.00     0.084 H 
BRANCH  45  54
ATOM     54  O17 LQD d   1      28.817  15.704  29.950  0.00  0.00    -0.355 OA
BRANCH  54  55
ATOM     55  C23 LQD d   1      28.392  14.513  29.239  0.00  0.00     0.010 C 
ATOM     56  H20 LQD d   1      29.263  14.042  28.760  0.00  0.00     0.066 H 
ATOM     57  H21 LQD d   1      27.655  14.788  28.471  0.00  0.00     0.066 H 
ATOM     58  H22 LQD d   1      27.936  13.806  29.948  0.00  0.00     0.066 H 
ENDBRANCH  54  55
ENDBRANCH  45  54
ENDBRANCH  41  44
ENDBRANCH   3  41
TORSDOF 9
