REMARK  7 active torsions:
REMARK  status: ('A' for Active; 'I' for Inactive)
REMARK    1  A    between atoms: O9_23  and  C13_6 
REMARK    2  A    between atoms: C15_7  and  C18_10 
REMARK    3  A    between atoms: N14_25  and  C17_9 
REMARK    4  A    between atoms: C18_10  and  C19_11 
REMARK    5  A    between atoms: C22_14  and  O25_26 
REMARK    6  A    between atoms: O25_26  and  C26_17 
REMARK    7  A    between atoms: C4_18  and  O9_23 
ROOT
ATOM      1  C1  LQE d   1       3.099  13.411  10.624  0.00  0.00    -0.018 A 
ATOM      2  C2  LQE d   1       1.802  13.250  11.174  0.00  0.00    -0.047 A 
ATOM      3  C3  LQE d   1       4.312  13.630  11.554  0.00  0.00    -0.033 C 
ATOM      4  C11 LQE d   1       0.884  12.923   8.937  0.00  0.00    -0.080 A 
ATOM      5  C12 LQE d   1       5.209  13.958  13.948  0.00  0.00    -0.054 C 
ATOM      6  C15 LQE d   1       4.867  14.686  15.284  0.00  0.00    -0.027 C 
ATOM      7  C16 LQE d   1       3.593  14.066  15.889  0.00  0.00     0.087 C 
ATOM      8  C4  LQE d   1       3.292  13.312   9.219  0.00  0.00     0.075 A 
ATOM      9  C5  LQE d   1       1.494  13.376  12.676  0.00  0.00    -0.013 C 
ATOM     10  C6  LQE d   1       0.702  13.023  10.325  0.00  0.00    -0.076 A 
ATOM     11  C7  LQE d   1       3.988  14.146  12.988  0.00  0.00    -0.022 C 
ATOM     12  C8  LQE d   1       2.173  13.045   8.392  0.00  0.00    -0.050 A 
ATOM     13  C10 LQE d   1       2.715  13.500  13.646  0.00  0.00     0.111 C 
ATOM     14  N14 LQE d   1       2.465  14.243  14.937  0.00  0.00    -0.070 N 
ATOM     15  H1  LQE d   1       4.976  14.364  11.074  0.00  0.00     0.041 H 
ATOM     16  H2  LQE d   1       4.838  12.669  11.653  0.00  0.00     0.041 H 
ATOM     17  H3  LQE d   1       0.033  12.752   8.288  0.00  0.00     0.083 H 
ATOM     18  H4  LQE d   1       5.378  12.887  14.136  0.00  0.00     0.034 H 
ATOM     19  H5  LQE d   1       6.111  14.399  13.500  0.00  0.00     0.034 H 
ATOM     20  H9  LQE d   1       4.578  15.709  15.000  0.00  0.00     0.043 H 
ATOM     21  H10 LQE d   1       3.355  14.567  16.839  0.00  0.00     0.076 H 
ATOM     22  H11 LQE d   1       3.756  12.993  16.071  0.00  0.00     0.076 H 
ATOM     23  H24 LQE d   1       0.924  12.483  12.973  0.00  0.00     0.043 H 
ATOM     24  H25 LQE d   1       0.870  14.272  12.812  0.00  0.00     0.043 H 
ATOM     25  H26 LQE d   1      -0.292  12.925  10.746  0.00  0.00     0.084 H 
ATOM     26  H27 LQE d   1       3.794  15.225  12.899  0.00  0.00     0.043 H 
ATOM     27  H28 LQE d   1       2.314  12.933   7.323  0.00  0.00     0.087 H 
ATOM     28  H29 LQE d   1       2.978  12.467  13.919  0.00  0.00     0.085 H 
ATOM     29  H30 LQE d   1       2.522  15.209  14.654  0.00  0.00     0.279 HD
ENDROOT
BRANCH   6  30
ATOM     30  C18 LQE d   1       6.083  14.885  16.225  0.00  0.00    -0.036 C 
ATOM     31  H15 LQE d   1       6.952  14.299  15.890  0.00  0.00     0.040 H 
ATOM     32  H16 LQE d   1       5.837  14.616  17.263  0.00  0.00     0.040 H 
BRANCH  30  33
ATOM     33  C19 LQE d   1       6.334  16.402  16.079  0.00  0.00    -0.055 A 
ATOM     34  C20 LQE d   1       7.208  16.856  15.080  0.00  0.00    -0.045 A 
ATOM     35  C22 LQE d   1       7.395  18.229  14.830  0.00  0.00     0.068 A 
ATOM     36  H17 LQE d   1       7.753  16.132  14.486  0.00  0.00     0.088 H 
ATOM     37  C24 LQE d   1       6.618  19.160  15.564  0.00  0.00    -0.051 A 
ATOM     38  C23 LQE d   1       5.670  18.714  16.504  0.00  0.00    -0.080 A 
ATOM     39  H20 LQE d   1       6.755  20.223  15.400  0.00  0.00     0.087 H 
ATOM     40  C21 LQE d   1       5.542  17.342  16.775  0.00  0.00    -0.077 A 
ATOM     41  H19 LQE d   1       5.039  19.429  17.019  0.00  0.00     0.083 H 
ATOM     42  H18 LQE d   1       4.833  17.003  17.521  0.00  0.00     0.084 H 
BRANCH  35  43
ATOM     43  O25 LQE d   1       8.337  18.634  13.857  0.00  0.00    -0.356 OA
BRANCH  43  44
ATOM     44  C26 LQE d   1       9.297  17.769  13.214  0.00  0.00     0.010 C 
ATOM     45  H21 LQE d   1       9.899  18.354  12.503  0.00  0.00     0.066 H 
ATOM     46  H22 LQE d   1       8.767  16.970  12.675  0.00  0.00     0.066 H 
ATOM     47  H23 LQE d   1       9.956  17.324  13.974  0.00  0.00     0.066 H 
ENDBRANCH  43  44
ENDBRANCH  35  43
ENDBRANCH  30  33
ENDBRANCH   6  30
BRANCH  14  48
ATOM     48  C17 LQE d   1       1.138  14.180  15.617  0.00  0.00     0.067 C 
ATOM     49  H12 LQE d   1       0.338  14.316  14.874  0.00  0.00     0.068 H 
ATOM     50  H13 LQE d   1       1.075  14.977  16.373  0.00  0.00     0.068 H 
ATOM     51  H14 LQE d   1       1.022  13.201  16.105  0.00  0.00     0.068 H 
ENDBRANCH  14  48
BRANCH   8  52
ATOM     52  O9  LQE d   1       4.589  13.421   8.675  0.00  0.00    -0.355 OA
BRANCH  52  53
ATOM     53  C13 LQE d   1       4.935  14.148   7.482  0.00  0.00     0.010 C 
ATOM     54  H6  LQE d   1       6.016  14.059   7.299  0.00  0.00     0.066 H 
ATOM     55  H7  LQE d   1       4.671  15.208   7.609  0.00  0.00     0.066 H 
ATOM     56  H8  LQE d   1       4.383  13.732   6.626  0.00  0.00     0.066 H 
ENDBRANCH  52  53
ENDBRANCH   8  52
TORSDOF 7
