REMARK  5 active torsions:
REMARK  status: ('A' for Active; 'I' for Inactive)
REMARK    1  A    between atoms: C3_2  and  N9_25 
REMARK    2  A    between atoms: C22_11  and  C16_6 
REMARK    3  A    between atoms: N9_25  and  C22_11 
REMARK    4  A    between atoms: C23_12  and  C24_13 
REMARK    5  A    between atoms: N12_27  and  C23_12 
ROOT
ATOM      1  C2  LQF d   1       4.871  13.191  11.751  0.00  0.00     0.026 A 
ATOM      2  C3  LQF d   1       5.866  14.006  14.347  0.00  0.00     0.132 A 
ATOM      3  C11 LQF d   1       7.869  14.851  13.074  0.00  0.00     0.104 C 
ATOM      4  C13 LQF d   1       4.215  12.816  10.433  0.00  0.00     0.141 C 
ATOM      5  C15 LQF d   1       6.828  14.172  10.562  0.00  0.00    -0.014 C 
ATOM      6  C20 LQF d   1       5.940  14.156   9.291  0.00  0.00     0.118 C 
ATOM      7  N1  LQF d   1       4.687  13.377  14.169  0.00  0.00    -0.271 N 
ATOM      8  C4  LQF d   1       4.198  12.939  13.034  0.00  0.00     0.167 A 
ATOM      9  C5  LQF d   1       6.586  14.202  13.186  0.00  0.00     0.096 A 
ATOM     10  C6  LQF d   1       6.051  13.837  11.831  0.00  0.00    -0.020 A 
ATOM     11  N7  LQF d   1       3.061  12.345  13.117  0.00  0.00    -0.130 NA
ATOM     12  N8  LQF d   1       2.767  12.384  14.515  0.00  0.00    -0.143 NA
ATOM     13  C10 LQF d   1       3.769  12.991  15.018  0.00  0.00     0.095 A 
ATOM     14  N12 LQF d   1       5.152  12.894   9.264  0.00  0.00     0.097 N 
ATOM     15  N14 LQF d   1       8.885  15.375  12.938  0.00  0.00    -0.191 NA
ATOM     16  H1  LQF d   1       3.374  13.502  10.253  0.00  0.00     0.087 H 
ATOM     17  H2  LQF d   1       3.838  11.786  10.511  0.00  0.00     0.087 H 
ATOM     18  H3  LQF d   1       7.265  15.175  10.672  0.00  0.00     0.042 H 
ATOM     19  H4  LQF d   1       7.633  13.433  10.438  0.00  0.00     0.042 H 
ATOM     20  H7  LQF d   1       6.577  14.212   8.396  0.00  0.00     0.080 H 
ATOM     21  H8  LQF d   1       5.256  15.017   9.309  0.00  0.00     0.080 H 
ATOM     22  H20 LQF d   1       3.856  13.177  16.088  0.00  0.00     0.147 H 
ENDROOT
BRANCH   2  23
ATOM     23  N9  LQF d   1       6.246  14.321  15.594  0.00  0.00    -0.368 N 
ATOM     24  H19 LQF d   1       5.674  13.905  16.343  0.00  0.00     0.161 HD
BRANCH  23  25
ATOM     25  C22 LQF d   1       7.358  15.172  16.054  0.00  0.00     0.038 C 
ATOM     26  H10 LQF d   1       7.686  14.819  17.043  0.00  0.00     0.074 H 
ATOM     27  H11 LQF d   1       8.189  15.083  15.339  0.00  0.00     0.074 H 
BRANCH  25  28
ATOM     28  C16 LQF d   1       6.968  16.633  16.165  0.00  0.00     0.070 A 
ATOM     29  C18 LQF d   1       6.158  17.145  17.088  0.00  0.00    -0.051 A 
ATOM     30  C21 LQF d   1       6.154  18.571  16.757  0.00  0.00    -0.059 A 
ATOM     31  H5  LQF d   1       5.630  16.631  17.890  0.00  0.00     0.087 H 
ATOM     32  C19 LQF d   1       6.980  18.661  15.707  0.00  0.00     0.019 A 
ATOM     33  H9  LQF d   1       5.606  19.373  17.250  0.00  0.00     0.086 H 
ATOM     34  O17 LQF d   1       7.541  17.505  15.303  0.00  0.00    -0.325 OA
ATOM     35  H6  LQF d   1       7.185  19.609  15.211  0.00  0.00     0.123 H 
ENDBRANCH  25  28
ENDBRANCH  23  25
ENDBRANCH   2  23
BRANCH  14  36
ATOM     36  C23 LQF d   1       4.455  12.656   7.970  0.00  0.00     0.137 C 
ATOM     37  H12 LQF d   1       3.708  11.860   8.105  0.00  0.00     0.087 H 
ATOM     38  H13 LQF d   1       3.951  13.582   7.658  0.00  0.00     0.087 H 
BRANCH  36  39
ATOM     39  C24 LQF d   1       5.450  12.231   6.873  0.00  0.00    -0.030 A 
ATOM     40  C25 LQF d   1       5.898  13.161   5.916  0.00  0.00    -0.075 A 
ATOM     41  C28 LQF d   1       6.827  12.780   4.937  0.00  0.00    -0.082 A 
ATOM     42  H14 LQF d   1       5.523  14.178   5.936  0.00  0.00     0.084 H 
ATOM     43  C29 LQF d   1       7.294  11.455   4.907  0.00  0.00    -0.083 A 
ATOM     44  H17 LQF d   1       7.182  13.501   4.210  0.00  0.00     0.083 H 
ATOM     45  C27 LQF d   1       6.849  10.510   5.853  0.00  0.00    -0.082 A 
ATOM     46  H18 LQF d   1       8.006  11.156   4.146  0.00  0.00     0.083 H 
ATOM     47  C26 LQF d   1       5.925  10.902   6.837  0.00  0.00    -0.075 A 
ATOM     48  H16 LQF d   1       7.216   9.490   5.822  0.00  0.00     0.083 H 
ATOM     49  H15 LQF d   1       5.577  10.183   7.569  0.00  0.00     0.084 H 
ENDBRANCH  36  39
ENDBRANCH  14  36
TORSDOF 5
