REMARK WARNING: 32 MAX_TORS EXCEEDED!!!
REMARK  51 active torsions:
REMARK  status: ('A' for Active; 'I' for Inactive)
REMARK    1  A    between atoms: N_1  and  CA_2 
REMARK    2  A    between atoms: CA_2  and  C_3 
REMARK    3  A    between atoms: CA_2  and  CB_5 
REMARK       I    between atoms: C_3  and  N_10 
REMARK    4  A    between atoms: CB_5  and  CG_6 
REMARK    5  A    between atoms: CG_6  and  CD_7 
REMARK    6  A    between atoms: N_10  and  CA_11 
REMARK    7  A    between atoms: CA_11  and  C_12 
REMARK    8  A    between atoms: CA_11  and  CB_14 
REMARK       I    between atoms: C_12  and  N_18 
REMARK    9  A    between atoms: CB_14  and  CG_15 
REMARK       I    between atoms: CG_15  and  ND2_17 
REMARK   10  A    between atoms: N_18  and  CA_19 
REMARK   11  A    between atoms: CA_19  and  C_20 
REMARK   12  A    between atoms: CA_19  and  CB_22 
REMARK       I    between atoms: C_20  and  N_23 
REMARK   13  A    between atoms: N_23  and  CA_24 
REMARK   14  A    between atoms: CA_24  and  C_25 
REMARK   15  A    between atoms: CA_24  and  CB_27 
REMARK       I    between atoms: C_25  and  N_31 
REMARK   16  A    between atoms: CB_27  and  CG_28 
REMARK   17  A    between atoms: CG_28  and  CD1_29 
REMARK   18  A    between atoms: CG_28  and  CD2_30 
REMARK   19  A    between atoms: N_31  and  CA_32 
REMARK   20  A    between atoms: CA_32  and  C_33 
REMARK   21  A    between atoms: CA_32  and  CB_35 
REMARK       I    between atoms: C_33  and  N_39 
REMARK   22  A    between atoms: CB_35  and  CG_36 
REMARK   23  A    between atoms: CG_36  and  CD1_37 
REMARK   24  A    between atoms: CG_36  and  CD2_38 
REMARK   25  A    between atoms: N_39  and  CA_40 
REMARK   26  A    between atoms: CA_40  and  C_41 
REMARK   27  A    between atoms: CA_40  and  CB_43 
REMARK       I    between atoms: C_41  and  N_50 
REMARK   28  A    between atoms: CB_43  and  CG_44 
REMARK   29  A    between atoms: CG_44  and  CD_45 
REMARK   30  A    between atoms: CD_45  and  NE_46 
REMARK       I    between atoms: NE_46  and  CZ_47 
REMARK       I    between atoms: CZ_47  and  NH1_48 
REMARK   31  A    between atoms: N_50  and  CA_51 
REMARK   32  A    between atoms: CA_51  and  C_52 
REMARK   33  A    between atoms: CA_51  and  CB_54 
REMARK       I    between atoms: C_52  and  N_62 
REMARK   34  A    between atoms: CB_54  and  CG_55 
REMARK   35  A    between atoms: CZ_60  and  OH_61 
REMARK   36  A    between atoms: N_62  and  CA_63 
REMARK   37  A    between atoms: CA_63  and  C_64 
REMARK   38  A    between atoms: CA_63  and  CB_66 
REMARK       I    between atoms: C_64  and  N_70 
REMARK   39  A    between atoms: CB_66  and  CG_67 
REMARK   40  A    between atoms: CG_67  and  CD1_68 
REMARK   41  A    between atoms: CG_67  and  CD2_69 
REMARK   42  A    between atoms: N_70  and  CA_71 
REMARK   43  A    between atoms: CA_71  and  C_72 
REMARK   44  A    between atoms: CA_71  and  CB_74 
REMARK       I    between atoms: C_72  and  N_78 
REMARK   45  A    between atoms: CB_74  and  CG_75 
REMARK   46  A    between atoms: CG_75  and  CD1_76 
REMARK   47  A    between atoms: CG_75  and  CD2_77 
REMARK   48  A    between atoms: N_78  and  CA_79 
REMARK   49  A    between atoms: CA_79  and  C_80 
REMARK   50  A    between atoms: CA_79  and  CB_82 
REMARK   51  A    between atoms: CB_82  and  CG_83 
ROOT
ATOM      1  CA  ARG d   1       6.897 -11.492   9.053  0.00  0.00     0.089 C 
ATOM      2  H43 ARG d   1       7.960 -11.720   8.882  0.00  0.00     0.087 H 
ENDROOT
BRANCH   1   3
ATOM      3  N   ARG d   1       6.775 -10.877  10.363  0.00  0.00    -0.346 N 
ATOM      4  C   LEU d   1       7.413  -9.757  10.678  0.00  0.00     0.241 C 
ATOM      5  O   LEU d   1       8.135  -9.126   9.887  0.00  0.00    -0.271 OA
ATOM      6  H42 ARG d   1       6.192 -11.311  11.049  0.00  0.00     0.163 HD
BRANCH   4   7
ATOM      7  CA  LEU d   1       7.160  -9.283  12.100  0.00  0.00     0.089 C 
ATOM      8  H32 LEU d   1       7.462  -8.227  12.159  0.00  0.00     0.087 H 
BRANCH   7   9
ATOM      9  N   LEU d   1       5.753  -9.365  12.453  0.00  0.00    -0.346 N 
ATOM     10  C   LEU d   1       4.846  -8.545  11.913  0.00  0.00     0.241 C 
ATOM     11  O   LEU d   1       5.123  -7.648  11.117  0.00  0.00    -0.271 OA
ATOM     12  H31 LEU d   1       5.456 -10.052  13.116  0.00  0.00     0.163 HD
BRANCH  10  13
ATOM     13  CA  LEU d   1       3.403  -8.755  12.350  0.00  0.00     0.089 C 
ATOM     14  H21 LEU d   1       2.756  -8.380  11.543  0.00  0.00     0.087 H 
BRANCH  13  15
ATOM     15  N   LEU d   1       3.046 -10.162  12.567  0.00  0.00    -0.346 N 
ATOM     16  C   ALA d   1       3.104 -11.083  11.613  0.00  0.00     0.240 C 
ATOM     17  O   ALA d   1       3.460 -10.845  10.461  0.00  0.00    -0.271 OA
ATOM     18  H20 LEU d   1       2.744 -10.441  13.479  0.00  0.00     0.163 HD
BRANCH  16  19
ATOM     19  CA  ALA d   1       2.631 -12.459  11.993  0.00  0.00     0.086 C 
ATOM     20  H16 ALA d   1       2.880 -13.156  11.179  0.00  0.00     0.086 H 
BRANCH  19  21
ATOM     21  N   ALA d   1       3.257 -12.914  13.207  0.00  0.00    -0.346 N 
ATOM     22  C   ASN d   1       4.152 -13.884  13.226  0.00  0.00     0.241 C 
ATOM     23  O   ASN d   1       4.588 -14.404  12.198  0.00  0.00    -0.271 OA
ATOM     24  H15 ALA d   1       3.004 -12.478  14.070  0.00  0.00     0.163 HD
BRANCH  22  25
ATOM     25  CA  ASN d   1       4.594 -14.325  14.628  0.00  0.00     0.097 C 
ATOM     26  H10 ASN d   1       3.993 -13.805  15.389  0.00  0.00     0.088 H 
BRANCH  25  27
ATOM     27  N   ASN d   1       4.382 -15.775  14.760  0.00  0.00    -0.346 N 
ATOM     28  C   GLU d   1       3.178 -16.309  14.951  0.00  0.00     0.249 C 
ATOM     29  O   GLU d   1       2.114 -15.649  14.901  0.00  0.00    -0.271 OA
ATOM     30  H9  ASN d   1       5.174 -16.383  14.704  0.00  0.00     0.163 HD
BRANCH  28  31
ATOM     31  CA  GLU d   1       3.152 -17.816  15.200  0.00  0.00     0.176 C 
ATOM     32  H4  GLU d   1       2.098 -18.127  15.245  0.00  0.00     0.099 H 
BRANCH  31  33
ATOM     33  N   GLU d   1       3.781 -18.548  14.033  0.00  0.00    -0.066 N 
ATOM     34  H1  GLU d   1       3.759 -19.541  14.207  0.00  0.00     0.275 HD
ATOM     35  H2  GLU d   1       4.737 -18.248  13.924  0.00  0.00     0.275 HD
ATOM     36  H3  GLU d   1       3.266 -18.343  13.191  0.00  0.00     0.275 HD
ENDBRANCH  31  33
BRANCH  31  37
ATOM     37  CB  GLU d   1       3.779 -18.165  16.567  0.00  0.00    -0.021 C 
ATOM     38  H5  GLU d   1       3.201 -19.000  16.990  0.00  0.00     0.037 H 
ATOM     39  H6  GLU d   1       3.672 -17.281  17.212  0.00  0.00     0.037 H 
BRANCH  37  40
ATOM     40  CG  GLU d   1       5.252 -18.572  16.593  0.00  0.00     0.018 C 
ATOM     41  H7  GLU d   1       5.661 -18.378  17.595  0.00  0.00     0.049 H 
ATOM     42  H8  GLU d   1       5.803 -17.977  15.851  0.00  0.00     0.049 H 
BRANCH  40  43
ATOM     43  CD  GLU d   1       5.415 -20.066  16.262  0.00  0.00     0.172 C 
ATOM     44  OE1 GLU d   1       6.300 -20.703  16.920  0.00  0.00    -0.648 OA
ATOM     45  OE2 GLU d   1       4.647 -20.612  15.376  0.00  0.00    -0.648 OA
ENDBRANCH  40  43
ENDBRANCH  37  40
ENDBRANCH  31  37
ENDBRANCH  28  31
ENDBRANCH  25  27
BRANCH  25  46
ATOM     46  CB  ASN d   1       6.065 -13.941  14.802  0.00  0.00     0.036 C 
ATOM     47  H11 ASN d   1       6.146 -12.844  14.786  0.00  0.00     0.051 H 
ATOM     48  H12 ASN d   1       6.639 -14.363  13.964  0.00  0.00     0.051 H 
BRANCH  46  49
ATOM     49  CG  ASN d   1       6.669 -14.460  16.123  0.00  0.00     0.217 C 
ATOM     50  OD1 ASN d   1       6.322 -13.986  17.234  0.00  0.00    -0.274 OA
ATOM     51  ND2 ASN d   1       7.581 -15.442  16.014  0.00  0.00    -0.370 N 
ATOM     52  H13 ASN d   1       8.009 -15.820  16.835  0.00  0.00     0.159 HD
ATOM     53  H14 ASN d   1       7.832 -15.794  15.112  0.00  0.00     0.159 HD
ENDBRANCH  46  49
ENDBRANCH  25  46
ENDBRANCH  22  25
ENDBRANCH  19  21
BRANCH  19  54
ATOM     54  CB  ALA d   1       1.121 -12.446  12.202  0.00  0.00    -0.049 C 
ATOM     55  H17 ALA d   1       0.626 -12.100  11.282  0.00  0.00     0.030 H 
ATOM     56  H18 ALA d   1       0.871 -11.767  13.030  0.00  0.00     0.030 H 
ATOM     57  H19 ALA d   1       0.776 -13.462  12.444  0.00  0.00     0.030 H 
ENDBRANCH  19  54
ENDBRANCH  16  19
ENDBRANCH  13  15
BRANCH  13  58
ATOM     58  CB  LEU d   1       3.137  -7.909  13.602  0.00  0.00    -0.035 C 
ATOM     59  H22 LEU d   1       3.326  -6.859  13.336  0.00  0.00     0.037 H 
ATOM     60  H23 LEU d   1       3.855  -8.227  14.373  0.00  0.00     0.037 H 
BRANCH  58  61
ATOM     61  CG  LEU d   1       1.724  -7.980  14.228  0.00  0.00    -0.059 C 
ATOM     62  H24 LEU d   1       1.651  -8.932  14.774  0.00  0.00     0.038 H 
BRANCH  61  63
ATOM     63  CD1 LEU d   1       1.470  -6.855  15.205  0.00  0.00    -0.073 C 
ATOM     64  H25 LEU d   1       0.456  -6.952  15.620  0.00  0.00     0.028 H 
ATOM     65  H26 LEU d   1       1.563  -5.890  14.685  0.00  0.00     0.028 H 
ATOM     66  H27 LEU d   1       2.206  -6.905  16.021  0.00  0.00     0.028 H 
ENDBRANCH  61  63
BRANCH  61  67
ATOM     67  CD2 LEU d   1       0.628  -7.954  13.162  0.00  0.00    -0.073 C 
ATOM     68  H28 LEU d   1       0.798  -8.768  12.442  0.00  0.00     0.028 H 
ATOM     69  H29 LEU d   1       0.651  -6.988  12.636  0.00  0.00     0.028 H 
ATOM     70  H30 LEU d   1      -0.353  -8.088  13.641  0.00  0.00     0.028 H 
ENDBRANCH  61  67
ENDBRANCH  58  61
ENDBRANCH  13  58
ENDBRANCH  10  13
ENDBRANCH   7   9
BRANCH   7  71
ATOM     71  CB  LEU d   1       8.009 -10.078  13.110  0.00  0.00    -0.035 C 
ATOM     72  H33 LEU d   1       7.949 -11.140  12.828  0.00  0.00     0.037 H 
ATOM     73  H34 LEU d   1       7.559  -9.936  14.104  0.00  0.00     0.037 H 
BRANCH  71  74
ATOM     74  CG  LEU d   1       9.499  -9.715  13.223  0.00  0.00    -0.059 C 
ATOM     75  H35 LEU d   1      10.051 -10.274  12.453  0.00  0.00     0.038 H 
BRANCH  74  76
ATOM     76  CD1 LEU d   1       9.758  -8.227  13.010  0.00  0.00    -0.073 C 
ATOM     77  H36 LEU d   1      10.835  -8.026  13.102  0.00  0.00     0.028 H 
ATOM     78  H37 LEU d   1       9.211  -7.647  13.768  0.00  0.00     0.028 H 
ATOM     79  H38 LEU d   1       9.415  -7.935  12.007  0.00  0.00     0.028 H 
ENDBRANCH  74  76
BRANCH  74  80
ATOM     80  CD2 LEU d   1      10.010 -10.130  14.598  0.00  0.00    -0.073 C 
ATOM     81  H39 LEU d   1       9.823 -11.203  14.750  0.00  0.00     0.028 H 
ATOM     82  H40 LEU d   1       9.486  -9.553  15.374  0.00  0.00     0.028 H 
ATOM     83  H41 LEU d   1      11.090  -9.934  14.662  0.00  0.00     0.028 H 
ENDBRANCH  74  80
ENDBRANCH  71  74
ENDBRANCH   7  71
ENDBRANCH   4   7
ENDBRANCH   1   3
BRANCH   1  84
ATOM     84  C   ARG d   1       6.426 -10.593   7.966  0.00  0.00     0.241 C 
ATOM     85  O   ARG d   1       7.048 -10.560   6.930  0.00  0.00    -0.271 OA
ATOM     86  N   TYR d   1       5.304  -9.911   8.175  0.00  0.00    -0.346 N 
ATOM     87  H55 TYR d   1       4.805 -10.036   9.033  0.00  0.00     0.163 HD
BRANCH  86  88
ATOM     88  CA  TYR d   1       4.788  -8.982   7.172  0.00  0.00     0.093 C 
ATOM     89  H56 TYR d   1       4.654  -9.537   6.232  0.00  0.00     0.088 H 
BRANCH  88  90
ATOM     90  C   TYR d   1       5.771  -7.830   6.904  0.00  0.00     0.241 C 
ATOM     91  O   TYR d   1       5.971  -7.410   5.772  0.00  0.00    -0.271 OA
ATOM     92  N   LEU d   1       6.384  -7.326   7.981  0.00  0.00    -0.346 N 
ATOM     93  H64 LEU d   1       6.262  -7.774   8.867  0.00  0.00     0.163 HD
BRANCH  92  94
ATOM     94  CA  LEU d   1       7.235  -6.126   7.892  0.00  0.00     0.089 C 
ATOM     95  H65 LEU d   1       6.727  -5.395   7.245  0.00  0.00     0.087 H 
BRANCH  94  96
ATOM     96  C   LEU d   1       8.590  -6.464   7.247  0.00  0.00     0.241 C 
ATOM     97  O   LEU d   1       9.123  -5.708   6.466  0.00  0.00    -0.271 OA
ATOM     98  N   LEU d   1       9.126  -7.629   7.600  0.00  0.00    -0.346 N 
ATOM     99  H75 LEU d   1       8.691  -8.167   8.322  0.00  0.00     0.163 HD
BRANCH  98 100
ATOM    100  CA  LEU d   1      10.327  -8.139   6.962  0.00  0.00     0.089 C 
ATOM    101  H76 LEU d   1      11.103  -7.364   7.043  0.00  0.00     0.087 H 
BRANCH 100 102
ATOM    102  C   LEU d   1      10.149  -8.461   5.478  0.00  0.00     0.241 C 
ATOM    103  O   LEU d   1      11.104  -8.364   4.702  0.00  0.00    -0.271 OA
ATOM    104  N   ASP d   1       8.940  -8.852   5.080  0.00  0.00    -0.344 N 
ATOM    105  H86 ASP d   1       8.225  -8.950   5.772  0.00  0.00     0.163 HD
BRANCH 104 106
ATOM    106  CA  ASP d   1       8.589  -9.153   3.658  0.00  0.00     0.105 C 
ATOM    107  H87 ASP d   1       7.494  -9.247   3.611  0.00  0.00     0.090 H 
BRANCH 106 108
ATOM    108  C   ASP d   1       9.176 -10.461   3.232  0.00  0.00     0.197 C 
ATOM    109  O   ASP d   1       8.526 -11.480   3.413  0.00  0.00    -0.646 OA
ATOM    110  OXT ASP d   1      10.285 -10.464   2.718  0.00  0.00    -0.646 OA
ENDBRANCH 106 108
BRANCH 106 111
ATOM    111  CB  ASP d   1       8.991  -8.040   2.666  0.00  0.00     0.044 C 
ATOM    112  H88 ASP d   1       8.920  -8.439   1.643  0.00  0.00     0.053 H 
ATOM    113  H89 ASP d   1      10.030  -7.744   2.873  0.00  0.00     0.053 H 
BRANCH 111 114
ATOM    114  CG  ASP d   1       8.092  -6.790   2.771  0.00  0.00     0.175 C 
ATOM    115  OD1 ASP d   1       8.529  -5.638   2.535  0.00  0.00    -0.648 OA
ATOM    116  OD2 ASP d   1       6.887  -6.939   3.037  0.00  0.00    -0.648 OA
ENDBRANCH 111 114
ENDBRANCH 106 111
ENDBRANCH 104 106
ENDBRANCH 100 102
BRANCH 100 117
ATOM    117  CB  LEU d   1      10.804  -9.376   7.705  0.00  0.00    -0.035 C 
ATOM    118  H77 LEU d   1      11.539  -9.886   7.066  0.00  0.00     0.037 H 
ATOM    119  H78 LEU d   1       9.933 -10.030   7.857  0.00  0.00     0.037 H 
BRANCH 117 120
ATOM    120  CG  LEU d   1      11.459  -9.146   9.076  0.00  0.00    -0.059 C 
ATOM    121  H79 LEU d   1      10.722  -8.695   9.757  0.00  0.00     0.038 H 
BRANCH 120 122
ATOM    122  CD1 LEU d   1      11.907 -10.495   9.652  0.00  0.00    -0.073 C 
ATOM    123  H80 LEU d   1      12.377 -10.336  10.634  0.00  0.00     0.028 H 
ATOM    124  H81 LEU d   1      12.632 -10.962   8.970  0.00  0.00     0.028 H 
ATOM    125  H82 LEU d   1      11.033 -11.153   9.766  0.00  0.00     0.028 H 
ENDBRANCH 120 122
BRANCH 120 126
ATOM    126  CD2 LEU d   1      12.633  -8.195   8.928  0.00  0.00    -0.073 C 
ATOM    127  H83 LEU d   1      12.280  -7.239   8.514  0.00  0.00     0.028 H 
ATOM    128  H84 LEU d   1      13.379  -8.636   8.250  0.00  0.00     0.028 H 
ATOM    129  H85 LEU d   1      13.091  -8.021   9.913  0.00  0.00     0.028 H 
ENDBRANCH 120 126
ENDBRANCH 117 120
ENDBRANCH 100 117
ENDBRANCH  98 100
ENDBRANCH  94  96
BRANCH  94 130
ATOM    130  CB  LEU d   1       7.408  -5.496   9.261  0.00  0.00    -0.035 C 
ATOM    131  H66 LEU d   1       8.175  -4.713   9.172  0.00  0.00     0.037 H 
ATOM    132  H67 LEU d   1       7.763  -6.281   9.945  0.00  0.00     0.037 H 
BRANCH 130 133
ATOM    133  CG  LEU d   1       6.168  -4.858   9.892  0.00  0.00    -0.059 C 
ATOM    134  H68 LEU d   1       5.369  -5.614   9.887  0.00  0.00     0.038 H 
BRANCH 133 135
ATOM    135  CD1 LEU d   1       6.445  -4.465  11.352  0.00  0.00    -0.073 C 
ATOM    136  H69 LEU d   1       5.543  -4.009  11.786  0.00  0.00     0.028 H 
ATOM    137  H70 LEU d   1       7.274  -3.743  11.386  0.00  0.00     0.028 H 
ATOM    138  H71 LEU d   1       6.716  -5.362  11.928  0.00  0.00     0.028 H 
ENDBRANCH 133 135
BRANCH 133 139
ATOM    139  CD2 LEU d   1       5.666  -3.654   9.121  0.00  0.00    -0.073 C 
ATOM    140  H72 LEU d   1       5.470  -3.942   8.078  0.00  0.00     0.028 H 
ATOM    141  H73 LEU d   1       6.427  -2.860   9.145  0.00  0.00     0.028 H 
ATOM    142  H74 LEU d   1       4.737  -3.286   9.580  0.00  0.00     0.028 H 
ENDBRANCH 133 139
ENDBRANCH 130 133
ENDBRANCH  94 130
ENDBRANCH  92  94
ENDBRANCH  88  90
BRANCH  88 143
ATOM    143  CB  TYR d   1       3.430  -8.441   7.602  0.00  0.00    -0.014 C 
ATOM    144  H57 TYR d   1       3.472  -8.209   8.676  0.00  0.00     0.043 H 
ATOM    145  H58 TYR d   1       2.673  -9.219   7.424  0.00  0.00     0.043 H 
BRANCH 143 146
ATOM    146  CG  TYR d   1       3.016  -7.195   6.861  0.00  0.00    -0.056 A 
ATOM    147  CD1 TYR d   1       2.359  -7.291   5.622  0.00  0.00    -0.074 A 
ATOM    148  CE1 TYR d   1       2.011  -6.176   4.930  0.00  0.00    -0.051 A 
ATOM    149  H59 TYR d   1       2.127  -8.268   5.214  0.00  0.00     0.084 H 
ATOM    150  CZ  TYR d   1       2.308  -4.948   5.443  0.00  0.00     0.065 A 
ATOM    151  H61 TYR d   1       1.501  -6.261   3.977  0.00  0.00     0.087 H 
ATOM    152  CE2 TYR d   1       2.968  -4.792   6.660  0.00  0.00    -0.051 A 
ATOM    153  CD2 TYR d   1       3.313  -5.918   7.372  0.00  0.00    -0.074 A 
ATOM    154  H62 TYR d   1       3.205  -3.804   7.038  0.00  0.00     0.087 H 
ATOM    155  H60 TYR d   1       3.814  -5.821   8.328  0.00  0.00     0.084 H 
BRANCH 150 156
ATOM    156  OH  TYR d   1       1.894  -3.903   4.677  0.00  0.00    -0.361 OA
ATOM    157  H63 TYR d   1       1.469  -4.234   3.894  0.00  0.00     0.217 HD
ENDBRANCH 150 156
ENDBRANCH 143 146
ENDBRANCH  88 143
ENDBRANCH  86  88
ENDBRANCH   1  84
BRANCH   1 158
ATOM    158  CB  ARG d   1       6.102 -12.787   8.981  0.00  0.00    -0.036 C 
ATOM    159  H44 ARG d   1       5.751 -12.921   7.947  0.00  0.00     0.036 H 
ATOM    160  H45 ARG d   1       5.236 -12.700   9.654  0.00  0.00     0.036 H 
BRANCH 158 161
ATOM    161  CG  ARG d   1       6.886 -13.999   9.374  0.00  0.00    -0.048 C 
ATOM    162  H46 ARG d   1       6.902 -14.083  10.471  0.00  0.00     0.035 H 
ATOM    163  H47 ARG d   1       7.915 -13.905   8.998  0.00  0.00     0.035 H 
BRANCH 161 164
ATOM    164  CD  ARG d   1       6.245 -15.241   8.783  0.00  0.00     0.009 C 
ATOM    165  H48 ARG d   1       6.551 -15.335   7.731  0.00  0.00     0.064 H 
ATOM    166  H49 ARG d   1       5.151 -15.140   8.839  0.00  0.00     0.064 H 
BRANCH 164 167
ATOM    167  NE  ARG d   1       6.649 -16.451   9.506  0.00  0.00    -0.227 N 
ATOM    168  CZ  ARG d   1       7.536 -17.342   9.076  0.00  0.00     0.665 C 
ATOM    169  NH1 ARG d   1       8.162 -17.228   7.899  0.00  0.00    -0.235 N 
ATOM    170  NH2 ARG d   1       7.804 -18.395   9.824  0.00  0.00    -0.235 N 
ATOM    171  H51 ARG d   1       8.843 -17.944   7.606  0.00  0.00     0.174 HD
ATOM    172  H52 ARG d   1       7.963 -16.425   7.286  0.00  0.00     0.174 HD
ATOM    173  H53 ARG d   1       7.338 -18.511  10.735  0.00  0.00     0.174 HD
ATOM    174  H54 ARG d   1       8.479 -19.101   9.497  0.00  0.00     0.174 HD
ATOM    175  H50 ARG d   1       6.210 -16.624  10.421  0.00  0.00     0.177 HD
ENDBRANCH 164 167
ENDBRANCH 161 164
ENDBRANCH 158 161
ENDBRANCH   1 158
TORSDOF 51
