REMARK  10 active torsions:
REMARK  status: ('A' for Active; 'I' for Inactive)
REMARK    1  A    between atoms: C2_2  and  C7_7 
REMARK    2  A    between atoms: C4_4  and  O20_20 
REMARK    3  A    between atoms: C5_5  and  O18_18 
REMARK    4  A    between atoms: C6_6  and  O16_16 
REMARK       I    between atoms: C7_7  and  N8_8 
REMARK    5  A    between atoms: N8_8  and  C9_9 
REMARK    6  A    between atoms: C9_9  and  C10_10 
REMARK    7  A    between atoms: C10_10  and  C11_11 
REMARK    8  A    between atoms: O16_16  and  C17_17 
REMARK    9  A    between atoms: O18_18  and  C19_19 
REMARK   10  A    between atoms: O20_20  and  C21_21 
ROOT
ATOM      1  C1  RMR d   1     -22.897  -6.027  80.229  0.00  0.00    -0.033 A 
ATOM      2  C2  RMR d   1     -23.076  -7.009  79.276  0.00  0.00     0.037 A 
ATOM      3  C3  RMR d   1     -22.021  -7.486  78.511  0.00  0.00    -0.033 A 
ATOM      4  C4  RMR d   1     -20.751  -6.989  78.732  0.00  0.00     0.105 A 
ATOM      5  C5  RMR d   1     -20.572  -6.003  79.703  0.00  0.00     0.135 A 
ATOM      6  C6  RMR d   1     -21.627  -5.525  80.437  0.00  0.00     0.105 A 
ATOM      7  H1  RMR d   1     -23.738  -5.656  80.804  0.00  0.00     0.089 H 
ATOM      8  H2  RMR d   1     -22.191  -8.239  77.750  0.00  0.00     0.089 H 
ENDROOT
BRANCH   2   9
ATOM      9  C7  RMR d   1     -24.458  -7.541  78.986  0.00  0.00     0.251 C 
ATOM     10  N8  RMR d   1     -24.545  -8.512  77.918  0.00  0.00    -0.357 N 
ATOM     11  H3  RMR d   1     -23.708  -8.804  77.456  0.00  0.00     0.162 HD
ATOM     12  O22 RMR d   1     -25.408  -7.127  79.561  0.00  0.00    -0.268 OA
BRANCH  10  13
ATOM     13  C9  RMR d   1     -25.812  -9.071  77.501  0.00  0.00    -0.000 C 
ATOM     14  H4  RMR d   1     -26.640  -8.447  77.868  0.00  0.00     0.064 H 
ATOM     15  H5  RMR d   1     -25.922 -10.093  77.892  0.00  0.00     0.064 H 
BRANCH  13  16
ATOM     16  C10 RMR d   1     -25.805  -9.091  75.970  0.00  0.00    -0.021 C 
ATOM     17  H6  RMR d   1     -26.843  -9.059  75.608  0.00  0.00     0.043 H 
ATOM     18  H7  RMR d   1     -25.326 -10.020  75.627  0.00  0.00     0.043 H 
BRANCH  16  19
ATOM     19  C11 RMR d   1     -25.039  -7.894  75.393  0.00  0.00    -0.024 C 
ATOM     20  S12 RMR d   1     -25.549  -6.151  75.575  0.00  0.00    -0.134 SA
ATOM     21  C13 RMR d   1     -24.738  -5.671  74.228  0.00  0.00    -0.016 C 
ATOM     22  C14 RMR d   1     -23.745  -6.749  73.819  0.00  0.00    -0.041 C 
ATOM     23  H8  RMR d   1     -24.198  -4.737  74.439  0.00  0.00     0.049 H 
ATOM     24  H9  RMR d   1     -25.454  -5.503  73.410  0.00  0.00     0.049 H 
ATOM     25  C15 RMR d   1     -23.973  -8.000  74.565  0.00  0.00    -0.090 C 
ATOM     26  H10 RMR d   1     -22.725  -6.392  74.022  0.00  0.00     0.040 H 
ATOM     27  H11 RMR d   1     -23.856  -6.949  72.743  0.00  0.00     0.040 H 
ATOM     28  H12 RMR d   1     -23.362  -8.896  74.463  0.00  0.00     0.078 H 
ENDBRANCH  16  19
ENDBRANCH  13  16
ENDBRANCH  10  13
ENDBRANCH   2   9
BRANCH   6  29
ATOM     29  O16 RMR d   1     -21.382  -4.546  81.397  0.00  0.00    -0.353 OA
BRANCH  29  30
ATOM     30  C17 RMR d   1     -22.491  -4.097  82.124  0.00  0.00     0.010 C 
ATOM     31  H13 RMR d   1     -22.171  -3.331  82.845  0.00  0.00     0.066 H 
ATOM     32  H14 RMR d   1     -22.942  -4.942  82.664  0.00  0.00     0.066 H 
ATOM     33  H15 RMR d   1     -23.231  -3.665  81.434  0.00  0.00     0.066 H 
ENDBRANCH  29  30
ENDBRANCH   6  29
BRANCH   4  34
ATOM     34  O20 RMR d   1     -19.662  -7.470  77.983  0.00  0.00    -0.353 OA
BRANCH  34  35
ATOM     35  C21 RMR d   1     -19.960  -8.490  77.069  0.00  0.00     0.010 C 
ATOM     36  H19 RMR d   1     -19.042  -8.789  76.541  0.00  0.00     0.066 H 
ATOM     37  H20 RMR d   1     -20.700  -8.125  76.341  0.00  0.00     0.066 H 
ATOM     38  H21 RMR d   1     -20.372  -9.356  77.608  0.00  0.00     0.066 H 
ENDBRANCH  34  35
ENDBRANCH   4  34
BRANCH   5  39
ATOM     39  O18 RMR d   1     -19.324  -5.448  79.951  0.00  0.00    -0.351 OA
BRANCH  39  40
ATOM     40  C19 RMR d   1     -18.603  -6.274  80.801  0.00  0.00     0.011 C 
ATOM     41  H16 RMR d   1     -17.616  -5.829  80.994  0.00  0.00     0.067 H 
ATOM     42  H17 RMR d   1     -18.476  -7.261  80.332  0.00  0.00     0.067 H 
ATOM     43  H18 RMR d   1     -19.146  -6.387  81.751  0.00  0.00     0.067 H 
ENDBRANCH  39  40
ENDBRANCH   5  39
TORSDOF 10
