REMARK  9 active torsions:
REMARK  status: ('A' for Active; 'I' for Inactive)
REMARK    1  A    between atoms: C12_21  and  C13_1 
REMARK    2  A    between atoms: C17_3  and  O27_28 
REMARK    3  A    between atoms: C19_25  and  C20_4 
REMARK    4  A    between atoms: C18_24  and  C26_8 
REMARK    5  A    between atoms: O27_28  and  C28_9 
REMARK    6  A    between atoms: C02_12  and  N11_20 
REMARK    7  A    between atoms: N07_17  and  C12_21 
REMARK    8  A    between atoms: C09_19  and  C19_25 
REMARK    9  A    between atoms: C16_23  and  C29_29 
ROOT
ATOM      1 CL   MOL d   1     -34.190  -9.111 -27.798  0.00  0.00    -0.061 Cl
ATOM      2  N01 MOL d   1     -34.765 -10.551 -25.663  0.00  0.00    -0.050 NA
ATOM      3  C02 MOL d   1     -34.528 -11.213 -24.544  0.00  0.00     0.723 A 
ATOM      4  N03 MOL d   1     -33.312 -11.297 -24.012  0.00  0.00    -0.044 NA
ATOM      5  C04 MOL d   1     -32.272 -10.682 -24.624  0.00  0.00     0.163 A 
ATOM      6  C05 MOL d   1     -32.465  -9.983 -25.783  0.00  0.00     0.060 A 
ATOM      7  C06 MOL d   1     -33.781  -9.940 -26.295  0.00  0.00     0.159 A 
ATOM      8  N07 MOL d   1     -30.953 -10.634 -24.309  0.00  0.00    -0.334 N 
ATOM      9  C08 MOL d   1     -30.291  -9.894 -25.199  0.00  0.00    -0.011 A 
ATOM     10  C09 MOL d   1     -31.185  -9.463 -26.178  0.00  0.00    -0.021 A 
ATOM     11  H11 MOL d   1     -29.227  -9.664 -25.166  0.00  0.00     0.112 H 
ENDROOT
BRANCH   8  12
ATOM     12  C12 MOL d   1     -30.396 -11.270 -23.119  0.00  0.00     0.041 C 
ATOM     13  H14 MOL d   1     -29.907 -10.503 -22.500  0.00  0.00     0.074 H 
ATOM     14  H15 MOL d   1     -31.213 -11.736 -22.548  0.00  0.00     0.074 H 
BRANCH  12  15
ATOM     15  C13 MOL d   1     -29.362 -12.350 -23.484  0.00  0.00     0.061 A 
ATOM     16  N14 MOL d   1     -28.078 -12.086 -23.269  0.00  0.00    -0.263 NA
ATOM     17  C15 MOL d   1     -27.118 -12.960 -23.540  0.00  0.00     0.011 A 
ATOM     18  C16 MOL d   1     -27.410 -14.214 -24.055  0.00  0.00    -0.011 A 
ATOM     19  H1  MOL d   1     -26.085 -12.689 -23.355  0.00  0.00     0.115 H 
ATOM     20  C17 MOL d   1     -28.736 -14.548 -24.294  0.00  0.00     0.083 A 
ATOM     21  C18 MOL d   1     -29.724 -13.604 -23.984  0.00  0.00    -0.002 A 
BRANCH  18  22
ATOM     22  C29 MOL d   1     -26.275 -15.204 -24.336  0.00  0.00    -0.047 C 
ATOM     23  H20 MOL d   1     -25.312 -14.740 -24.078  0.00  0.00     0.033 H 
ATOM     24  H21 MOL d   1     -26.279 -15.473 -25.403  0.00  0.00     0.033 H 
ATOM     25  H22 MOL d   1     -26.420 -16.110 -23.729  0.00  0.00     0.033 H 
ENDBRANCH  18  22
BRANCH  20  26
ATOM     26  O27 MOL d   1     -29.086 -15.806 -24.794  0.00  0.00    -0.355 OA
BRANCH  26  27
ATOM     27  C28 MOL d   1     -28.901 -15.987 -26.177  0.00  0.00     0.010 C 
ATOM     28  H8  MOL d   1     -29.207 -17.006 -26.458  0.00  0.00     0.066 H 
ATOM     29  H9  MOL d   1     -27.840 -15.841 -26.427  0.00  0.00     0.066 H 
ATOM     30  H10 MOL d   1     -29.512 -15.256 -26.727  0.00  0.00     0.066 H 
ENDBRANCH  26  27
ENDBRANCH  20  26
BRANCH  21  31
ATOM     31  C26 MOL d   1     -31.193 -13.960 -24.225  0.00  0.00    -0.047 C 
ATOM     32  H5  MOL d   1     -31.829 -13.112 -23.930  0.00  0.00     0.033 H 
ATOM     33  H6  MOL d   1     -31.459 -14.844 -23.627  0.00  0.00     0.033 H 
ATOM     34  H7  MOL d   1     -31.347 -14.180 -25.292  0.00  0.00     0.033 H 
ENDBRANCH  21  31
ENDBRANCH  12  15
ENDBRANCH   8  12
BRANCH  10  35
ATOM     35  C19 MOL d   1     -30.912  -8.595 -27.419  0.00  0.00    -0.015 C 
ATOM     36  H16 MOL d   1     -31.189  -9.174 -28.312  0.00  0.00     0.047 H 
ATOM     37  H17 MOL d   1     -31.542  -7.696 -27.355  0.00  0.00     0.047 H 
BRANCH  35  38
ATOM     38  C20 MOL d   1     -29.452  -8.149 -27.570  0.00  0.00    -0.054 A 
ATOM     39  C21 MOL d   1     -28.806  -7.389 -26.603  0.00  0.00    -0.077 A 
ATOM     40  C22 MOL d   1     -27.478  -7.005 -26.804  0.00  0.00    -0.082 A 
ATOM     41  H2  MOL d   1     -29.328  -7.096 -25.699  0.00  0.00     0.084 H 
ATOM     42  C23 MOL d   1     -26.808  -7.381 -27.955  0.00  0.00    -0.083 A 
ATOM     43  H3  MOL d   1     -26.970  -6.409 -26.054  0.00  0.00     0.083 H 
ATOM     44  C24 MOL d   1     -27.460  -8.137 -28.917  0.00  0.00    -0.082 A 
ATOM     45  H18 MOL d   1     -25.776  -7.085 -28.104  0.00  0.00     0.083 H 
ATOM     46  C25 MOL d   1     -28.782  -8.511 -28.720  0.00  0.00    -0.077 A 
ATOM     47  H4  MOL d   1     -26.939  -8.435 -29.820  0.00  0.00     0.083 H 
ATOM     48  H19 MOL d   1     -29.293  -9.094 -29.478  0.00  0.00     0.084 H 
ENDBRANCH  35  38
ENDBRANCH  10  35
BRANCH   3  49
ATOM     49  N11 MOL d   1     -35.638 -11.843 -23.890  0.00  0.00    -0.231 N 
ATOM     50  H12 MOL d   1     -36.581 -11.780 -24.300  0.00  0.00     0.174 HD
ATOM     51  H13 MOL d   1     -35.492 -12.359 -23.011  0.00  0.00     0.174 HD
ENDBRANCH   3  49
TORSDOF 9
