REMARK  3 active torsions:
REMARK  status: ('A' for Active; 'I' for Inactive)
REMARK    1  A    between atoms: C2'_10  and  O2'_11 
REMARK    2  A    between atoms: C1'_12  and  N9_13 
REMARK    3  A    between atoms: C2_20  and  N2_21 
ROOT
ATOM      1  PA  PCG d   1       2.715 -18.785  10.443  0.00  0.00     0.408 P 
ATOM      2  O1A PCG d   1       1.364 -18.182  10.631  0.00  0.00    -0.624 OA
ATOM      3  O2A PCG d   1       3.244 -19.735   9.415  0.00  0.00    -0.624 OA
ATOM      4  O5' PCG d   1       2.842 -19.213  11.671  0.00  0.00    -0.287 OA
ATOM      5  C5' PCG d   1       4.154 -19.641  12.047  0.00  0.00     0.058 C 
ATOM      6  C4' PCG d   1       4.975 -18.385  11.928  0.00  0.00     0.090 C 
ATOM      7  O4' PCG d   1       6.357 -18.384  12.180  0.00  0.00    -0.353 OA
ATOM      8  C3' PCG d   1       4.842 -17.764  10.572  0.00  0.00     0.106 C 
ATOM      9  O3' PCG d   1       3.436 -17.532  10.290  0.00  0.00    -0.279 OA
ATOM     10  C2' PCG d   1       5.765 -16.588  10.736  0.00  0.00     0.106 C 
ATOM     11  C1' PCG d   1       6.769 -17.079  11.791  0.00  0.00     0.139 C 
ATOM     12  H1  PCG d   1       4.525 -20.420  11.365  0.00  0.00     0.079 H 
ATOM     13  H2  PCG d   1       4.164 -20.022  13.079  0.00  0.00     0.079 H 
ATOM     14  H3  PCG d   1       4.534 -17.695  12.662  0.00  0.00     0.090 H 
ATOM     15  H4  PCG d   1       5.233 -18.426   9.786  0.00  0.00     0.092 H 
ATOM     16  H5  PCG d   1       6.268 -16.385   9.779  0.00  0.00     0.093 H 
ATOM     17  H7  PCG d   1       6.730 -16.359  12.622  0.00  0.00     0.122 H 
ENDROOT
BRANCH  11  18
ATOM     18  N9  PCG d   1       8.206 -17.426  11.529  0.00  0.00    -0.295 N 
ATOM     19  C8  PCG d   1       9.235 -17.020  12.282  0.00  0.00     0.071 A 
ATOM     20  N7  PCG d   1      10.407 -17.477  11.808  0.00  0.00    -0.234 NA
ATOM     21  H8  PCG d   1       9.135 -16.396  13.169  0.00  0.00     0.144 H 
ATOM     22  C5  PCG d   1      10.154 -18.195  10.729  0.00  0.00     0.171 A 
ATOM     23  C6  PCG d   1      10.956 -18.961   9.739  0.00  0.00     0.292 A 
ATOM     24  C4  PCG d   1       8.694 -18.176  10.526  0.00  0.00     0.161 A 
ATOM     25  O6  PCG d   1      12.185 -19.008   9.860  0.00  0.00    -0.265 OA
ATOM     26  N1  PCG d   1      10.314 -19.592   8.717  0.00  0.00    -0.154 N 
ATOM     27  C2  PCG d   1       8.968 -19.547   8.575  0.00  0.00     0.680 A 
ATOM     28  H9  PCG d   1      10.854 -20.105   8.050  0.00  0.00     0.187 HD
ATOM     29  N3  PCG d   1       8.157 -18.854   9.459  0.00  0.00    -0.174 N 
ATOM     30  H12 PCG d   1       7.137 -18.847   9.314  0.00  0.00     0.186 HD
BRANCH  27  31
ATOM     31  N2  PCG d   1       8.391 -20.194   7.541  0.00  0.00    -0.234 N 
ATOM     32  H10 PCG d   1       7.368 -20.167   7.423  0.00  0.00     0.174 HD
ATOM     33  H11 PCG d   1       8.973 -20.715   6.870  0.00  0.00     0.174 HD
ENDBRANCH  27  31
ENDBRANCH  11  18
BRANCH  10  34
ATOM     34  O2' PCG d   1       5.174 -15.371  11.198  0.00  0.00    -0.388 OA
ATOM     35  H6  PCG d   1       4.505 -15.092  10.584  0.00  0.00     0.210 HD
ENDBRANCH  10  34
TORSDOF 3
