REMARK WARNING: 32 MAX_TORS EXCEEDED!!!
REMARK  41 active torsions:
REMARK  status: ('A' for Active; 'I' for Inactive)
REMARK    1  A    between atoms: C_1  and  CH3_3 
REMARK       I    between atoms: C_1  and  N_4 
REMARK    2  A    between atoms: N_4  and  CA_5 
REMARK    3  A    between atoms: CA_11  and  CB_14 
REMARK    4  A    between atoms: CB_14  and  CG_15 
REMARK    5  A    between atoms: CG_15  and  CD_16 
REMARK    6  A    between atoms: CD_16  and  NE_17 
REMARK       I    between atoms: NE_17  and  CZ_18 
REMARK       I    between atoms: CZ_18  and  NH1_19 
REMARK       I    between atoms: CZ_18  and  NH2_20 
REMARK    7  A    between atoms: CA_22  and  CB_25 
REMARK    8  A    between atoms: CB_25  and  CG1_26 
REMARK    9  A    between atoms: CB_25  and  CG2_27 
REMARK   10  A    between atoms: CA_29  and  CB_32 
REMARK   11  A    between atoms: CB_32  and  CG_33 
REMARK   12  A    between atoms: CA_37  and  CB_40 
REMARK   13  A    between atoms: CB_40  and  CG_41 
REMARK   14  A    between atoms: CG_41  and  CD1_42 
REMARK   15  A    between atoms: CG_41  and  CD2_43 
REMARK   16  A    between atoms: CA_45  and  CB_48 
REMARK   17  A    between atoms: CB_48  and  CG_49 
REMARK   18  A    between atoms: CG_49  and  CD_50 
REMARK       I    between atoms: CD_50  and  NE2_52 
REMARK   19  A    between atoms: CA_58  and  CB_61 
REMARK   20  A    between atoms: CB_61  and  CG_62 
REMARK   21  A    between atoms: CA_72  and  CB_75 
REMARK   22  A    between atoms: CB_75  and  CG_76 
REMARK   23  A    between atoms: CG_76  and  CD_77 
REMARK   24  A    between atoms: CD_77  and  NE_78 
REMARK       I    between atoms: NE_78  and  CZ_79 
REMARK       I    between atoms: CZ_79  and  NH1_80 
REMARK       I    between atoms: CZ_79  and  NH2_81 
REMARK   25  A    between atoms: CA_83  and  CB_86 
REMARK   26  A    between atoms: CB_86  and  CG_87 
REMARK   27  A    between atoms: CG_87  and  CD_88 
REMARK   28  A    between atoms: CD_88  and  NE_89 
REMARK       I    between atoms: NE_89  and  CZ_90 
REMARK       I    between atoms: CZ_90  and  NH1_91 
REMARK       I    between atoms: CZ_90  and  NH2_92 
REMARK   29  A    between atoms: CA_94  and  C_95 
REMARK       I    between atoms: C_95  and  N_99 
REMARK   30  A    between atoms: N_99  and  CA_100 
REMARK   31  A    between atoms: CA_100  and  C_101 
REMARK   32  A    between atoms: CA_100  and  CB_103 
REMARK       I    between atoms: C_101  and  N_110 
REMARK   33  A    between atoms: CB_103  and  CG_104 
REMARK   34  A    between atoms: CG_104  and  CD_105 
REMARK   35  A    between atoms: CD_105  and  NE_106 
REMARK       I    between atoms: NE_106  and  CZ_107 
REMARK       I    between atoms: CZ_107  and  NH1_108 
REMARK       I    between atoms: CZ_107  and  NH2_109 
REMARK   36  A    between atoms: N_110  and  CA_111 
REMARK   37  A    between atoms: CA_111  and  C_112 
REMARK   38  A    between atoms: CA_111  and  CB_114 
REMARK       I    between atoms: C_112  and  N_121 
REMARK   39  A    between atoms: CB_114  and  CG_115 
REMARK   40  A    between atoms: CG_115  and  CD_116 
REMARK   41  A    between atoms: CD_116  and  NE_117 
REMARK       I    between atoms: NE_117  and  CZ_118 
REMARK       I    between atoms: CZ_118  and  NH1_119 
ROOT
ATOM      1  CA  CYS d   1     -10.690  31.922 -27.871  0.00  0.00     0.098 C 
ATOM      2  C   CYS d   1     -10.288  30.485 -27.558  0.00  0.00     0.241 C 
ATOM      3  O   CYS d   1     -10.647  29.917 -26.520  0.00  0.00    -0.271 OA
ATOM      4  CB  CYS d   1      -9.676  32.900 -27.280  0.00  0.00     0.013 C 
ATOM      5  SG  CYS d   1     -10.017  34.630 -27.588  0.00  0.00    -0.095 SA
ATOM      6  N   CYS d   1      -9.366  33.468 -31.971  0.00  0.00    -0.345 N 
ATOM      7  CA  CYS d   1     -10.534  34.034 -31.296  0.00  0.00     0.098 C 
ATOM      8  CB  CYS d   1     -10.162  35.339 -30.595  0.00  0.00     0.013 C 
ATOM      9  SG  CYS d   1      -8.946  35.168 -29.282  0.00  0.00    -0.095 SA
ATOM     10  H5  CYS d   1     -10.679  32.046 -28.964  0.00  0.00     0.088 H 
ATOM     11  H6  CYS d   1      -8.689  32.666 -27.707  0.00  0.00     0.053 H 
ATOM     12  H7  CYS d   1      -9.650  32.747 -26.191  0.00  0.00     0.053 H 
ATOM     13  H92 CYS d   1      -8.946  33.988 -32.715  0.00  0.00     0.163 HD
ATOM     14  H93 CYS d   1     -10.890  33.317 -30.542  0.00  0.00     0.088 H 
ATOM     15  H94 CYS d   1     -11.077  35.767 -30.160  0.00  0.00     0.053 H 
ATOM     16  H95 CYS d   1      -9.757  36.029 -31.349  0.00  0.00     0.053 H 
ATOM     17  N   ARG d   1      -9.535  29.896 -28.481  0.00  0.00    -0.346 N 
ATOM     18  CA  ARG d   1      -9.068  28.516 -28.399  0.00  0.00     0.089 C 
ATOM     19  C   ARG d   1      -7.577  28.481 -28.635  0.00  0.00     0.241 C 
ATOM     20  O   ARG d   1      -7.093  29.124 -29.572  0.00  0.00    -0.271 OA
ATOM     21  N   ARG d   1      -3.232  30.420 -30.968  0.00  0.00    -0.346 N 
ATOM     22  CA  ARG d   1      -4.497  30.895 -30.410  0.00  0.00     0.089 C 
ATOM     23  C   ARG d   1      -5.339  31.564 -31.479  0.00  0.00     0.241 C 
ATOM     24  O   ARG d   1      -4.827  32.333 -32.284  0.00  0.00    -0.271 OA
ATOM     25  N   ARG d   1      -6.637  31.265 -31.492  0.00  0.00    -0.346 N 
ATOM     26  CA  ARG d   1      -7.587  31.898 -32.408  0.00  0.00     0.089 C 
ATOM     27  C   ARG d   1      -8.837  32.294 -31.640  0.00  0.00     0.241 C 
ATOM     28  O   ARG d   1      -9.322  31.558 -30.780  0.00  0.00    -0.271 OA
ATOM     29  H8  ARG d   1      -9.272  30.433 -29.283  0.00  0.00     0.163 HD
ATOM     30  H9  ARG d   1      -9.315  28.095 -27.413  0.00  0.00     0.087 H 
ATOM     31  H66 ARG d   1      -2.589  31.089 -31.341  0.00  0.00     0.163 HD
ATOM     32  H67 ARG d   1      -5.054  30.036 -30.008  0.00  0.00     0.087 H 
ATOM     33  H79 ARG d   1      -6.977  30.579 -30.849  0.00  0.00     0.163 HD
ATOM     34  H80 ARG d   1      -7.123  32.793 -32.848  0.00  0.00     0.087 H 
ATOM     35  N   VAL d   1      -6.869  27.684 -27.836  0.00  0.00    -0.346 N 
ATOM     36  CA  VAL d   1      -5.461  27.395 -28.065  0.00  0.00     0.092 C 
ATOM     37  C   VAL d   1      -5.381  25.948 -28.515  0.00  0.00     0.241 C 
ATOM     38  O   VAL d   1      -5.878  25.048 -27.845  0.00  0.00    -0.271 OA
ATOM     39  H21 VAL d   1      -7.323  27.268 -27.048  0.00  0.00     0.163 HD
ATOM     40  H22 VAL d   1      -5.075  28.053 -28.858  0.00  0.00     0.088 H 
ATOM     41  N   ASP d   1      -4.756  25.717 -29.661  0.00  0.00    -0.345 N 
ATOM     42  CA  ASP d   1      -4.664  24.360 -30.201  0.00  0.00     0.098 C 
ATOM     43  C   ASP d   1      -3.544  23.589 -29.526  0.00  0.00     0.241 C 
ATOM     44  O   ASP d   1      -2.838  24.089 -28.654  0.00  0.00    -0.271 OA
ATOM     45  H30 ASP d   1      -4.343  26.478 -30.162  0.00  0.00     0.163 HD
ATOM     46  H31 ASP d   1      -5.603  23.845 -29.949  0.00  0.00     0.088 H 
ATOM     47  N   LEU d   1      -3.374  22.341 -29.940  0.00  0.00    -0.346 N 
ATOM     48  CA  LEU d   1      -2.360  21.495 -29.342  0.00  0.00     0.089 C 
ATOM     49  C   LEU d   1      -0.941  22.007 -29.506  0.00  0.00     0.241 C 
ATOM     50  O   LEU d   1      -0.059  21.695 -28.710  0.00  0.00    -0.271 OA
ATOM     51  H34 LEU d   1      -3.951  21.980 -30.672  0.00  0.00     0.163 HD
ATOM     52  H35 LEU d   1      -2.573  21.439 -28.264  0.00  0.00     0.087 H 
ATOM     53  N   GLN d   1      -0.709  22.780 -30.569  0.00  0.00    -0.346 N 
ATOM     54  CA  GLN d   1       0.602  23.308 -30.856  0.00  0.00     0.090 C 
ATOM     55  C   GLN d   1       0.853  24.656 -30.214  0.00  0.00     0.240 C 
ATOM     56  O   GLN d   1       1.948  25.173 -30.309  0.00  0.00    -0.271 OA
ATOM     57  H45 GLN d   1      -1.466  22.999 -31.184  0.00  0.00     0.163 HD
ATOM     58  H46 GLN d   1       1.342  22.603 -30.451  0.00  0.00     0.087 H 
ATOM     59  N   GLY d   1      -0.163  25.235 -29.569  0.00  0.00    -0.351 N 
ATOM     60  CA  GLY d   1      -0.010  26.476 -28.824  0.00  0.00     0.069 C 
ATOM     61  C   GLY d   1      -0.441  27.738 -29.550  0.00  0.00     0.236 C 
ATOM     62  O   GLY d   1      -0.272  28.818 -29.014  0.00  0.00    -0.272 OA
ATOM     63  H53 GLY d   1      -1.063  24.800 -29.599  0.00  0.00     0.163 HD
ATOM     64  H54 GLY d   1       1.053  26.584 -28.561  0.00  0.00     0.078 H 
ATOM     65  H55 GLY d   1      -0.608  26.394 -27.905  0.00  0.00     0.078 H 
ATOM     66  N   TRP d   1      -0.994  27.616 -30.757  0.00  0.00    -0.346 N 
ATOM     67  CA  TRP d   1      -1.506  28.788 -31.490  0.00  0.00     0.093 C 
ATOM     68  C   TRP d   1      -2.905  29.128 -30.998  0.00  0.00     0.241 C 
ATOM     69  O   TRP d   1      -3.680  28.222 -30.684  0.00  0.00    -0.271 OA
ATOM     70  H56 TRP d   1      -1.063  26.710 -31.174  0.00  0.00     0.163 HD
ATOM     71  H57 TRP d   1      -0.838  29.643 -31.309  0.00  0.00     0.088 H 
ENDROOT
BRANCH   7  72
ATOM     72  C   CYS d   1     -11.639  34.276 -32.299  0.00  0.00     0.241 C 
ATOM     73  O   CYS d   1     -11.453  34.068 -33.510  0.00  0.00    -0.271 OA
ATOM     74  N   ARG d   1     -12.788  34.735 -31.804  0.00  0.00    -0.346 N 
ATOM     75  H96 ARG d   1     -12.870  34.861 -30.815  0.00  0.00     0.163 HD
BRANCH  74  76
ATOM     76  CA  ARG d   1     -13.934  35.061 -32.655  0.00  0.00     0.089 C 
ATOM     77  H97 ARG d   1     -14.170  34.189 -33.283  0.00  0.00     0.087 H 
BRANCH  76  78
ATOM     78  C   ARG d   1     -13.596  36.247 -33.552  0.00  0.00     0.241 C 
ATOM     79  O   ARG d   1     -12.988  37.220 -33.103  0.00  0.00    -0.271 OA
ATOM     80  N   ARG d   1     -13.998  36.147 -34.822  0.00  0.00    -0.346 N 
ATOM     81 9H10 ARG d   1     -14.475  35.312 -35.096  0.00  0.00     0.163 HD
BRANCH  80  82
ATOM     82  CA  ARG d   1     -13.786  37.179 -35.839  0.00  0.00     0.089 C 
ATOM     83 0H11 ARG d   1     -13.031  37.890 -35.473  0.00  0.00     0.087 H 
BRANCH  82  84
ATOM     84  C   ARG d   1     -15.089  37.940 -36.124  0.00  0.00     0.238 C 
ATOM     85  O   ARG d   1     -16.138  37.631 -35.528  0.00  0.00    -0.271 OA
ATOM     86  N   NH2 d   1     -15.022  38.975 -36.966  0.00  0.00    -0.368 N 
ATOM     87 2H12 NH2 d   1     -15.846  39.499 -37.181  0.00  0.00     0.159 HD
ATOM     88 3H12 NH2 d   1     -14.148  39.225 -37.382  0.00  0.00     0.159 HD
ENDBRANCH  82  84
BRANCH  82  89
ATOM     89  CB  ARG d   1     -13.280  36.530 -37.132  0.00  0.00    -0.036 C 
ATOM     90 1H11 ARG d   1     -13.250  37.303 -37.914  0.00  0.00     0.036 H 
ATOM     91 2H11 ARG d   1     -13.993  35.744 -37.421  0.00  0.00     0.036 H 
BRANCH  89  92
ATOM     92  CG  ARG d   1     -11.899  35.903 -37.035  0.00  0.00    -0.048 C 
ATOM     93 3H11 ARG d   1     -11.927  35.082 -36.303  0.00  0.00     0.035 H 
ATOM     94 4H11 ARG d   1     -11.180  36.666 -36.703  0.00  0.00     0.035 H 
BRANCH  92  95
ATOM     95  CD  ARG d   1     -11.456  35.354 -38.384  0.00  0.00     0.009 C 
ATOM     96 5H11 ARG d   1     -10.426  34.979 -38.294  0.00  0.00     0.064 H 
ATOM     97 6H11 ARG d   1     -11.487  36.166 -39.126  0.00  0.00     0.064 H 
BRANCH  95  98
ATOM     98  NE  ARG d   1     -12.322  34.258 -38.843  0.00  0.00    -0.227 N 
ATOM     99  CZ  ARG d   1     -13.283  34.333 -39.772  0.00  0.00     0.665 C 
ATOM    100  NH1 ARG d   1     -13.560  35.466 -40.421  0.00  0.00    -0.235 N 
ATOM    101  NH2 ARG d   1     -13.981  33.238 -40.068  0.00  0.00    -0.235 N 
ATOM    102 8H11 ARG d   1     -14.307  35.484 -41.130  0.00  0.00     0.174 HD
ATOM    103 9H11 ARG d   1     -13.027  36.322 -40.213  0.00  0.00     0.174 HD
ATOM    104 0H12 ARG d   1     -13.783  32.353 -39.579  0.00  0.00     0.174 HD
ATOM    105 1H12 ARG d   1     -14.719  33.276 -40.786  0.00  0.00     0.174 HD
ATOM    106 7H11 ARG d   1     -12.174  33.338 -38.405  0.00  0.00     0.177 HD
ENDBRANCH  95  98
ENDBRANCH  92  95
ENDBRANCH  89  92
ENDBRANCH  82  89
ENDBRANCH  80  82
ENDBRANCH  76  78
BRANCH  76 107
ATOM    107  CB  ARG d   1     -15.155  35.406 -31.804  0.00  0.00    -0.036 C 
ATOM    108  H98 ARG d   1     -15.972  35.702 -32.478  0.00  0.00     0.036 H 
ATOM    109  H99 ARG d   1     -14.893  36.252 -31.152  0.00  0.00     0.036 H 
BRANCH 107 110
ATOM    110  CG  ARG d   1     -15.649  34.270 -30.930  0.00  0.00    -0.048 C 
ATOM    111 0H10 ARG d   1     -14.806  33.886 -30.336  0.00  0.00     0.035 H 
ATOM    112 1H10 ARG d   1     -16.038  33.468 -31.575  0.00  0.00     0.035 H 
BRANCH 110 113
ATOM    113  CD  ARG d   1     -16.753  34.720 -29.984  0.00  0.00     0.009 C 
ATOM    114 2H10 ARG d   1     -16.512  35.727 -29.612  0.00  0.00     0.064 H 
ATOM    115 3H10 ARG d   1     -16.802  34.019 -29.138  0.00  0.00     0.064 H 
BRANCH 113 116
ATOM    116  NE  ARG d   1     -18.060  34.760 -30.638  0.00  0.00    -0.227 N 
ATOM    117  CZ  ARG d   1     -19.218  35.034 -30.029  0.00  0.00     0.665 C 
ATOM    118  NH1 ARG d   1     -19.268  35.327 -28.729  0.00  0.00    -0.235 N 
ATOM    119  NH2 ARG d   1     -20.347  35.023 -30.736  0.00  0.00    -0.235 N 
ATOM    120 5H10 ARG d   1     -20.173  35.535 -28.282  0.00  0.00     0.174 HD
ATOM    121 6H10 ARG d   1     -18.402  35.346 -28.172  0.00  0.00     0.174 HD
ATOM    122 7H10 ARG d   1     -20.323  34.798 -31.741  0.00  0.00     0.174 HD
ATOM    123 8H10 ARG d   1     -21.244  35.239 -30.278  0.00  0.00     0.174 HD
ATOM    124 4H10 ARG d   1     -18.091  34.561 -31.648  0.00  0.00     0.177 HD
ENDBRANCH 113 116
ENDBRANCH 110 113
ENDBRANCH 107 110
ENDBRANCH  76 107
ENDBRANCH  74  76
ENDBRANCH   7  72
BRANCH  26 125
ATOM    125  CB  ARG d   1      -7.989  30.939 -33.520  0.00  0.00    -0.036 C 
ATOM    126  H81 ARG d   1      -8.851  31.376 -34.045  0.00  0.00     0.036 H 
ATOM    127  H82 ARG d   1      -8.287  29.989 -33.053  0.00  0.00     0.036 H 
BRANCH 125 128
ATOM    128  CG  ARG d   1      -6.915  30.629 -34.564  0.00  0.00    -0.048 C 
ATOM    129  H83 ARG d   1      -5.922  30.682 -34.094  0.00  0.00     0.035 H 
ATOM    130  H84 ARG d   1      -6.974  31.364 -35.380  0.00  0.00     0.035 H 
BRANCH 128 131
ATOM    131  CD  ARG d   1      -7.136  29.232 -35.125  0.00  0.00     0.009 C 
ATOM    132  H85 ARG d   1      -6.322  28.935 -35.802  0.00  0.00     0.064 H 
ATOM    133  H86 ARG d   1      -8.098  29.156 -35.653  0.00  0.00     0.064 H 
BRANCH 131 134
ATOM    134  NE  ARG d   1      -7.132  28.451 -33.923  0.00  0.00    -0.227 N 
ATOM    135  CZ  ARG d   1      -6.103  27.820 -33.383  0.00  0.00     0.665 C 
ATOM    136  NH1 ARG d   1      -4.949  27.611 -34.032  0.00  0.00    -0.235 N 
ATOM    137  NH2 ARG d   1      -6.317  27.303 -32.192  0.00  0.00    -0.235 N 
ATOM    138  H88 ARG d   1      -4.178  27.113 -33.564  0.00  0.00     0.174 HD
ATOM    139  H89 ARG d   1      -4.833  27.948 -34.998  0.00  0.00     0.174 HD
ATOM    140  H90 ARG d   1      -7.210  27.475 -31.709  0.00  0.00     0.174 HD
ATOM    141  H91 ARG d   1      -5.591  26.727 -31.743  0.00  0.00     0.174 HD
ATOM    142  H87 ARG d   1      -8.030  28.373 -33.425  0.00  0.00     0.177 HD
ENDBRANCH 131 134
ENDBRANCH 128 131
ENDBRANCH 125 128
ENDBRANCH  26 125
BRANCH   1 143
ATOM    143  N   CYS d   1     -12.080  32.208 -27.395  0.00  0.00    -0.347 N 
ATOM    144  C   ACE d   1     -13.097  32.080 -28.240  0.00  0.00     0.214 C 
ATOM    145  O   ACE d   1     -12.919  31.843 -29.434  0.00  0.00    -0.274 OA
ATOM    146  H4  CYS d   1     -12.242  32.493 -26.450  0.00  0.00     0.163 HD
BRANCH 144 147
ATOM    147  CH3 ACE d   1     -14.479  32.290 -27.648  0.00  0.00    -0.003 C 
ATOM    148  H1  ACE d   1     -14.390  32.486 -26.569  0.00  0.00     0.040 H 
ATOM    149  H2  ACE d   1     -15.087  31.387 -27.807  0.00  0.00     0.040 H 
ATOM    150  H3  ACE d   1     -14.961  33.148 -28.138  0.00  0.00     0.040 H 
ENDBRANCH 144 147
ENDBRANCH   1 143
BRANCH  22 151
ATOM    151  CB  ARG d   1      -4.210  31.873 -29.281  0.00  0.00    -0.036 C 
ATOM    152  H68 ARG d   1      -3.725  32.760 -29.715  0.00  0.00     0.036 H 
ATOM    153  H69 ARG d   1      -3.520  31.386 -28.576  0.00  0.00     0.036 H 
BRANCH 151 154
ATOM    154  CG  ARG d   1      -5.432  32.339 -28.498  0.00  0.00    -0.048 C 
ATOM    155  H70 ARG d   1      -6.020  31.466 -28.179  0.00  0.00     0.035 H 
ATOM    156  H71 ARG d   1      -6.053  32.986 -29.135  0.00  0.00     0.035 H 
BRANCH 154 157
ATOM    157  CD  ARG d   1      -4.976  33.116 -27.279  0.00  0.00     0.009 C 
ATOM    158  H72 ARG d   1      -4.505  34.049 -27.622  0.00  0.00     0.064 H 
ATOM    159  H73 ARG d   1      -4.235  32.507 -26.741  0.00  0.00     0.064 H 
BRANCH 157 160
ATOM    160  NE  ARG d   1      -6.045  33.462 -26.347  0.00  0.00    -0.227 N 
ATOM    161  CZ  ARG d   1      -6.618  34.654 -26.190  0.00  0.00     0.665 C 
ATOM    162  NH1 ARG d   1      -6.294  35.700 -26.952  0.00  0.00    -0.235 N 
ATOM    163  NH2 ARG d   1      -7.518  34.799 -25.232  0.00  0.00    -0.235 N 
ATOM    164  H75 ARG d   1      -6.757  36.608 -26.804  0.00  0.00     0.174 HD
ATOM    165  H76 ARG d   1      -5.581  35.599 -27.689  0.00  0.00     0.174 HD
ATOM    166  H77 ARG d   1      -7.773  33.996 -24.640  0.00  0.00     0.174 HD
ATOM    167  H78 ARG d   1      -7.964  35.715 -25.078  0.00  0.00     0.174 HD
ATOM    168  H74 ARG d   1      -6.394  32.702 -25.746  0.00  0.00     0.177 HD
ENDBRANCH 157 160
ENDBRANCH 154 157
ENDBRANCH 151 154
ENDBRANCH  22 151
BRANCH  18 169
ATOM    169  CB  ARG d   1      -9.702  27.671 -29.520  0.00  0.00    -0.036 C 
ATOM    170  H10 ARG d   1      -9.469  26.616 -29.312  0.00  0.00     0.036 H 
ATOM    171  H11 ARG d   1      -9.230  27.971 -30.467  0.00  0.00     0.036 H 
BRANCH 169 172
ATOM    172  CG  ARG d   1     -11.196  27.778 -29.703  0.00  0.00    -0.048 C 
ATOM    173  H12 ARG d   1     -11.503  27.179 -30.573  0.00  0.00     0.035 H 
ATOM    174  H13 ARG d   1     -11.472  28.830 -29.867  0.00  0.00     0.035 H 
BRANCH 172 175
ATOM    175  CD  ARG d   1     -11.884  27.266 -28.474  0.00  0.00     0.009 C 
ATOM    176  H14 ARG d   1     -12.947  27.090 -28.695  0.00  0.00     0.064 H 
ATOM    177  H15 ARG d   1     -11.795  28.009 -27.668  0.00  0.00     0.064 H 
BRANCH 175 178
ATOM    178  NE  ARG d   1     -11.263  26.017 -28.054  0.00  0.00    -0.227 N 
ATOM    179  CZ  ARG d   1     -11.199  25.548 -26.813  0.00  0.00     0.665 C 
ATOM    180  NH1 ARG d   1     -10.550  24.411 -26.601  0.00  0.00    -0.235 N 
ATOM    181  NH2 ARG d   1     -11.770  26.186 -25.791  0.00  0.00    -0.235 N 
ATOM    182  H17 ARG d   1     -10.485  24.025 -25.648  0.00  0.00     0.174 HD
ATOM    183  H18 ARG d   1     -10.111  23.914 -27.389  0.00  0.00     0.174 HD
ATOM    184  H19 ARG d   1     -12.275  27.069 -25.953  0.00  0.00     0.174 HD
ATOM    185  H20 ARG d   1     -11.706  25.796 -24.840  0.00  0.00     0.174 HD
ATOM    186  H16 ARG d   1     -10.832  25.442 -28.791  0.00  0.00     0.177 HD
ENDBRANCH 175 178
ENDBRANCH 172 175
ENDBRANCH 169 172
ENDBRANCH  18 169
BRANCH  67 187
ATOM    187  CB  TRP d   1      -1.564  28.506 -32.997  0.00  0.00    -0.012 C 
ATOM    188  H58 TRP d   1      -1.976  29.391 -33.503  0.00  0.00     0.044 H 
ATOM    189  H59 TRP d   1      -2.227  27.645 -33.167  0.00  0.00     0.044 H 
BRANCH 187 190
ATOM    190  CG  TRP d   1      -0.234  28.202 -33.585  0.00  0.00    -0.028 A 
ATOM    191  CD1 TRP d   1       0.285  26.984 -33.849  0.00  0.00    -0.015 A 
ATOM    192  NE1 TRP d   1       1.549  27.100 -34.369  0.00  0.00    -0.365 N 
ATOM    193  H60 TRP d   1      -0.229  26.040 -33.673  0.00  0.00     0.112 H 
ATOM    194  CE2 TRP d   1       1.872  28.420 -34.433  0.00  0.00     0.042 A 
ATOM    195  H61 TRP d   1       2.153  26.319 -34.662  0.00  0.00     0.165 HD
ATOM    196  CD2 TRP d   1       0.765  29.148 -33.943  0.00  0.00    -0.002 A 
ATOM    197  CZ2 TRP d   1       3.039  29.040 -34.879  0.00  0.00    -0.056 A 
ATOM    198  CE3 TRP d   1       0.844  30.547 -33.889  0.00  0.00    -0.070 A 
ATOM    199  CZ3 TRP d   1       2.012  31.162 -34.317  0.00  0.00    -0.082 A 
ATOM    200  H62 TRP d   1       0.011  31.135 -33.521  0.00  0.00     0.084 H 
ATOM    201  CH2 TRP d   1       3.091  30.406 -34.822  0.00  0.00    -0.081 A 
ATOM    202  H64 TRP d   1       2.097  32.241 -34.262  0.00  0.00     0.083 H 
ATOM    203  H65 TRP d   1       3.980  30.918 -35.172  0.00  0.00     0.083 H 
ATOM    204  H63 TRP d   1       3.874  28.461 -35.257  0.00  0.00     0.086 H 
ENDBRANCH 187 190
ENDBRANCH  67 187
BRANCH  36 205
ATOM    205  CB  VAL d   1      -4.618  27.608 -26.788  0.00  0.00    -0.033 C 
ATOM    206  H23 VAL d   1      -5.017  26.963 -25.991  0.00  0.00     0.042 H 
BRANCH 205 207
ATOM    207  CG1 VAL d   1      -3.166  27.222 -27.047  0.00  0.00    -0.071 C 
ATOM    208  H24 VAL d   1      -2.576  27.378 -26.132  0.00  0.00     0.028 H 
ATOM    209  H25 VAL d   1      -2.759  27.847 -27.856  0.00  0.00     0.028 H 
ATOM    210  H26 VAL d   1      -3.115  26.163 -27.340  0.00  0.00     0.028 H 
ENDBRANCH 205 207
BRANCH 205 211
ATOM    211  CG2 VAL d   1      -4.708  29.063 -26.328  0.00  0.00    -0.071 C 
ATOM    212  H27 VAL d   1      -5.761  29.325 -26.146  0.00  0.00     0.028 H 
ATOM    213  H28 VAL d   1      -4.296  29.720 -27.108  0.00  0.00     0.028 H 
ATOM    214  H29 VAL d   1      -4.132  29.190 -25.399  0.00  0.00     0.028 H 
ENDBRANCH 205 211
ENDBRANCH  36 205
BRANCH  42 215
ATOM    215  CB  ASP d   1      -4.563  24.368 -31.741  0.00  0.00     0.043 C 
ATOM    216  H32 ASP d   1      -5.411  24.945 -32.140  0.00  0.00     0.052 H 
ATOM    217  H33 ASP d   1      -4.626  23.329 -32.097  0.00  0.00     0.052 H 
BRANCH 215 218
ATOM    218  CG  ASP d   1      -3.275  24.979 -32.276  0.00  0.00     0.175 C 
ATOM    219  OD1 ASP d   1      -2.260  25.072 -31.573  0.00  0.00    -0.648 OA
ATOM    220  OD2 ASP d   1      -3.262  25.354 -33.491  0.00  0.00    -0.648 OA
ENDBRANCH 215 218
ENDBRANCH  42 215
BRANCH  54 221
ATOM    221  CB  GLN d   1       0.807  23.401 -32.371  0.00  0.00    -0.030 C 
ATOM    222  H47 GLN d   1       1.819  23.788 -32.560  0.00  0.00     0.037 H 
ATOM    223  H48 GLN d   1       0.064  24.103 -32.778  0.00  0.00     0.037 H 
BRANCH 221 224
ATOM    224  CG  GLN d   1       0.659  22.068 -33.101  0.00  0.00     0.011 C 
ATOM    225  H49 GLN d   1       0.952  22.208 -34.152  0.00  0.00     0.047 H 
ATOM    226  H50 GLN d   1      -0.395  21.756 -33.053  0.00  0.00     0.047 H 
BRANCH 224 227
ATOM    227  CD  GLN d   1       1.512  20.978 -32.504  0.00  0.00     0.215 C 
ATOM    228  OE1 GLN d   1       2.659  21.217 -32.106  0.00  0.00    -0.274 OA
ATOM    229  NE2 GLN d   1       0.953  19.781 -32.406  0.00  0.00    -0.370 N 
ATOM    230  H51 GLN d   1       1.470  19.018 -32.018  0.00  0.00     0.159 HD
ATOM    231  H52 GLN d   1       0.014  19.640 -32.720  0.00  0.00     0.159 HD
ENDBRANCH 224 227
ENDBRANCH 221 224
ENDBRANCH  54 221
BRANCH  48 232
ATOM    232  CB  LEU d   1      -2.437  20.090 -29.925  0.00  0.00    -0.035 C 
ATOM    233  H36 LEU d   1      -1.422  19.825 -30.255  0.00  0.00     0.037 H 
ATOM    234  H37 LEU d   1      -3.104  20.142 -30.798  0.00  0.00     0.037 H 
BRANCH 232 235
ATOM    235  CG  LEU d   1      -2.925  18.961 -29.072  0.00  0.00    -0.059 C 
ATOM    236  H38 LEU d   1      -4.005  19.081 -28.904  0.00  0.00     0.038 H 
BRANCH 235 237
ATOM    237  CD1 LEU d   1      -2.672  17.653 -29.789  0.00  0.00    -0.073 C 
ATOM    238  H39 LEU d   1      -3.029  16.819 -29.167  0.00  0.00     0.028 H 
ATOM    239  H40 LEU d   1      -1.594  17.538 -29.973  0.00  0.00     0.028 H 
ATOM    240  H41 LEU d   1      -3.210  17.651 -30.748  0.00  0.00     0.028 H 
ENDBRANCH 235 237
BRANCH 235 241
ATOM    241  CD2 LEU d   1      -2.219  18.943 -27.734  0.00  0.00    -0.073 C 
ATOM    242  H42 LEU d   1      -2.401  19.893 -27.210  0.00  0.00     0.028 H 
ATOM    243  H43 LEU d   1      -1.138  18.813 -27.891  0.00  0.00     0.028 H 
ATOM    244  H44 LEU d   1      -2.604  18.110 -27.127  0.00  0.00     0.028 H 
ENDBRANCH 235 241
ENDBRANCH 232 235
ENDBRANCH  48 232
TORSDOF 41
