REMARK WARNING: 32 MAX_TORS EXCEEDED!!!
REMARK  43 active torsions:
REMARK  status: ('A' for Active; 'I' for Inactive)
REMARK    1  A    between atoms: C_1  and  CH3_3 
REMARK       I    between atoms: C_1  and  N_4 
REMARK    2  A    between atoms: N_4  and  CA_5 
REMARK    3  A    between atoms: CA_11  and  CB_14 
REMARK    4  A    between atoms: CB_14  and  CG_15 
REMARK    5  A    between atoms: CG_15  and  CD_16 
REMARK    6  A    between atoms: CD_16  and  NE_17 
REMARK       I    between atoms: NE_17  and  CZ_18 
REMARK       I    between atoms: CZ_18  and  NH1_19 
REMARK       I    between atoms: CZ_18  and  NH2_20 
REMARK    7  A    between atoms: CA_22  and  CB_25 
REMARK    8  A    between atoms: CA_27  and  CB_30 
REMARK    9  A    between atoms: CB_30  and  CG_31 
REMARK   10  A    between atoms: CA_41  and  CB_44 
REMARK   11  A    between atoms: CB_44  and  CG_45 
REMARK   12  A    between atoms: CZ_50  and  OH_51 
REMARK   13  A    between atoms: CA_53  and  CB_56 
REMARK   14  A    between atoms: CB_56  and  CG_57 
REMARK   15  A    between atoms: CG_57  and  CD_58 
REMARK       I    between atoms: CD_58  and  NE2_60 
REMARK   16  A    between atoms: CA_62  and  CB_65 
REMARK   17  A    between atoms: CB_65  and  CG_66 
REMARK       I    between atoms: CG_66  and  ND2_68 
REMARK   18  A    between atoms: CA_70  and  CB_73 
REMARK   19  A    between atoms: CB_73  and  CG_74 
REMARK   20  A    between atoms: CZ_79  and  OH_80 
REMARK   21  A    between atoms: CA_82  and  C_83 
REMARK       I    between atoms: C_83  and  N_87 
REMARK   22  A    between atoms: N_87  and  CA_88 
REMARK   23  A    between atoms: CA_88  and  C_89 
REMARK   24  A    between atoms: CA_88  and  CB_91 
REMARK       I    between atoms: C_89  and  N_92 
REMARK   25  A    between atoms: N_92  and  CA_93 
REMARK   26  A    between atoms: CA_93  and  C_94 
REMARK   27  A    between atoms: CA_93  and  CB_96 
REMARK       I    between atoms: C_94  and  N_100 
REMARK   28  A    between atoms: CB_96  and  CG_97 
REMARK   29  A    between atoms: CG_97  and  CD1_98 
REMARK   30  A    between atoms: CG_97  and  CD2_99 
REMARK   31  A    between atoms: N_100  and  CA_101 
REMARK   32  A    between atoms: CA_101  and  C_102 
REMARK   33  A    between atoms: CA_101  and  CB_104 
REMARK       I    between atoms: C_102  and  N_111 
REMARK   34  A    between atoms: CB_104  and  CG_105 
REMARK   35  A    between atoms: CG_105  and  CD_106 
REMARK   36  A    between atoms: CD_106  and  NE_107 
REMARK       I    between atoms: NE_107  and  CZ_108 
REMARK       I    between atoms: CZ_108  and  NH1_109 
REMARK       I    between atoms: CZ_108  and  NH2_110 
REMARK   37  A    between atoms: N_111  and  CA_112 
REMARK   38  A    between atoms: CA_112  and  C_113 
REMARK   39  A    between atoms: CA_112  and  CB_115 
REMARK       I    between atoms: C_113  and  N_122 
REMARK   40  A    between atoms: CB_115  and  CG_116 
REMARK   41  A    between atoms: CG_116  and  CD_117 
REMARK   42  A    between atoms: CD_117  and  NE_118 
REMARK       I    between atoms: NE_118  and  CZ_119 
REMARK       I    between atoms: CZ_119  and  NH1_120 
REMARK   43  A    between atoms: CZ_119  and  NH2_121 
ROOT
ATOM      1  CA  CYS d   1      37.045   0.212  10.658  0.00  0.00     0.098 C 
ATOM      2  C   CYS d   1      37.211   0.742  12.079  0.00  0.00     0.241 C 
ATOM      3  O   CYS d   1      38.337   0.849  12.591  0.00  0.00    -0.271 OA
ATOM      4  CB  CYS d   1      37.331  -1.280  10.653  0.00  0.00     0.013 C 
ATOM      5  SG  CYS d   1      36.126  -2.183  11.625  0.00  0.00    -0.095 SA
ATOM      6  N   CYS d   1      34.343  -6.242  10.125  0.00  0.00    -0.345 N 
ATOM      7  CA  CYS d   1      34.170  -4.879  10.606  0.00  0.00     0.098 C 
ATOM      8  CB  CYS d   1      34.608  -3.865   9.573  0.00  0.00     0.013 C 
ATOM      9  SG  CYS d   1      34.504  -2.186  10.257  0.00  0.00    -0.095 SA
ATOM     10  H5  CYS d   1      36.010   0.386  10.329  0.00  0.00     0.088 H 
ATOM     11  H6  CYS d   1      38.332  -1.454  11.074  0.00  0.00     0.053 H 
ATOM     12  H7  CYS d   1      37.301  -1.646   9.616  0.00  0.00     0.053 H 
ATOM     13  H68 CYS d   1      34.383  -6.417   9.141  0.00  0.00     0.163 HD
ATOM     14  H69 CYS d   1      34.777  -4.747  11.514  0.00  0.00     0.088 H 
ATOM     15  H70 CYS d   1      33.954  -3.939   8.691  0.00  0.00     0.053 H 
ATOM     16  H71 CYS d   1      35.647  -4.073   9.278  0.00  0.00     0.053 H 
ATOM     17  N   ARG d   1      36.082   1.047  12.718  0.00  0.00    -0.346 N 
ATOM     18  CA  ARG d   1      36.061   1.606  14.061  0.00  0.00     0.089 C 
ATOM     19  C   ARG d   1      35.825   0.578  15.146  0.00  0.00     0.241 C 
ATOM     20  O   ARG d   1      36.054   0.864  16.303  0.00  0.00    -0.271 OA
ATOM     21  H8  ARG d   1      35.211   0.884  12.254  0.00  0.00     0.163 HD
ATOM     22  H9  ARG d   1      37.045   2.061  14.248  0.00  0.00     0.087 H 
ATOM     23  N   ALA d   1      35.341  -0.608  14.783  0.00  0.00    -0.346 N 
ATOM     24  CA  ALA d   1      35.090  -1.675  15.756  0.00  0.00     0.086 C 
ATOM     25  C   ALA d   1      35.013  -2.992  14.989  0.00  0.00     0.240 C 
ATOM     26  O   ALA d   1      34.183  -3.156  14.099  0.00  0.00    -0.271 OA
ATOM     27  H21 ALA d   1      35.143  -0.776  13.817  0.00  0.00     0.163 HD
ATOM     28  H22 ALA d   1      35.929  -1.720  16.466  0.00  0.00     0.086 H 
ATOM     29  N   TRP d   1      35.915  -3.916  15.316  0.00  0.00    -0.346 N 
ATOM     30  CA  TRP d   1      35.939  -5.280  14.757  0.00  0.00     0.093 C 
ATOM     31  C   TRP d   1      35.168  -6.229  15.670  0.00  0.00     0.241 C 
ATOM     32  O   TRP d   1      35.180  -6.064  16.900  0.00  0.00    -0.271 OA
ATOM     33  H26 TRP d   1      36.619  -3.669  15.982  0.00  0.00     0.163 HD
ATOM     34  H27 TRP d   1      35.453  -5.267  13.770  0.00  0.00     0.088 H 
ATOM     35  N   TYR d   1      34.492  -7.210  15.069  0.00  0.00    -0.346 N 
ATOM     36  CA  TYR d   1      33.819  -8.263  15.822  0.00  0.00     0.093 C 
ATOM     37  C   TYR d   1      34.079  -9.549  15.084  0.00  0.00     0.241 C 
ATOM     38  O   TYR d   1      33.822  -9.636  13.903  0.00  0.00    -0.271 OA
ATOM     39  N   TYR d   1      35.088  -9.625  11.148  0.00  0.00    -0.346 N 
ATOM     40  CA  TYR d   1      34.553  -8.604  10.280  0.00  0.00     0.093 C 
ATOM     41  C   TYR d   1      34.448  -7.252  10.973  0.00  0.00     0.241 C 
ATOM     42  O   TYR d   1      34.465  -7.113  12.205  0.00  0.00    -0.271 OA
ATOM     43  H36 TYR d   1      34.445  -7.224  14.070  0.00  0.00     0.163 HD
ATOM     44  H37 TYR d   1      34.241  -8.322  16.836  0.00  0.00     0.088 H 
ATOM     45  H59 TYR d   1      34.879  -9.615  12.126  0.00  0.00     0.163 HD
ATOM     46  H60 TYR d   1      35.258  -8.486   9.444  0.00  0.00     0.088 H 
ATOM     47  N   GLN d   1      34.603 -10.542  15.808  0.00  0.00    -0.346 N 
ATOM     48  CA  GLN d   1      35.088 -11.772  15.202  0.00  0.00     0.090 C 
ATOM     49  C   GLN d   1      35.947 -11.463  13.973  0.00  0.00     0.241 C 
ATOM     50  O   GLN d   1      36.965 -10.808  14.135  0.00  0.00    -0.271 OA
ATOM     51  H45 GLN d   1      34.664 -10.436  16.800  0.00  0.00     0.163 HD
ATOM     52  H46 GLN d   1      35.740 -12.279  15.928  0.00  0.00     0.087 H 
ATOM     53  N   ASN d   1      35.545 -11.871  12.773  0.00  0.00    -0.346 N 
ATOM     54  CA  ASN d   1      36.381 -11.665  11.589  0.00  0.00     0.097 C 
ATOM     55  C   ASN d   1      35.865 -10.584  10.635  0.00  0.00     0.241 C 
ATOM     56  O   ASN d   1      36.174 -10.620   9.433  0.00  0.00    -0.271 OA
ATOM     57  H53 ASN d   1      34.659 -12.325  12.678  0.00  0.00     0.163 HD
ATOM     58  H54 ASN d   1      37.370 -11.337  11.942  0.00  0.00     0.088 H 
ENDROOT
BRANCH   7  59
ATOM     59  C   CYS d   1      32.710  -4.634  10.940  0.00  0.00     0.241 C 
ATOM     60  O   CYS d   1      31.838  -4.636  10.060  0.00  0.00    -0.271 OA
ATOM     61  N   ALA d   1      32.455  -4.418  12.216  0.00  0.00    -0.346 N 
ATOM     62  H72 ALA d   1      33.215  -4.426  12.865  0.00  0.00     0.163 HD
BRANCH  61  63
ATOM     63  CA  ALA d   1      31.101  -4.167  12.721  0.00  0.00     0.086 C 
ATOM     64  H73 ALA d   1      30.398  -4.695  12.060  0.00  0.00     0.086 H 
BRANCH  63  65
ATOM     65  C   ALA d   1      30.706  -2.690  12.714  0.00  0.00     0.240 C 
ATOM     66  O   ALA d   1      29.560  -2.363  12.998  0.00  0.00    -0.271 OA
ATOM     67  N   LEU d   1      31.647  -1.797  12.408  0.00  0.00    -0.346 N 
ATOM     68  H77 LEU d   1      32.560  -2.125  12.166  0.00  0.00     0.163 HD
BRANCH  67  69
ATOM     69  CA  LEU d   1      31.397  -0.358  12.412  0.00  0.00     0.089 C 
ATOM     70  H78 LEU d   1      30.368  -0.165  12.074  0.00  0.00     0.087 H 
BRANCH  69  71
ATOM     71  C   LEU d   1      32.362   0.299  11.454  0.00  0.00     0.241 C 
ATOM     72  O   LEU d   1      33.479   0.686  11.842  0.00  0.00    -0.271 OA
ATOM     73  N   ARG d   1      31.941   0.421  10.201  0.00  0.00    -0.346 N 
ATOM     74  H88 ARG d   1      31.022   0.110   9.957  0.00  0.00     0.163 HD
BRANCH  73  75
ATOM     75  CA  ARG d   1      32.805   1.007   9.166  0.00  0.00     0.089 C 
ATOM     76  H89 ARG d   1      33.790   0.521   9.227  0.00  0.00     0.087 H 
BRANCH  75  77
ATOM     77  C   ARG d   1      32.972   2.508   9.363  0.00  0.00     0.241 C 
ATOM     78  O   ARG d   1      32.130   3.160   9.983  0.00  0.00    -0.271 OA
ATOM     79  N   ARG d   1      34.044   3.055   8.801  0.00  0.00    -0.346 N 
ATOM     80 1H10 ARG d   1      34.764   2.463   8.439  0.00  0.00     0.163 HD
BRANCH  79  81
ATOM     81  CA  ARG d   1      34.193   4.510   8.701  0.00  0.00     0.089 C 
ATOM     82 2H10 ARG d   1      34.305   4.927   9.713  0.00  0.00     0.087 H 
BRANCH  81  83
ATOM     83  C   ARG d   1      32.967   5.136   8.035  0.00  0.00     0.238 C 
ATOM     84  O   ARG d   1      32.544   4.627   6.996  0.00  0.00    -0.271 OA
ATOM     85  N   NH2 d   1      32.442   6.248   8.556  0.00  0.00    -0.368 N 
ATOM     86 4H11 NH2 d   1      31.640   6.669   8.132  0.00  0.00     0.159 HD
ATOM     87 5H11 NH2 d   1      32.851   6.660   9.371  0.00  0.00     0.159 HD
ENDBRANCH  81  83
BRANCH  81  88
ATOM     88  CB  ARG d   1      35.425   4.849   7.881  0.00  0.00    -0.036 C 
ATOM     89 3H10 ARG d   1      35.309   4.397   6.885  0.00  0.00     0.036 H 
ATOM     90 4H10 ARG d   1      36.301   4.412   8.382  0.00  0.00     0.036 H 
BRANCH  88  91
ATOM     91  CG  ARG d   1      35.678   6.348   7.698  0.00  0.00    -0.048 C 
ATOM     92 5H10 ARG d   1      35.882   6.803   8.679  0.00  0.00     0.035 H 
ATOM     93 6H10 ARG d   1      34.785   6.814   7.256  0.00  0.00     0.035 H 
BRANCH  91  94
ATOM     94  CD  ARG d   1      36.864   6.580   6.785  0.00  0.00     0.009 C 
ATOM     95 7H10 ARG d   1      36.811   7.605   6.391  0.00  0.00     0.064 H 
ATOM     96 8H10 ARG d   1      36.814   5.864   5.952  0.00  0.00     0.064 H 
BRANCH  94  97
ATOM     97  NE  ARG d   1      38.141   6.408   7.477  0.00  0.00    -0.227 N 
ATOM     98  CZ  ARG d   1      39.281   6.007   6.907  0.00  0.00     0.665 C 
ATOM     99  NH1 ARG d   1      40.380   5.898   7.650  0.00  0.00    -0.235 N 
ATOM    100 0H11 ARG d   1      41.264   5.590   7.220  0.00  0.00     0.174 HD
ATOM    101 1H11 ARG d   1      40.347   6.122   8.655  0.00  0.00     0.174 HD
ATOM    102 9H10 ARG d   1      38.163   6.613   8.486  0.00  0.00     0.177 HD
BRANCH  98 103
ATOM    103  NH2 ARG d   1      39.339   5.696   5.608  0.00  0.00    -0.235 N 
ATOM    104 2H11 ARG d   1      38.496   5.776   5.021  0.00  0.00     0.174 HD
ATOM    105 3H11 ARG d   1      40.227   5.377   5.194  0.00  0.00     0.174 HD
ENDBRANCH  98 103
ENDBRANCH  94  97
ENDBRANCH  91  94
ENDBRANCH  88  91
ENDBRANCH  81  88
ENDBRANCH  79  81
ENDBRANCH  75  77
BRANCH  75 106
ATOM    106  CB  ARG d   1      32.236   0.811   7.759  0.00  0.00    -0.036 C 
ATOM    107  H90 ARG d   1      32.924   1.295   7.051  0.00  0.00     0.036 H 
ATOM    108  H91 ARG d   1      31.258   1.314   7.722  0.00  0.00     0.036 H 
BRANCH 106 109
ATOM    109  CG  ARG d   1      32.036  -0.611   7.302  0.00  0.00    -0.048 C 
ATOM    110  H92 ARG d   1      31.558  -1.189   8.107  0.00  0.00     0.035 H 
ATOM    111  H93 ARG d   1      33.012  -1.057   7.059  0.00  0.00     0.035 H 
BRANCH 109 112
ATOM    112  CD  ARG d   1      31.143  -0.636   6.060  0.00  0.00     0.009 C 
ATOM    113  H94 ARG d   1      31.145  -1.651   5.636  0.00  0.00     0.064 H 
ATOM    114  H95 ARG d   1      31.539   0.072   5.318  0.00  0.00     0.064 H 
BRANCH 112 115
ATOM    115  NE  ARG d   1      29.770  -0.260   6.395  0.00  0.00    -0.227 N 
ATOM    116  CZ  ARG d   1      28.878   0.281   5.561  0.00  0.00     0.665 C 
ATOM    117  NH1 ARG d   1      27.664   0.572   6.029  0.00  0.00    -0.235 N 
ATOM    118  NH2 ARG d   1      29.175   0.530   4.286  0.00  0.00    -0.235 N 
ATOM    119  H97 ARG d   1      26.958   0.990   5.406  0.00  0.00     0.174 HD
ATOM    120  H98 ARG d   1      27.432   0.379   7.014  0.00  0.00     0.174 HD
ATOM    121  H99 ARG d   1      30.112   0.306   3.922  0.00  0.00     0.174 HD
ATOM    122 0H10 ARG d   1      28.467   0.947   3.664  0.00  0.00     0.174 HD
ATOM    123  H96 ARG d   1      29.462  -0.428   7.364  0.00  0.00     0.177 HD
ENDBRANCH 112 115
ENDBRANCH 109 112
ENDBRANCH 106 109
ENDBRANCH  75 106
ENDBRANCH  73  75
ENDBRANCH  69  71
BRANCH  69 124
ATOM    124  CB  LEU d   1      31.561   0.190  13.833  0.00  0.00    -0.035 C 
ATOM    125  H79 LEU d   1      32.603   0.018  14.140  0.00  0.00     0.037 H 
ATOM    126  H80 LEU d   1      30.887  -0.378  14.491  0.00  0.00     0.037 H 
BRANCH 124 127
ATOM    127  CG  LEU d   1      31.257   1.681  14.030  0.00  0.00    -0.059 C 
ATOM    128  H81 LEU d   1      31.923   2.254  13.368  0.00  0.00     0.038 H 
BRANCH 127 129
ATOM    129  CD1 LEU d   1      29.812   2.025  13.671  0.00  0.00    -0.073 C 
ATOM    130  H82 LEU d   1      29.641   3.100  13.827  0.00  0.00     0.028 H 
ATOM    131  H83 LEU d   1      29.128   1.448  14.311  0.00  0.00     0.028 H 
ATOM    132  H84 LEU d   1      29.627   1.774  12.616  0.00  0.00     0.028 H 
ENDBRANCH 127 129
BRANCH 127 133
ATOM    133  CD2 LEU d   1      31.523   2.096  15.459  0.00  0.00    -0.073 C 
ATOM    134  H85 LEU d   1      32.562   1.851  15.725  0.00  0.00     0.028 H 
ATOM    135  H86 LEU d   1      30.837   1.559  16.131  0.00  0.00     0.028 H 
ATOM    136  H87 LEU d   1      31.364   3.179  15.562  0.00  0.00     0.028 H 
ENDBRANCH 127 133
ENDBRANCH 124 127
ENDBRANCH  69 124
ENDBRANCH  67  69
ENDBRANCH  63  65
BRANCH  63 137
ATOM    137  CB  ALA d   1      30.973  -4.753  14.104  0.00  0.00    -0.049 C 
ATOM    138  H74 ALA d   1      29.959  -4.568  14.488  0.00  0.00     0.030 H 
ATOM    139  H75 ALA d   1      31.710  -4.282  14.771  0.00  0.00     0.030 H 
ATOM    140  H76 ALA d   1      31.157  -5.837  14.062  0.00  0.00     0.030 H 
ENDBRANCH  63 137
ENDBRANCH  61  63
ENDBRANCH   7  59
BRANCH  40 141
ATOM    141  CB  TYR d   1      33.205  -9.034   9.687  0.00  0.00    -0.014 C 
ATOM    142  H61 TYR d   1      33.322 -10.043   9.266  0.00  0.00     0.043 H 
ATOM    143  H62 TYR d   1      32.943  -8.329   8.884  0.00  0.00     0.043 H 
BRANCH 141 144
ATOM    144  CG  TYR d   1      32.066  -9.066  10.674  0.00  0.00    -0.056 A 
ATOM    145  CD1 TYR d   1      31.776 -10.204  11.416  0.00  0.00    -0.074 A 
ATOM    146  CE1 TYR d   1      30.725 -10.223  12.317  0.00  0.00    -0.051 A 
ATOM    147  H63 TYR d   1      32.383 -11.093  11.287  0.00  0.00     0.084 H 
ATOM    148  CZ  TYR d   1      29.950  -9.085  12.468  0.00  0.00     0.065 A 
ATOM    149  H65 TYR d   1      30.512 -11.115  12.895  0.00  0.00     0.087 H 
ATOM    150  CE2 TYR d   1      30.226  -7.943  11.750  0.00  0.00    -0.051 A 
ATOM    151  CD2 TYR d   1      31.278  -7.945  10.854  0.00  0.00    -0.074 A 
ATOM    152  H66 TYR d   1      29.624  -7.052  11.886  0.00  0.00     0.087 H 
ATOM    153  H64 TYR d   1      31.489  -7.050  10.281  0.00  0.00     0.084 H 
BRANCH 148 154
ATOM    154  OH  TYR d   1      28.896  -9.064  13.333  0.00  0.00    -0.361 OA
ATOM    155  H67 TYR d   1      28.820  -9.910  13.758  0.00  0.00     0.217 HD
ENDBRANCH 148 154
ENDBRANCH 141 144
ENDBRANCH  40 141
BRANCH   1 156
ATOM    156  N   CYS d   1      37.972   0.898   9.719  0.00  0.00    -0.347 N 
ATOM    157  C   ACE d   1      38.021   2.217   9.624  0.00  0.00     0.214 C 
ATOM    158  O   ACE d   1      37.311   2.926  10.308  0.00  0.00    -0.274 OA
ATOM    159  H4  CYS d   1      38.576   0.347   9.143  0.00  0.00     0.163 HD
BRANCH 157 160
ATOM    160  CH3 ACE d   1      38.973   2.835   8.623  0.00  0.00    -0.003 C 
ATOM    161  H1  ACE d   1      39.526   2.039   8.103  0.00  0.00     0.040 H 
ATOM    162  H2  ACE d   1      39.682   3.491   9.148  0.00  0.00     0.040 H 
ATOM    163  H3  ACE d   1      38.403   3.424   7.890  0.00  0.00     0.040 H 
ENDBRANCH 157 160
ENDBRANCH   1 156
BRANCH  54 164
ATOM    164  CB  ASN d   1      36.562 -12.997  10.850  0.00  0.00     0.036 C 
ATOM    165  H55 ASN d   1      36.943 -13.744  11.562  0.00  0.00     0.051 H 
ATOM    166  H56 ASN d   1      37.295 -12.853  10.042  0.00  0.00     0.051 H 
BRANCH 164 167
ATOM    167  CG  ASN d   1      35.269 -13.520  10.244  0.00  0.00     0.217 C 
ATOM    168  OD1 ASN d   1      34.171 -13.179  10.689  0.00  0.00    -0.274 OA
ATOM    169  ND2 ASN d   1      35.395 -14.362   9.225  0.00  0.00    -0.370 N 
ATOM    170  H57 ASN d   1      34.580 -14.740   8.785  0.00  0.00     0.159 HD
ATOM    171  H58 ASN d   1      36.304 -14.618   8.898  0.00  0.00     0.159 HD
ENDBRANCH 164 167
ENDBRANCH  54 164
BRANCH  18 172
ATOM    172  CB  ARG d   1      35.006   2.705  14.129  0.00  0.00    -0.036 C 
ATOM    173  H10 ARG d   1      34.950   3.078  15.162  0.00  0.00     0.036 H 
ATOM    174  H11 ARG d   1      34.033   2.280  13.840  0.00  0.00     0.036 H 
BRANCH 172 175
ATOM    175  CG  ARG d   1      35.325   3.871  13.204  0.00  0.00    -0.048 C 
ATOM    176  H12 ARG d   1      36.027   3.531  12.428  0.00  0.00     0.035 H 
ATOM    177  H13 ARG d   1      35.789   4.677  13.791  0.00  0.00     0.035 H 
BRANCH 175 178
ATOM    178  CD  ARG d   1      34.083   4.401  12.542  0.00  0.00     0.009 C 
ATOM    179  H14 ARG d   1      33.556   3.570  12.051  0.00  0.00     0.064 H 
ATOM    180  H15 ARG d   1      34.370   5.149  11.788  0.00  0.00     0.064 H 
BRANCH 178 181
ATOM    181  NE  ARG d   1      33.194   5.020  13.507  0.00  0.00    -0.227 N 
ATOM    182  CZ  ARG d   1      31.904   5.283  13.307  0.00  0.00     0.665 C 
ATOM    183  NH1 ARG d   1      31.239   5.880  14.267  0.00  0.00    -0.235 N 
ATOM    184  NH2 ARG d   1      31.266   4.954  12.193  0.00  0.00    -0.235 N 
ATOM    185  H17 ARG d   1      30.240   6.097  14.143  0.00  0.00     0.174 HD
ATOM    186  H18 ARG d   1      31.716   6.132  15.145  0.00  0.00     0.174 HD
ATOM    187  H19 ARG d   1      31.773   4.485  11.429  0.00  0.00     0.174 HD
ATOM    188  H20 ARG d   1      30.264   5.168  12.091  0.00  0.00     0.174 HD
ATOM    189  H16 ARG d   1      33.593   5.277  14.421  0.00  0.00     0.177 HD
ENDBRANCH 178 181
ENDBRANCH 175 178
ENDBRANCH 172 175
ENDBRANCH  18 172
BRANCH  48 190
ATOM    190  CB  GLN d   1      33.910 -12.680  14.948  0.00  0.00    -0.030 C 
ATOM    191  H47 GLN d   1      34.234 -13.530  14.330  0.00  0.00     0.037 H 
ATOM    192  H48 GLN d   1      33.127 -12.118  14.418  0.00  0.00     0.037 H 
BRANCH 190 193
ATOM    193  CG  GLN d   1      33.354 -13.198  16.258  0.00  0.00     0.011 C 
ATOM    194  H49 GLN d   1      32.560 -12.519  16.602  0.00  0.00     0.047 H 
ATOM    195  H50 GLN d   1      34.162 -13.225  17.004  0.00  0.00     0.047 H 
BRANCH 193 196
ATOM    196  CD  GLN d   1      32.785 -14.576  16.107  0.00  0.00     0.215 C 
ATOM    197  OE1 GLN d   1      33.501 -15.574  16.265  0.00  0.00    -0.274 OA
ATOM    198  NE2 GLN d   1      31.513 -14.652  15.745  0.00  0.00    -0.370 N 
ATOM    199  H51 GLN d   1      31.079 -15.545  15.629  0.00  0.00     0.159 HD
ATOM    200  H52 GLN d   1      30.987 -13.816  15.588  0.00  0.00     0.159 HD
ENDBRANCH 193 196
ENDBRANCH 190 193
ENDBRANCH  48 190
BRANCH  24 201
ATOM    201  CB  ALA d   1      33.808  -1.413  16.540  0.00  0.00    -0.049 C 
ATOM    202  H23 ALA d   1      33.646  -2.228  17.261  0.00  0.00     0.030 H 
ATOM    203  H24 ALA d   1      32.957  -1.363  15.845  0.00  0.00     0.030 H 
ATOM    204  H25 ALA d   1      33.897  -0.459  17.080  0.00  0.00     0.030 H 
ENDBRANCH  24 201
BRANCH  36 205
ATOM    205  CB  TYR d   1      32.319  -8.000  15.924  0.00  0.00    -0.014 C 
ATOM    206  H38 TYR d   1      31.888  -7.995  14.912  0.00  0.00     0.043 H 
ATOM    207  H39 TYR d   1      32.160  -7.019  16.395  0.00  0.00     0.043 H 
BRANCH 205 208
ATOM    208  CG  TYR d   1      31.624  -9.055  16.746  0.00  0.00    -0.056 A 
ATOM    209  CD1 TYR d   1      31.691  -9.054  18.139  0.00  0.00    -0.074 A 
ATOM    210  CE1 TYR d   1      31.056 -10.046  18.882  0.00  0.00    -0.051 A 
ATOM    211  H40 TYR d   1      32.243  -8.273  18.649  0.00  0.00     0.084 H 
ATOM    212  CZ  TYR d   1      30.380 -11.058  18.241  0.00  0.00     0.065 A 
ATOM    213  H42 TYR d   1      31.094 -10.021  19.965  0.00  0.00     0.087 H 
ATOM    214  CE2 TYR d   1      30.331 -11.094  16.867  0.00  0.00    -0.051 A 
ATOM    215  CD2 TYR d   1      30.943 -10.105  16.132  0.00  0.00    -0.074 A 
ATOM    216  H43 TYR d   1      29.811 -11.901  16.364  0.00  0.00     0.087 H 
ATOM    217  H41 TYR d   1      30.895 -10.143  15.050  0.00  0.00     0.084 H 
BRANCH 212 218
ATOM    218  OH  TYR d   1      29.774 -12.052  18.969  0.00  0.00    -0.361 OA
ATOM    219  H44 TYR d   1      30.162 -12.889  18.744  0.00  0.00     0.217 HD
ENDBRANCH 212 218
ENDBRANCH 205 208
ENDBRANCH  36 205
BRANCH  30 220
ATOM    220  CB  TRP d   1      37.395  -5.761  14.584  0.00  0.00    -0.012 C 
ATOM    221  H28 TRP d   1      37.391  -6.849  14.420  0.00  0.00     0.044 H 
ATOM    222  H29 TRP d   1      37.955  -5.531  15.503  0.00  0.00     0.044 H 
BRANCH 220 223
ATOM    223  CG  TRP d   1      38.078  -5.103  13.428  0.00  0.00    -0.028 A 
ATOM    224  CD1 TRP d   1      38.771  -3.928  13.427  0.00  0.00    -0.015 A 
ATOM    225  NE1 TRP d   1      39.213  -3.638  12.159  0.00  0.00    -0.365 N 
ATOM    226  H30 TRP d   1      38.948  -3.309  14.305  0.00  0.00     0.112 H 
ATOM    227  CE2 TRP d   1      38.794  -4.623  11.311  0.00  0.00     0.042 A 
ATOM    228  H31 TRP d   1      39.769  -2.813  11.892  0.00  0.00     0.165 HD
ATOM    229  CD2 TRP d   1      38.080  -5.563  12.079  0.00  0.00    -0.002 A 
ATOM    230  CZ2 TRP d   1      38.991  -4.772   9.935  0.00  0.00    -0.056 A 
ATOM    231  CE3 TRP d   1      37.567  -6.687  11.446  0.00  0.00    -0.070 A 
ATOM    232  CZ3 TRP d   1      37.766  -6.841  10.077  0.00  0.00    -0.082 A 
ATOM    233  H32 TRP d   1      37.020  -7.434  12.010  0.00  0.00     0.084 H 
ATOM    234  CH2 TRP d   1      38.467  -5.890   9.344  0.00  0.00    -0.081 A 
ATOM    235  H34 TRP d   1      37.368  -7.715   9.575  0.00  0.00     0.083 H 
ATOM    236  H35 TRP d   1      38.602  -6.037   8.279  0.00  0.00     0.083 H 
ATOM    237  H33 TRP d   1      39.536  -4.033   9.360  0.00  0.00     0.086 H 
ENDBRANCH 220 223
ENDBRANCH  30 220
TORSDOF 43
