REMARK WARNING: 32 MAX_TORS EXCEEDED!!!
REMARK  35 active torsions:
REMARK  status: ('A' for Active; 'I' for Inactive)
REMARK    1  A    between atoms: N_1  and  CA_2 
REMARK    2  A    between atoms: CA_2  and  C_3 
REMARK    3  A    between atoms: CA_2  and  CB_5 
REMARK       I    between atoms: C_3  and  N_8 
REMARK    4  A    between atoms: CB_5  and  CG1_6 
REMARK    5  A    between atoms: CB_5  and  CG2_7 
REMARK    6  A    between atoms: CA_9  and  C_10 
REMARK       I    between atoms: C_10  and  N_15 
REMARK    7  A    between atoms: N_15  and  CA_16 
REMARK    8  A    between atoms: CA_29  and  CB_32 
REMARK    9  A    between atoms: CB_32  and  CG_33 
REMARK   10  A    between atoms: CZ_38  and  OH_39 
REMARK   11  A    between atoms: CA_41  and  CB_44 
REMARK   12  A    between atoms: CB_44  and  CG_45 
REMARK   13  A    between atoms: CG_45  and  CD1_46 
REMARK   14  A    between atoms: CG_45  and  CD2_47 
REMARK   15  A    between atoms: CA_56  and  CB_59 
REMARK   16  A    between atoms: CB_59  and  CG_60 
REMARK   17  A    between atoms: CG_60  and  CD1_61 
REMARK   18  A    between atoms: CG_60  and  CD2_62 
REMARK   19  A    between atoms: CA_64  and  CB_67 
REMARK   20  A    between atoms: CB_67  and  CG_68 
REMARK   21  A    between atoms: CA_78  and  CB_81 
REMARK   22  A    between atoms: CB_81  and  CG_82 
REMARK       I    between atoms: CG_82  and  ND2_84 
REMARK   23  A    between atoms: CA_86  and  C_87 
REMARK       I    between atoms: C_87  and  N_91 
REMARK   24  A    between atoms: N_91  and  CA_92 
REMARK   25  A    between atoms: CA_92  and  C_93 
REMARK   26  A    between atoms: CA_92  and  CB_95 
REMARK       I    between atoms: C_93  and  N_96 
REMARK   27  A    between atoms: N_96  and  CA_97 
REMARK   28  A    between atoms: CA_97  and  C_98 
REMARK       I    between atoms: C_98  and  N_100 
REMARK   29  A    between atoms: N_100  and  CA_101 
REMARK   30  A    between atoms: CA_101  and  C_102 
REMARK   31  A    between atoms: CA_101  and  CB_104 
REMARK   32  A    between atoms: CB_104  and  CG_105 
REMARK   33  A    between atoms: CG_105  and  CD_106 
REMARK   34  A    between atoms: CD_106  and  CE_107 
REMARK   35  A    between atoms: CE_107  and  NZ_108 
ROOT
ATOM      1  N   PRO d   1      19.510   1.817  30.293  0.00  0.00    -0.337 N 
ATOM      2  CA  PRO d   1      19.016   3.207  30.402  0.00  0.00     0.091 C 
ATOM      3  C   PRO d   1      17.507   3.354  30.627  0.00  0.00     0.241 C 
ATOM      4  O   PRO d   1      16.986   4.470  30.594  0.00  0.00    -0.271 OA
ATOM      5  CB  PRO d   1      19.359   3.781  29.030  0.00  0.00    -0.036 C 
ATOM      6  CG  PRO d   1      19.168   2.622  28.130  0.00  0.00    -0.048 C 
ATOM      7  CD  PRO d   1      19.714   1.450  28.885  0.00  0.00    -0.001 C 
ATOM      8  N   PRO d   1      14.096   2.091  36.365  0.00  0.00    -0.337 N 
ATOM      9  CA  PRO d   1      13.600   0.780  36.790  0.00  0.00     0.091 C 
ATOM     10  C   PRO d   1      12.379   0.269  35.982  0.00  0.00     0.241 C 
ATOM     11  O   PRO d   1      11.879  -0.816  36.235  0.00  0.00    -0.271 OA
ATOM     12  CB  PRO d   1      13.201   1.039  38.239  0.00  0.00    -0.036 C 
ATOM     13  CG  PRO d   1      12.727   2.451  38.241  0.00  0.00    -0.048 C 
ATOM     14  CD  PRO d   1      13.421   3.168  37.115  0.00  0.00    -0.001 C 
ATOM     15  H23 PRO d   1      19.549   3.736  31.206  0.00  0.00     0.087 H 
ATOM     16  H24 PRO d   1      20.399   4.139  28.999  0.00  0.00     0.036 H 
ATOM     17  H25 PRO d   1      18.680   4.604  28.764  0.00  0.00     0.036 H 
ATOM     18  H26 PRO d   1      19.720   2.768  27.190  0.00  0.00     0.035 H 
ATOM     19  H27 PRO d   1      18.100   2.476  27.909  0.00  0.00     0.035 H 
ATOM     20  H28 PRO d   1      19.163   0.531  28.635  0.00  0.00     0.064 H 
ATOM     21  H29 PRO d   1      20.783   1.307  28.668  0.00  0.00     0.064 H 
ATOM     22  H50 PRO d   1      14.403   0.031  36.728  0.00  0.00     0.087 H 
ATOM     23  H51 PRO d   1      14.065   0.916  38.909  0.00  0.00     0.036 H 
ATOM     24  H52 PRO d   1      12.396   0.357  38.550  0.00  0.00     0.036 H 
ATOM     25  H53 PRO d   1      12.977   2.929  39.200  0.00  0.00     0.035 H 
ATOM     26  H54 PRO d   1      11.638   2.481  38.089  0.00  0.00     0.035 H 
ATOM     27  H55 PRO d   1      12.693   3.691  36.477  0.00  0.00     0.064 H 
ATOM     28  H56 PRO d   1      14.153   3.891  37.505  0.00  0.00     0.064 H 
ATOM     29  CA  CYS d   1      20.456  -0.281  31.155  0.00  0.00     0.098 C 
ATOM     30  C   CYS d   1      19.760   1.065  31.367  0.00  0.00     0.244 C 
ATOM     31  O   CYS d   1      19.479   1.422  32.509  0.00  0.00    -0.271 OA
ATOM     32  CB  CYS d   1      19.534  -1.454  31.506  0.00  0.00     0.013 C 
ATOM     33  SG  CYS d   1      17.907  -1.469  30.775  0.00  0.00    -0.095 SA
ATOM     34  N   CYS d   1      15.881  -3.954  30.049  0.00  0.00    -0.345 N 
ATOM     35  CA  CYS d   1      16.509  -4.358  28.806  0.00  0.00     0.098 C 
ATOM     36  CB  CYS d   1      17.972  -3.864  28.745  0.00  0.00     0.013 C 
ATOM     37  SG  CYS d   1      18.139  -2.052  28.795  0.00  0.00    -0.095 SA
ATOM     38  H20 CYS d   1      20.786  -0.370  30.109  0.00  0.00     0.088 H 
ATOM     39  H21 CYS d   1      19.404  -1.456  32.598  0.00  0.00     0.053 H 
ATOM     40  H22 CYS d   1      20.043  -2.378  31.195  0.00  0.00     0.053 H 
ATOM     41  H84 CYS d   1      15.099  -3.332  30.007  0.00  0.00     0.163 HD
ATOM     42  H85 CYS d   1      15.959  -3.868  27.989  0.00  0.00     0.088 H 
ATOM     43  H86 CYS d   1      18.422  -4.228  27.810  0.00  0.00     0.053 H 
ATOM     44  H87 CYS d   1      18.517  -4.286  29.602  0.00  0.00     0.053 H 
ATOM     45  N   TYR d   1      16.803   2.243  30.796  0.00  0.00    -0.346 N 
ATOM     46  CA  TYR d   1      15.363   2.278  31.032  0.00  0.00     0.093 C 
ATOM     47  C   TYR d   1      14.988   1.929  32.456  0.00  0.00     0.241 C 
ATOM     48  O   TYR d   1      13.809   1.981  32.804  0.00  0.00    -0.271 OA
ATOM     49  H30 TYR d   1      17.270   1.359  30.761  0.00  0.00     0.163 HD
ATOM     50  H31 TYR d   1      15.010   3.300  30.828  0.00  0.00     0.088 H 
ATOM     51  N   LEU d   1      15.968   1.586  33.294  0.00  0.00    -0.346 N 
ATOM     52  CA  LEU d   1      15.672   1.205  34.669  0.00  0.00     0.090 C 
ATOM     53  C   LEU d   1      15.044   2.375  35.450  0.00  0.00     0.243 C 
ATOM     54  O   LEU d   1      15.428   3.520  35.225  0.00  0.00    -0.271 OA
ATOM     55  N   LEU d   1      11.940   1.035  35.004  0.00  0.00    -0.346 N 
ATOM     56  CA  LEU d   1      10.707   0.761  34.268  0.00  0.00     0.089 C 
ATOM     57  C   LEU d   1      10.806  -0.449  33.344  0.00  0.00     0.241 C 
ATOM     58  O   LEU d   1       9.827  -1.174  33.143  0.00  0.00    -0.271 OA
ATOM     59  H39 LEU d   1      16.916   1.590  32.975  0.00  0.00     0.163 HD
ATOM     60  H40 LEU d   1      14.946   0.379  34.645  0.00  0.00     0.087 H 
ATOM     61  H57 LEU d   1      12.475   1.842  34.753  0.00  0.00     0.163 HD
ATOM     62  H58 LEU d   1       9.912   0.557  35.001  0.00  0.00     0.087 H 
ATOM     63  N   TRP d   1      11.982  -0.642  32.753  0.00  0.00    -0.346 N 
ATOM     64  CA  TRP d   1      12.315  -1.862  32.001  0.00  0.00     0.093 C 
ATOM     65  C   TRP d   1      13.821  -2.122  32.203  0.00  0.00     0.241 C 
ATOM     66  O   TRP d   1      14.602  -1.169  32.428  0.00  0.00    -0.271 OA
ATOM     67  H68 TRP d   1      12.673   0.077  32.823  0.00  0.00     0.163 HD
ATOM     68  H69 TRP d   1      11.745  -2.711  32.407  0.00  0.00     0.088 H 
ATOM     69  N   ASN d   1      14.199  -3.392  32.169  0.00  0.00    -0.346 N 
ATOM     70  CA  ASN d   1      15.564  -3.810  32.481  0.00  0.00     0.097 C 
ATOM     71  C   ASN d   1      16.298  -4.374  31.254  0.00  0.00     0.241 C 
ATOM     72  O   ASN d   1      17.237  -5.142  31.404  0.00  0.00    -0.271 OA
ATOM     73  H78 ASN d   1      13.526  -4.089  31.921  0.00  0.00     0.163 HD
ATOM     74  H79 ASN d   1      16.119  -2.922  32.818  0.00  0.00     0.088 H 
ENDROOT
BRANCH  35  75
ATOM     75  C   CYS d   1      16.431  -5.871  28.561  0.00  0.00     0.241 C 
ATOM     76  O   CYS d   1      17.318  -6.436  27.959  0.00  0.00    -0.271 OA
ATOM     77  N   ALA d   1      15.408  -6.543  29.068  0.00  0.00    -0.346 N 
ATOM     78  H88 ALA d   1      14.687  -6.053  29.558  0.00  0.00     0.163 HD
BRANCH  77  79
ATOM     79  CA  ALA d   1      15.323  -7.999  28.917  0.00  0.00     0.086 C 
ATOM     80  H89 ALA d   1      16.337  -8.408  28.795  0.00  0.00     0.086 H 
BRANCH  79  81
ATOM     81  C   ALA d   1      14.500  -8.312  27.651  0.00  0.00     0.240 C 
ATOM     82  O   ALA d   1      13.299  -8.034  27.600  0.00  0.00    -0.271 OA
ATOM     83  N   GLY d   1      15.175  -8.842  26.629  0.00  0.00    -0.351 N 
ATOM     84  H93 GLY d   1      16.169  -8.928  26.704  0.00  0.00     0.163 HD
BRANCH  83  85
ATOM     85  CA  GLY d   1      14.525  -9.302  25.406  0.00  0.00     0.069 C 
ATOM     86  H94 GLY d   1      13.623  -9.863  25.692  0.00  0.00     0.078 H 
ATOM     87  H95 GLY d   1      15.223  -9.972  24.883  0.00  0.00     0.078 H 
BRANCH  85  88
ATOM     88  C   GLY d   1      14.111  -8.218  24.441  0.00  0.00     0.236 C 
ATOM     89  O   GLY d   1      14.618  -7.095  24.480  0.00  0.00    -0.272 OA
ATOM     90  N   LYS d   1      13.215  -8.580  23.531  0.00  0.00    -0.345 N 
ATOM     91  H96 LYS d   1      12.881  -9.523  23.535  0.00  0.00     0.163 HD
BRANCH  90  92
ATOM     92  CA  LYS d   1      12.697  -7.657  22.524  0.00  0.00     0.096 C 
ATOM     93  H97 LYS d   1      12.520  -6.687  23.011  0.00  0.00     0.089 H 
BRANCH  92  94
ATOM     94  C   LYS d   1      11.381  -8.136  21.937  0.00  0.00     0.196 C 
ATOM     95  O   LYS d   1      10.888  -9.252  22.214  0.00  0.00    -0.646 OA
ATOM     96  OXT LYS d   1      10.804  -7.415  21.141  0.00  0.00    -0.646 OA
ENDBRANCH  92  94
BRANCH  92  97
ATOM     97  CB  LYS d   1      13.724  -7.458  21.411  0.00  0.00    -0.037 C 
ATOM     98  H98 LYS d   1      14.673  -7.153  21.876  0.00  0.00     0.036 H 
ATOM     99  H99 LYS d   1      13.361  -6.653  20.755  0.00  0.00     0.036 H 
BRANCH  97 100
ATOM    100  CG  LYS d   1      13.996  -8.670  20.552  0.00  0.00    -0.061 C 
ATOM    101 0H10 LYS d   1      13.061  -8.993  20.071  0.00  0.00     0.033 H 
ATOM    102 1H10 LYS d   1      14.384  -9.483  21.183  0.00  0.00     0.033 H 
BRANCH 100 103
ATOM    103  CD  LYS d   1      15.024  -8.330  19.478  0.00  0.00    -0.043 C 
ATOM    104 2H10 LYS d   1      16.027  -8.348  19.929  0.00  0.00     0.035 H 
ATOM    105 3H10 LYS d   1      14.813  -7.322  19.092  0.00  0.00     0.035 H 
BRANCH 103 106
ATOM    106  CE  LYS d   1      14.990  -9.308  18.329  0.00  0.00     0.080 C 
ATOM    107 4H10 LYS d   1      13.953  -9.450  17.990  0.00  0.00     0.075 H 
ATOM    108 5H10 LYS d   1      15.406 -10.274  18.649  0.00  0.00     0.075 H 
BRANCH 106 109
ATOM    109  NZ  LYS d   1      15.817  -8.743  17.213  0.00  0.00    -0.079 N 
ATOM    110 6H10 LYS d   1      15.809  -9.381  16.433  0.00  0.00     0.274 HD
ATOM    111 7H10 LYS d   1      16.765  -8.612  17.530  0.00  0.00     0.274 HD
ATOM    112 8H10 LYS d   1      15.433  -7.856  16.926  0.00  0.00     0.274 HD
ENDBRANCH 106 109
ENDBRANCH 103 106
ENDBRANCH 100 103
ENDBRANCH  97 100
ENDBRANCH  92  97
ENDBRANCH  90  92
ENDBRANCH  85  88
ENDBRANCH  83  85
ENDBRANCH  79  81
BRANCH  79 113
ATOM    113  CB  ALA d   1      14.691  -8.628  30.152  0.00  0.00    -0.049 C 
ATOM    114  H90 ALA d   1      14.636  -9.719  30.020  0.00  0.00     0.030 H 
ATOM    115  H91 ALA d   1      13.678  -8.224  30.291  0.00  0.00     0.030 H 
ATOM    116  H92 ALA d   1      15.303  -8.396  31.036  0.00  0.00     0.030 H 
ENDBRANCH  79 113
ENDBRANCH  77  79
ENDBRANCH  35  75
BRANCH  70 117
ATOM    117  CB  ASN d   1      15.544  -4.823  33.637  0.00  0.00     0.036 C 
ATOM    118  H80 ASN d   1      15.014  -4.373  34.489  0.00  0.00     0.051 H 
ATOM    119  H81 ASN d   1      16.581  -5.046  33.926  0.00  0.00     0.051 H 
BRANCH 117 120
ATOM    120  CG  ASN d   1      14.850  -6.129  33.267  0.00  0.00     0.217 C 
ATOM    121  OD1 ASN d   1      13.906  -6.132  32.496  0.00  0.00    -0.274 OA
ATOM    122  ND2 ASN d   1      15.327  -7.235  33.806  0.00  0.00    -0.370 N 
ATOM    123  H82 ASN d   1      14.905  -8.117  33.594  0.00  0.00     0.159 HD
ATOM    124  H83 ASN d   1      16.110  -7.191  34.427  0.00  0.00     0.159 HD
ENDBRANCH 117 120
ENDBRANCH  70 117
BRANCH  29 125
ATOM    125  N   CYS d   1      21.595  -0.321  32.054  0.00  0.00    -0.345 N 
ATOM    126  C   PRO d   1      22.660   0.457  31.913  0.00  0.00     0.241 C 
ATOM    127  O   PRO d   1      22.796   1.260  30.984  0.00  0.00    -0.271 OA
ATOM    128  H19 CYS d   1      21.576  -0.967  32.817  0.00  0.00     0.163 HD
BRANCH 126 129
ATOM    129  CA  PRO d   1      23.779   0.208  32.952  0.00  0.00     0.091 C 
ATOM    130  N   PRO d   1      25.131   0.417  32.428  0.00  0.00    -0.337 N 
ATOM    131  C   VAL d   1      25.452  -0.239  31.282  0.00  0.00     0.251 C 
ATOM    132  CD  PRO d   1      26.020   1.015  33.449  0.00  0.00    -0.001 C 
ATOM    133  O   VAL d   1      24.688  -1.059  30.740  0.00  0.00    -0.271 OA
ATOM    134  CG  PRO d   1      25.129   1.179  34.675  0.00  0.00    -0.048 C 
ATOM    135  H17 PRO d   1      26.401   1.990  33.111  0.00  0.00     0.064 H 
ATOM    136  H18 PRO d   1      26.866   0.347  33.669  0.00  0.00     0.064 H 
ATOM    137  CB  PRO d   1      23.710   1.167  34.156  0.00  0.00    -0.036 C 
ATOM    138  H15 PRO d   1      25.287   0.347  35.378  0.00  0.00     0.035 H 
ATOM    139  H16 PRO d   1      25.344   2.132  35.180  0.00  0.00     0.035 H 
ATOM    140  H13 PRO d   1      23.015   0.790  34.920  0.00  0.00     0.036 H 
ATOM    141  H14 PRO d   1      23.398   2.173  33.840  0.00  0.00     0.036 H 
ATOM    142  H12 PRO d   1      23.680  -0.830  33.303  0.00  0.00     0.087 H 
BRANCH 131 143
ATOM    143  CA  VAL d   1      26.809   0.065  30.637  0.00  0.00     0.178 C 
ATOM    144  H4  VAL d   1      27.505   0.411  31.415  0.00  0.00     0.099 H 
BRANCH 143 145
ATOM    145  N   VAL d   1      27.368  -1.187  30.018  0.00  0.00    -0.066 N 
ATOM    146  H1  VAL d   1      27.465  -1.898  30.726  0.00  0.00     0.275 HD
ATOM    147  H2  VAL d   1      28.271  -0.989  29.616  0.00  0.00     0.275 HD
ATOM    148  H3  VAL d   1      26.743  -1.514  29.298  0.00  0.00     0.275 HD
ENDBRANCH 143 145
BRANCH 143 149
ATOM    149  CB  VAL d   1      26.638   1.200  29.585  0.00  0.00    -0.025 C 
ATOM    150  H5  VAL d   1      27.604   1.332  29.076  0.00  0.00     0.042 H 
BRANCH 149 151
ATOM    151  CG1 VAL d   1      25.598   0.835  28.528  0.00  0.00    -0.071 C 
ATOM    152  H6  VAL d   1      25.506   1.659  27.805  0.00  0.00     0.028 H 
ATOM    153  H7  VAL d   1      24.626   0.663  29.014  0.00  0.00     0.028 H 
ATOM    154  H8  VAL d   1      25.913  -0.079  28.004  0.00  0.00     0.028 H 
ENDBRANCH 149 151
BRANCH 149 155
ATOM    155  CG2 VAL d   1      26.273   2.525  30.254  0.00  0.00    -0.071 C 
ATOM    156  H9  VAL d   1      27.030   2.774  31.012  0.00  0.00     0.028 H 
ATOM    157  H10 VAL d   1      25.288   2.433  30.736  0.00  0.00     0.028 H 
ATOM    158  H11 VAL d   1      26.238   3.321  29.496  0.00  0.00     0.028 H 
ENDBRANCH 149 155
ENDBRANCH 143 149
ENDBRANCH 131 143
ENDBRANCH 126 129
ENDBRANCH  29 125
BRANCH  64 159
ATOM    159  CB  TRP d   1      11.947  -1.692  30.524  0.00  0.00    -0.012 C 
ATOM    160  H70 TRP d   1      12.549  -0.868  30.113  0.00  0.00     0.044 H 
ATOM    161  H71 TRP d   1      10.880  -1.432  30.464  0.00  0.00     0.044 H 
BRANCH 159 162
ATOM    162  CG  TRP d   1      12.184  -2.927  29.666  0.00  0.00    -0.028 A 
ATOM    163  CD1 TRP d   1      11.771  -4.205  29.932  0.00  0.00    -0.015 A 
ATOM    164  NE1 TRP d   1      12.181  -5.051  28.925  0.00  0.00    -0.365 N 
ATOM    165  H72 TRP d   1      11.202  -4.508  30.810  0.00  0.00     0.112 H 
ATOM    166  CE2 TRP d   1      12.856  -4.330  27.980  0.00  0.00     0.042 A 
ATOM    167  H73 TRP d   1      12.007  -6.066  28.890  0.00  0.00     0.165 HD
ATOM    168  CD2 TRP d   1      12.887  -2.984  28.419  0.00  0.00    -0.002 A 
ATOM    169  CZ2 TRP d   1      13.466  -4.745  26.784  0.00  0.00    -0.056 A 
ATOM    170  CE3 TRP d   1      13.537  -2.026  27.615  0.00  0.00    -0.070 A 
ATOM    171  CZ3 TRP d   1      14.138  -2.435  26.422  0.00  0.00    -0.082 A 
ATOM    172  H74 TRP d   1      13.570  -0.986  27.918  0.00  0.00     0.084 H 
ATOM    173  CH2 TRP d   1      14.100  -3.785  26.015  0.00  0.00    -0.081 A 
ATOM    174  H76 TRP d   1      14.641  -1.704  25.800  0.00  0.00     0.083 H 
ATOM    175  H77 TRP d   1      14.575  -4.075  25.085  0.00  0.00     0.083 H 
ATOM    176  H75 TRP d   1      13.441  -5.783  26.474  0.00  0.00     0.086 H 
ENDBRANCH 159 162
ENDBRANCH  64 159
BRANCH  56 177
ATOM    177  CB  LEU d   1      10.328   2.005  33.472  0.00  0.00    -0.035 C 
ATOM    178  H59 LEU d   1       9.396   1.784  32.931  0.00  0.00     0.037 H 
ATOM    179  H60 LEU d   1      11.135   2.197  32.750  0.00  0.00     0.037 H 
BRANCH 177 180
ATOM    180  CG  LEU d   1      10.104   3.297  34.276  0.00  0.00    -0.059 C 
ATOM    181  H61 LEU d   1      11.062   3.590  34.731  0.00  0.00     0.038 H 
BRANCH 180 182
ATOM    182  CD1 LEU d   1       9.650   4.404  33.340  0.00  0.00    -0.073 C 
ATOM    183  H62 LEU d   1       9.490   5.328  33.915  0.00  0.00     0.028 H 
ATOM    184  H63 LEU d   1       8.710   4.109  32.852  0.00  0.00     0.028 H 
ATOM    185  H64 LEU d   1      10.422   4.577  32.575  0.00  0.00     0.028 H 
ENDBRANCH 180 182
BRANCH 180 186
ATOM    186  CD2 LEU d   1       9.090   3.114  35.386  0.00  0.00    -0.073 C 
ATOM    187  H65 LEU d   1       9.425   2.311  36.060  0.00  0.00     0.028 H 
ATOM    188  H66 LEU d   1       8.116   2.846  34.952  0.00  0.00     0.028 H 
ATOM    189  H67 LEU d   1       8.993   4.052  35.953  0.00  0.00     0.028 H 
ENDBRANCH 180 186
ENDBRANCH 177 180
ENDBRANCH  56 177
BRANCH  46 190
ATOM    190  CB  TYR d   1      14.669   1.325  30.079  0.00  0.00    -0.014 C 
ATOM    191  H32 TYR d   1      13.584   1.438  30.223  0.00  0.00     0.043 H 
ATOM    192  H33 TYR d   1      14.970   0.302  30.350  0.00  0.00     0.043 H 
BRANCH 190 193
ATOM    193  CG  TYR d   1      14.962   1.516  28.593  0.00  0.00    -0.056 A 
ATOM    194  CD1 TYR d   1      14.261   2.442  27.826  0.00  0.00    -0.074 A 
ATOM    195  CE1 TYR d   1      14.518   2.595  26.453  0.00  0.00    -0.051 A 
ATOM    196  H34 TYR d   1      13.502   3.057  28.297  0.00  0.00     0.084 H 
ATOM    197  CZ  TYR d   1      15.475   1.793  25.843  0.00  0.00     0.065 A 
ATOM    198  H36 TYR d   1      13.974   3.333  25.874  0.00  0.00     0.087 H 
ATOM    199  CE2 TYR d   1      16.172   0.863  26.600  0.00  0.00    -0.051 A 
ATOM    200  CD2 TYR d   1      15.913   0.736  27.957  0.00  0.00    -0.074 A 
ATOM    201  H37 TYR d   1      16.920   0.234  26.131  0.00  0.00     0.087 H 
ATOM    202  H35 TYR d   1      16.470   0.007  28.535  0.00  0.00     0.084 H 
BRANCH 197 203
ATOM    203  OH  TYR d   1      15.725   1.898  24.486  0.00  0.00    -0.361 OA
ATOM    204  H38 TYR d   1      15.171   2.575  24.115  0.00  0.00     0.217 HD
ENDBRANCH 197 203
ENDBRANCH 190 193
ENDBRANCH  46 190
BRANCH  52 205
ATOM    205  CB  LEU d   1      16.936   0.715  35.385  0.00  0.00    -0.035 C 
ATOM    206  H41 LEU d   1      16.704   0.647  36.458  0.00  0.00     0.037 H 
ATOM    207  H42 LEU d   1      17.721   1.469  35.226  0.00  0.00     0.037 H 
BRANCH 205 208
ATOM    208  CG  LEU d   1      17.502  -0.638  34.949  0.00  0.00    -0.059 C 
ATOM    209  H43 LEU d   1      17.611  -0.634  33.854  0.00  0.00     0.038 H 
BRANCH 208 210
ATOM    210  CD1 LEU d   1      18.876  -0.832  35.573  0.00  0.00    -0.073 C 
ATOM    211  H44 LEU d   1      19.286  -1.804  35.262  0.00  0.00     0.028 H 
ATOM    212  H45 LEU d   1      18.788  -0.805  36.669  0.00  0.00     0.028 H 
ATOM    213  H46 LEU d   1      19.547  -0.027  35.239  0.00  0.00     0.028 H 
ENDBRANCH 208 210
BRANCH 208 214
ATOM    214  CD2 LEU d   1      16.564  -1.783  35.331  0.00  0.00    -0.073 C 
ATOM    215  H47 LEU d   1      15.579  -1.620  34.869  0.00  0.00     0.028 H 
ATOM    216  H48 LEU d   1      16.454  -1.818  36.425  0.00  0.00     0.028 H 
ATOM    217  H49 LEU d   1      16.983  -2.735  34.974  0.00  0.00     0.028 H 
ENDBRANCH 208 214
ENDBRANCH 205 208
ENDBRANCH  52 205
TORSDOF 35
