REMARK  16 active torsions:
REMARK  status: ('A' for Active; 'I' for Inactive)
REMARK    1  A    between atoms: O1'_10  and  C1'_1 
REMARK    2  A    between atoms: C2'_2  and  N2'_9 
REMARK    3  A    between atoms: C3'_3  and  O3'_11 
REMARK    4  A    between atoms: C4'_4  and  O4'_12 
REMARK    5  A    between atoms: C5'_5  and  C6'_6 
REMARK    6  A    between atoms: C6'_6  and  O6'_14 
REMARK    7  A    between atoms: C7'_7  and  C8'_8 
REMARK       I    between atoms: N2'_9  and  C7'_7 
REMARK    8  A    between atoms: PB_37  and  O1'_10 
REMARK    9  A    between atoms: C1B_24  and  N1_16 
REMARK   10  A    between atoms: C2B_25  and  O2'_26 
REMARK   11  A    between atoms: C3B_27  and  O3B_30 
REMARK   12  A    between atoms: C5B_31  and  C4B_28 
REMARK   13  A    between atoms: O5B_32  and  C5B_31 
REMARK   14  A    between atoms: PA_33  and  O5B_32 
REMARK   15  A    between atoms: O3A_36  and  PA_33 
REMARK   16  A    between atoms: O3A_36  and  PB_37 
ROOT
ATOM      1  O3A UD1 d   1       7.904  10.926   0.408  0.00  0.00    -0.180 OA
ENDROOT
BRANCH   1   2
ATOM      2  PA  UD1 d   1       8.735  10.037  -0.638  0.00  0.00     0.417 P 
ATOM      3  O1A UD1 d   1       9.414  10.997  -1.546  0.00  0.00    -0.624 OA
ATOM      4  O2A UD1 d   1       9.534   8.998   0.070  0.00  0.00    -0.624 OA
BRANCH   2   5
ATOM      5  O5B UD1 d   1       7.683   9.394  -1.653  0.00  0.00    -0.287 OA
BRANCH   5   6
ATOM      6  C5B UD1 d   1       7.027   8.244  -1.107  0.00  0.00     0.058 C 
ATOM      7  H24 UD1 d   1       7.780   7.614  -0.612  0.00  0.00     0.079 H 
ATOM      8  H25 UD1 d   1       6.288   8.582  -0.366  0.00  0.00     0.079 H 
BRANCH   6   9
ATOM      9  C4B UD1 d   1       6.321   7.420  -2.143  0.00  0.00     0.089 C 
ATOM     10  C3B UD1 d   1       7.128   7.127  -3.376  0.00  0.00     0.091 C 
ATOM     11  C2B UD1 d   1       6.011   6.758  -4.339  0.00  0.00     0.105 C 
ATOM     12  H21 UD1 d   1       7.706   7.994  -3.728  0.00  0.00     0.091 H 
ATOM     13  C1B UD1 d   1       4.873   7.651  -3.905  0.00  0.00     0.141 C 
ATOM     14  H19 UD1 d   1       6.312   6.957  -5.378  0.00  0.00     0.093 H 
ATOM     15  O4B UD1 d   1       5.079   8.025  -2.581  0.00  0.00    -0.353 OA
ATOM     16  H18 UD1 d   1       3.929   7.093  -3.990  0.00  0.00     0.123 H 
ATOM     17  H22 UD1 d   1       6.082   6.458  -1.667  0.00  0.00     0.090 H 
BRANCH  10  18
ATOM     18  O3B UD1 d   1       7.984   6.049  -3.092  0.00  0.00    -0.390 OA
ATOM     19  H23 UD1 d   1       8.558   6.283  -2.372  0.00  0.00     0.210 HD
ENDBRANCH  10  18
BRANCH  11  20
ATOM     20  O2' UD1 d   1       5.589   5.416  -4.214  0.00  0.00    -0.388 OA
ATOM     21  H20 UD1 d   1       6.293   4.838  -4.483  0.00  0.00     0.210 HD
ENDBRANCH  11  20
BRANCH  13  22
ATOM     22  N1  UD1 d   1       4.785   8.870  -4.723  0.00  0.00    -0.280 N 
ATOM     23  C2  UD1 d   1       4.078   8.775  -5.943  0.00  0.00     0.331 A 
ATOM     24  N3  UD1 d   1       3.943   9.827  -6.740  0.00  0.00    -0.275 N 
ATOM     25  O2  UD1 d   1       3.610   7.663  -6.309  0.00  0.00    -0.246 OA
ATOM     26  C4  UD1 d   1       4.455  11.015  -6.385  0.00  0.00     0.250 A 
ATOM     27  H15 UD1 d   1       3.457   9.734  -7.609  0.00  0.00     0.173 HD
ATOM     28  C5  UD1 d   1       5.154  11.164  -5.183  0.00  0.00    -0.002 A 
ATOM     29  O4  UD1 d   1       4.269  12.004  -7.134  0.00  0.00    -0.268 OA
ATOM     30  C6  UD1 d   1       5.314  10.060  -4.339  0.00  0.00    -0.008 A 
ATOM     31  H16 UD1 d   1       5.570  12.132  -4.906  0.00  0.00     0.094 H 
ATOM     32  H17 UD1 d   1       5.850  10.153  -3.396  0.00  0.00     0.112 H 
ENDBRANCH  13  22
ENDBRANCH   6   9
ENDBRANCH   5   6
ENDBRANCH   2   5
ENDBRANCH   1   2
BRANCH   1  33
ATOM     33  PB  UD1 d   1       7.776  10.788   1.987  0.00  0.00     0.420 P 
ATOM     34  O1B UD1 d   1       8.814  10.096   2.744  0.00  0.00    -0.624 OA
ATOM     35  O2B UD1 d   1       7.121  11.953   2.562  0.00  0.00    -0.624 OA
BRANCH  33  36
ATOM     36  O1' UD1 d   1       6.563   9.713   1.844  0.00  0.00    -0.256 OA
BRANCH  36  37
ATOM     37  C1' UD1 d   1       5.659   9.466   2.946  0.00  0.00     0.165 C 
ATOM     38  C2' UD1 d   1       5.471   7.948   3.238  0.00  0.00     0.087 C 
ATOM     39  C3' UD1 d   1       4.918   7.270   1.990  0.00  0.00     0.086 C 
ATOM     40  H2  UD1 d   1       4.715   7.854   4.031  0.00  0.00     0.084 H 
ATOM     41  C4' UD1 d   1       3.586   7.948   1.721  0.00  0.00     0.089 C 
ATOM     42  H3  UD1 d   1       5.600   7.443   1.145  0.00  0.00     0.090 H 
ATOM     43  C5' UD1 d   1       3.796   9.472   1.551  0.00  0.00     0.089 C 
ATOM     44  H4  UD1 d   1       2.883   7.721   2.536  0.00  0.00     0.091 H 
ATOM     45  O5' UD1 d   1       4.364  10.019   2.726  0.00  0.00    -0.348 OA
ATOM     46  H5  UD1 d   1       4.486   9.637   0.711  0.00  0.00     0.090 H 
ATOM     47  H1  UD1 d   1       6.092   9.940   3.839  0.00  0.00     0.133 H 
BRANCH  38  48
ATOM     48  N2' UD1 d   1       6.697   7.300   3.738  0.00  0.00    -0.349 N 
ATOM     49  C7' UD1 d   1       7.207   7.334   4.947  0.00  0.00     0.214 C 
ATOM     50  O7' UD1 d   1       8.300   6.714   5.262  0.00  0.00    -0.274 OA
ATOM     51  H11 UD1 d   1       7.208   6.763   3.067  0.00  0.00     0.163 HD
BRANCH  49  52
ATOM     52  C8' UD1 d   1       6.503   8.135   5.927  0.00  0.00    -0.003 C 
ATOM     53  H8  UD1 d   1       7.029   8.080   6.892  0.00  0.00     0.040 H 
ATOM     54  H9  UD1 d   1       5.479   7.753   6.045  0.00  0.00     0.040 H 
ATOM     55  H10 UD1 d   1       6.467   9.181   5.588  0.00  0.00     0.040 H 
ENDBRANCH  49  52
ENDBRANCH  38  48
BRANCH  39  56
ATOM     56  O3' UD1 d   1       4.762   5.864   2.159  0.00  0.00    -0.391 OA
ATOM     57  H12 UD1 d   1       5.610   5.470   2.325  0.00  0.00     0.210 HD
ENDBRANCH  39  56
BRANCH  41  58
ATOM     58  O4' UD1 d   1       3.050   7.593   0.468  0.00  0.00    -0.390 OA
ATOM     59  H13 UD1 d   1       2.241   8.069   0.325  0.00  0.00     0.210 HD
ENDBRANCH  41  58
BRANCH  43  60
ATOM     60  C6' UD1 d   1       2.483  10.189   1.252  0.00  0.00     0.043 C 
ATOM     61  H6  UD1 d   1       2.002   9.738   0.372  0.00  0.00     0.078 H 
ATOM     62  H7  UD1 d   1       2.674  11.255   1.060  0.00  0.00     0.078 H 
BRANCH  60  63
ATOM     63  O6' UD1 d   1       1.659  10.047   2.369  0.00  0.00    -0.398 OA
ATOM     64  H14 UD1 d   1       1.503   9.124   2.531  0.00  0.00     0.209 HD
ENDBRANCH  60  63
ENDBRANCH  43  60
ENDBRANCH  36  37
ENDBRANCH  33  36
ENDBRANCH   1  33
TORSDOF 16
