REMARK  17 active torsions:
REMARK  status: ('A' for Active; 'I' for Inactive)
REMARK    1  A    between atoms: C_1  and  CH3_3 
REMARK       I    between atoms: C_1  and  N_4 
REMARK    2  A    between atoms: N_4  and  CA_5 
REMARK    3  A    between atoms: CA_5  and  C_6 
REMARK    4  A    between atoms: CA_5  and  CB_8 
REMARK       I    between atoms: C_6  and  N_18 
REMARK    5  A    between atoms: CB_8  and  CG_9 
REMARK    6  A    between atoms: N_18  and  CA_19 
REMARK    7  A    between atoms: CA_19  and  C_20 
REMARK    8  A    between atoms: CA_19  and  CB_22 
REMARK       I    between atoms: C_20  and  N_29 
REMARK    9  A    between atoms: CB_22  and  CG_23 
REMARK   10  A    between atoms: CG_23  and  CD_24 
REMARK   11  A    between atoms: CD_24  and  NE_25 
REMARK       I    between atoms: NE_25  and  CZ_26 
REMARK       I    between atoms: CZ_26  and  NH1_27 
REMARK       I    between atoms: CZ_26  and  NH2_28 
REMARK   12  A    between atoms: N_29  and  CA_30 
REMARK   13  A    between atoms: CA_30  and  C_31 
REMARK   14  A    between atoms: CA_30  and  CB_33 
REMARK       I    between atoms: C_31  and  N_36 
REMARK   15  A    between atoms: CB_33  and  CG1_34 
REMARK   16  A    between atoms: CB_33  and  CG2_35 
REMARK   17  A    between atoms: CA_37  and  C_38 
ROOT
ATOM      1  CA  ARG d   1      44.333 -10.153 -13.622  0.00  0.00     0.089 C 
ATOM      2  H15 ARG d   1      43.971 -11.171 -13.413  0.00  0.00     0.087 H 
ENDROOT
BRANCH   1   3
ATOM      3  N   ARG d   1      44.707 -10.079 -15.034  0.00  0.00    -0.346 N 
ATOM      4  C   TRP d   1      44.570 -11.112 -15.875  0.00  0.00     0.241 C 
ATOM      5  O   TRP d   1      44.257 -12.253 -15.510  0.00  0.00    -0.271 OA
ATOM      6  H14 ARG d   1      45.081  -9.221 -15.386  0.00  0.00     0.163 HD
BRANCH   4   7
ATOM      7  CA  TRP d   1      44.832 -10.829 -17.356  0.00  0.00     0.093 C 
ATOM      8  H5  TRP d   1      45.379  -9.878 -17.441  0.00  0.00     0.088 H 
BRANCH   7   9
ATOM      9  N   TRP d   1      45.661 -11.918 -17.962  0.00  0.00    -0.348 N 
ATOM     10  C   ACE d   1      46.867 -12.165 -17.522  0.00  0.00     0.214 C 
ATOM     11  O   ACE d   1      47.413 -11.404 -16.757  0.00  0.00    -0.274 OA
ATOM     12  H4  TRP d   1      45.288 -12.463 -18.713  0.00  0.00     0.163 HD
BRANCH  10  13
ATOM     13  CH3 ACE d   1      47.584 -13.405 -18.029  0.00  0.00    -0.003 C 
ATOM     14  H1  ACE d   1      46.921 -13.960 -18.709  0.00  0.00     0.040 H 
ATOM     15  H2  ACE d   1      47.855 -14.046 -17.177  0.00  0.00     0.040 H 
ATOM     16  H3  ACE d   1      48.495 -13.107 -18.568  0.00  0.00     0.040 H 
ENDBRANCH  10  13
ENDBRANCH   7   9
BRANCH   7  17
ATOM     17  CB  TRP d   1      43.507 -10.709 -18.122  0.00  0.00    -0.012 C 
ATOM     18  H6  TRP d   1      43.151 -11.724 -18.352  0.00  0.00     0.044 H 
ATOM     19  H7  TRP d   1      43.701 -10.168 -19.060  0.00  0.00     0.044 H 
BRANCH  17  20
ATOM     20  CG  TRP d   1      42.426  -9.994 -17.390  0.00  0.00    -0.028 A 
ATOM     21  CD1 TRP d   1      41.275 -10.536 -16.911  0.00  0.00    -0.015 A 
ATOM     22  NE1 TRP d   1      40.512  -9.572 -16.289  0.00  0.00    -0.365 N 
ATOM     23  H8  TRP d   1      40.995 -11.584 -17.006  0.00  0.00     0.112 H 
ATOM     24  CE2 TRP d   1      41.181  -8.380 -16.334  0.00  0.00     0.042 A 
ATOM     25  H9  TRP d   1      39.588  -9.724 -15.860  0.00  0.00     0.165 HD
ATOM     26  CD2 TRP d   1      42.394  -8.604 -17.037  0.00  0.00    -0.002 A 
ATOM     27  CZ2 TRP d   1      40.817  -7.123 -15.843  0.00  0.00    -0.056 A 
ATOM     28  CE3 TRP d   1      43.273  -7.526 -17.241  0.00  0.00    -0.070 A 
ATOM     29  CZ3 TRP d   1      42.919  -6.264 -16.735  0.00  0.00    -0.082 A 
ATOM     30  H10 TRP d   1      44.205  -7.666 -17.777  0.00  0.00     0.084 H 
ATOM     31  CH2 TRP d   1      41.696  -6.077 -16.047  0.00  0.00    -0.081 A 
ATOM     32  H12 TRP d   1      43.590  -5.424 -16.873  0.00  0.00     0.083 H 
ATOM     33  H13 TRP d   1      41.444  -5.092 -15.672  0.00  0.00     0.083 H 
ATOM     34  H11 TRP d   1      39.879  -6.974 -15.321  0.00  0.00     0.086 H 
ENDBRANCH  17  20
ENDBRANCH   7  17
ENDBRANCH   4   7
ENDBRANCH   1   3
BRANCH   1  35
ATOM     35  C   ARG d   1      43.236  -9.169 -13.298  0.00  0.00     0.241 C 
ATOM     36  O   ARG d   1      43.396  -7.962 -13.516  0.00  0.00    -0.271 OA
ATOM     37  N   VAL d   1      42.129  -9.659 -12.737  0.00  0.00    -0.346 N 
ATOM     38  H27 VAL d   1      41.993 -10.649 -12.691  0.00  0.00     0.163 HD
BRANCH  37  39
ATOM     39  CA  VAL d   1      41.112  -8.760 -12.188  0.00  0.00     0.092 C 
ATOM     40  H28 VAL d   1      40.765  -8.084 -12.983  0.00  0.00     0.088 H 
BRANCH  39  41
ATOM     41  C   VAL d   1      41.767  -7.934 -11.074  0.00  0.00     0.243 C 
ATOM     42  O   VAL d   1      42.394  -8.509 -10.187  0.00  0.00    -0.271 OA
ATOM     43  N   PRO d   1      41.640  -6.591 -11.121  0.00  0.00    -0.336 N 
ATOM     44  CA  PRO d   1      42.316  -5.806 -10.075  0.00  0.00     0.098 C 
ATOM     45  CD  PRO d   1      41.067  -5.740 -12.172  0.00  0.00    -0.001 C 
ATOM     46  CB  PRO d   1      42.282  -4.366 -10.612  0.00  0.00    -0.035 C 
ATOM     47  H36 PRO d   1      43.358  -6.143  -9.976  0.00  0.00     0.089 H 
ATOM     48  CG  PRO d   1      41.168  -4.342 -11.600  0.00  0.00    -0.048 C 
ATOM     49  H37 PRO d   1      43.235  -4.114 -11.100  0.00  0.00     0.036 H 
ATOM     50  H38 PRO d   1      42.088  -3.655  -9.796  0.00  0.00     0.036 H 
ATOM     51  H39 PRO d   1      41.386  -3.619 -12.400  0.00  0.00     0.035 H 
ATOM     52  H40 PRO d   1      40.226  -4.066 -11.103  0.00  0.00     0.035 H 
ATOM     53  H41 PRO d   1      40.018  -6.009 -12.366  0.00  0.00     0.064 H 
ATOM     54  H42 PRO d   1      41.645  -5.825 -13.104  0.00  0.00     0.064 H 
BRANCH  44  55
ATOM     55  C   PRO d   1      41.644  -5.927  -8.697  0.00  0.00     0.196 C 
ATOM     56  O   PRO d   1      42.156  -5.342  -7.761  0.00  0.00    -0.646 OA
ATOM     57  OXT PRO d   1      40.626  -6.595  -8.425  0.00  0.00    -0.646 OA
ENDBRANCH  44  55
ENDBRANCH  39  41
BRANCH  39  58
ATOM     58  CB  VAL d   1      39.906  -9.532 -11.650  0.00  0.00    -0.033 C 
ATOM     59  H29 VAL d   1      40.275 -10.359 -11.025  0.00  0.00     0.042 H 
BRANCH  58  60
ATOM     60  CG1 VAL d   1      39.010  -8.651 -10.781  0.00  0.00    -0.071 C 
ATOM     61  H30 VAL d   1      38.158  -9.242 -10.416  0.00  0.00     0.028 H 
ATOM     62  H31 VAL d   1      38.640  -7.804 -11.377  0.00  0.00     0.028 H 
ATOM     63  H32 VAL d   1      39.587  -8.272  -9.925  0.00  0.00     0.028 H 
ENDBRANCH  58  60
BRANCH  58  64
ATOM     64  CG2 VAL d   1      39.130 -10.123 -12.827  0.00  0.00    -0.071 C 
ATOM     65  H33 VAL d   1      39.802 -10.750 -13.431  0.00  0.00     0.028 H 
ATOM     66  H34 VAL d   1      38.731  -9.308 -13.449  0.00  0.00     0.028 H 
ATOM     67  H35 VAL d   1      38.299 -10.736 -12.448  0.00  0.00     0.028 H 
ENDBRANCH  58  64
ENDBRANCH  39  58
ENDBRANCH  37  39
ENDBRANCH   1  35
BRANCH   1  68
ATOM     68  CB  ARG d   1      45.534  -9.858 -12.712  0.00  0.00    -0.036 C 
ATOM     69  H16 ARG d   1      45.149  -9.557 -11.727  0.00  0.00     0.036 H 
ATOM     70  H17 ARG d   1      46.100  -9.025 -13.155  0.00  0.00     0.036 H 
BRANCH  68  71
ATOM     71  CG  ARG d   1      46.490 -11.022 -12.508  0.00  0.00    -0.048 C 
ATOM     72  H18 ARG d   1      47.339 -10.680 -11.898  0.00  0.00     0.035 H 
ATOM     73  H19 ARG d   1      46.855 -11.356 -13.490  0.00  0.00     0.035 H 
BRANCH  71  74
ATOM     74  CD  ARG d   1      45.825 -12.203 -11.804  0.00  0.00     0.009 C 
ATOM     75  H20 ARG d   1      44.992 -12.568 -12.423  0.00  0.00     0.064 H 
ATOM     76  H21 ARG d   1      45.439 -11.869 -10.829  0.00  0.00     0.064 H 
BRANCH  74  77
ATOM     77  NE  ARG d   1      46.772 -13.289 -11.594  0.00  0.00    -0.227 N 
ATOM     78  CZ  ARG d   1      47.231 -14.090 -12.554  0.00  0.00     0.665 C 
ATOM     79  NH1 ARG d   1      48.098 -15.046 -12.234  0.00  0.00    -0.235 N 
ATOM     80  NH2 ARG d   1      46.840 -13.951 -13.829  0.00  0.00    -0.235 N 
ATOM     81  H23 ARG d   1      48.464 -15.675 -12.963  0.00  0.00     0.174 HD
ATOM     82  H24 ARG d   1      48.404 -15.158 -11.257  0.00  0.00     0.174 HD
ATOM     83  H25 ARG d   1      46.169 -13.213 -14.084  0.00  0.00     0.174 HD
ATOM     84  H26 ARG d   1      47.211 -14.582 -14.553  0.00  0.00     0.174 HD
ATOM     85  H22 ARG d   1      47.111 -13.449 -10.635  0.00  0.00     0.177 HD
ENDBRANCH  74  77
ENDBRANCH  71  74
ENDBRANCH  68  71
ENDBRANCH   1  68
TORSDOF 17
