REMARK  7 active torsions:
REMARK  status: ('A' for Active; 'I' for Inactive)
REMARK    1  A    between atoms: C1_1  and  C_25 
REMARK    2  A    between atoms: C11_9  and  N6_4 
REMARK    3  A    between atoms: N6_4  and  C16_14 
REMARK    4  A    between atoms: C7_5  and  C8_6 
REMARK       I    between atoms: N_26  and  C7_5 
REMARK    5  A    between atoms: N1_21  and  C9_7 
REMARK    6  A    between atoms: C4_22  and  N1_21 
REMARK    7  A    between atoms: C6_24  and  N_26 
ROOT
ATOM      1  C9  5Y2 d   1      18.783 -67.787  -2.084  0.00  0.00     0.134 A 
ATOM      2  C10 5Y2 d   1      19.593 -68.518  -1.215  0.00  0.00     0.005 A 
ATOM      3  C11 5Y2 d   1      20.709 -69.212  -1.670  0.00  0.00     0.131 A 
ATOM      4  C12 5Y2 d   1      20.102 -68.343  -3.868  0.00  0.00     0.177 A 
ATOM      5  C13 5Y2 d   1      20.578 -68.448  -5.186  0.00  0.00     0.111 A 
ATOM      6  C14 5Y2 d   1      21.724 -69.251  -5.087  0.00  0.00     0.046 A 
ATOM      7  C15 5Y2 d   1      20.018 -67.854  -6.361  0.00  0.00     0.105 C 
ATOM      8  N5  5Y2 d   1      19.591 -67.376  -7.310  0.00  0.00    -0.191 NA
ATOM      9  N4  5Y2 d   1      21.987 -69.649  -3.811  0.00  0.00    -0.175 NA
ATOM     10  N2  5Y2 d   1      20.920 -69.148  -3.077  0.00  0.00    -0.198 N 
ATOM     11  N3  5Y2 d   1      19.014 -67.708  -3.403  0.00  0.00    -0.210 NA
ATOM     12  H7  5Y2 d   1      19.346 -68.546  -0.155  0.00  0.00     0.095 H 
ATOM     13  H8  5Y2 d   1      22.340 -69.528  -5.942  0.00  0.00     0.120 H 
ENDROOT
BRANCH   3  14
ATOM     14  N6  5Y2 d   1      21.579 -69.891  -0.838  0.00  0.00    -0.364 N 
ATOM     15  H3  5Y2 d   1      22.374 -70.391  -1.261  0.00  0.00     0.162 HD
BRANCH  14  16
ATOM     16  C16 5Y2 d   1      21.422 -69.933   0.619  0.00  0.00     0.044 A 
ATOM     17  C18 5Y2 d   1      20.758 -71.102   1.227  0.00  0.00    -0.079 A 
ATOM     18  C17 5Y2 d   1      22.220 -70.907   1.390  0.00  0.00    -0.079 A 
ATOM     19  H10 5Y2 d   1      19.856 -71.682   1.417  0.00  0.00     0.080 H 
ATOM     20  H11 5Y2 d   1      23.178 -71.239   1.787  0.00  0.00     0.080 H 
ATOM     21  H9  5Y2 d   1      21.243 -68.921   1.012  0.00  0.00     0.085 H 
ENDBRANCH  14  16
ENDBRANCH   3  14
BRANCH   1  22
ATOM     22  N1  5Y2 d   1      17.673 -67.181  -1.509  0.00  0.00    -0.341 N 
ATOM     23  H12 5Y2 d   1      17.560 -67.391  -0.507  0.00  0.00     0.167 HD
BRANCH  22  24
ATOM     24  C4  5Y2 d   1      16.676 -66.339  -2.024  0.00  0.00     0.035 A 
ATOM     25  C3  5Y2 d   1      15.687 -65.871  -1.169  0.00  0.00    -0.057 A 
ATOM     26  C2  5Y2 d   1      14.672 -65.067  -1.657  0.00  0.00    -0.073 A 
ATOM     27  H2  5Y2 d   1      15.710 -66.136  -0.118  0.00  0.00     0.086 H 
ATOM     28  C1  5Y2 d   1      14.597 -64.718  -3.008  0.00  0.00    -0.035 A 
ATOM     29  H1  5Y2 d   1      13.916 -64.698  -0.974  0.00  0.00     0.084 H 
ATOM     30  C6  5Y2 d   1      15.662 -65.112  -3.841  0.00  0.00     0.042 A 
ATOM     31  C5  5Y2 d   1      16.666 -65.954  -3.361  0.00  0.00    -0.031 A 
ATOM     32  H13 5Y2 d   1      17.440 -66.309  -4.032  0.00  0.00     0.090 H 
BRANCH  28  33
ATOM     33  C   5Y2 d   1      13.477 -63.843  -3.514  0.00  0.00    -0.049 C 
ATOM     34  H14 5Y2 d   1      12.758 -63.661  -2.701  0.00  0.00     0.033 H 
ATOM     35  H15 5Y2 d   1      12.967 -64.346  -4.348  0.00  0.00     0.033 H 
ATOM     36  H16 5Y2 d   1      13.889 -62.884  -3.861  0.00  0.00     0.033 H 
ENDBRANCH  28  33
BRANCH  30  37
ATOM     37  N   5Y2 d   1      15.515 -64.874  -5.224  0.00  0.00    -0.327 N 
ATOM     38  C7  5Y2 d   1      16.012 -65.514  -6.309  0.00  0.00     0.218 C 
ATOM     39  O   5Y2 d   1      16.321 -64.924  -7.331  0.00  0.00    -0.274 OA
ATOM     40  H17 5Y2 d   1      14.937 -64.088  -5.443  0.00  0.00     0.169 HD
BRANCH  38  41
ATOM     41  C8  5Y2 d   1      16.012 -67.014  -6.230  0.00  0.00    -0.003 C 
ATOM     42  H4  5Y2 d   1      16.434 -67.430  -7.157  0.00  0.00     0.040 H 
ATOM     43  H5  5Y2 d   1      14.981 -67.374  -6.102  0.00  0.00     0.040 H 
ATOM     44  H6  5Y2 d   1      16.622 -67.336  -5.373  0.00  0.00     0.040 H 
ENDBRANCH  38  41
ENDBRANCH  30  37
ENDBRANCH  22  24
ENDBRANCH   1  22
TORSDOF 7
