REMARK  14 active torsions:
REMARK  status: ('A' for Active; 'I' for Inactive)
REMARK    1  A    between atoms: C1_1  and  S1_12 
REMARK    2  A    between atoms: C2_2  and  O21_25 
REMARK    3  A    between atoms: N71_31  and  C3_3 
REMARK    4  A    between atoms: C4_4  and  O4_20 
REMARK    5  A    between atoms: C5_5  and  C6_6 
REMARK    6  A    between atoms: C6_6  and  O6_17 
REMARK    7  A    between atoms: C9_28  and  C12_8 
REMARK    8  A    between atoms: S1_12  and  C11_11 
REMARK    9  A    between atoms: C51_15  and  C61_16 
REMARK   10  A    between atoms: C61_16  and  O61_18 
REMARK   11  A    between atoms: C41_19  and  O41_21 
REMARK   12  A    between atoms: C31_22  and  N7_26 
REMARK   13  A    between atoms: C21_23  and  O2_24 
REMARK   14  A    between atoms: C10_33  and  C22_38 
ROOT
ATOM      1  S1  TD2 d   1     -21.135  10.399  -0.491  0.00  0.00    -0.100 SA
ENDROOT
BRANCH   1   2
ATOM      2  C1  TD2 d   1     -20.211   9.080  -1.185  0.00  0.00     0.112 C 
ATOM      3  C2  TD2 d   1     -18.724   9.283  -0.969  0.00  0.00     0.093 C 
ATOM      4  C3  TD2 d   1     -17.960   8.044  -1.204  0.00  0.00     0.090 C 
ATOM      5  H2  TD2 d   1     -18.580   9.570   0.083  0.00  0.00     0.091 H 
ATOM      6  C4  TD2 d   1     -18.450   6.861  -0.477  0.00  0.00     0.086 C 
ATOM      7  H3  TD2 d   1     -18.137   7.809  -2.264  0.00  0.00     0.084 H 
ATOM      8  C5  TD2 d   1     -19.929   6.646  -0.720  0.00  0.00     0.087 C 
ATOM      9  H4  TD2 d   1     -17.897   5.977  -0.827  0.00  0.00     0.090 H 
ATOM     10  O5  TD2 d   1     -20.753   7.855  -0.567  0.00  0.00    -0.363 OA
ATOM     11  H5  TD2 d   1     -20.026   6.325  -1.768  0.00  0.00     0.090 H 
ATOM     12  H1  TD2 d   1     -20.389   9.039  -2.270  0.00  0.00     0.104 H 
BRANCH   3  13
ATOM     13  O21 TD2 d   1     -18.218  10.335  -1.779  0.00  0.00    -0.390 OA
ATOM     14  H21 TD2 d   1     -17.305  10.487  -1.565  0.00  0.00     0.210 HD
ENDBRANCH   3  13
BRANCH   4  15
ATOM     15  N71 TD2 d   1     -16.504   8.226  -1.096  0.00  0.00    -0.250 N 
ATOM     16  N8  TD2 d   1     -15.646   8.118  -2.137  0.00  0.00    -0.065 NA
ATOM     17  N9  TD2 d   1     -14.420   8.319  -1.747  0.00  0.00    -0.130 NA
ATOM     18  C10 TD2 d   1     -14.423   8.571  -0.411  0.00  0.00     0.108 A 
ATOM     19  C71 TD2 d   1     -15.820   8.499   0.014  0.00  0.00     0.031 A 
ATOM     20  H23 TD2 d   1     -16.215   8.638   1.019  0.00  0.00     0.118 H 
BRANCH  18  21
ATOM     21  C22 TD2 d   1     -13.201   8.850   0.436  0.00  0.00    -0.001 A 
ATOM     22  C23 TD2 d   1     -12.015   9.292  -0.196  0.00  0.00    -0.070 A 
ATOM     23  C24 TD2 d   1     -10.862   9.548   0.567  0.00  0.00    -0.079 A 
ATOM     24  H27 TD2 d   1     -11.995   9.434  -1.270  0.00  0.00     0.084 H 
ATOM     25  C25 TD2 d   1     -10.893   9.364   1.932  0.00  0.00    -0.046 A 
ATOM     26  H28 TD2 d   1      -9.953   9.888   0.084  0.00  0.00     0.083 H 
ATOM     27  C26 TD2 d   1     -12.057   8.929   2.554  0.00  0.00     0.117 A 
ATOM     28  H29 TD2 d   1     -10.006   9.559   2.523  0.00  0.00     0.088 H 
ATOM     29  C27 TD2 d   1     -13.230   8.666   1.779  0.00  0.00    -0.034 A 
ATOM     30  F28 TD2 d   1     -12.075   8.750   3.896  0.00  0.00    -0.206 F 
ATOM     31  H30 TD2 d   1     -14.137   8.322   2.263  0.00  0.00     0.089 H 
ENDBRANCH  18  21
ENDBRANCH   4  15
BRANCH   6  32
ATOM     32  O4  TD2 d   1     -18.236   7.025   0.916  0.00  0.00    -0.391 OA
ATOM     33  H16 TD2 d   1     -17.310   7.161   1.079  0.00  0.00     0.210 HD
ENDBRANCH   6  32
BRANCH   8  34
ATOM     34  C6  TD2 d   1     -20.476   5.571   0.118  0.00  0.00     0.043 C 
ATOM     35  H6  TD2 d   1     -20.502   5.888   1.171  0.00  0.00     0.078 H 
ATOM     36  H7  TD2 d   1     -19.858   4.666   0.023  0.00  0.00     0.078 H 
BRANCH  34  37
ATOM     37  O6  TD2 d   1     -21.756   5.322  -0.334  0.00  0.00    -0.398 OA
ATOM     38  H13 TD2 d   1     -22.278   6.111  -0.253  0.00  0.00     0.209 HD
ENDBRANCH  34  37
ENDBRANCH   8  34
ENDBRANCH   1   2
BRANCH   1  39
ATOM     39  C11 TD2 d   1     -22.812   9.956  -0.830  0.00  0.00     0.112 C 
ATOM     40  O51 TD2 d   1     -23.286  10.574  -2.101  0.00  0.00    -0.363 OA
ATOM     41  C51 TD2 d   1     -24.660  10.143  -2.418  0.00  0.00     0.087 C 
ATOM     42  C41 TD2 d   1     -25.611  10.342  -1.265  0.00  0.00     0.086 C 
ATOM     43  H10 TD2 d   1     -24.636   9.069  -2.654  0.00  0.00     0.090 H 
ATOM     44  C31 TD2 d   1     -25.078   9.751  -0.016  0.00  0.00     0.090 C 
ATOM     45  H15 TD2 d   1     -26.550   9.824  -1.508  0.00  0.00     0.090 H 
ATOM     46  C21 TD2 d   1     -23.716  10.250   0.314  0.00  0.00     0.093 C 
ATOM     47  H18 TD2 d   1     -24.980   8.671  -0.202  0.00  0.00     0.084 H 
ATOM     48  H19 TD2 d   1     -23.755  11.336   0.483  0.00  0.00     0.091 H 
ATOM     49  H9  TD2 d   1     -22.832   8.866  -0.977  0.00  0.00     0.104 H 
BRANCH  41  50
ATOM     50  C61 TD2 d   1     -25.140  10.887  -3.627  0.00  0.00     0.043 C 
ATOM     51  H11 TD2 d   1     -25.080  11.971  -3.451  0.00  0.00     0.078 H 
ATOM     52  H12 TD2 d   1     -26.180  10.609  -3.853  0.00  0.00     0.078 H 
BRANCH  50  53
ATOM     53  O61 TD2 d   1     -24.305  10.526  -4.689  0.00  0.00    -0.398 OA
ATOM     54  H14 TD2 d   1     -23.409  10.765  -4.481  0.00  0.00     0.209 HD
ENDBRANCH  50  53
ENDBRANCH  41  50
BRANCH  42  55
ATOM     55  O41 TD2 d   1     -25.914  11.770  -1.086  0.00  0.00    -0.391 OA
ATOM     56  H17 TD2 d   1     -26.513  11.876  -0.357  0.00  0.00     0.210 HD
ENDBRANCH  42  55
BRANCH  44  57
ATOM     57  N7  TD2 d   1     -26.009   9.900   1.135  0.00  0.00    -0.250 N 
ATOM     58  C8  TD2 d   1     -26.707   8.857   1.704  0.00  0.00     0.031 A 
ATOM     59  C9  TD2 d   1     -27.448   9.430   2.748  0.00  0.00     0.108 A 
ATOM     60  H22 TD2 d   1     -26.687   7.810   1.406  0.00  0.00     0.118 H 
ATOM     61  N10 TD2 d   1     -27.141  10.764   2.746  0.00  0.00    -0.130 NA
ATOM     62  N11 TD2 d   1     -26.284  10.993   1.768  0.00  0.00    -0.065 NA
BRANCH  59  63
ATOM     63  C12 TD2 d   1     -28.373   8.684   3.696  0.00  0.00    -0.001 A 
ATOM     64  C13 TD2 d   1     -28.934   9.335   4.761  0.00  0.00    -0.034 A 
ATOM     65  C14 TD2 d   1     -29.782   8.630   5.648  0.00  0.00     0.117 A 
ATOM     66  H8  TD2 d   1     -28.730  10.387   4.925  0.00  0.00     0.089 H 
ATOM     67  C15 TD2 d   1     -30.044   7.239   5.435  0.00  0.00    -0.046 A 
ATOM     68  F18 TD2 d   1     -30.342   9.267   6.692  0.00  0.00    -0.206 F 
ATOM     69  C16 TD2 d   1     -29.483   6.594   4.387  0.00  0.00    -0.079 A 
ATOM     70  H24 TD2 d   1     -30.694   6.701   6.116  0.00  0.00     0.088 H 
ATOM     71  C17 TD2 d   1     -28.626   7.308   3.488  0.00  0.00    -0.070 A 
ATOM     72  H25 TD2 d   1     -29.681   5.540   4.228  0.00  0.00     0.083 H 
ATOM     73  H26 TD2 d   1     -28.172   6.794   2.649  0.00  0.00     0.084 H 
ENDBRANCH  59  63
ENDBRANCH  44  57
BRANCH  46  74
ATOM     74  O2  TD2 d   1     -23.211   9.592   1.523  0.00  0.00    -0.390 OA
ATOM     75  H20 TD2 d   1     -23.171   8.654   1.379  0.00  0.00     0.210 HD
ENDBRANCH  46  74
ENDBRANCH   1  39
TORSDOF 14
