REMARK  14 active torsions:
REMARK  status: ('A' for Active; 'I' for Inactive)
REMARK    1  A    between atoms: C1_1  and  S1_12 
REMARK    2  A    between atoms: C2_2  and  O21_25 
REMARK    3  A    between atoms: N71_31  and  C3_3 
REMARK    4  A    between atoms: C4_4  and  O4_20 
REMARK    5  A    between atoms: C5_5  and  C6_6 
REMARK    6  A    between atoms: C6_6  and  O6_17 
REMARK    7  A    between atoms: C9_28  and  C12_8 
REMARK    8  A    between atoms: S1_12  and  C11_11 
REMARK    9  A    between atoms: C51_15  and  C61_16 
REMARK   10  A    between atoms: C61_16  and  O61_18 
REMARK   11  A    between atoms: C41_19  and  O41_21 
REMARK   12  A    between atoms: C31_22  and  N7_26 
REMARK   13  A    between atoms: C21_23  and  O2_24 
REMARK   14  A    between atoms: C10_33  and  C22_38 
ROOT
ATOM      1  S1  TD2 d   1      24.282 -24.975  35.691  0.00  0.00    -0.100 SA
ENDROOT
BRANCH   1   2
ATOM      2  C1  TD2 d   1      24.094 -26.675  36.075  0.00  0.00     0.112 C 
ATOM      3  C2  TD2 d   1      24.824 -27.531  35.062  0.00  0.00     0.093 C 
ATOM      4  C3  TD2 d   1      24.951 -28.940  35.483  0.00  0.00     0.090 C 
ATOM      5  H2  TD2 d   1      25.840 -27.124  34.958  0.00  0.00     0.091 H 
ATOM      6  C4  TD2 d   1      25.473 -29.113  36.851  0.00  0.00     0.086 C 
ATOM      7  H3  TD2 d   1      23.936 -29.363  35.483  0.00  0.00     0.084 H 
ATOM      8  C5  TD2 d   1      24.710 -28.293  37.873  0.00  0.00     0.087 C 
ATOM      9  H4  TD2 d   1      25.402 -30.176  37.124  0.00  0.00     0.090 H 
ATOM     10  O5  TD2 d   1      24.453 -26.894  37.488  0.00  0.00    -0.363 OA
ATOM     11  H5  TD2 d   1      23.726 -28.773  37.980  0.00  0.00     0.090 H 
ATOM     12  H1  TD2 d   1      23.027 -26.924  35.979  0.00  0.00     0.104 H 
BRANCH   3  13
ATOM     13  O21 TD2 d   1      24.188 -27.455  33.793  0.00  0.00    -0.390 OA
ATOM     14  H21 TD2 d   1      23.323 -27.843  33.850  0.00  0.00     0.210 HD
ENDBRANCH   3  13
BRANCH   4  15
ATOM     15  N71 TD2 d   1      25.735 -29.697  34.493  0.00  0.00    -0.250 N 
ATOM     16  N8  TD2 d   1      26.770 -29.200  33.781  0.00  0.00    -0.065 NA
ATOM     17  N9  TD2 d   1      27.257 -30.109  32.986  0.00  0.00    -0.130 NA
ATOM     18  C10 TD2 d   1      26.547 -31.256  33.146  0.00  0.00     0.108 A 
ATOM     19  C71 TD2 d   1      25.533 -30.967  34.152  0.00  0.00     0.031 A 
ATOM     20  H23 TD2 d   1      24.774 -31.644  34.541  0.00  0.00     0.118 H 
BRANCH  18  21
ATOM     21  C22 TD2 d   1      26.777 -32.562  32.417  0.00  0.00    -0.001 A 
ATOM     22  C23 TD2 d   1      26.364 -33.785  32.994  0.00  0.00    -0.070 A 
ATOM     23  C24 TD2 d   1      26.585 -34.994  32.309  0.00  0.00    -0.079 A 
ATOM     24  H27 TD2 d   1      25.878 -33.791  33.963  0.00  0.00     0.084 H 
ATOM     25  C25 TD2 d   1      27.205 -34.983  31.077  0.00  0.00    -0.046 A 
ATOM     26  H28 TD2 d   1      26.268 -35.933  32.749  0.00  0.00     0.083 H 
ATOM     27  C26 TD2 d   1      27.612 -33.778  30.512  0.00  0.00     0.117 A 
ATOM     28  H29 TD2 d   1      27.375 -35.914  30.548  0.00  0.00     0.088 H 
ATOM     29  C27 TD2 d   1      27.386 -32.552  31.207  0.00  0.00    -0.034 A 
ATOM     30  F28 TD2 d   1      28.221 -33.761  29.304  0.00  0.00    -0.206 F 
ATOM     31  H30 TD2 d   1      27.702 -31.613  30.767  0.00  0.00     0.089 H 
ENDBRANCH  18  21
ENDBRANCH   4  15
BRANCH   6  32
ATOM     32  O4  TD2 d   1      26.830 -28.705  36.876  0.00  0.00    -0.391 OA
ATOM     33  H16 TD2 d   1      27.188 -28.851  37.744  0.00  0.00     0.210 HD
ENDBRANCH   6  32
BRANCH   8  34
ATOM     34  C6  TD2 d   1      25.366 -28.341  39.190  0.00  0.00     0.043 C 
ATOM     35  H6  TD2 d   1      25.076 -27.462  39.785  0.00  0.00     0.078 H 
ATOM     36  H7  TD2 d   1      26.459 -28.353  39.063  0.00  0.00     0.078 H 
BRANCH  34  37
ATOM     37  O6  TD2 d   1      24.954 -29.496  39.827  0.00  0.00    -0.398 OA
ATOM     38  H13 TD2 d   1      25.366 -29.549  40.682  0.00  0.00     0.209 HD
ENDBRANCH  34  37
ENDBRANCH   8  34
ENDBRANCH   1   2
BRANCH   1  39
ATOM     39  C11 TD2 d   1      22.729 -24.270  36.147  0.00  0.00     0.112 C 
ATOM     40  O51 TD2 d   1      21.667 -24.988  35.382  0.00  0.00    -0.363 OA
ATOM     41  C51 TD2 d   1      20.328 -24.475  35.704  0.00  0.00     0.087 C 
ATOM     42  C41 TD2 d   1      20.286 -22.983  35.505  0.00  0.00     0.086 C 
ATOM     43  H10 TD2 d   1      20.093 -24.697  36.755  0.00  0.00     0.090 H 
ATOM     44  C31 TD2 d   1      21.324 -22.330  36.339  0.00  0.00     0.090 C 
ATOM     45  H15 TD2 d   1      19.293 -22.602  35.784  0.00  0.00     0.090 H 
ATOM     46  C21 TD2 d   1      22.686 -22.789  35.964  0.00  0.00     0.093 C 
ATOM     47  H18 TD2 d   1      21.162 -22.679  37.369  0.00  0.00     0.084 H 
ATOM     48  H19 TD2 d   1      22.912 -22.519  34.922  0.00  0.00     0.091 H 
ATOM     49  H9  TD2 d   1      22.567 -24.465  37.217  0.00  0.00     0.104 H 
BRANCH  41  50
ATOM     50  C61 TD2 d   1      19.345 -25.182  34.821  0.00  0.00     0.043 C 
ATOM     51  H11 TD2 d   1      19.584 -24.991  33.764  0.00  0.00     0.078 H 
ATOM     52  H12 TD2 d   1      18.326 -24.829  35.036  0.00  0.00     0.078 H 
BRANCH  50  53
ATOM     53  O61 TD2 d   1      19.443 -26.557  35.093  0.00  0.00    -0.398 OA
ATOM     54  H14 TD2 d   1      20.327 -26.853  34.909  0.00  0.00     0.209 HD
ENDBRANCH  50  53
ENDBRANCH  41  50
BRANCH  42  55
ATOM     55  O41 TD2 d   1      20.560 -22.676  34.092  0.00  0.00    -0.391 OA
ATOM     56  H17 TD2 d   1      19.902 -23.090  33.546  0.00  0.00     0.210 HD
ENDBRANCH  42  55
BRANCH  44  57
ATOM     57  N7  TD2 d   1      21.151 -20.850  36.380  0.00  0.00    -0.250 N 
ATOM     58  C8  TD2 d   1      21.751 -19.889  35.583  0.00  0.00     0.031 A 
ATOM     59  C9  TD2 d   1      21.229 -18.661  36.048  0.00  0.00     0.108 A 
ATOM     60  H22 TD2 d   1      22.466 -20.045  34.777  0.00  0.00     0.118 H 
ATOM     61  N10 TD2 d   1      20.376 -18.969  37.065  0.00  0.00    -0.130 NA
ATOM     62  N11 TD2 d   1      20.362 -20.272  37.220  0.00  0.00    -0.065 NA
BRANCH  59  63
ATOM     63  C12 TD2 d   1      21.511 -17.246  35.572  0.00  0.00    -0.001 A 
ATOM     64  C13 TD2 d   1      22.645 -16.944  34.866  0.00  0.00    -0.034 A 
ATOM     65  C14 TD2 d   1      22.868 -15.609  34.444  0.00  0.00     0.117 A 
ATOM     66  H8  TD2 d   1      23.366 -17.719  34.632  0.00  0.00     0.089 H 
ATOM     67  C15 TD2 d   1      21.923 -14.583  34.754  0.00  0.00    -0.046 A 
ATOM     68  F18 TD2 d   1      23.975 -15.303  33.747  0.00  0.00    -0.206 F 
ATOM     69  C16 TD2 d   1      20.807 -14.880  35.455  0.00  0.00    -0.079 A 
ATOM     70  H24 TD2 d   1      22.102 -13.565  34.426  0.00  0.00     0.088 H 
ATOM     71  C17 TD2 d   1      20.579 -16.228  35.882  0.00  0.00    -0.070 A 
ATOM     72  H25 TD2 d   1      20.089 -14.103  35.693  0.00  0.00     0.083 H 
ATOM     73  H26 TD2 d   1      19.686 -16.470  36.447  0.00  0.00     0.084 H 
ENDBRANCH  59  63
ENDBRANCH  44  57
BRANCH  46  74
ATOM     74  O2  TD2 d   1      23.662 -22.185  36.871  0.00  0.00    -0.390 OA
ATOM     75  H20 TD2 d   1      23.613 -21.239  36.802  0.00  0.00     0.210 HD
ENDBRANCH  46  74
ENDBRANCH   1  39
TORSDOF 14
