REMARK  13 active torsions:
REMARK  status: ('A' for Active; 'I' for Inactive)
REMARK    1  A    between atoms: C1_7  and  S1_1 
REMARK    2  A    between atoms: S1_1  and  C1'_8 
REMARK    3  A    between atoms: C2_2  and  O2_22 
REMARK    4  A    between atoms: N7_24  and  C3_3 
REMARK    5  A    between atoms: C5_4  and  C6_5 
REMARK    6  A    between atoms: C6_5  and  O6_13 
REMARK    7  A    between atoms: C5'_11  and  C6'_12 
REMARK    8  A    between atoms: C6'_12  and  O6'_14 
REMARK    9  A    between atoms: C4_15  and  O4_17 
REMARK   10  A    between atoms: C4'_16  and  O4'_18 
REMARK   11  A    between atoms: C3'_19  and  O3'_20 
REMARK   12  A    between atoms: C2'_21  and  O2'_23 
REMARK   13  A    between atoms: C12_29  and  C10_27 
ROOT
ATOM      1  C2  TGZ d   1     -24.807 -27.599 -36.248  0.00  0.00     0.093 C 
ATOM      2  C3  TGZ d   1     -24.757 -29.076 -36.639  0.00  0.00     0.086 C 
ATOM      3  C5  TGZ d   1     -24.572 -28.390 -38.993  0.00  0.00     0.087 C 
ATOM      4  C1  TGZ d   1     -24.065 -26.787 -37.303  0.00  0.00     0.112 C 
ATOM      5  O5  TGZ d   1     -24.649 -27.015 -38.592  0.00  0.00    -0.363 OA
ATOM      6  C4  TGZ d   1     -25.360 -29.260 -38.019  0.00  0.00     0.086 C 
ATOM      7  H1  TGZ d   1     -25.856 -27.271 -36.203  0.00  0.00     0.091 H 
ATOM      8  H2  TGZ d   1     -23.702 -29.384 -36.683  0.00  0.00     0.083 H 
ATOM      9  H3  TGZ d   1     -23.518 -28.704 -38.965  0.00  0.00     0.090 H 
ATOM     10  H6  TGZ d   1     -23.013 -27.106 -37.328  0.00  0.00     0.104 H 
ATOM     11  H13 TGZ d   1     -25.316 -30.316 -38.325  0.00  0.00     0.090 H 
ENDROOT
BRANCH   4  12
ATOM     12  S1  TGZ d   1     -24.134 -25.073 -36.884  0.00  0.00    -0.100 SA
BRANCH  12  13
ATOM     13  C1' TGZ d   1     -22.571 -24.376 -37.303  0.00  0.00     0.112 C 
ATOM     14  O5' TGZ d   1     -21.550 -25.014 -36.521  0.00  0.00    -0.363 OA
ATOM     15  C5' TGZ d   1     -20.245 -24.517 -36.788  0.00  0.00     0.087 C 
ATOM     16  C4' TGZ d   1     -20.218 -23.042 -36.396  0.00  0.00     0.089 C 
ATOM     17  H8  TGZ d   1     -20.026 -24.607 -37.862  0.00  0.00     0.090 H 
ATOM     18  C3' TGZ d   1     -21.237 -22.268 -37.229  0.00  0.00     0.090 C 
ATOM     19  H14 TGZ d   1     -19.214 -22.632 -36.581  0.00  0.00     0.091 H 
ATOM     20  C2' TGZ d   1     -22.619 -22.879 -37.035  0.00  0.00     0.096 C 
ATOM     21  H17 TGZ d   1     -20.955 -22.346 -38.289  0.00  0.00     0.091 H 
ATOM     22  H19 TGZ d   1     -22.951 -22.704 -36.001  0.00  0.00     0.092 H 
ATOM     23  H7  TGZ d   1     -22.365 -24.545 -38.370  0.00  0.00     0.104 H 
BRANCH  15  24
ATOM     24  C6' TGZ d   1     -19.227 -25.348 -36.007  0.00  0.00     0.043 C 
ATOM     25  H9  TGZ d   1     -19.536 -25.402 -34.953  0.00  0.00     0.078 H 
ATOM     26  H10 TGZ d   1     -18.239 -24.868 -36.075  0.00  0.00     0.078 H 
BRANCH  24  27
ATOM     27  O6' TGZ d   1     -19.145 -26.679 -36.545  0.00  0.00    -0.398 OA
ATOM     28  H12 TGZ d   1     -19.996 -27.097 -36.485  0.00  0.00     0.209 HD
ENDBRANCH  24  27
ENDBRANCH  15  24
BRANCH  16  29
ATOM     29  O4' TGZ d   1     -20.529 -22.927 -35.004  0.00  0.00    -0.390 OA
ATOM     30  H16 TGZ d   1     -19.885 -23.407 -34.496  0.00  0.00     0.210 HD
ENDBRANCH  16  29
BRANCH  18  31
ATOM     31  O3' TGZ d   1     -21.274 -20.882 -36.866  0.00  0.00    -0.390 OA
ATOM     32  H18 TGZ d   1     -21.916 -20.432 -37.402  0.00  0.00     0.210 HD
ENDBRANCH  18  31
BRANCH  20  33
ATOM     33  O2' TGZ d   1     -23.545 -22.272 -37.944  0.00  0.00    -0.389 OA
ATOM     34  H21 TGZ d   1     -23.586 -21.338 -37.776  0.00  0.00     0.210 HD
ENDBRANCH  20  33
ENDBRANCH  12  13
ENDBRANCH   4  12
BRANCH   1  35
ATOM     35  O2  TGZ d   1     -24.195 -27.394 -34.964  0.00  0.00    -0.390 OA
ATOM     36  H20 TGZ d   1     -23.288 -27.674 -34.998  0.00  0.00     0.210 HD
ENDBRANCH   1  35
BRANCH   2  37
ATOM     37  N7  TGZ d   1     -25.436 -29.924 -35.629  0.00  0.00    -0.273 N 
ATOM     38  N8  TGZ d   1     -26.423 -29.317 -34.845  0.00  0.00     0.005 NA
ATOM     39  N9  TGZ d   1     -26.866 -30.343 -33.986  0.00  0.00    -0.158 NA
ATOM     40  C10 TGZ d   1     -26.165 -31.467 -34.275  0.00  0.00     0.101 A 
ATOM     41  C11 TGZ d   1     -25.265 -31.198 -35.294  0.00  0.00     0.025 A 
ATOM     42  H22 TGZ d   1     -24.555 -31.896 -35.735  0.00  0.00     0.117 H 
BRANCH  40  43
ATOM     43  C12 TGZ d   1     -26.270 -32.788 -33.602  0.00  0.00    -0.002 A 
ATOM     44  C13 TGZ d   1     -26.427 -32.829 -32.222  0.00  0.00    -0.034 A 
ATOM     45  C14 TGZ d   1     -26.509 -34.054 -31.569  0.00  0.00     0.117 A 
ATOM     46  H23 TGZ d   1     -26.485 -31.907 -31.655  0.00  0.00     0.089 H 
ATOM     47  C15 TGZ d   1     -26.420 -35.237 -32.301  0.00  0.00    -0.046 A 
ATOM     48  F18 TGZ d   1     -26.674 -34.090 -30.232  0.00  0.00    -0.206 F 
ATOM     49  C16 TGZ d   1     -26.249 -35.194 -33.683  0.00  0.00    -0.079 A 
ATOM     50  H24 TGZ d   1     -26.484 -36.193 -31.794  0.00  0.00     0.088 H 
ATOM     51  C17 TGZ d   1     -26.167 -33.967 -34.334  0.00  0.00    -0.070 A 
ATOM     52  H25 TGZ d   1     -26.180 -36.115 -34.250  0.00  0.00     0.083 H 
ATOM     53  H26 TGZ d   1     -26.023 -33.930 -35.408  0.00  0.00     0.084 H 
ENDBRANCH  40  43
ENDBRANCH   2  37
BRANCH   3  54
ATOM     54  C6  TGZ d   1     -25.082 -28.557 -40.418  0.00  0.00     0.043 C 
ATOM     55  H4  TGZ d   1     -24.771 -27.689 -41.018  0.00  0.00     0.078 H 
ATOM     56  H5  TGZ d   1     -26.180 -28.619 -40.404  0.00  0.00     0.078 H 
BRANCH  54  57
ATOM     57  O6  TGZ d   1     -24.549 -29.753 -41.007  0.00  0.00    -0.398 OA
ATOM     58  H11 TGZ d   1     -23.601 -29.701 -41.023  0.00  0.00     0.209 HD
ENDBRANCH  54  57
ENDBRANCH   3  54
BRANCH   6  59
ATOM     59  O4  TGZ d   1     -26.714 -28.812 -37.973  0.00  0.00    -0.391 OA
ATOM     60  H15 TGZ d   1     -26.738 -27.908 -37.682  0.00  0.00     0.210 HD
ENDBRANCH   6  59
TORSDOF 13
