REMARK  5 active torsions:
REMARK  status: ('A' for Active; 'I' for Inactive)
REMARK    1  A    between atoms: C14_12  and  N1_1 
REMARK    2  A    between atoms: N1_1  and  C19_17 
REMARK    3  A    between atoms: N1_1  and  C20_18 
REMARK    4  A    between atoms: C29_21  and  C8_7 
REMARK    5  A    between atoms: C14_12  and  C29_21 
ROOT
ATOM      1  C3  TP0 d   1     -12.064   3.931  -6.632  0.00  0.00    -0.018 C 
ATOM      2  C4  TP0 d   1      -9.747   3.690  -7.265  0.00  0.00    -0.047 A 
ATOM      3  C5  TP0 d   1     -11.359   6.175  -7.464  0.00  0.00    -0.047 A 
ATOM      4  C6  TP0 d   1     -10.793   3.436  -6.389  0.00  0.00    -0.019 A 
ATOM      5  C7  TP0 d   1     -12.216   5.315  -6.752  0.00  0.00    -0.019 A 
ATOM      6  C8  TP0 d   1     -13.028   2.945  -6.924  0.00  0.00    -0.090 C 
ATOM      7  C10 TP0 d   1      -8.477   3.170  -6.999  0.00  0.00    -0.076 A 
ATOM      8  C11 TP0 d   1     -11.618   7.547  -7.473  0.00  0.00    -0.076 A 
ATOM      9  C12 TP0 d   1     -10.597   2.676  -5.236  0.00  0.00    -0.072 A 
ATOM     10  C13 TP0 d   1     -13.288   5.856  -6.041  0.00  0.00    -0.072 A 
ATOM     11  C15 TP0 d   1      -8.272   2.410  -5.848  0.00  0.00    -0.082 A 
ATOM     12  C16 TP0 d   1     -12.705   8.071  -6.779  0.00  0.00    -0.082 A 
ATOM     13  C17 TP0 d   1      -9.327   2.163  -4.972  0.00  0.00    -0.082 A 
ATOM     14  C18 TP0 d   1     -13.543   7.224  -6.064  0.00  0.00    -0.082 A 
ATOM     15  C21 TP0 d   1      -9.862   4.437  -8.456  0.00  0.00    -0.036 C 
ATOM     16  C22 TP0 d   1     -10.197   5.923  -8.231  0.00  0.00    -0.036 C 
ATOM     17  H2  TP0 d   1     -12.717   1.910  -6.788  0.00  0.00     0.078 H 
ATOM     18  H3  TP0 d   1      -7.657   3.356  -7.683  0.00  0.00     0.084 H 
ATOM     19  H4  TP0 d   1     -10.965   8.212  -8.027  0.00  0.00     0.084 H 
ATOM     20  H5  TP0 d   1     -11.419   2.487  -4.555  0.00  0.00     0.084 H 
ATOM     21  H6  TP0 d   1     -13.931   5.202  -5.463  0.00  0.00     0.084 H 
ATOM     22  H9  TP0 d   1      -7.288   2.010  -5.634  0.00  0.00     0.083 H 
ATOM     23  H10 TP0 d   1     -12.897   9.138  -6.796  0.00  0.00     0.083 H 
ATOM     24  H11 TP0 d   1      -9.160   1.569  -4.081  0.00  0.00     0.083 H 
ATOM     25  H12 TP0 d   1     -14.393   7.628  -5.526  0.00  0.00     0.083 H 
ATOM     26  H19 TP0 d   1     -10.659   3.991  -9.069  0.00  0.00     0.040 H 
ATOM     27  H20 TP0 d   1      -8.906   4.376  -8.997  0.00  0.00     0.040 H 
ATOM     28  H21 TP0 d   1      -9.344   6.389  -7.717  0.00  0.00     0.040 H 
ATOM     29  H22 TP0 d   1     -10.332   6.393  -9.216  0.00  0.00     0.040 H 
ENDROOT
BRANCH   6  30
ATOM     30  C29 TP0 d   1     -14.486   3.167  -7.418  0.00  0.00    -0.026 C 
ATOM     31  H23 TP0 d   1     -14.841   2.241  -7.895  0.00  0.00     0.041 H 
ATOM     32  H24 TP0 d   1     -14.487   3.983  -8.155  0.00  0.00     0.041 H 
BRANCH  30  33
ATOM     33  C14 TP0 d   1     -15.440   3.529  -6.289  0.00  0.00     0.086 C 
ATOM     34  H7  TP0 d   1     -14.980   3.265  -5.325  0.00  0.00     0.076 H 
ATOM     35  H8  TP0 d   1     -15.641   4.610  -6.315  0.00  0.00     0.076 H 
BRANCH  33  36
ATOM     36  N1  TP0 d   1     -16.705   2.796  -6.441  0.00  0.00    -0.079 N 
ATOM     37  H1  TP0 d   1     -16.604   1.893  -6.004  0.00  0.00     0.278 HD
BRANCH  36  38
ATOM     38  C19 TP0 d   1     -17.735   3.572  -5.736  0.00  0.00     0.066 C 
ATOM     39  H13 TP0 d   1     -18.704   3.059  -5.823  0.00  0.00     0.068 H 
ATOM     40  H14 TP0 d   1     -17.809   4.574  -6.183  0.00  0.00     0.068 H 
ATOM     41  H15 TP0 d   1     -17.463   3.663  -4.674  0.00  0.00     0.068 H 
ENDBRANCH  36  38
BRANCH  36  42
ATOM     42  C20 TP0 d   1     -17.133   2.581  -7.826  0.00  0.00     0.066 C 
ATOM     43  H16 TP0 d   1     -16.367   2.001  -8.361  0.00  0.00     0.068 H 
ATOM     44  H17 TP0 d   1     -17.270   3.553  -8.323  0.00  0.00     0.068 H 
ATOM     45  H18 TP0 d   1     -18.084   2.028  -7.834  0.00  0.00     0.068 H 
ENDBRANCH  36  42
ENDBRANCH  33  36
ENDBRANCH  30  33
ENDBRANCH   6  30
TORSDOF 5
