REMARK  3 active torsions:
REMARK  status: ('A' for Active; 'I' for Inactive)
REMARK    1  A    between atoms: C11_6  and  N8_16 
REMARK    2  A    between atoms: C17_9  and  C18_10 
REMARK    3  A    between atoms: N25_26  and  C26_27 
ROOT
ATOM      1  C11 5Y6 d   1      -6.308  11.315 -11.169  0.00  0.00     0.066 A 
ATOM      2  C12 5Y6 d   1      -7.174  10.627 -12.037  0.00  0.00     0.079 A 
ATOM      3  C16 5Y6 d   1      -6.951   9.720  -9.445  0.00  0.00     0.015 A 
ATOM      4  C17 5Y6 d   1      -6.205  10.828  -9.833  0.00  0.00     0.020 A 
ATOM      5 CL   5Y6 d   1      -7.419  11.089 -13.694  0.00  0.00    -0.080 Cl
ATOM      6  C14 5Y6 d   1      -7.874   9.534 -11.554  0.00  0.00     0.025 A 
ATOM      7  N15 5Y6 d   1      -7.751   9.114 -10.303  0.00  0.00    -0.270 NA
ATOM      8  H7  5Y6 d   1      -6.875   9.351  -8.429  0.00  0.00     0.116 H 
ATOM      9  H16 5Y6 d   1      -8.545   9.005 -12.221  0.00  0.00     0.117 H 
ENDROOT
BRANCH   1  10
ATOM     10  N8  5Y6 d   1      -5.560  12.423 -11.593  0.00  0.00    -0.379 N 
ATOM     11  C7  5Y6 d   1      -4.505  12.285 -12.613  0.00  0.00    -0.002 C 
ATOM     12  C6  5Y6 d   1      -4.588  13.397 -13.665  0.00  0.00    -0.019 C 
ATOM     13  H5  5Y6 d   1      -3.523  12.333 -12.120  0.00  0.00     0.064 H 
ATOM     14  H6  5Y6 d   1      -4.617  11.312 -13.113  0.00  0.00     0.064 H 
ATOM     15  C5  5Y6 d   1      -4.692  14.785 -13.038  0.00  0.00     0.091 C 
ATOM     16  H3  5Y6 d   1      -3.684  13.359 -14.291  0.00  0.00     0.040 H 
ATOM     17  H4  5Y6 d   1      -5.476  13.225 -14.291  0.00  0.00     0.040 H 
ATOM     18  C4  5Y6 d   1      -3.347  15.232 -12.432  0.00  0.00     0.027 C 
ATOM     19  C10 5Y6 d   1      -5.825  14.855 -12.021  0.00  0.00    -0.019 C 
ATOM     20  O30 5Y6 d   1      -4.979  15.766 -14.064  0.00  0.00    -0.291 OA
ATOM     21  N3  5Y6 d   1      -2.907  16.264 -13.382  0.00  0.00    -0.334 N 
ATOM     22  H1  5Y6 d   1      -2.631  14.398 -12.390  0.00  0.00     0.068 H 
ATOM     23  H2  5Y6 d   1      -3.483  15.650 -11.424  0.00  0.00     0.068 H 
ATOM     24  C2  5Y6 d   1      -3.892  16.501 -14.266  0.00  0.00     0.361 C 
ATOM     25  H11 5Y6 d   1      -2.016  16.718 -13.372  0.00  0.00     0.164 HD
ATOM     26  O1  5Y6 d   1      -3.819  17.300 -15.175  0.00  0.00    -0.238 OA
ATOM     27  C9  5Y6 d   1      -5.741  13.745 -10.971  0.00  0.00    -0.002 C 
ATOM     28  H14 5Y6 d   1      -6.783  14.764 -12.554  0.00  0.00     0.040 H 
ATOM     29  H15 5Y6 d   1      -5.780  15.828 -11.510  0.00  0.00     0.040 H 
ATOM     30  H12 5Y6 d   1      -4.888  13.947 -10.306  0.00  0.00     0.064 H 
ATOM     31  H13 5Y6 d   1      -6.671  13.739 -10.383  0.00  0.00     0.064 H 
ENDBRANCH   1  10
BRANCH   4  32
ATOM     32  C18 5Y6 d   1      -5.319  11.477  -8.844  0.00  0.00    -0.021 A 
ATOM     33  C19 5Y6 d   1      -3.951  11.510  -9.081  0.00  0.00    -0.063 A 
ATOM     34  C20 5Y6 d   1      -3.092  12.122  -8.189  0.00  0.00    -0.014 A 
ATOM     35  H8  5Y6 d   1      -3.552  11.050  -9.978  0.00  0.00     0.085 H 
ATOM     36  C21 5Y6 d   1      -1.589  12.218  -8.341  0.00  0.00     0.072 C 
ATOM     37  C27 5Y6 d   1      -3.567  12.723  -7.035  0.00  0.00     0.051 A 
ATOM     38  S22 5Y6 d   1      -1.209  13.449  -7.067  0.00  0.00     0.236 S 
ATOM     39  H9  5Y6 d   1      -1.303  12.569  -9.344  0.00  0.00     0.066 H 
ATOM     40  H10 5Y6 d   1      -1.097  11.256  -8.136  0.00  0.00     0.066 H 
ATOM     41  O23 5Y6 d   1      -0.166  13.003  -6.220  0.00  0.00    -0.205 OA
ATOM     42  O24 5Y6 d   1      -1.235  14.752  -7.624  0.00  0.00    -0.205 OA
ATOM     43  N25 5Y6 d   1      -2.621  13.332  -6.201  0.00  0.00    -0.279 N 
ATOM     44  C28 5Y6 d   1      -4.964  12.695  -6.802  0.00  0.00    -0.055 A 
ATOM     45  C29 5Y6 d   1      -5.824  12.086  -7.690  0.00  0.00    -0.070 A 
ATOM     46  H20 5Y6 d   1      -5.364  13.161  -5.909  0.00  0.00     0.087 H 
ATOM     47  H21 5Y6 d   1      -6.890  12.079  -7.495  0.00  0.00     0.084 H 
BRANCH  43  48
ATOM     48  C26 5Y6 d   1      -2.836  13.821  -4.840  0.00  0.00    -0.004 C 
ATOM     49  H17 5Y6 d   1      -3.869  13.602  -4.530  0.00  0.00     0.058 H 
ATOM     50  H18 5Y6 d   1      -2.667  14.908  -4.810  0.00  0.00     0.058 H 
ATOM     51  H19 5Y6 d   1      -2.134  13.322  -4.156  0.00  0.00     0.058 H 
ENDBRANCH  43  48
ENDBRANCH   4  32
TORSDOF 3
