REMARK  7 active torsions:
REMARK  status: ('A' for Active; 'I' for Inactive)
REMARK    1  A    between atoms: O2_19  and  C1_1 
REMARK    2  A    between atoms: C4_3  and  C3_2 
REMARK    3  A    between atoms: C3_2  and  O2_19 
REMARK    4  A    between atoms: N5_20  and  C4_3 
REMARK    5  A    between atoms: C15_8  and  N12_23 
REMARK    6  A    between atoms: C22_29  and  C21_11 
REMARK    7  A    between atoms: N29_33  and  C30_15 
ROOT
ATOM      1  C6  5Y7 d   1       2.720  15.887  11.649  0.00  0.00     0.085 C 
ATOM      2  C7  5Y7 d   1       1.991  14.643  11.079  0.00  0.00    -0.040 C 
ATOM      3  C8  5Y7 d   1       3.219  13.808  10.625  0.00  0.00    -0.032 C 
ATOM      4  C11 5Y7 d   1       6.183  13.263  10.118  0.00  0.00    -0.003 C 
ATOM      5  N5  5Y7 d   1       3.827  15.303  12.435  0.00  0.00    -0.060 N 
ATOM      6  C9  5Y7 d   1       4.336  14.147  11.649  0.00  0.00     0.131 C 
ATOM      7  C10 5Y7 d   1       5.672  14.432  10.956  0.00  0.00    -0.019 C 
ATOM      8  N12 5Y7 d   1       6.119  11.964  10.793  0.00  0.00    -0.379 N 
ATOM      9  C13 5Y7 d   1       5.134  11.723  11.871  0.00  0.00    -0.003 C 
ATOM     10  C14 5Y7 d   1       4.604  12.974  12.585  0.00  0.00    -0.019 C 
ATOM     11  H8  5Y7 d   1       2.049  16.477  12.291  0.00  0.00     0.076 H 
ATOM     12  H9  5Y7 d   1       3.105  16.523  10.839  0.00  0.00     0.076 H 
ATOM     13  H10 5Y7 d   1       1.337  14.903  10.234  0.00  0.00     0.035 H 
ATOM     14  H11 5Y7 d   1       1.404  14.123  11.850  0.00  0.00     0.035 H 
ATOM     15  H12 5Y7 d   1       3.527  14.094   9.608  0.00  0.00     0.036 H 
ATOM     16  H13 5Y7 d   1       2.986  12.733  10.649  0.00  0.00     0.036 H 
ATOM     17  H14 5Y7 d   1       7.232  13.462   9.852  0.00  0.00     0.064 H 
ATOM     18  H15 5Y7 d   1       5.577  13.205   9.202  0.00  0.00     0.064 H 
ATOM     19  H23 5Y7 d   1       3.414  14.914  13.268  0.00  0.00     0.281 HD
ATOM     20  H24 5Y7 d   1       5.544  15.303  10.297  0.00  0.00     0.039 H 
ATOM     21  H25 5Y7 d   1       6.422  14.662  11.727  0.00  0.00     0.039 H 
ATOM     22  H26 5Y7 d   1       5.611  11.080  12.626  0.00  0.00     0.064 H 
ATOM     23  H27 5Y7 d   1       4.274  11.196  11.431  0.00  0.00     0.064 H 
ATOM     24  H28 5Y7 d   1       3.663  12.712  13.092  0.00  0.00     0.039 H 
ATOM     25  H29 5Y7 d   1       5.348  13.289  13.332  0.00  0.00     0.039 H 
ENDROOT
BRANCH   8  26
ATOM     26  C15 5Y7 d   1       6.919  10.878  10.364  0.00  0.00     0.066 A 
ATOM     27  C16 5Y7 d   1       7.875  10.250  11.208  0.00  0.00     0.079 A 
ATOM     28  C18 5Y7 d   1       8.603   9.170  10.714  0.00  0.00     0.025 A 
ATOM     29 CL   5Y7 d   1       8.213  10.769  12.844  0.00  0.00    -0.080 Cl
ATOM     30  N19 5Y7 d   1       8.419   8.705   9.485  0.00  0.00    -0.270 NA
ATOM     31  H16 5Y7 d   1       9.341   8.696  11.352  0.00  0.00     0.117 H 
ATOM     32  C20 5Y7 d   1       7.538   9.245   8.652  0.00  0.00     0.015 A 
ATOM     33  C21 5Y7 d   1       6.745  10.323   9.051  0.00  0.00     0.020 A 
ATOM     34  H30 5Y7 d   1       7.433   8.845   7.650  0.00  0.00     0.116 H 
BRANCH  33  35
ATOM     35  C22 5Y7 d   1       5.771  10.926   8.100  0.00  0.00    -0.021 A 
ATOM     36  C23 5Y7 d   1       4.381  10.715   8.137  0.00  0.00    -0.063 A 
ATOM     37  C24 5Y7 d   1       3.543  11.353   7.220  0.00  0.00    -0.014 A 
ATOM     38  H17 5Y7 d   1       3.957  10.052   8.883  0.00  0.00     0.085 H 
ATOM     39  C31 5Y7 d   1       4.073  12.209   6.271  0.00  0.00     0.051 A 
ATOM     40  C25 5Y7 d   1       2.029  11.273   7.038  0.00  0.00     0.072 C 
ATOM     41  C32 5Y7 d   1       5.462  12.436   6.259  0.00  0.00    -0.055 A 
ATOM     42  N29 5Y7 d   1       3.158  12.839   5.417  0.00  0.00    -0.279 N 
ATOM     43  C33 5Y7 d   1       6.294  11.807   7.149  0.00  0.00    -0.070 A 
ATOM     44  H21 5Y7 d   1       5.882  13.121   5.532  0.00  0.00     0.087 H 
ATOM     45  H22 5Y7 d   1       7.361  11.994   7.115  0.00  0.00     0.084 H 
ATOM     46  S26 5Y7 d   1       1.799  12.942   6.349  0.00  0.00     0.236 S 
ATOM     47  O28 5Y7 d   1       0.669  13.073   5.496  0.00  0.00    -0.205 OA
ATOM     48  O27 5Y7 d   1       2.143  13.929   7.314  0.00  0.00    -0.205 OA
ATOM     49  H31 5Y7 d   1       1.497  11.134   7.991  0.00  0.00     0.066 H 
ATOM     50  H32 5Y7 d   1       1.731  10.482   6.334  0.00  0.00     0.066 H 
BRANCH  42  51
ATOM     51  C30 5Y7 d   1       3.360  13.352   4.058  0.00  0.00    -0.004 C 
ATOM     52  H18 5Y7 d   1       4.381  13.116   3.725  0.00  0.00     0.058 H 
ATOM     53  H19 5Y7 d   1       3.216  14.443   4.053  0.00  0.00     0.058 H 
ATOM     54  H20 5Y7 d   1       2.635  12.883   3.377  0.00  0.00     0.058 H 
ENDBRANCH  42  51
ENDBRANCH  33  35
ENDBRANCH   8  26
BRANCH   5  55
ATOM     55  C4  5Y7 d   1       4.824  16.278  12.937  0.00  0.00     0.104 C 
ATOM     56  H6  5Y7 d   1       5.536  15.726  13.569  0.00  0.00     0.079 H 
ATOM     57  H7  5Y7 d   1       5.351  16.690  12.064  0.00  0.00     0.079 H 
BRANCH  55  58
ATOM     58  C3  5Y7 d   1       4.303  17.462  13.759  0.00  0.00     0.042 C 
ATOM     59  H4  5Y7 d   1       3.443  17.896  13.228  0.00  0.00     0.076 H 
ATOM     60  H5  5Y7 d   1       5.106  18.210  13.830  0.00  0.00     0.076 H 
BRANCH  58  61
ATOM     61  O2  5Y7 d   1       3.889  17.130  15.077  0.00  0.00    -0.394 OA
BRANCH  61  62
ATOM     62  C1  5Y7 d   1       3.655  18.315  15.844  0.00  0.00     0.004 C 
ATOM     63  H1  5Y7 d   1       3.336  18.037  16.860  0.00  0.00     0.066 H 
ATOM     64  H2  5Y7 d   1       2.867  18.914  15.363  0.00  0.00     0.066 H 
ATOM     65  H3  5Y7 d   1       4.582  18.905  15.899  0.00  0.00     0.066 H 
ENDBRANCH  61  62
ENDBRANCH  58  61
ENDBRANCH  55  58
ENDBRANCH   5  55
TORSDOF 7
