REMARK  4 active torsions:
REMARK  status: ('A' for Active; 'I' for Inactive)
REMARK    1  A    between atoms: N2_15  and  C1_1 
REMARK    2  A    between atoms: C11_7  and  C7_5 
REMARK    3  A    between atoms: N19_22  and  C18_11 
REMARK    4  A    between atoms: C14_19  and  N15_20 
ROOT
ATOM      1  C11 5Y8 d   1      -6.227  10.727 -10.451  0.00  0.00     0.020 A 
ATOM      2  C12 5Y8 d   1      -7.005   9.630 -10.087  0.00  0.00     0.017 A 
ATOM      3  N13 5Y8 d   1      -7.724   8.966 -10.974  0.00  0.00    -0.241 NA
ATOM      4  C16 5Y8 d   1      -7.000  10.401 -12.714  0.00  0.00     0.106 A 
ATOM      5  C18 5Y8 d   1      -6.220  11.137 -11.809  0.00  0.00     0.068 A 
ATOM      6  C14 5Y8 d   1      -7.741   9.315 -12.256  0.00  0.00     0.145 A 
ATOM      7 CL   5Y8 d   1      -7.077  10.807 -14.398  0.00  0.00    -0.078 Cl
ATOM      8  H7  5Y8 d   1      -7.021   9.314  -9.050  0.00  0.00     0.116 H 
ENDROOT
BRANCH   5   9
ATOM      9  N19 5Y8 d   1      -5.459  12.230 -12.219  0.00  0.00    -0.379 N 
ATOM     10  C20 5Y8 d   1      -4.293  12.037 -13.101  0.00  0.00    -0.004 C 
ATOM     11  C21 5Y8 d   1      -4.237  13.097 -14.217  0.00  0.00    -0.035 C 
ATOM     12  H17 5Y8 d   1      -3.376  12.106 -12.498  0.00  0.00     0.064 H 
ATOM     13  H18 5Y8 d   1      -4.356  11.040 -13.560  0.00  0.00     0.064 H 
ATOM     14  C22 5Y8 d   1      -4.444  14.509 -13.677  0.00  0.00     0.045 C 
ATOM     15  H8  5Y8 d   1      -5.025  12.880 -14.953  0.00  0.00     0.037 H 
ATOM     16  H9  5Y8 d   1      -3.253  13.045 -14.707  0.00  0.00     0.037 H 
ATOM     17  C23 5Y8 d   1      -3.238  14.978 -12.830  0.00  0.00    -0.035 C 
ATOM     18  C26 5Y8 d   1      -4.486  15.496 -14.817  0.00  0.00     0.226 C 
ATOM     19  C28 5Y8 d   1      -5.752  14.592 -12.892  0.00  0.00    -0.035 C 
ATOM     20  C24 5Y8 d   1      -2.359  15.664 -13.898  0.00  0.00    -0.004 C 
ATOM     21  H10 5Y8 d   1      -3.548  15.687 -12.049  0.00  0.00     0.037 H 
ATOM     22  H11 5Y8 d   1      -2.717  14.127 -12.367  0.00  0.00     0.037 H 
ATOM     23  N25 5Y8 d   1      -3.302  16.133 -14.917  0.00  0.00    -0.360 N 
ATOM     24  H12 5Y8 d   1      -1.646  14.947 -14.331  0.00  0.00     0.064 H 
ATOM     25  H13 5Y8 d   1      -1.809  16.510 -13.461  0.00  0.00     0.064 H 
ATOM     26  H19 5Y8 d   1      -3.094  16.835 -15.598  0.00  0.00     0.162 HD
ATOM     27  O27 5Y8 d   1      -5.442  15.694 -15.540  0.00  0.00    -0.273 OA
ATOM     28  C29 5Y8 d   1      -5.785  13.582 -11.733  0.00  0.00    -0.004 C 
ATOM     29  H20 5Y8 d   1      -6.590  14.381 -13.572  0.00  0.00     0.037 H 
ATOM     30  H21 5Y8 d   1      -5.858  15.607 -12.483  0.00  0.00     0.037 H 
ATOM     31  H22 5Y8 d   1      -5.049  13.880 -10.972  0.00  0.00     0.064 H 
ATOM     32  H23 5Y8 d   1      -6.791  13.574 -11.288  0.00  0.00     0.064 H 
ENDBRANCH   5   9
BRANCH   1  33
ATOM     33  C7  5Y8 d   1      -5.446  11.411  -9.390  0.00  0.00    -0.021 A 
ATOM     34  C6  5Y8 d   1      -4.056  11.461  -9.457  0.00  0.00    -0.059 A 
ATOM     35  C5  5Y8 d   1      -3.331  12.111  -8.443  0.00  0.00     0.012 A 
ATOM     36  H5  5Y8 d   1      -3.535  11.000 -10.288  0.00  0.00     0.086 H 
ATOM     37  C4  5Y8 d   1      -1.913  12.352  -8.205  0.00  0.00     0.034 A 
ATOM     38  C10 5Y8 d   1      -4.018  12.700  -7.359  0.00  0.00     0.064 A 
ATOM     39  N3  5Y8 d   1      -1.806  13.018  -7.093  0.00  0.00    -0.184 NA
ATOM     40  H4  5Y8 d   1      -1.091  12.032  -8.844  0.00  0.00     0.118 H 
ATOM     41  N2  5Y8 d   1      -3.067  13.249  -6.542  0.00  0.00    -0.274 N 
ATOM     42  C9  5Y8 d   1      -5.419  12.629  -7.314  0.00  0.00    -0.054 A 
ATOM     43  C8  5Y8 d   1      -6.119  11.999  -8.308  0.00  0.00    -0.070 A 
ATOM     44  H14 5Y8 d   1      -5.952  13.078  -6.484  0.00  0.00     0.087 H 
ATOM     45  H6  5Y8 d   1      -7.201  11.954  -8.259  0.00  0.00     0.084 H 
BRANCH  41  46
ATOM     46  C1  5Y8 d   1      -3.328  13.966  -5.292  0.00  0.00     0.003 C 
ATOM     47  H1  5Y8 d   1      -4.412  13.995  -5.106  0.00  0.00     0.059 H 
ATOM     48  H2  5Y8 d   1      -2.942  14.993  -5.371  0.00  0.00     0.059 H 
ATOM     49  H3  5Y8 d   1      -2.827  13.448  -4.461  0.00  0.00     0.059 H 
ENDBRANCH  41  46
ENDBRANCH   1  33
BRANCH   6  50
ATOM     50  N15 5Y8 d   1      -8.516   8.585 -13.148  0.00  0.00    -0.383 N 
ATOM     51  H15 5Y8 d   1      -8.538   8.845 -14.144  0.00  0.00     0.157 HD
ATOM     52  H16 5Y8 d   1      -9.069   7.783 -12.813  0.00  0.00     0.157 HD
ENDBRANCH   6  50
TORSDOF 4
