REMARK  3 active torsions:
REMARK  status: ('A' for Active; 'I' for Inactive)
REMARK    1  A    between atoms: C01_1  and  N02_2 
REMARK    2  A    between atoms: N02_2  and  C03_3 
REMARK       I    between atoms: N02_2  and  C04_4 
REMARK    3  A    between atoms: C04_4  and  C05_5 
ROOT
ATOM      1  N02 5Y9 d   1      12.865   4.640  -1.169  0.00  0.00    -0.361 N 
ATOM      2  C04 5Y9 d   1      14.079   4.958  -0.486  0.00  0.00     0.215 C 
ATOM      3  O06 5Y9 d   1      14.922   4.123  -0.391  0.00  0.00    -0.274 OA
ENDROOT
BRANCH   1   4
ATOM      4  C01 5Y9 d   1      11.804   5.633  -1.304  0.00  0.00    -0.017 C 
ATOM      5  H1  5Y9 d   1      10.960   5.195  -1.857  0.00  0.00     0.056 H 
ATOM      6  H2  5Y9 d   1      12.187   6.507  -1.851  0.00  0.00     0.056 H 
ATOM      7  H3  5Y9 d   1      11.465   5.945  -0.305  0.00  0.00     0.056 H 
ENDBRANCH   1   4
BRANCH   1   8
ATOM      8  C03 5Y9 d   1      12.715   3.305  -1.731  0.00  0.00    -0.017 C 
ATOM      9  H4  5Y9 d   1      13.620   2.715  -1.521  0.00  0.00     0.056 H 
ATOM     10  H5  5Y9 d   1      12.570   3.379  -2.819  0.00  0.00     0.056 H 
ATOM     11  H6  5Y9 d   1      11.843   2.812  -1.277  0.00  0.00     0.056 H 
ENDBRANCH   1   8
BRANCH   2  12
ATOM     12  C05 5Y9 d   1      14.244   6.350   0.106  0.00  0.00    -0.003 C 
ATOM     13  H7  5Y9 d   1      15.227   6.427   0.593  0.00  0.00     0.040 H 
ATOM     14  H8  5Y9 d   1      13.453   6.529   0.849  0.00  0.00     0.040 H 
ATOM     15  H9  5Y9 d   1      14.171   7.100  -0.695  0.00  0.00     0.040 H 
ENDBRANCH   2  12
TORSDOF 3
