REMARK  9 active torsions:
REMARK  status: ('A' for Active; 'I' for Inactive)
REMARK    1  A    between atoms: C11_3  and  C12_7 
REMARK    2  A    between atoms: C11_3  and  C13_8 
REMARK    3  A    between atoms: N10_13  and  C11_3 
REMARK    4  A    between atoms: C7_4  and  N14_14 
REMARK    5  A    between atoms: C2_11  and  C1_10 
REMARK    6  A    between atoms: N14_14  and  C15_15 
REMARK    7  A    between atoms: C19_19  and  C21_21 
REMARK    8  A    between atoms: N24_24  and  S26_26 
REMARK    9  A    between atoms: S26_26  and  C29_29 
ROOT
ATOM      1  N14 60B d   1     -55.342   1.734 -23.143  0.00  0.00    -0.326 N 
ATOM      2  H13 60B d   1     -55.834   2.638 -23.167  0.00  0.00     0.169 HD
ENDROOT
BRANCH   1   3
ATOM      3  C7  60B d   1     -54.652   1.455 -21.950  0.00  0.00     0.131 A 
ATOM      4  C8  60B d   1     -53.668   0.479 -21.878  0.00  0.00    -0.010 A 
ATOM      5  C9  60B d   1     -53.015   0.249 -20.661  0.00  0.00     0.070 A 
ATOM      6  H3  60B d   1     -53.407  -0.100 -22.756  0.00  0.00     0.093 H 
ATOM      7  C4  60B d   1     -53.334   1.058 -19.537  0.00  0.00     0.103 A 
ATOM      8  N10 60B d   1     -52.046  -0.641 -20.246  0.00  0.00    -0.329 N 
ATOM      9  C5  60B d   1     -54.307   2.060 -19.696  0.00  0.00     0.034 A 
ATOM     10  N3  60B d   1     -52.544   0.625 -18.512  0.00  0.00    -0.232 NA
ATOM     11  N6  60B d   1     -54.921   2.206 -20.868  0.00  0.00    -0.241 NA
ATOM     12  H1  60B d   1     -54.557   2.712 -18.867  0.00  0.00     0.118 H 
ATOM     13  C2  60B d   1     -51.801  -0.376 -18.909  0.00  0.00     0.103 A 
BRANCH  13  14
ATOM     14  C1  60B d   1     -50.818  -1.052 -17.980  0.00  0.00    -0.021 C 
ATOM     15  H10 60B d   1     -50.882  -0.593 -16.982  0.00  0.00     0.037 H 
ATOM     16  H11 60B d   1     -49.798  -0.931 -18.375  0.00  0.00     0.037 H 
ATOM     17  H12 60B d   1     -51.059  -2.123 -17.907  0.00  0.00     0.037 H 
ENDBRANCH  13  14
BRANCH   8  18
ATOM     18  C11 60B d   1     -51.475  -1.624 -21.182  0.00  0.00     0.011 C 
ATOM     19  H2  60B d   1     -51.952  -1.395 -22.146  0.00  0.00     0.072 H 
BRANCH  18  20
ATOM     20  C12 60B d   1     -49.981  -1.435 -21.455  0.00  0.00    -0.057 C 
ATOM     21  H4  60B d   1     -49.637  -2.206 -22.160  0.00  0.00     0.030 H 
ATOM     22  H5  60B d   1     -49.422  -1.524 -20.512  0.00  0.00     0.030 H 
ATOM     23  H6  60B d   1     -49.811  -0.439 -21.889  0.00  0.00     0.030 H 
ENDBRANCH  18  20
BRANCH  18  24
ATOM     24  C13 60B d   1     -51.912  -3.053 -20.877  0.00  0.00    -0.057 C 
ATOM     25  H7  60B d   1     -52.997  -3.074 -20.698  0.00  0.00     0.030 H 
ATOM     26  H8  60B d   1     -51.385  -3.414 -19.981  0.00  0.00     0.030 H 
ATOM     27  H9  60B d   1     -51.669  -3.701 -21.732  0.00  0.00     0.030 H 
ENDBRANCH  18  24
ENDBRANCH   8  18
ENDBRANCH   1   3
BRANCH   1  28
ATOM     28  C15 60B d   1     -55.455   0.965 -24.294  0.00  0.00     0.132 A 
ATOM     29  C16 60B d   1     -56.650   1.061 -25.027  0.00  0.00    -0.022 A 
ATOM     30  C17 60B d   1     -56.782   0.295 -26.182  0.00  0.00     0.008 A 
ATOM     31  H14 60B d   1     -57.450   1.716 -24.701  0.00  0.00     0.091 H 
ATOM     32  N18 60B d   1     -55.779  -0.493 -26.565  0.00  0.00    -0.240 NA
ATOM     33  H15 60B d   1     -57.695   0.340 -26.765  0.00  0.00     0.115 H 
ATOM     34  C19 60B d   1     -54.632  -0.548 -25.879  0.00  0.00     0.164 A 
ATOM     35  N20 60B d   1     -54.474   0.164 -24.751  0.00  0.00    -0.211 NA
BRANCH  34  36
ATOM     36  C21 60B d   1     -53.579  -1.490 -26.344  0.00  0.00     0.049 A 
ATOM     37  C22 60B d   1     -53.394  -1.988 -27.651  0.00  0.00     0.038 A 
ATOM     38  N23 60B d   1     -52.422  -2.855 -27.635  0.00  0.00    -0.170 NA
ATOM     39  H16 60B d   1     -53.969  -1.696 -28.529  0.00  0.00     0.119 H 
ATOM     40  N24 60B d   1     -51.955  -2.970 -26.320  0.00  0.00    -0.169 N 
ATOM     41  C25 60B d   1     -52.685  -2.139 -25.547  0.00  0.00     0.031 A 
ATOM     42  H17 60B d   1     -52.578  -2.010 -24.471  0.00  0.00     0.117 H 
BRANCH  40  43
ATOM     43  S26 60B d   1     -50.728  -3.974 -25.778  0.00  0.00     0.255 S 
ATOM     44  O27 60B d   1     -50.030  -4.339 -26.968  0.00  0.00    -0.203 OA
ATOM     45  O28 60B d   1     -50.104  -3.215 -24.742  0.00  0.00    -0.203 OA
BRANCH  43  46
ATOM     46  C29 60B d   1     -51.547  -5.438 -25.064  0.00  0.00     0.065 A 
ATOM     47  C30 60B d   1     -50.692  -6.697 -24.893  0.00  0.00    -0.046 A 
ATOM     48  C31 60B d   1     -51.127  -5.896 -23.667  0.00  0.00    -0.046 A 
ATOM     49  H19 60B d   1     -49.638  -6.693 -25.207  0.00  0.00     0.035 H 
ATOM     50  H20 60B d   1     -51.128  -7.688 -25.085  0.00  0.00     0.035 H 
ATOM     51  H21 60B d   1     -51.876  -6.311 -22.977  0.00  0.00     0.035 H 
ATOM     52  H22 60B d   1     -50.386  -5.316 -23.098  0.00  0.00     0.035 H 
ATOM     53  H18 60B d   1     -52.597  -5.497 -25.387  0.00  0.00     0.067 H 
ENDBRANCH  43  46
ENDBRANCH  40  43
ENDBRANCH  34  36
ENDBRANCH   1  28
TORSDOF 9
