REMARK  4 active torsions:
REMARK  status: ('A' for Active; 'I' for Inactive)
REMARK    1  A    between atoms: C1_14  and  C15_8 
REMARK    2  A    between atoms: C3_17  and  C4_19 
REMARK    3  A    between atoms: N2_28  and  C6_29 
REMARK    4  A    between atoms: C5_30  and  N1_31 
ROOT
ATOM      1  C20 60Y d   1      27.271  11.335  18.721  0.00  0.00    -0.072 A 
ATOM      2  C17 60Y d   1      28.432  10.530  21.113  0.00  0.00     0.045 A 
ATOM      3  C18 60Y d   1      29.237  10.980  20.064  0.00  0.00    -0.063 A 
ATOM      4  C15 60Y d   1      26.458  10.893  19.772  0.00  0.00    -0.024 A 
ATOM      5  C16 60Y d   1      27.049  10.480  20.962  0.00  0.00    -0.052 A 
ATOM      6  C19 60Y d   1      28.651  11.372  18.869  0.00  0.00    -0.081 A 
ATOM      7  N6  60Y d   1      29.462   9.760  23.345  0.00  0.00    -0.191 NA
ATOM      8  C21 60Y d   1      29.024  10.109  22.354  0.00  0.00     0.099 C 
ATOM      9  H1  60Y d   1      26.820  11.650  17.787  0.00  0.00     0.084 H 
ATOM     10  H5  60Y d   1      30.314  11.023  20.183  0.00  0.00     0.085 H 
ATOM     11  H7  60Y d   1      26.430  10.118  21.775  0.00  0.00     0.087 H 
ATOM     12  H8  60Y d   1      29.273  11.709  18.048  0.00  0.00     0.083 H 
ENDROOT
BRANCH   4  13
ATOM     13  C1  60Y d   1      24.973  10.948  19.681  0.00  0.00    -0.018 A 
ATOM     14  C   60Y d   1      24.266  11.314  18.559  0.00  0.00    -0.034 A 
ATOM     15  S   60Y d   1      22.576  11.324  18.825  0.00  0.00    -0.103 SA
ATOM     16  H9  60Y d   1      24.730  11.569  17.608  0.00  0.00     0.096 H 
ATOM     17  C3  60Y d   1      22.776  10.837  20.462  0.00  0.00     0.015 A 
ATOM     18  C2  60Y d   1      24.080  10.665  20.799  0.00  0.00    -0.057 A 
ATOM     19  H10 60Y d   1      24.419  10.353  21.786  0.00  0.00     0.086 H 
BRANCH  17  20
ATOM     20  C4  60Y d   1      21.565  10.689  21.350  0.00  0.00     0.111 C 
ATOM     21  C10 60Y d   1      20.267  10.157  20.722  0.00  0.00     0.041 C 
ATOM     22  N3  60Y d   1      19.221  10.808  21.520  0.00  0.00    -0.210 N 
ATOM     23  H2  60Y d   1      20.206   9.062  20.809  0.00  0.00     0.069 H 
ATOM     24  H3  60Y d   1      20.193  10.446  19.663  0.00  0.00     0.069 H 
ATOM     25  C11 60Y d   1      17.900  10.496  21.435  0.00  0.00     0.724 A 
ATOM     26  C9  60Y d   1      19.716  11.894  22.363  0.00  0.00     0.026 C 
ATOM     27  N5  60Y d   1      17.065  11.160  22.267  0.00  0.00    -0.072 NA
ATOM     28  N4  60Y d   1      17.562   9.534  20.556  0.00  0.00    -0.072 NA
ATOM     29  C14 60Y d   1      15.775  10.805  22.205  0.00  0.00     0.059 A 
ATOM     30  C13 60Y d   1      15.373   9.818  21.365  0.00  0.00     0.152 A 
ATOM     31  H6  60Y d   1      15.047  11.310  22.830  0.00  0.00     0.120 H 
ATOM     32  C12 60Y d   1      16.266   9.191  20.536  0.00  0.00     0.059 A 
ATOM     33  F   60Y d   1      14.082   9.397  21.405  0.00  0.00    -0.203 F 
ATOM     34  H4  60Y d   1      15.923   8.415  19.861  0.00  0.00     0.120 H 
ATOM     35  C8  60Y d   1      21.141  12.105  21.862  0.00  0.00     0.071 C 
ATOM     36  H11 60Y d   1      19.710  11.603  23.424  0.00  0.00     0.066 H 
ATOM     37  H12 60Y d   1      19.112  12.804  22.229  0.00  0.00     0.066 H 
ATOM     38  C7  60Y d   1      22.009  12.616  22.995  0.00  0.00     0.246 C 
ATOM     39  H13 60Y d   1      21.165  12.831  21.036  0.00  0.00     0.061 H 
ATOM     40  O   60Y d   1      22.269  13.802  23.094  0.00  0.00    -0.272 OA
ATOM     41  N2  60Y d   1      22.532  11.675  23.864  0.00  0.00    -0.156 N 
ATOM     42  C5  60Y d   1      22.410  10.317  23.639  0.00  0.00     0.677 C 
ATOM     43  N   60Y d   1      21.838   9.837  22.523  0.00  0.00    -0.210 N 
ATOM     44  H19 60Y d   1      21.581   8.840  22.485  0.00  0.00     0.179 HD
BRANCH  41  45
ATOM     45  C6  60Y d   1      23.224  12.167  25.068  0.00  0.00     0.005 C 
ATOM     46  H14 60Y d   1      23.219  13.267  25.070  0.00  0.00     0.058 H 
ATOM     47  H15 60Y d   1      24.263  11.805  25.067  0.00  0.00     0.058 H 
ATOM     48  H16 60Y d   1      22.707  11.796  25.965  0.00  0.00     0.058 H 
ENDBRANCH  41  45
BRANCH  42  49
ATOM     49  N1  60Y d   1      22.784   9.508  24.550  0.00  0.00    -0.234 N 
ATOM     50  H17 60Y d   1      22.701   8.492  24.402  0.00  0.00     0.174 HD
ATOM     51  H18 60Y d   1      23.169   9.870  25.434  0.00  0.00     0.174 HD
ENDBRANCH  42  49
ENDBRANCH  17  20
ENDBRANCH   4  13
TORSDOF 4
