REMARK  32 active torsions:
REMARK  status: ('A' for Active; 'I' for Inactive)
REMARK    1  A    between atoms: N_1  and  CA_2 
REMARK    2  A    between atoms: CA_2  and  C_3 
REMARK    3  A    between atoms: CA_2  and  CB_5 
REMARK       I    between atoms: C_3  and  N_7 
REMARK    4  A    between atoms: CB_5  and  OG_6 
REMARK    5  A    between atoms: N_7  and  CA_8 
REMARK    6  A    between atoms: CA_8  and  C_9 
REMARK    7  A    between atoms: CA_8  and  CB_11 
REMARK       I    between atoms: C_9  and  N_15 
REMARK    8  A    between atoms: CB_11  and  CG_12 
REMARK    9  A    between atoms: CG_12  and  SD_13 
REMARK   10  A    between atoms: SD_13  and  CE_14 
REMARK   11  A    between atoms: CA_16  and  C_17 
REMARK       I    between atoms: C_17  and  N_22 
REMARK   12  A    between atoms: N_22  and  CA_23 
REMARK   13  A    between atoms: CA_23  and  C_24 
REMARK   14  A    between atoms: CA_23  and  CB_26 
REMARK       I    between atoms: C_24  and  N_31 
REMARK   15  A    between atoms: CB_26  and  CG_27 
REMARK   16  A    between atoms: CG_27  and  CD_28 
REMARK   17  A    between atoms: N_31  and  CA_32 
REMARK   18  A    between atoms: CA_32  and  C_33 
REMARK   19  A    between atoms: CA_32  and  CB_35 
REMARK       I    between atoms: C_33  and  N_39 
REMARK   20  A    between atoms: CB_35  and  CG_36 
REMARK   21  A    between atoms: CG_36  and  CD1_37 
REMARK   22  A    between atoms: CG_36  and  CD2_38 
REMARK   23  A    between atoms: N_39  and  CA_40 
REMARK   24  A    between atoms: CA_40  and  C_41 
REMARK   25  A    between atoms: CA_40  and  CB_43 
REMARK       I    between atoms: C_41  and  N_45 
REMARK   26  A    between atoms: CB_43  and  OG_44 
REMARK   27  A    between atoms: CA_46  and  C_47 
REMARK       I    between atoms: C_47  and  N_52 
REMARK   28  A    between atoms: N_52  and  CA_53 
REMARK   29  A    between atoms: CA_53  and  C_54 
REMARK   30  A    between atoms: CA_53  and  CB_56 
REMARK   31  A    between atoms: CB_56  and  CG1_57 
REMARK   32  A    between atoms: CB_56  and  CG2_58 
ROOT
ATOM      1  C   GLU d   1      24.149  11.656  48.421  0.00  0.00     0.241 C 
ATOM      2  O   GLU d   1      24.114  11.348  49.613  0.00  0.00    -0.271 OA
ATOM      3  N   LEU d   1      25.234  12.150  47.833  0.00  0.00    -0.346 N 
ATOM      4  H30 LEU d   1      25.191  12.415  46.870  0.00  0.00     0.163 HD
ENDROOT
BRANCH   3   5
ATOM      5  CA  LEU d   1      26.485  12.314  48.561  0.00  0.00     0.089 C 
ATOM      6  H31 LEU d   1      26.418  11.721  49.485  0.00  0.00     0.087 H 
BRANCH   5   7
ATOM      7  C   LEU d   1      26.749  13.764  48.947  0.00  0.00     0.241 C 
ATOM      8  O   LEU d   1      26.406  14.688  48.210  0.00  0.00    -0.271 OA
ATOM      9  N   SER d   1      27.357  13.948  50.112  0.00  0.00    -0.344 N 
ATOM     10  H41 SER d   1      27.488  13.163  50.718  0.00  0.00     0.163 HD
BRANCH   9  11
ATOM     11  CA  SER d   1      27.841  15.254  50.539  0.00  0.00     0.109 C 
ATOM     12  H42 SER d   1      27.540  16.002  49.791  0.00  0.00     0.090 H 
BRANCH  11  13
ATOM     13  C   SER d   1      29.365  15.232  50.624  0.00  0.00     0.245 C 
ATOM     14  O   SER d   1      29.959  14.166  50.787  0.00  0.00    -0.271 OA
ATOM     15  N   PRO d   1      30.004  16.404  50.490  0.00  0.00    -0.337 N 
ATOM     16  CA  PRO d   1      31.455  16.490  50.690  0.00  0.00     0.091 C 
ATOM     17  CD  PRO d   1      29.446  17.668  49.981  0.00  0.00    -0.001 C 
ATOM     18  CB  PRO d   1      31.752  17.973  50.464  0.00  0.00    -0.036 C 
ATOM     19  H46 PRO d   1      31.992  15.866  49.961  0.00  0.00     0.087 H 
ATOM     20  CG  PRO d   1      30.670  18.426  49.547  0.00  0.00    -0.048 C 
ATOM     21  H47 PRO d   1      32.739  18.107  49.998  0.00  0.00     0.036 H 
ATOM     22  H48 PRO d   1      31.716  18.527  51.413  0.00  0.00     0.036 H 
ATOM     23  H49 PRO d   1      30.923  18.187  48.504  0.00  0.00     0.035 H 
ATOM     24  H50 PRO d   1      30.508  19.510  49.646  0.00  0.00     0.035 H 
ATOM     25  H51 PRO d   1      28.906  18.209  50.772  0.00  0.00     0.064 H 
ATOM     26  H52 PRO d   1      28.770  17.489  49.132  0.00  0.00     0.064 H 
BRANCH  16  27
ATOM     27  C   PRO d   1      31.833  16.058  52.105  0.00  0.00     0.241 C 
ATOM     28  O   PRO d   1      31.065  16.296  53.037  0.00  0.00    -0.271 OA
ATOM     29  N   VAL d   1      32.997  15.434  52.264  0.00  0.00    -0.344 N 
ATOM     30  H53 VAL d   1      33.596  15.305  51.474  0.00  0.00     0.163 HD
BRANCH  29  31
ATOM     31  CA  VAL d   1      33.415  14.935  53.570  0.00  0.00     0.099 C 
ATOM     32  H54 VAL d   1      32.524  14.546  54.085  0.00  0.00     0.090 H 
BRANCH  31  33
ATOM     33  C   VAL d   1      34.028  16.038  54.427  0.00  0.00     0.197 C 
ATOM     34  O   VAL d   1      34.763  16.889  53.930  0.00  0.00    -0.646 OA
ATOM     35  OXT VAL d   1      33.801  16.100  55.634  0.00  0.00    -0.646 OA
ENDBRANCH  31  33
BRANCH  31  36
ATOM     36  CB  VAL d   1      34.442  13.793  53.435  0.00  0.00    -0.032 C 
ATOM     37  H55 VAL d   1      35.400  14.228  53.114  0.00  0.00     0.042 H 
BRANCH  36  38
ATOM     38  CG1 VAL d   1      34.657  13.109  54.776  0.00  0.00    -0.071 C 
ATOM     39  H56 VAL d   1      35.392  12.298  54.660  0.00  0.00     0.028 H 
ATOM     40  H57 VAL d   1      33.703  12.692  55.132  0.00  0.00     0.028 H 
ATOM     41  H58 VAL d   1      35.032  13.842  55.506  0.00  0.00     0.028 H 
ENDBRANCH  36  38
BRANCH  36  42
ATOM     42  CG2 VAL d   1      33.999  12.795  52.379  0.00  0.00    -0.071 C 
ATOM     43  H59 VAL d   1      33.851  13.316  51.421  0.00  0.00     0.028 H 
ATOM     44  H60 VAL d   1      33.054  12.326  52.691  0.00  0.00     0.028 H 
ATOM     45  H61 VAL d   1      34.771  12.020  52.260  0.00  0.00     0.028 H 
ENDBRANCH  36  42
ENDBRANCH  31  36
ENDBRANCH  29  31
ENDBRANCH  16  27
ENDBRANCH  11  13
BRANCH  11  46
ATOM     46  CB  SER d   1      27.234  15.648  51.887  0.00  0.00     0.044 C 
ATOM     47  H43 SER d   1      26.159  15.418  51.878  0.00  0.00     0.077 H 
ATOM     48  H44 SER d   1      27.376  16.727  52.043  0.00  0.00     0.077 H 
BRANCH  46  49
ATOM     49  OG  SER d   1      27.849  14.942  52.950  0.00  0.00    -0.398 OA
ATOM     50  H45 SER d   1      28.778  15.141  52.965  0.00  0.00     0.209 HD
ENDBRANCH  46  49
ENDBRANCH  11  46
ENDBRANCH   9  11
ENDBRANCH   5   7
BRANCH   5  51
ATOM     51  CB  LEU d   1      27.659  11.788  47.730  0.00  0.00    -0.035 C 
ATOM     52  H32 LEU d   1      28.570  11.912  48.334  0.00  0.00     0.037 H 
ATOM     53  H33 LEU d   1      27.729  12.414  46.828  0.00  0.00     0.037 H 
BRANCH  51  54
ATOM     54  CG  LEU d   1      27.612  10.330  47.271  0.00  0.00    -0.059 C 
ATOM     55  H34 LEU d   1      26.773  10.219  46.568  0.00  0.00     0.038 H 
BRANCH  54  56
ATOM     56  CD1 LEU d   1      28.897   9.961  46.540  0.00  0.00    -0.073 C 
ATOM     57  H35 LEU d   1      28.846   8.911  46.217  0.00  0.00     0.028 H 
ATOM     58  H36 LEU d   1      29.755  10.096  47.215  0.00  0.00     0.028 H 
ATOM     59  H37 LEU d   1      29.017  10.610  45.660  0.00  0.00     0.028 H 
ENDBRANCH  54  56
BRANCH  54  60
ATOM     60  CD2 LEU d   1      27.369   9.398  48.446  0.00  0.00    -0.073 C 
ATOM     61  H38 LEU d   1      26.437   9.685  48.955  0.00  0.00     0.028 H 
ATOM     62  H39 LEU d   1      28.210   9.470  49.151  0.00  0.00     0.028 H 
ATOM     63  H40 LEU d   1      27.284   8.364  48.082  0.00  0.00     0.028 H 
ENDBRANCH  54  60
ENDBRANCH  51  54
ENDBRANCH   5  51
ENDBRANCH   3   5
BRANCH   1  64
ATOM     64  CA  GLU d   1      22.923  11.489  47.530  0.00  0.00     0.090 C 
ATOM     65  H25 GLU d   1      23.177  11.851  46.523  0.00  0.00     0.087 H 
BRANCH  64  66
ATOM     66  N   GLU d   1      22.559  10.085  47.440  0.00  0.00    -0.346 N 
ATOM     67  C   PRO d   1      23.218   9.269  46.627  0.00  0.00     0.241 C 
ATOM     68  O   PRO d   1      24.077   9.656  45.836  0.00  0.00    -0.271 OA
ATOM     69  H24 GLU d   1      21.806   9.731  47.995  0.00  0.00     0.163 HD
BRANCH  67  70
ATOM     70  CA  PRO d   1      22.863   7.792  46.698  0.00  0.00     0.091 C 
ATOM     71  N   PRO d   1      22.846   7.193  45.361  0.00  0.00    -0.337 N 
ATOM     72  C   MET d   1      21.992   7.624  44.422  0.00  0.00     0.243 C 
ATOM     73  CD  PRO d   1      23.852   6.130  45.217  0.00  0.00    -0.001 C 
ATOM     74  O   MET d   1      21.232   8.578  44.597  0.00  0.00    -0.271 OA
ATOM     75  CG  PRO d   1      24.132   5.747  46.633  0.00  0.00    -0.048 C 
ATOM     76  H22 PRO d   1      24.759   6.507  44.722  0.00  0.00     0.064 H 
ATOM     77  H23 PRO d   1      23.450   5.279  44.648  0.00  0.00     0.064 H 
ATOM     78  CB  PRO d   1      23.954   7.000  47.430  0.00  0.00    -0.036 C 
ATOM     79  H20 PRO d   1      23.425   4.974  46.969  0.00  0.00     0.035 H 
ATOM     80  H21 PRO d   1      25.161   5.371  46.733  0.00  0.00     0.035 H 
ATOM     81  H18 PRO d   1      23.636   6.763  48.456  0.00  0.00     0.036 H 
ATOM     82  H19 PRO d   1      24.892   7.574  47.461  0.00  0.00     0.036 H 
ATOM     83  H17 PRO d   1      21.889   7.672  47.195  0.00  0.00     0.087 H 
BRANCH  72  84
ATOM     84  CA  MET d   1      21.989   6.876  43.096  0.00  0.00     0.090 C 
ATOM     85  H9  MET d   1      22.667   6.014  43.187  0.00  0.00     0.087 H 
BRANCH  84  86
ATOM     86  N   MET d   1      20.658   6.376  42.789  0.00  0.00    -0.346 N 
ATOM     87  C   SER d   1      20.087   5.417  43.509  0.00  0.00     0.251 C 
ATOM     88  O   SER d   1      20.685   4.782  44.382  0.00  0.00    -0.271 OA
ATOM     89  H8  MET d   1      20.159   6.765  42.014  0.00  0.00     0.163 HD
BRANCH  87  90
ATOM     90  CA  SER d   1      18.623   5.132  43.204  0.00  0.00     0.195 C 
ATOM     91  H4  SER d   1      18.100   4.952  44.155  0.00  0.00     0.102 H 
BRANCH  90  92
ATOM     92  N   SER d   1      17.970   6.246  42.527  0.00  0.00    -0.064 N 
ATOM     93  H1  SER d   1      17.006   6.011  42.347  0.00  0.00     0.275 HD
ATOM     94  H2  SER d   1      18.440   6.431  41.654  0.00  0.00     0.275 HD
ATOM     95  H3  SER d   1      18.012   7.066  43.112  0.00  0.00     0.275 HD
ENDBRANCH  90  92
BRANCH  90  96
ATOM     96  CB  SER d   1      18.524   3.874  42.338  0.00  0.00     0.051 C 
ATOM     97  H5  SER d   1      19.273   3.934  41.535  0.00  0.00     0.077 H 
ATOM     98  H6  SER d   1      17.517   3.823  41.897  0.00  0.00     0.077 H 
BRANCH  96  99
ATOM     99  OG  SER d   1      18.754   2.698  43.093  0.00  0.00    -0.398 OA
ATOM    100  H7  SER d   1      19.624   2.732  43.473  0.00  0.00     0.209 HD
ENDBRANCH  96  99
ENDBRANCH  90  96
ENDBRANCH  87  90
ENDBRANCH  84  86
BRANCH  84 101
ATOM    101  CB  MET d   1      22.503   7.768  41.969  0.00  0.00    -0.030 C 
ATOM    102  H10 MET d   1      21.823   8.626  41.867  0.00  0.00     0.037 H 
ATOM    103  H11 MET d   1      22.500   7.185  41.036  0.00  0.00     0.037 H 
BRANCH 101 104
ATOM    104  CG  MET d   1      23.908   8.295  42.201  0.00  0.00    -0.021 C 
ATOM    105  H12 MET d   1      24.621   7.467  42.071  0.00  0.00     0.049 H 
ATOM    106  H13 MET d   1      23.975   8.678  43.230  0.00  0.00     0.049 H 
BRANCH 104 107
ATOM    107  SD  MET d   1      24.347   9.619  41.062  0.00  0.00    -0.173 SA
BRANCH 107 108
ATOM    108  CE  MET d   1      23.744   8.930  39.521  0.00  0.00    -0.035 C 
ATOM    109  H14 MET d   1      23.941   9.637  38.701  0.00  0.00     0.041 H 
ATOM    110  H15 MET d   1      22.661   8.751  39.598  0.00  0.00     0.041 H 
ATOM    111  H16 MET d   1      24.259   7.980  39.318  0.00  0.00     0.041 H 
ENDBRANCH 107 108
ENDBRANCH 104 107
ENDBRANCH 101 104
ENDBRANCH  84 101
ENDBRANCH  72  84
ENDBRANCH  67  70
ENDBRANCH  64  66
BRANCH  64 112
ATOM    112  CB  GLU d   1      21.738  12.305  48.049  0.00  0.00    -0.029 C 
ATOM    113  H26 GLU d   1      22.054  13.353  48.160  0.00  0.00     0.037 H 
ATOM    114  H27 GLU d   1      21.439  11.906  49.030  0.00  0.00     0.037 H 
BRANCH 112 115
ATOM    115  CG  GLU d   1      20.533  12.255  47.114  0.00  0.00     0.018 C 
ATOM    116  H28 GLU d   1      20.245  11.203  46.971  0.00  0.00     0.049 H 
ATOM    117  H29 GLU d   1      20.823  12.691  46.147  0.00  0.00     0.049 H 
BRANCH 115 118
ATOM    118  CD  GLU d   1      19.334  13.014  47.644  0.00  0.00     0.172 C 
ATOM    119  OE1 GLU d   1      19.482  13.744  48.646  0.00  0.00    -0.648 OA
ATOM    120  OE2 GLU d   1      18.241  12.881  47.053  0.00  0.00    -0.648 OA
ENDBRANCH 115 118
ENDBRANCH 112 115
ENDBRANCH  64 112
ENDBRANCH   1  64
TORSDOF 32
