REMARK  6 active torsions:
REMARK  status: ('A' for Active; 'I' for Inactive)
REMARK    1  A    between atoms: C1_1  and  C16_13 
REMARK    2  A    between atoms: C4_4  and  C3_3 
REMARK    3  A    between atoms: C5_5  and  N1_29 
REMARK    4  A    between atoms: N2_28  and  C6_6 
REMARK    5  A    between atoms: C12_9  and  O1_34 
REMARK    6  A    between atoms: O1_34  and  C13_10 
ROOT
ATOM      1  C16 60W d   1      26.797  11.014  20.166  0.00  0.00    -0.024 A 
ATOM      2  C17 60W d   1      27.362  10.403  21.283  0.00  0.00    -0.052 A 
ATOM      3  C20 60W d   1      28.982  11.848  19.540  0.00  0.00    -0.081 A 
ATOM      4  C21 60W d   1      27.622  11.731  19.289  0.00  0.00    -0.072 A 
ATOM      5  C22 60W d   1      29.281   9.954  22.733  0.00  0.00     0.099 C 
ATOM      6  N6  60W d   1      29.693   9.472  23.680  0.00  0.00    -0.191 NA
ATOM      7  C18 60W d   1      28.725  10.535  21.540  0.00  0.00     0.045 A 
ATOM      8  C19 60W d   1      29.539  11.259  20.664  0.00  0.00    -0.063 A 
ATOM      9  H10 60W d   1      26.739   9.823  21.954  0.00  0.00     0.087 H 
ATOM     10  H11 60W d   1      29.611  12.403  18.854  0.00  0.00     0.083 H 
ATOM     11  H12 60W d   1      27.195  12.197  18.409  0.00  0.00     0.084 H 
ATOM     12  H13 60W d   1      30.600  11.359  20.863  0.00  0.00     0.085 H 
ENDROOT
BRANCH   1  13
ATOM     13  C1  60W d   1      25.318  10.994  19.984  0.00  0.00    -0.018 A 
ATOM     14  C2  60W d   1      24.383  10.521  21.005  0.00  0.00    -0.057 A 
ATOM     15  C3  60W d   1      23.090  10.731  20.641  0.00  0.00     0.015 A 
ATOM     16  H1  60W d   1      24.686  10.057  21.943  0.00  0.00     0.086 H 
ATOM     17  S   60W d   1      22.951  11.489  19.095  0.00  0.00    -0.103 SA
ATOM     18  C   60W d   1      24.644  11.519  18.899  0.00  0.00    -0.034 A 
ATOM     19  H14 60W d   1      25.141  11.910  18.013  0.00  0.00     0.096 H 
BRANCH  15  20
ATOM     20  C4  60W d   1      21.861  10.383  21.448  0.00  0.00     0.111 C 
ATOM     21  C8  60W d   1      21.102  11.645  21.966  0.00  0.00     0.071 C 
ATOM     22  C9  60W d   1      19.690  11.118  22.277  0.00  0.00     0.026 C 
ATOM     23  C7  60W d   1      21.746  12.253  23.197  0.00  0.00     0.246 C 
ATOM     24  H5  60W d   1      21.060  12.411  21.177  0.00  0.00     0.061 H 
ATOM     25  N3  60W d   1      19.551   9.996  21.346  0.00  0.00    -0.210 N 
ATOM     26  H17 60W d   1      18.928  11.888  22.086  0.00  0.00     0.066 H 
ATOM     27  H18 60W d   1      19.614  10.779  23.321  0.00  0.00     0.066 H 
ATOM     28  C11 60W d   1      18.367   9.580  20.825  0.00  0.00     0.727 A 
ATOM     29  C10 60W d   1      20.763   9.773  20.560  0.00  0.00     0.041 C 
ATOM     30  N5  60W d   1      17.256   9.921  21.488  0.00  0.00    -0.072 NA
ATOM     31  N4  60W d   1      18.430   8.808  19.726  0.00  0.00    -0.035 NA
ATOM     32  C15 60W d   1      16.111   9.426  20.994  0.00  0.00     0.062 A 
ATOM     33  C14 60W d   1      16.073   8.607  19.866  0.00  0.00     0.187 A 
ATOM     34  H9  60W d   1      15.180   9.672  21.491  0.00  0.00     0.120 H 
ATOM     35  C12 60W d   1      17.289   8.334  19.260  0.00  0.00     0.223 A 
ATOM     36  F   60W d   1      14.932   8.105  19.351  0.00  0.00    -0.200 F 
ATOM     37  H15 60W d   1      20.937   8.699  20.396  0.00  0.00     0.069 H 
ATOM     38  H16 60W d   1      20.706  10.288  19.590  0.00  0.00     0.069 H 
ATOM     39  O   60W d   1      21.578  13.428  23.473  0.00  0.00    -0.272 OA
ATOM     40  N2  60W d   1      22.468  11.408  24.018  0.00  0.00    -0.156 N 
ATOM     41  C5  60W d   1      22.518  10.045  23.801  0.00  0.00     0.677 C 
ATOM     42  N   60W d   1      22.149   9.529  22.621  0.00  0.00    -0.210 N 
ATOM     43  H21 60W d   1      22.063   8.507  22.528  0.00  0.00     0.179 HD
BRANCH  35  44
ATOM     44  O1  60W d   1      17.297   7.576  18.150  0.00  0.00    -0.337 OA
BRANCH  44  45
ATOM     45  C13 60W d   1      18.547   7.429  17.464  0.00  0.00     0.012 C 
ATOM     46  H6  60W d   1      18.407   6.788  16.581  0.00  0.00     0.067 H 
ATOM     47  H7  60W d   1      19.284   6.968  18.139  0.00  0.00     0.067 H 
ATOM     48  H8  60W d   1      18.909   8.418  17.146  0.00  0.00     0.067 H 
ENDBRANCH  44  45
ENDBRANCH  35  44
BRANCH  40  49
ATOM     49  C6  60W d   1      23.027  11.981  25.252  0.00  0.00     0.005 C 
ATOM     50  H2  60W d   1      23.573  11.201  25.804  0.00  0.00     0.058 H 
ATOM     51  H3  60W d   1      22.211  12.370  25.878  0.00  0.00     0.058 H 
ATOM     52  H4  60W d   1      23.716  12.800  24.997  0.00  0.00     0.058 H 
ENDBRANCH  40  49
BRANCH  41  53
ATOM     53  N1  60W d   1      22.899   9.296  24.778  0.00  0.00    -0.234 N 
ATOM     54  H19 60W d   1      22.949   8.275  24.655  0.00  0.00     0.174 HD
ATOM     55  H20 60W d   1      23.153   9.719  25.682  0.00  0.00     0.174 HD
ENDBRANCH  41  53
ENDBRANCH  15  20
ENDBRANCH   1  13
TORSDOF 6
