REMARK  7 active torsions:
REMARK  status: ('A' for Active; 'I' for Inactive)
REMARK    1  A    between atoms: C6_4  and  N2_23 
REMARK    2  A    between atoms: N4_19  and  C12_9 
REMARK    3  A    between atoms: C13_10  and  C14_15 
REMARK    4  A    between atoms: C16_11  and  O1_17 
REMARK    5  A    between atoms: O1_17  and  C17_12 
REMARK    6  A    between atoms: N3_21  and  C7_22 
REMARK    7  A    between atoms: C_25  and  C5_24 
ROOT
ATOM      1  C2  60V d   1      24.869  11.235  19.165  0.00  0.00    -0.055 A 
ATOM      2  C3  60V d   1      25.686  10.529  20.059  0.00  0.00     0.085 A 
ATOM      3  C   60V d   1      23.277  10.539  20.753  0.00  0.00     0.015 A 
ATOM      4  C1  60V d   1      23.526  11.254  19.552  0.00  0.00    -0.066 A 
ATOM      5  S   60V d   1      24.753   9.866  21.354  0.00  0.00    -0.081 SA
ATOM      6  C4  60V d   1      27.096  10.413  20.044  0.00  0.00     0.107 C 
ATOM      7  N   60V d   1      28.234  10.328  20.083  0.00  0.00    -0.191 NA
ATOM      8  H2  60V d   1      25.242  11.718  18.263  0.00  0.00     0.086 H 
ATOM      9  H19 60V d   1      22.748  11.766  18.988  0.00  0.00     0.085 H 
ENDROOT
BRANCH   3  10
ATOM     10  C5  60V d   1      21.990  10.340  21.469  0.00  0.00     0.111 C 
ATOM     11  N1  60V d   1      22.165   9.504  22.675  0.00  0.00    -0.210 N 
ATOM     12  C6  60V d   1      22.528  10.002  23.874  0.00  0.00     0.677 C 
ATOM     13  H1  60V d   1      22.002   8.490  22.596  0.00  0.00     0.179 HD
ATOM     14  N3  60V d   1      22.595  11.373  24.041  0.00  0.00    -0.156 N 
ATOM     15  C8  60V d   1      21.980  12.254  23.172  0.00  0.00     0.246 C 
ATOM     16  C9  60V d   1      21.364  11.676  21.907  0.00  0.00     0.071 C 
ATOM     17  O   60V d   1      21.914  13.446  23.409  0.00  0.00    -0.272 OA
ATOM     18  C10 60V d   1      19.884  11.323  22.095  0.00  0.00     0.026 C 
ATOM     19  H3  60V d   1      21.476  12.419  21.104  0.00  0.00     0.061 H 
ATOM     20  N4  60V d   1      19.720  10.116  21.267  0.00  0.00    -0.210 N 
ATOM     21  H4  60V d   1      19.236  12.137  21.739  0.00  0.00     0.066 H 
ATOM     22  H5  60V d   1      19.660  11.111  23.151  0.00  0.00     0.066 H 
ATOM     23  C11 60V d   1      20.930   9.776  20.518  0.00  0.00     0.041 C 
ATOM     24  H6  60V d   1      20.956  10.271  19.536  0.00  0.00     0.069 H 
ATOM     25  H7  60V d   1      21.037   8.689  20.384  0.00  0.00     0.069 H 
BRANCH  12  26
ATOM     26  N2  60V d   1      22.897   9.234  24.842  0.00  0.00    -0.234 N 
ATOM     27  H17 60V d   1      22.853   8.211  24.733  0.00  0.00     0.174 HD
ATOM     28  H18 60V d   1      23.236   9.644  25.724  0.00  0.00     0.174 HD
ENDBRANCH  12  26
BRANCH  14  29
ATOM     29  C7  60V d   1      23.262  11.946  25.221  0.00  0.00     0.005 C 
ATOM     30  H14 60V d   1      23.705  11.137  25.820  0.00  0.00     0.058 H 
ATOM     31  H15 60V d   1      22.526  12.492  25.829  0.00  0.00     0.058 H 
ATOM     32  H16 60V d   1      24.053  12.637  24.895  0.00  0.00     0.058 H 
ENDBRANCH  14  29
BRANCH  20  33
ATOM     33  C12 60V d   1      18.521   9.609  20.880  0.00  0.00     0.727 A 
ATOM     34  N5  60V d   1      17.427   9.986  21.583  0.00  0.00    -0.065 NA
ATOM     35  C13 60V d   1      16.257   9.443  21.201  0.00  0.00     0.092 A 
ATOM     36  C15 60V d   1      16.187   8.517  20.136  0.00  0.00     0.194 A 
ATOM     37  C16 60V d   1      17.381   8.185  19.513  0.00  0.00     0.224 A 
ATOM     38  F   60V d   1      15.033   7.992  19.692  0.00  0.00    -0.199 F 
ATOM     39  N6  60V d   1      18.535   8.734  19.853  0.00  0.00    -0.035 NA
BRANCH  35  40
ATOM     40  C14 60V d   1      15.032   9.865  21.957  0.00  0.00    -0.032 C 
ATOM     41  H11 60V d   1      15.314  10.587  22.738  0.00  0.00     0.035 H 
ATOM     42  H12 60V d   1      14.567   8.984  22.423  0.00  0.00     0.035 H 
ATOM     43  H13 60V d   1      14.317  10.334  21.265  0.00  0.00     0.035 H 
ENDBRANCH  35  40
BRANCH  37  44
ATOM     44  O1  60V d   1      17.351   7.171  18.628  0.00  0.00    -0.337 OA
BRANCH  44  45
ATOM     45  C17 60V d   1      18.545   6.403  18.465  0.00  0.00     0.012 C 
ATOM     46  H8  60V d   1      18.375   5.615  17.716  0.00  0.00     0.067 H 
ATOM     47  H9  60V d   1      18.819   5.943  19.426  0.00  0.00     0.067 H 
ATOM     48  H10 60V d   1      19.360   7.060  18.127  0.00  0.00     0.067 H 
ENDBRANCH  44  45
ENDBRANCH  37  44
ENDBRANCH  20  33
ENDBRANCH   3  10
TORSDOF 7
