REMARK  7 active torsions:
REMARK  status: ('A' for Active; 'I' for Inactive)
REMARK    1  A    between atoms: C1_12  and  C10_1 
REMARK    2  A    between atoms: C11_2  and  O27_27 
REMARK    3  A    between atoms: C17_6  and  C28_28 
REMARK    4  A    between atoms: N3_8  and  C26_26 
REMARK    5  A    between atoms: N9_18  and  C7_11 
REMARK    6  A    between atoms: O27_27  and  C29_29 
REMARK    7  A    between atoms: C29_29  and  C30_30 
ROOT
ATOM      1  C10 60U d   1      22.825  10.597  20.649  0.00  0.00     0.015 A 
ATOM      2  C18 60U d   1      23.002  11.232  19.425  0.00  0.00    -0.066 A 
ATOM      3  C19 60U d   1      25.201  10.576  19.851  0.00  0.00     0.085 A 
ATOM      4  C22 60U d   1      26.597  10.416  19.751  0.00  0.00     0.107 C 
ATOM      5  S16 60U d   1      24.338   9.989  21.210  0.00  0.00    -0.081 SA
ATOM      6  N20 60U d   1      27.753  10.336  19.758  0.00  0.00    -0.191 NA
ATOM      7  C23 60U d   1      24.349  11.214  18.970  0.00  0.00    -0.055 A 
ATOM      8  H5  60U d   1      22.189  11.697  18.869  0.00  0.00     0.085 H 
ATOM      9  H10 60U d   1      24.674  11.655  18.029  0.00  0.00     0.086 H 
ENDROOT
BRANCH   1  10
ATOM     10  C1  60U d   1      21.603  10.425  21.483  0.00  0.00     0.111 C 
ATOM     11  C13 60U d   1      20.339   9.868  20.799  0.00  0.00     0.041 C 
ATOM     12  N9  60U d   1      19.286  10.458  21.614  0.00  0.00    -0.210 N 
ATOM     13  H1  60U d   1      20.311   8.769  20.840  0.00  0.00     0.069 H 
ATOM     14  H2  60U d   1      20.270  10.198  19.752  0.00  0.00     0.069 H 
ATOM     15  C14 60U d   1      19.663  11.670  22.287  0.00  0.00     0.026 C 
ATOM     16  C2  60U d   1      21.119  11.786  21.944  0.00  0.00     0.071 C 
ATOM     17  H3  60U d   1      19.094  12.531  21.906  0.00  0.00     0.066 H 
ATOM     18  H4  60U d   1      19.515  11.585  23.374  0.00  0.00     0.066 H 
ATOM     19  C5  60U d   1      21.822  12.345  23.150  0.00  0.00     0.246 C 
ATOM     20  H6  60U d   1      21.248  12.494  21.112  0.00  0.00     0.061 H 
ATOM     21  N3  60U d   1      22.430  11.429  23.986  0.00  0.00    -0.156 N 
ATOM     22  O24 60U d   1      21.776  13.549  23.362  0.00  0.00    -0.272 OA
ATOM     23  C4  60U d   1      22.359  10.064  23.827  0.00  0.00     0.677 C 
ATOM     24  N6  60U d   1      21.839   9.587  22.655  0.00  0.00    -0.210 N 
ATOM     25  N21 60U d   1      22.775   9.261  24.754  0.00  0.00    -0.234 N 
ATOM     26  H7  60U d   1      21.602   8.586  22.596  0.00  0.00     0.179 HD
ATOM     27  H8  60U d   1      23.163   9.642  25.629  0.00  0.00     0.174 HD
ATOM     28  H9  60U d   1      22.718   8.242  24.616  0.00  0.00     0.174 HD
BRANCH  12  29
ATOM     29  C7  60U d   1      17.867  10.195  21.566  0.00  0.00     0.727 A 
ATOM     30  N8  60U d   1      17.117  10.813  22.501  0.00  0.00    -0.035 NA
ATOM     31  C11 60U d   1      15.795  10.603  22.501  0.00  0.00     0.224 A 
ATOM     32  C15 60U d   1      15.197   9.751  21.618  0.00  0.00     0.194 A 
ATOM     33  C17 60U d   1      16.016   9.148  20.689  0.00  0.00     0.092 A 
ATOM     34  F25 60U d   1      13.878   9.538  21.705  0.00  0.00    -0.199 F 
ATOM     35  N12 60U d   1      17.346   9.366  20.656  0.00  0.00    -0.065 NA
BRANCH  31  36
ATOM     36  O27 60U d   1      14.980  11.169  23.465  0.00  0.00    -0.332 OA
BRANCH  36  37
ATOM     37  C29 60U d   1      15.213  12.578  23.461  0.00  0.00     0.024 C 
ATOM     38  H17 60U d   1      14.639  13.050  22.650  0.00  0.00     0.074 H 
ATOM     39  H18 60U d   1      16.285  12.780  23.317  0.00  0.00     0.074 H 
BRANCH  37  40
ATOM     40  C30 60U d   1      14.762  13.122  24.795  0.00  0.00    -0.056 C 
ATOM     41  H19 60U d   1      14.929  14.209  24.823  0.00  0.00     0.030 H 
ATOM     42  H20 60U d   1      15.337  12.642  25.600  0.00  0.00     0.030 H 
ATOM     43  H21 60U d   1      13.691  12.912  24.934  0.00  0.00     0.030 H 
ENDBRANCH  37  40
ENDBRANCH  36  37
ENDBRANCH  31  36
BRANCH  33  44
ATOM     44  C28 60U d   1      15.407   8.232  19.665  0.00  0.00    -0.032 C 
ATOM     45  H14 60U d   1      16.197   7.840  19.008  0.00  0.00     0.035 H 
ATOM     46  H15 60U d   1      14.673   8.790  19.064  0.00  0.00     0.035 H 
ATOM     47  H16 60U d   1      14.905   7.396  20.174  0.00  0.00     0.035 H 
ENDBRANCH  33  44
ENDBRANCH  12  29
BRANCH  21  48
ATOM     48  C26 60U d   1      23.219  11.985  25.068  0.00  0.00     0.005 C 
ATOM     49  H11 60U d   1      23.652  11.168  25.664  0.00  0.00     0.058 H 
ATOM     50  H12 60U d   1      22.576  12.605  25.710  0.00  0.00     0.058 H 
ATOM     51  H13 60U d   1      24.028  12.604  24.652  0.00  0.00     0.058 H 
ENDBRANCH  21  48
ENDBRANCH   1  10
TORSDOF 7
