REMARK  7 active torsions:
REMARK  status: ('A' for Active; 'I' for Inactive)
REMARK    1  A    between atoms: C13_3  and  C14_4 
REMARK    2  A    between atoms: C16_6  and  S1_7 
REMARK    3  A    between atoms: S1_7  and  C17_8 
REMARK    4  A    between atoms: C12_10  and  N4_11 
REMARK    5  A    between atoms: N3_15  and  C7_28 
REMARK    6  A    between atoms: C6_29  and  N2_16 
REMARK    7  A    between atoms: C5_19  and  C_20 
ROOT
ATOM      1  C   954 d   1      22.814  10.626  20.773  0.00  0.00     0.015 A 
ATOM      2  C1  954 d   1      22.974  11.278  19.534  0.00  0.00    -0.066 A 
ATOM      3  C2  954 d   1      24.301  11.279  19.068  0.00  0.00    -0.055 A 
ATOM      4  C3  954 d   1      25.188  10.637  19.944  0.00  0.00     0.085 A 
ATOM      5  S   954 d   1      24.353  10.028  21.327  0.00  0.00    -0.081 SA
ATOM      6  C4  954 d   1      26.593  10.528  19.842  0.00  0.00     0.107 C 
ATOM      7  N   954 d   1      27.731  10.425  19.824  0.00  0.00    -0.191 NA
ATOM      8  H15 954 d   1      22.150  11.737  18.990  0.00  0.00     0.085 H 
ATOM      9  H16 954 d   1      24.608  11.731  18.126  0.00  0.00     0.086 H 
ENDROOT
BRANCH   1  10
ATOM     10  C5  954 d   1      21.582  10.468  21.606  0.00  0.00     0.111 C 
ATOM     11  C9  954 d   1      21.118  11.869  22.068  0.00  0.00     0.071 C 
ATOM     12  C10 954 d   1      19.691  11.626  22.558  0.00  0.00     0.026 C 
ATOM     13  C8  954 d   1      21.880  12.426  23.256  0.00  0.00     0.246 C 
ATOM     14  H9  954 d   1      21.155  12.582  21.231  0.00  0.00     0.061 H 
ATOM     15  N4  954 d   1      19.198  10.561  21.687  0.00  0.00    -0.210 N 
ATOM     16  H7  954 d   1      19.688  11.305  23.610  0.00  0.00     0.066 H 
ATOM     17  H8  954 d   1      19.080  12.534  22.450  0.00  0.00     0.066 H 
ATOM     18  C11 954 d   1      20.270   9.968  20.883  0.00  0.00     0.041 C 
ATOM     19  H13 954 d   1      20.230  10.329  19.845  0.00  0.00     0.069 H 
ATOM     20  H14 954 d   1      20.209   8.870  20.892  0.00  0.00     0.069 H 
ATOM     21  O   954 d   1      21.883  13.622  23.488  0.00  0.00    -0.272 OA
ATOM     22  N3  954 d   1      22.505  11.519  24.087  0.00  0.00    -0.156 N 
ATOM     23  C6  954 d   1      22.379  10.133  23.935  0.00  0.00     0.677 C 
ATOM     24  N1  954 d   1      21.899   9.650  22.787  0.00  0.00    -0.210 N 
ATOM     25  H12 954 d   1      21.739   8.634  22.724  0.00  0.00     0.179 HD
BRANCH  15  26
ATOM     26  C12 954 d   1      17.841  10.315  21.686  0.00  0.00     0.726 A 
ATOM     27  N5  954 d   1      17.366   9.436  20.782  0.00  0.00    -0.065 NA
ATOM     28  C13 954 d   1      16.038   9.220  20.819  0.00  0.00     0.091 A 
ATOM     29  C15 954 d   1      15.181   9.861  21.766  0.00  0.00     0.177 A 
ATOM     30  F   954 d   1      13.894   9.508  21.939  0.00  0.00    -0.201 F 
ATOM     31  C16 954 d   1      15.767  10.783  22.606  0.00  0.00     0.152 A 
ATOM     32  N6  954 d   1      17.085  11.001  22.585  0.00  0.00    -0.053 NA
BRANCH  28  33
ATOM     33  C14 954 d   1      15.478   8.304  19.772  0.00  0.00    -0.032 C 
ATOM     34  H1  954 d   1      16.297   7.917  19.148  0.00  0.00     0.035 H 
ATOM     35  H2  954 d   1      14.767   8.859  19.142  0.00  0.00     0.035 H 
ATOM     36  H3  954 d   1      14.959   7.465  20.258  0.00  0.00     0.035 H 
ENDBRANCH  28  33
BRANCH  31  37
ATOM     37  S1  954 d   1      14.683  11.667  23.669  0.00  0.00    -0.111 SA
BRANCH  37  38
ATOM     38  C17 954 d   1      15.742  12.970  24.314  0.00  0.00    -0.029 C 
ATOM     39  H4  954 d   1      15.166  13.602  25.005  0.00  0.00     0.042 H 
ATOM     40  H5  954 d   1      16.117  13.584  23.482  0.00  0.00     0.042 H 
ATOM     41  H6  954 d   1      16.591  12.521  24.850  0.00  0.00     0.042 H 
ENDBRANCH  37  38
ENDBRANCH  31  37
ENDBRANCH  15  26
BRANCH  22  42
ATOM     42  C7  954 d   1      23.293  12.069  25.196  0.00  0.00     0.005 C 
ATOM     43  H17 954 d   1      23.275  13.168  25.149  0.00  0.00     0.058 H 
ATOM     44  H18 954 d   1      24.332  11.716  25.118  0.00  0.00     0.058 H 
ATOM     45  H19 954 d   1      22.863  11.736  26.152  0.00  0.00     0.058 H 
ENDBRANCH  22  42
BRANCH  23  46
ATOM     46  N2  954 d   1      22.820   9.350  24.888  0.00  0.00    -0.234 N 
ATOM     47  H10 954 d   1      22.736   8.328  24.795  0.00  0.00     0.174 HD
ATOM     48  H11 954 d   1      23.250   9.757  25.731  0.00  0.00     0.174 HD
ENDBRANCH  23  46
ENDBRANCH   1  10
TORSDOF 7
