REMARK  7 active torsions:
REMARK  status: ('A' for Active; 'I' for Inactive)
REMARK       I    between atoms: CBB_2  and  NBD_3 
REMARK    1  A    between atoms: CBB_2  and  CAY_11 
REMARK    2  A    between atoms: NBD_3  and  CBE_4 
REMARK    3  A    between atoms: CBE_4  and  CBF_5 
REMARK    4  A    between atoms: CAU_17  and  CAN_18 
REMARK    5  A    between atoms: CAR_23  and  CAS_24 
REMARK    6  A    between atoms: CAM_25  and  CAK_26 
REMARK       I    between atoms: CAK_26  and  NAJ_28 
REMARK    7  A    between atoms: NAJ_28  and  CAG_29 
ROOT
ATOM      1  CAN 453 d   1     -17.643  29.086  16.210  0.00  0.00     0.056 A 
ATOM      2  NAO 453 d   1     -16.761  30.027  16.892  0.00  0.00    -0.331 N 
ATOM      3  CAP 453 d   1     -16.946  30.383  18.148  0.00  0.00     0.342 A 
ATOM      4  OAT 453 d   1     -16.143  31.154  18.677  0.00  0.00    -0.245 OA
ATOM      5  NAQ 453 d   1     -17.957  29.980  18.895  0.00  0.00    -0.203 NA
ATOM      6  CAR 453 d   1     -18.922  29.225  18.405  0.00  0.00     0.029 A 
ATOM      7  CAM 453 d   1     -18.818  28.745  17.026  0.00  0.00     0.085 A 
ATOM      8  H11 453 d   1     -18.000  29.563  15.285  0.00  0.00     0.082 H 
ATOM      9  H12 453 d   1     -15.989  30.416  16.389  0.00  0.00     0.165 HD
ATOM     10  H16 453 d   1     -18.307  27.837  17.379  0.00  0.00     0.067 H 
ENDROOT
BRANCH   1  11
ATOM     11  CAU 453 d   1     -16.882  27.841  15.837  0.00  0.00    -0.033 A 
ATOM     12  CAZ 453 d   1     -15.605  27.552  16.325  0.00  0.00    -0.057 A 
ATOM     13  CAY 453 d   1     -14.906  26.403  15.945  0.00  0.00     0.071 A 
ATOM     14  H8  453 d   1     -15.141  28.242  17.021  0.00  0.00     0.086 H 
ATOM     15  CAX 453 d   1     -15.486  25.527  15.053  0.00  0.00     0.132 A 
ATOM     16  FBA 453 d   1     -14.856  24.400  14.644  0.00  0.00    -0.205 F 
ATOM     17  CAW 453 d   1     -16.757  25.808  14.568  0.00  0.00    -0.044 A 
ATOM     18  CAV 453 d   1     -17.450  26.951  14.946  0.00  0.00    -0.072 A 
ATOM     19  H9  453 d   1     -17.221  25.116  13.875  0.00  0.00     0.088 H 
ATOM     20  H10 453 d   1     -18.437  27.145  14.542  0.00  0.00     0.084 H 
BRANCH  13  21
ATOM     21  CBB 453 d   1     -13.510  26.117  16.452  0.00  0.00     0.255 C 
ATOM     22  OBC 453 d   1     -12.757  25.468  15.749  0.00  0.00    -0.268 OA
ATOM     23  NBD 453 d   1     -13.067  26.587  17.613  0.00  0.00    -0.351 N 
ATOM     24  H1  453 d   1     -13.679  27.145  18.173  0.00  0.00     0.163 HD
BRANCH  23  25
ATOM     25  CBE 453 d   1     -11.726  26.318  18.096  0.00  0.00     0.035 C 
ATOM     26  H2  453 d   1     -11.321  27.198  18.617  0.00  0.00     0.073 H 
ATOM     27  H3  453 d   1     -11.063  26.050  17.260  0.00  0.00     0.073 H 
BRANCH  25  28
ATOM     28  CBF 453 d   1     -11.866  25.160  19.049  0.00  0.00     0.051 A 
ATOM     29  CBK 453 d   1     -12.741  24.096  18.775  0.00  0.00    -0.058 A 
ATOM     30  CBJ 453 d   1     -12.861  23.056  19.689  0.00  0.00    -0.080 A 
ATOM     31  H4  453 d   1     -13.318  24.086  17.858  0.00  0.00     0.086 H 
ATOM     32  CBI 453 d   1     -12.094  23.099  20.855  0.00  0.00    -0.066 A 
ATOM     33  H5  453 d   1     -13.536  22.229  19.501  0.00  0.00     0.083 H 
ATOM     34  CBH 453 d   1     -11.230  24.178  21.093  0.00  0.00     0.003 A 
ATOM     35  H6  453 d   1     -12.167  22.296  21.579  0.00  0.00     0.085 H 
ATOM     36  NBG 453 d   1     -11.135  25.178  20.197  0.00  0.00    -0.264 NA
ATOM     37  H7  453 d   1     -10.638  24.207  22.000  0.00  0.00     0.114 H 
ENDBRANCH  25  28
ENDBRANCH  23  25
ENDBRANCH  13  21
ENDBRANCH   1  11
BRANCH   7  38
ATOM     38  CAK 453 d   1     -19.904  27.915  16.458  0.00  0.00     0.234 C 
ATOM     39  OAL 453 d   1     -20.471  28.388  15.483  0.00  0.00    -0.272 OA
ATOM     40  NAJ 453 d   1     -20.247  26.792  17.106  0.00  0.00    -0.326 N 
ATOM     41  H17 453 d   1     -19.549  26.334  17.657  0.00  0.00     0.169 HD
BRANCH  40  42
ATOM     42  CAG 453 d   1     -21.502  26.233  17.058  0.00  0.00     0.035 A 
ATOM     43  CAF 453 d   1     -22.543  26.738  16.265  0.00  0.00    -0.044 A 
ATOM     44  CAD 453 d   1     -23.774  26.117  16.225  0.00  0.00     0.013 A 
ATOM     45  H18 453 d   1     -22.377  27.631  15.674  0.00  0.00     0.088 H 
ATOM     46  CAE 453 d   1     -24.005  24.998  16.953  0.00  0.00     0.088 A 
ATOM     47  CAC 453 d   1     -24.924  26.484  15.487  0.00  0.00     0.008 A 
ATOM     48  CAI 453 d   1     -23.021  24.448  17.769  0.00  0.00    -0.051 A 
ATOM     49  NAA 453 d   1     -25.275  24.716  16.671  0.00  0.00    -0.175 NA
ATOM     50  CAH 453 d   1     -21.774  25.077  17.824  0.00  0.00    -0.055 A 
ATOM     51  H20 453 d   1     -23.217  23.553  18.348  0.00  0.00     0.087 H 
ATOM     52  H19 453 d   1     -21.001  24.671  18.466  0.00  0.00     0.087 H 
ATOM     53  NAB 453 d   1     -25.883  25.573  15.757  0.00  0.00    -0.288 N 
ATOM     54  H21 453 d   1     -26.839  25.523  15.377  0.00  0.00     0.188 HD
ATOM     55  H22 453 d   1     -25.018  27.343  14.824  0.00  0.00     0.115 H 
ENDBRANCH  40  42
ENDBRANCH   7  38
BRANCH   6  56
ATOM     56  CAS 453 d   1     -20.078  28.931  19.313  0.00  0.00    -0.038 C 
ATOM     57  H13 453 d   1     -20.806  28.297  18.786  0.00  0.00     0.035 H 
ATOM     58  H14 453 d   1     -20.560  29.874  19.610  0.00  0.00     0.035 H 
ATOM     59  H15 453 d   1     -19.716  28.406  20.209  0.00  0.00     0.035 H 
ENDBRANCH   6  56
TORSDOF 7
