REMARK  7 active torsions:
REMARK  status: ('A' for Active; 'I' for Inactive)
REMARK       I    between atoms: C22_2  and  N4_3 
REMARK    1  A    between atoms: C22_2  and  C2_13 
REMARK    2  A    between atoms: N4_3  and  C23_4 
REMARK    3  A    between atoms: C3_14  and  C5_21 
REMARK    4  A    between atoms: C1_19  and  C_20 
REMARK    5  A    between atoms: C9_23  and  C11_28 
REMARK       I    between atoms: C11_28  and  N2_30 
REMARK    6  A    between atoms: N2_30  and  C12_31 
REMARK    7  A    between atoms: C12_31  and  C13_32 
ROOT
ATOM      1  C5  ZS2 d   1     -17.334  28.344  16.507  0.00  0.00    -0.029 A 
ATOM      2  C10 ZS2 d   1     -16.094  28.040  17.052  0.00  0.00    -0.056 A 
ATOM      3  C9  ZS2 d   1     -15.395  26.889  16.645  0.00  0.00     0.071 A 
ATOM      4  C8  ZS2 d   1     -15.902  26.047  15.671  0.00  0.00     0.132 A 
ATOM      5  F   ZS2 d   1     -15.210  24.959  15.279  0.00  0.00    -0.205 F 
ATOM      6  C7  ZS2 d   1     -17.138  26.344  15.115  0.00  0.00    -0.044 A 
ATOM      7  C6  ZS2 d   1     -17.841  27.484  15.528  0.00  0.00    -0.072 A 
ATOM      8  H13 ZS2 d   1     -15.660  28.696  17.798  0.00  0.00     0.086 H 
ATOM      9  H14 ZS2 d   1     -17.561  25.692  14.359  0.00  0.00     0.088 H 
ATOM     10  H15 ZS2 d   1     -18.802  27.704  15.077  0.00  0.00     0.084 H 
ENDROOT
BRANCH   1  11
ATOM     11  C3  ZS2 d   1     -18.109  29.563  16.886  0.00  0.00     0.072 C 
ATOM     12  C2  ZS2 d   1     -19.214  29.241  17.780  0.00  0.00     0.059 C 
ATOM     13  C1  ZS2 d   1     -19.228  29.731  19.184  0.00  0.00     0.024 C 
ATOM     14  N1  ZS2 d   1     -18.229  30.472  19.633  0.00  0.00    -0.312 N 
ATOM     15  C4  ZS2 d   1     -17.385  31.031  18.782  0.00  0.00     0.321 C 
ATOM     16  H9  ZS2 d   1     -18.112  30.610  20.616  0.00  0.00     0.170 HD
ATOM     17  N   ZS2 d   1     -17.299  30.639  17.486  0.00  0.00    -0.330 N 
ATOM     18  O   ZS2 d   1     -16.729  32.010  19.222  0.00  0.00    -0.247 OA
ATOM     19  H8  ZS2 d   1     -16.642  31.111  16.898  0.00  0.00     0.165 HD
ATOM     20  H7  ZS2 d   1     -18.539  29.963  15.956  0.00  0.00     0.088 H 
BRANCH  12  21
ATOM     21  C22 ZS2 d   1     -20.379  28.501  17.251  0.00  0.00     0.256 C 
ATOM     22  O2  ZS2 d   1     -21.030  29.117  16.430  0.00  0.00    -0.267 OA
ATOM     23  N4  ZS2 d   1     -20.700  27.328  17.788  0.00  0.00    -0.323 N 
ATOM     24  H1  ZS2 d   1     -19.977  26.820  18.257  0.00  0.00     0.169 HD
BRANCH  23  25
ATOM     25  C23 ZS2 d   1     -21.950  26.762  17.746  0.00  0.00     0.035 A 
ATOM     26  C29 ZS2 d   1     -23.027  27.214  16.979  0.00  0.00    -0.044 A 
ATOM     27  C28 ZS2 d   1     -24.239  26.545  17.031  0.00  0.00     0.013 A 
ATOM     28  H2  ZS2 d   1     -22.914  28.086  16.345  0.00  0.00     0.088 H 
ATOM     29  C27 ZS2 d   1     -25.445  26.819  16.325  0.00  0.00     0.008 A 
ATOM     30  C26 ZS2 d   1     -24.412  25.468  17.830  0.00  0.00     0.088 A 
ATOM     31  N6  ZS2 d   1     -26.359  25.912  16.705  0.00  0.00    -0.288 N 
ATOM     32  H3  ZS2 d   1     -25.599  27.622  15.605  0.00  0.00     0.115 H 
ATOM     33  N5  ZS2 d   1     -25.676  25.110  17.637  0.00  0.00    -0.175 NA
ATOM     34  H4  ZS2 d   1     -27.335  25.824  16.387  0.00  0.00     0.188 HD
ATOM     35  C25 ZS2 d   1     -23.388  25.002  18.601  0.00  0.00    -0.051 A 
ATOM     36  C24 ZS2 d   1     -22.165  25.647  18.564  0.00  0.00    -0.055 A 
ATOM     37  H5  ZS2 d   1     -23.531  24.135  19.236  0.00  0.00     0.087 H 
ATOM     38  H6  ZS2 d   1     -21.354  25.280  19.183  0.00  0.00     0.087 H 
ENDBRANCH  23  25
ENDBRANCH  12  21
BRANCH  13  39
ATOM     39  C   ZS2 d   1     -20.373  29.483  20.145  0.00  0.00    -0.037 C 
ATOM     40  H10 ZS2 d   1     -21.134  28.858  19.655  0.00  0.00     0.035 H 
ATOM     41  H11 ZS2 d   1     -20.821  30.444  20.438  0.00  0.00     0.035 H 
ATOM     42  H12 ZS2 d   1     -19.995  28.967  21.040  0.00  0.00     0.035 H 
ENDBRANCH  13  39
ENDBRANCH   1  11
BRANCH   3  43
ATOM     43  C11 ZS2 d   1     -14.052  26.573  17.216  0.00  0.00     0.255 C 
ATOM     44  O1  ZS2 d   1     -13.319  25.805  16.598  0.00  0.00    -0.268 OA
ATOM     45  N2  ZS2 d   1     -13.671  27.195  18.327  0.00  0.00    -0.351 N 
ATOM     46  H16 ZS2 d   1     -14.329  27.742  18.845  0.00  0.00     0.163 HD
BRANCH  45  47
ATOM     47  C12 ZS2 d   1     -12.320  27.082  18.781  0.00  0.00     0.036 C 
ATOM     48  H17 ZS2 d   1     -12.144  27.789  19.605  0.00  0.00     0.073 H 
ATOM     49  H18 ZS2 d   1     -11.630  27.304  17.954  0.00  0.00     0.073 H 
BRANCH  47  50
ATOM     50  C13 ZS2 d   1     -12.101  25.673  19.263  0.00  0.00     0.062 A 
ATOM     51  C21 ZS2 d   1     -10.844  25.327  19.757  0.00  0.00     0.001 A 
ATOM     52  C16 ZS2 d   1     -10.657  24.024  20.208  0.00  0.00    -0.022 A 
ATOM     53  C20 ZS2 d   1      -9.785  26.250  19.814  0.00  0.00    -0.070 A 
ATOM     54  C15 ZS2 d   1     -11.721  23.117  20.152  0.00  0.00    -0.055 A 
ATOM     55  C17 ZS2 d   1      -9.413  23.645  20.711  0.00  0.00    -0.072 A 
ATOM     56  C14 ZS2 d   1     -12.960  23.514  19.650  0.00  0.00     0.003 A 
ATOM     57  H19 ZS2 d   1     -11.581  22.100  20.501  0.00  0.00     0.087 H 
ATOM     58  N3  ZS2 d   1     -13.124  24.767  19.218  0.00  0.00    -0.263 NA
ATOM     59  H20 ZS2 d   1     -13.784  22.811  19.611  0.00  0.00     0.114 H 
ATOM     60  C18 ZS2 d   1      -8.362  24.562  20.763  0.00  0.00    -0.082 A 
ATOM     61  H24 ZS2 d   1      -9.261  22.631  21.064  0.00  0.00     0.084 H 
ATOM     62  C19 ZS2 d   1      -8.546  25.865  20.314  0.00  0.00    -0.082 A 
ATOM     63  H23 ZS2 d   1      -7.398  24.257  21.155  0.00  0.00     0.083 H 
ATOM     64  H22 ZS2 d   1      -7.729  26.576  20.354  0.00  0.00     0.083 H 
ATOM     65  H21 ZS2 d   1      -9.935  27.266  19.467  0.00  0.00     0.084 H 
ENDBRANCH  47  50
ENDBRANCH  45  47
ENDBRANCH   3  43
TORSDOF 7
