REMARK  11 active torsions:
REMARK  status: ('A' for Active; 'I' for Inactive)
REMARK       I    between atoms: C21_2  and  N3_3 
REMARK    1  A    between atoms: C21_2  and  C20_13 
REMARK    2  A    between atoms: N3_3  and  C22_4 
REMARK    3  A    between atoms: C18_14  and  C19_15 
REMARK    4  A    between atoms: C16_20  and  C12_21 
REMARK    5  A    between atoms: C10_27  and  C9_28 
REMARK       I    between atoms: C9_28  and  N_30 
REMARK    6  A    between atoms: N_30  and  C8_31 
REMARK    7  A    between atoms: C8_31  and  C7_32 
REMARK    8  A    between atoms: C1_33  and  O_34 
REMARK    9  A    between atoms: O_34  and  C_35 
REMARK   10  A    between atoms: C5_36  and  O1_37 
REMARK   11  A    between atoms: O1_37  and  C6_38 
ROOT
ATOM      1  C12 F0S d   1     -16.371  27.676  16.635  0.00  0.00    -0.029 A 
ATOM      2  C11 F0S d   1     -15.153  27.297  17.222  0.00  0.00    -0.056 A 
ATOM      3  C13 F0S d   1     -16.893  26.898  15.611  0.00  0.00    -0.072 A 
ATOM      4  C14 F0S d   1     -16.221  25.756  15.207  0.00  0.00    -0.044 A 
ATOM      5  C15 F0S d   1     -15.015  25.383  15.805  0.00  0.00     0.132 A 
ATOM      6  F   F0S d   1     -14.373  24.260  15.402  0.00  0.00    -0.205 F 
ATOM      7  C10 F0S d   1     -14.485  26.145  16.820  0.00  0.00     0.071 A 
ATOM      8  H13 F0S d   1     -14.725  27.914  18.004  0.00  0.00     0.086 H 
ATOM      9  H14 F0S d   1     -17.822  27.183  15.130  0.00  0.00     0.084 H 
ATOM     10  H15 F0S d   1     -16.637  25.143  14.415  0.00  0.00     0.088 H 
ENDROOT
BRANCH   1  11
ATOM     11  C16 F0S d   1     -17.098  28.927  17.035  0.00  0.00     0.072 C 
ATOM     12  C20 F0S d   1     -18.353  28.684  17.798  0.00  0.00     0.059 C 
ATOM     13  C18 F0S d   1     -18.447  29.132  19.193  0.00  0.00     0.024 C 
ATOM     14  N2  F0S d   1     -17.399  29.752  19.760  0.00  0.00    -0.312 N 
ATOM     15  C17 F0S d   1     -16.324  30.144  19.060  0.00  0.00     0.321 C 
ATOM     16  H10 F0S d   1     -17.421  29.928  20.744  0.00  0.00     0.170 HD
ATOM     17  O3  F0S d   1     -15.467  30.847  19.649  0.00  0.00    -0.247 OA
ATOM     18  N1  F0S d   1     -16.160  29.817  17.765  0.00  0.00    -0.330 N 
ATOM     19  H11 F0S d   1     -15.373  30.189  17.273  0.00  0.00     0.165 HD
ATOM     20  H12 F0S d   1     -17.390  29.442  16.108  0.00  0.00     0.088 H 
BRANCH  12  21
ATOM     21  C21 F0S d   1     -19.556  28.059  17.204  0.00  0.00     0.256 C 
ATOM     22  O4  F0S d   1     -20.066  28.751  16.364  0.00  0.00    -0.267 OA
ATOM     23  N3  F0S d   1     -19.992  26.874  17.682  0.00  0.00    -0.323 N 
ATOM     24  H1  F0S d   1     -19.318  26.343  18.196  0.00  0.00     0.169 HD
BRANCH  23  25
ATOM     25  C22 F0S d   1     -21.231  26.296  17.561  0.00  0.00     0.035 A 
ATOM     26  C28 F0S d   1     -22.247  26.738  16.724  0.00  0.00    -0.044 A 
ATOM     27  C27 F0S d   1     -23.486  26.104  16.682  0.00  0.00     0.013 A 
ATOM     28  H2  F0S d   1     -22.071  27.598  16.088  0.00  0.00     0.088 H 
ATOM     29  C26 F0S d   1     -24.647  26.417  15.910  0.00  0.00     0.008 A 
ATOM     30  C25 F0S d   1     -23.746  25.030  17.462  0.00  0.00     0.088 A 
ATOM     31  N5  F0S d   1     -25.625  25.557  16.194  0.00  0.00    -0.288 N 
ATOM     32  H3  F0S d   1     -24.722  27.236  15.196  0.00  0.00     0.115 H 
ATOM     33  N4  F0S d   1     -25.026  24.728  17.160  0.00  0.00    -0.175 NA
ATOM     34  H4  F0S d   1     -26.578  25.511  15.805  0.00  0.00     0.188 HD
ATOM     35  C24 F0S d   1     -22.767  24.552  18.324  0.00  0.00    -0.051 A 
ATOM     36  C23 F0S d   1     -21.521  25.192  18.369  0.00  0.00    -0.055 A 
ATOM     37  H5  F0S d   1     -22.965  23.693  18.955  0.00  0.00     0.087 H 
ATOM     38  H6  F0S d   1     -20.762  24.821  19.048  0.00  0.00     0.087 H 
ENDBRANCH  23  25
ENDBRANCH  12  21
BRANCH  13  39
ATOM     39  C19 F0S d   1     -19.713  28.956  19.990  0.00  0.00    -0.037 C 
ATOM     40  H7  F0S d   1     -19.567  29.358  21.003  0.00  0.00     0.035 H 
ATOM     41  H8  F0S d   1     -19.962  27.886  20.052  0.00  0.00     0.035 H 
ATOM     42  H9  F0S d   1     -20.535  29.495  19.497  0.00  0.00     0.035 H 
ENDBRANCH  13  39
ENDBRANCH   1  11
BRANCH   7  43
ATOM     43  C9  F0S d   1     -13.158  25.751  17.398  0.00  0.00     0.255 C 
ATOM     44  O2  F0S d   1     -12.276  25.500  16.594  0.00  0.00    -0.268 OA
ATOM     45  N   F0S d   1     -12.859  25.748  18.683  0.00  0.00    -0.352 N 
ATOM     46  H16 F0S d   1     -13.567  25.873  19.378  0.00  0.00     0.163 HD
BRANCH  45  47
ATOM     47  C8  F0S d   1     -11.478  25.559  19.054  0.00  0.00     0.025 C 
ATOM     48  H17 F0S d   1     -10.921  26.472  18.798  0.00  0.00     0.071 H 
ATOM     49  H18 F0S d   1     -11.077  24.711  18.479  0.00  0.00     0.071 H 
BRANCH  47  50
ATOM     50  C7  F0S d   1     -11.280  25.277  20.518  0.00  0.00     0.026 A 
ATOM     51  C1  F0S d   1     -11.378  23.968  20.974  0.00  0.00     0.078 A 
ATOM     52  C2  F0S d   1     -11.176  23.692  22.324  0.00  0.00    -0.050 A 
ATOM     53  C3  F0S d   1     -10.894  24.721  23.226  0.00  0.00    -0.078 A 
ATOM     54  H27 F0S d   1     -11.238  22.669  22.678  0.00  0.00     0.087 H 
ATOM     55  C4  F0S d   1     -10.788  26.032  22.760  0.00  0.00    -0.050 A 
ATOM     56  H26 F0S d   1     -10.759  24.503  24.279  0.00  0.00     0.083 H 
ATOM     57  C5  F0S d   1     -10.978  26.308  21.406  0.00  0.00     0.078 A 
ATOM     58  H25 F0S d   1     -10.558  26.836  23.450  0.00  0.00     0.087 H 
BRANCH  51  59
ATOM     59  O   F0S d   1     -11.674  22.922  20.129  0.00  0.00    -0.355 OA
BRANCH  59  60
ATOM     60  C   F0S d   1     -12.954  22.831  19.502  0.00  0.00     0.010 C 
ATOM     61  H19 F0S d   1     -12.990  21.931  18.871  0.00  0.00     0.066 H 
ATOM     62  H20 F0S d   1     -13.121  23.722  18.879  0.00  0.00     0.066 H 
ATOM     63  H21 F0S d   1     -13.736  22.770  20.273  0.00  0.00     0.066 H 
ENDBRANCH  59  60
ENDBRANCH  51  59
BRANCH  57  64
ATOM     64  O1  F0S d   1     -10.862  27.622  20.987  0.00  0.00    -0.355 OA
BRANCH  64  65
ATOM     65  C6  F0S d   1      -9.646  28.102  20.366  0.00  0.00     0.010 C 
ATOM     66  H22 F0S d   1      -9.760  29.166  20.110  0.00  0.00     0.066 H 
ATOM     67  H23 F0S d   1      -9.448  27.524  19.451  0.00  0.00     0.066 H 
ATOM     68  H24 F0S d   1      -8.805  27.982  21.065  0.00  0.00     0.066 H 
ENDBRANCH  64  65
ENDBRANCH  57  64
ENDBRANCH  47  50
ENDBRANCH  45  47
ENDBRANCH   7  43
TORSDOF 11
