REMARK  10 active torsions:
REMARK  status: ('A' for Active; 'I' for Inactive)
REMARK       I    between atoms: C22_2  and  N3_3 
REMARK    1  A    between atoms: C22_2  and  C21_13 
REMARK    2  A    between atoms: N3_3  and  C23_4 
REMARK    3  A    between atoms: C19_14  and  C20_15 
REMARK    4  A    between atoms: C17_20  and  C13_21 
REMARK    5  A    between atoms: C11_27  and  C10_28 
REMARK       I    between atoms: C10_28  and  N_30 
REMARK    6  A    between atoms: N_30  and  C9_31 
REMARK    7  A    between atoms: C9_31  and  C8_32 
REMARK    8  A    between atoms: C8_32  and  C7_33 
REMARK    9  A    between atoms: C1_34  and  C_35 
REMARK   10  A    between atoms: C5_36  and  C6_37 
ROOT
ATOM      1  C13 FF1 d   1     -16.052  27.815  15.981  0.00  0.00    -0.033 A 
ATOM      2  C12 FF1 d   1     -14.874  27.757  16.768  0.00  0.00    -0.057 A 
ATOM      3  C14 FF1 d   1     -16.248  26.800  15.043  0.00  0.00    -0.072 A 
ATOM      4  C15 FF1 d   1     -15.312  25.768  14.898  0.00  0.00    -0.044 A 
ATOM      5  C16 FF1 d   1     -14.160  25.722  15.687  0.00  0.00     0.132 A 
ATOM      6  F   FF1 d   1     -13.259  24.734  15.540  0.00  0.00    -0.205 F 
ATOM      7  C11 FF1 d   1     -13.932  26.715  16.631  0.00  0.00     0.071 A 
ATOM      8  H13 FF1 d   1     -14.691  28.537  17.498  0.00  0.00     0.086 H 
ATOM      9  H14 FF1 d   1     -17.135  26.811  14.420  0.00  0.00     0.084 H 
ATOM     10  H15 FF1 d   1     -15.484  24.992  14.161  0.00  0.00     0.088 H 
ENDROOT
BRANCH   1  11
ATOM     11  C17 FF1 d   1     -17.070  28.931  16.093  0.00  0.00     0.056 C 
ATOM     12  C21 FF1 d   1     -18.197  28.571  16.993  0.00  0.00     0.085 C 
ATOM     13  C19 FF1 d   1     -18.171  28.993  18.437  0.00  0.00     0.029 C 
ATOM     14  H7  FF1 d   1     -17.698  27.625  17.251  0.00  0.00     0.067 H 
ATOM     15  N2  FF1 d   1     -17.149  29.756  18.835  0.00  0.00    -0.203 NA
ATOM     16  C18 FF1 d   1     -16.426  30.448  17.924  0.00  0.00     0.342 C 
ATOM     17  O1  FF1 d   1     -15.777  31.443  18.320  0.00  0.00    -0.245 OA
ATOM     18  N1  FF1 d   1     -16.415  30.148  16.604  0.00  0.00    -0.331 N 
ATOM     19  H11 FF1 d   1     -15.954  30.763  15.964  0.00  0.00     0.165 HD
ATOM     20  H12 FF1 d   1     -17.474  29.135  15.091  0.00  0.00     0.082 H 
BRANCH  12  21
ATOM     21  C22 FF1 d   1     -19.373  27.819  16.464  0.00  0.00     0.234 C 
ATOM     22  O2  FF1 d   1     -19.990  28.387  15.565  0.00  0.00    -0.272 OA
ATOM     23  N3  FF1 d   1     -19.724  26.689  17.098  0.00  0.00    -0.326 N 
ATOM     24  H1  FF1 d   1     -19.014  26.226  17.628  0.00  0.00     0.169 HD
BRANCH  23  25
ATOM     25  C23 FF1 d   1     -20.963  26.114  17.085  0.00  0.00     0.035 A 
ATOM     26  C29 FF1 d   1     -22.042  26.518  16.279  0.00  0.00    -0.044 A 
ATOM     27  C28 FF1 d   1     -23.270  25.849  16.347  0.00  0.00     0.013 A 
ATOM     28  H2  FF1 d   1     -21.922  27.354  15.600  0.00  0.00     0.088 H 
ATOM     29  C27 FF1 d   1     -24.473  26.086  15.616  0.00  0.00     0.008 A 
ATOM     30  C26 FF1 d   1     -23.445  24.801  17.212  0.00  0.00     0.088 A 
ATOM     31  N5  FF1 d   1     -25.388  25.187  16.024  0.00  0.00    -0.288 N 
ATOM     32  H3  FF1 d   1     -24.624  26.857  14.862  0.00  0.00     0.115 H 
ATOM     33  N4  FF1 d   1     -24.714  24.415  17.004  0.00  0.00    -0.175 NA
ATOM     34  H4  FF1 d   1     -26.359  25.083  15.698  0.00  0.00     0.188 HD
ATOM     35  C25 FF1 d   1     -22.399  24.400  18.032  0.00  0.00    -0.051 A 
ATOM     36  C24 FF1 d   1     -21.168  25.058  17.977  0.00  0.00    -0.055 A 
ATOM     37  H5  FF1 d   1     -22.538  23.572  18.718  0.00  0.00     0.087 H 
ATOM     38  H6  FF1 d   1     -20.363  24.746  18.633  0.00  0.00     0.087 H 
ENDBRANCH  23  25
ENDBRANCH  12  21
BRANCH  13  39
ATOM     39  C20 FF1 d   1     -19.269  28.703  19.444  0.00  0.00    -0.038 C 
ATOM     40  H8  FF1 d   1     -18.991  29.125  20.421  0.00  0.00     0.035 H 
ATOM     41  H9  FF1 d   1     -19.402  27.615  19.539  0.00  0.00     0.035 H 
ATOM     42  H10 FF1 d   1     -20.210  29.159  19.102  0.00  0.00     0.035 H 
ENDBRANCH  13  39
ENDBRANCH   1  11
BRANCH   7  43
ATOM     43  C10 FF1 d   1     -12.659  26.658  17.457  0.00  0.00     0.254 C 
ATOM     44  O   FF1 d   1     -12.355  25.582  17.960  0.00  0.00    -0.268 OA
ATOM     45  N   FF1 d   1     -11.884  27.768  17.553  0.00  0.00    -0.356 N 
ATOM     46  H16 FF1 d   1     -12.242  28.612  17.153  0.00  0.00     0.162 HD
BRANCH  45  47
ATOM     47  C9  FF1 d   1     -10.560  27.836  18.197  0.00  0.00    -0.001 C 
ATOM     48  H17 FF1 d   1      -9.889  27.144  17.667  0.00  0.00     0.064 H 
ATOM     49  H18 FF1 d   1     -10.673  27.510  19.241  0.00  0.00     0.064 H 
BRANCH  47  50
ATOM     50  C8  FF1 d   1      -9.896  29.235  18.203  0.00  0.00    -0.025 C 
ATOM     51  H19 FF1 d   1      -9.862  29.593  19.243  0.00  0.00     0.042 H 
ATOM     52  H20 FF1 d   1     -10.521  29.913  17.602  0.00  0.00     0.042 H 
BRANCH  50  53
ATOM     53  C7  FF1 d   1      -8.462  29.275  17.635  0.00  0.00    -0.045 A 
ATOM     54  C1  FF1 d   1      -8.183  29.741  16.324  0.00  0.00    -0.055 A 
ATOM     55  C2  FF1 d   1      -6.865  29.773  15.838  0.00  0.00    -0.077 A 
ATOM     56  C3  FF1 d   1      -5.807  29.349  16.637  0.00  0.00    -0.082 A 
ATOM     57  H29 FF1 d   1      -6.671  30.131  14.833  0.00  0.00     0.084 H 
ATOM     58  C4  FF1 d   1      -6.067  28.894  17.931  0.00  0.00    -0.077 A 
ATOM     59  H28 FF1 d   1      -4.792  29.372  16.258  0.00  0.00     0.083 H 
ATOM     60  C5  FF1 d   1      -7.380  28.857  18.437  0.00  0.00    -0.055 A 
ATOM     61  H27 FF1 d   1      -5.245  28.564  18.556  0.00  0.00     0.084 H 
BRANCH  54  62
ATOM     62  C   FF1 d   1      -9.265  30.224  15.379  0.00  0.00    -0.051 C 
ATOM     63  H21 FF1 d   1      -8.809  30.533  14.427  0.00  0.00     0.033 H 
ATOM     64  H22 FF1 d   1      -9.790  31.079  15.829  0.00  0.00     0.033 H 
ATOM     65  H23 FF1 d   1      -9.981  29.410  15.195  0.00  0.00     0.033 H 
ENDBRANCH  54  62
BRANCH  60  66
ATOM     66  C6  FF1 d   1      -7.599  28.353  19.851  0.00  0.00    -0.051 C 
ATOM     67  H24 FF1 d   1      -6.631  28.080  20.297  0.00  0.00     0.033 H 
ATOM     68  H25 FF1 d   1      -8.254  27.470  19.828  0.00  0.00     0.033 H 
ATOM     69  H26 FF1 d   1      -8.071  29.144  20.453  0.00  0.00     0.033 H 
ENDBRANCH  60  66
ENDBRANCH  50  53
ENDBRANCH  47  50
ENDBRANCH  45  47
ENDBRANCH   7  43
TORSDOF 10
