REMARK  6 active torsions:
REMARK  status: ('A' for Active; 'I' for Inactive)
REMARK    1  A    between atoms: C1_1  and  C18_27 
REMARK    2  A    between atoms: C3_4  and  O_30 
REMARK    3  A    between atoms: O_30  and  C4_5 
REMARK    4  A    between atoms: C12_21  and  C6_7 
REMARK    5  A    between atoms: C7_8  and  N4_12 
REMARK    6  A    between atoms: N5_24  and  C8_13 
ROOT
ATOM      1  C1  60T d   1      16.143   9.456  21.191  0.00  0.00     0.092 A 
ATOM      2  C2  60T d   1      18.403   9.634  20.876  0.00  0.00     0.727 A 
ATOM      3  C3  60T d   1      17.289   8.123  19.593  0.00  0.00     0.224 A 
ATOM      4  C5  60T d   1      20.800   9.774  20.529  0.00  0.00     0.041 C 
ATOM      5  C6  60T d   1      21.904  10.371  21.413  0.00  0.00     0.111 C 
ATOM      6  C7  60T d   1      22.424  10.086  23.824  0.00  0.00     0.677 C 
ATOM      7  N1  60T d   1      18.435   8.703  19.902  0.00  0.00    -0.035 NA
ATOM      8  N2  60T d   1      19.596  10.179  21.250  0.00  0.00    -0.210 N 
ATOM      9  N3  60T d   1      21.987   9.584  22.658  0.00  0.00    -0.210 N 
ATOM     10  C10 60T d   1      21.281  11.736  21.848  0.00  0.00     0.071 C 
ATOM     11  C9  60T d   1      21.910  12.330  23.099  0.00  0.00     0.246 C 
ATOM     12  O1  60T d   1      21.880  13.531  23.309  0.00  0.00    -0.272 OA
ATOM     13  N5  60T d   1      22.526  11.456  23.973  0.00  0.00    -0.156 N 
ATOM     14  C11 60T d   1      19.791  11.399  22.054  0.00  0.00     0.026 C 
ATOM     15  N   60T d   1      17.306  10.029  21.549  0.00  0.00    -0.065 NA
ATOM     16  C   60T d   1      16.094   8.482  20.187  0.00  0.00     0.194 A 
ATOM     17  F   60T d   1      14.939   7.949  19.755  0.00  0.00    -0.199 F 
ATOM     18  H4  60T d   1      20.882   8.679  20.468  0.00  0.00     0.069 H 
ATOM     19  H5  60T d   1      20.823  10.200  19.515  0.00  0.00     0.069 H 
ATOM     20  H6  60T d   1      21.694   8.597  22.631  0.00  0.00     0.179 HD
ATOM     21  H12 60T d   1      21.392  12.468  21.034  0.00  0.00     0.061 H 
ATOM     22  H16 60T d   1      19.575  11.208  23.116  0.00  0.00     0.066 H 
ATOM     23  H17 60T d   1      19.150  12.216  21.690  0.00  0.00     0.066 H 
ENDROOT
BRANCH   5  24
ATOM     24  C12 60T d   1      23.224  10.486  20.623  0.00  0.00     0.050 A 
ATOM     25  C17 60T d   1      24.425   9.789  20.942  0.00  0.00     0.128 A 
ATOM     26  F2  60T d   1      24.394   8.943  21.984  0.00  0.00    -0.205 F 
ATOM     27  C16 60T d   1      25.598   9.898  20.231  0.00  0.00    -0.045 A 
ATOM     28  C15 60T d   1      25.629  10.740  19.130  0.00  0.00    -0.077 A 
ATOM     29  H13 60T d   1      26.478   9.338  20.525  0.00  0.00     0.088 H 
ATOM     30  C14 60T d   1      24.499  11.443  18.734  0.00  0.00    -0.045 A 
ATOM     31  H14 60T d   1      26.550  10.851  18.569  0.00  0.00     0.083 H 
ATOM     32  C13 60T d   1      23.344  11.300  19.467  0.00  0.00     0.128 A 
ATOM     33  H15 60T d   1      24.526  12.091  17.865  0.00  0.00     0.088 H 
ATOM     34  F1  60T d   1      22.230  11.919  19.032  0.00  0.00    -0.205 F 
ENDBRANCH   5  24
BRANCH   3  35
ATOM     35  O   60T d   1      17.272   7.058  18.765  0.00  0.00    -0.337 OA
BRANCH  35  36
ATOM     36  C4  60T d   1      18.537   6.499  18.380  0.00  0.00     0.012 C 
ATOM     37  H1  60T d   1      18.371   5.643  17.709  0.00  0.00     0.067 H 
ATOM     38  H2  60T d   1      19.077   6.162  19.277  0.00  0.00     0.067 H 
ATOM     39  H3  60T d   1      19.132   7.263  17.859  0.00  0.00     0.067 H 
ENDBRANCH  35  36
ENDBRANCH   3  35
BRANCH   1  40
ATOM     40  C18 60T d   1      14.912   9.904  21.924  0.00  0.00    -0.032 C 
ATOM     41  H18 60T d   1      14.037   9.361  21.537  0.00  0.00     0.035 H 
ATOM     42  H19 60T d   1      14.769  10.984  21.774  0.00  0.00     0.035 H 
ATOM     43  H20 60T d   1      15.028   9.695  22.998  0.00  0.00     0.035 H 
ENDBRANCH   1  40
BRANCH   6  44
ATOM     44  N4  60T d   1      22.782   9.325  24.807  0.00  0.00    -0.234 N 
ATOM     45  H7  60T d   1      22.714   8.301  24.717  0.00  0.00     0.174 HD
ATOM     46  H8  60T d   1      23.135   9.743  25.680  0.00  0.00     0.174 HD
ENDBRANCH   6  44
BRANCH  13  47
ATOM     47  C8  60T d   1      23.130  12.027  25.190  0.00  0.00     0.005 C 
ATOM     48  H9  60T d   1      23.581  11.222  25.788  0.00  0.00     0.058 H 
ATOM     49  H10 60T d   1      22.353  12.533  25.782  0.00  0.00     0.058 H 
ATOM     50  H11 60T d   1      23.907  12.753  24.908  0.00  0.00     0.058 H 
ENDBRANCH  13  47
TORSDOF 6
