REMARK  7 active torsions:
REMARK  status: ('A' for Active; 'I' for Inactive)
REMARK    1  A    between atoms: C1_1  and  C11_7 
REMARK    2  A    between atoms: C4_3  and  N22_23 
REMARK    3  A    between atoms: N9_17  and  C7_5 
REMARK    4  A    between atoms: C10_6  and  N20_21 
REMARK    5  A    between atoms: N3_14  and  C27_27 
REMARK    6  A    between atoms: C17_20  and  C28_28 
REMARK    7  A    between atoms: N20_21  and  C29_29 
ROOT
ATOM      1  C11 60S d   1      22.556  10.763  20.705  0.00  0.00     0.015 A 
ATOM      2  C18 60S d   1      22.631  11.332  19.442  0.00  0.00    -0.066 A 
ATOM      3  C19 60S d   1      24.858  10.723  19.740  0.00  0.00     0.085 A 
ATOM      4  C24 60S d   1      23.940  11.300  18.886  0.00  0.00    -0.055 A 
ATOM      5  S16 60S d   1      24.106  10.182  21.180  0.00  0.00    -0.081 SA
ATOM      6  N21 60S d   1      27.400  10.470  19.491  0.00  0.00    -0.191 NA
ATOM      7  C23 60S d   1      26.247  10.563  19.553  0.00  0.00     0.107 C 
ATOM      8  H4  60S d   1      21.773  11.761  18.927  0.00  0.00     0.085 H 
ATOM      9  H5  60S d   1      24.189  11.687  17.899  0.00  0.00     0.086 H 
ENDROOT
BRANCH   1  10
ATOM     10  C1  60S d   1      21.433  10.644  21.666  0.00  0.00     0.111 C 
ATOM     11  C2  60S d   1      20.981  12.011  22.186  0.00  0.00     0.071 C 
ATOM     12  C5  60S d   1      21.823  12.541  23.311  0.00  0.00     0.246 C 
ATOM     13  C15 60S d   1      19.576  11.816  22.700  0.00  0.00     0.026 C 
ATOM     14  H1  60S d   1      20.992  12.737  21.360  0.00  0.00     0.061 H 
ATOM     15  N3  60S d   1      22.485  11.606  24.071  0.00  0.00    -0.156 N 
ATOM     16  O25 60S d   1      21.848  13.739  23.558  0.00  0.00    -0.272 OA
ATOM     17  C4  60S d   1      22.338  10.247  23.938  0.00  0.00     0.677 C 
ATOM     18  N6  60S d   1      21.730   9.789  22.807  0.00  0.00    -0.210 N 
ATOM     19  H6  60S d   1      21.469   8.794  22.757  0.00  0.00     0.179 HD
ATOM     20  N9  60S d   1      19.138  10.695  21.886  0.00  0.00    -0.210 N 
ATOM     21  H2  60S d   1      18.955  12.707  22.528  0.00  0.00     0.066 H 
ATOM     22  H3  60S d   1      19.569  11.565  23.771  0.00  0.00     0.066 H 
ATOM     23  C13 60S d   1      20.153  10.143  21.025  0.00  0.00     0.041 C 
ATOM     24  H7  60S d   1      20.115   9.044  21.019  0.00  0.00     0.069 H 
ATOM     25  H8  60S d   1      20.050  10.519  19.996  0.00  0.00     0.069 H 
BRANCH  15  26
ATOM     26  C27 60S d   1      23.344  12.110  25.128  0.00  0.00     0.005 C 
ATOM     27  H12 60S d   1      23.810  11.265  25.656  0.00  0.00     0.058 H 
ATOM     28  H13 60S d   1      22.745  12.700  25.837  0.00  0.00     0.058 H 
ATOM     29  H14 60S d   1      24.127  12.747  24.692  0.00  0.00     0.058 H 
ENDBRANCH  15  26
BRANCH  17  30
ATOM     30  N22 60S d   1      22.773   9.453  24.859  0.00  0.00    -0.234 N 
ATOM     31  H10 60S d   1      23.227   9.839  25.699  0.00  0.00     0.174 HD
ATOM     32  H11 60S d   1      22.666   8.434  24.753  0.00  0.00     0.174 HD
ENDBRANCH  17  30
BRANCH  20  33
ATOM     33  C7  60S d   1      17.767  10.364  21.839  0.00  0.00     0.727 A 
ATOM     34  N12 60S d   1      17.366   9.508  20.886  0.00  0.00    -0.065 NA
ATOM     35  C17 60S d   1      16.066   9.188  20.887  0.00  0.00     0.092 A 
ATOM     36  C14 60S d   1      15.182   9.734  21.787  0.00  0.00     0.187 A 
ATOM     37  C10 60S d   1      15.664  10.602  22.740  0.00  0.00     0.183 A 
ATOM     38  F26 60S d   1      13.883   9.403  21.798  0.00  0.00    -0.200 F 
ATOM     39  N8  60S d   1      16.965  10.901  22.771  0.00  0.00    -0.042 NA
BRANCH  35  40
ATOM     40  C28 60S d   1      15.618   8.224  19.823  0.00  0.00    -0.032 C 
ATOM     41  H15 60S d   1      14.538   8.040  19.926  0.00  0.00     0.035 H 
ATOM     42  H16 60S d   1      16.164   7.275  19.934  0.00  0.00     0.035 H 
ATOM     43  H17 60S d   1      15.824   8.651  18.831  0.00  0.00     0.035 H 
ENDBRANCH  35  40
BRANCH  37  44
ATOM     44  N20 60S d   1      14.753  11.128  23.664  0.00  0.00    -0.376 N 
ATOM     45  H9  60S d   1      13.853  10.681  23.891  0.00  0.00     0.160 HD
BRANCH  44  46
ATOM     46  C29 60S d   1      15.209  12.378  24.275  0.00  0.00    -0.019 C 
ATOM     47  H18 60S d   1      14.451  12.736  24.987  0.00  0.00     0.056 H 
ATOM     48  H19 60S d   1      15.362  13.135  23.491  0.00  0.00     0.056 H 
ATOM     49  H20 60S d   1      16.157  12.203  24.805  0.00  0.00     0.056 H 
ENDBRANCH  44  46
ENDBRANCH  37  44
ENDBRANCH  20  33
ENDBRANCH   1  10
TORSDOF 7
