REMARK  6 active torsions:
REMARK  status: ('A' for Active; 'I' for Inactive)
REMARK    1  A    between atoms: C1_20  and  C18_1 
REMARK    2  A    between atoms: C6_16  and  C12_7 
REMARK    3  A    between atoms: C7_13  and  N4_25 
REMARK    4  A    between atoms: N5_24  and  C8_14 
REMARK    5  A    between atoms: O_30  and  C4_17 
REMARK    6  A    between atoms: C3_18  and  O_30 
ROOT
ATOM      1  N2  60X d   1      19.721  10.109  21.347  0.00  0.00    -0.210 N 
ATOM      2  C11 60X d   1      19.927  11.280  22.209  0.00  0.00     0.026 C 
ATOM      3  O1  60X d   1      21.922  13.439  23.458  0.00  0.00    -0.272 OA
ATOM      4  N1  60X d   1      18.547   8.645  20.021  0.00  0.00    -0.035 NA
ATOM      5  C10 60X d   1      21.399  11.651  21.978  0.00  0.00     0.071 C 
ATOM      6  C7  60X d   1      22.577  10.011  23.940  0.00  0.00     0.677 C 
ATOM      7  C9  60X d   1      22.004  12.248  23.234  0.00  0.00     0.246 C 
ATOM      8  C6  60X d   1      22.050  10.310  21.536  0.00  0.00     0.107 C 
ATOM      9  C3  60X d   1      17.389   8.117  19.672  0.00  0.00     0.224 A 
ATOM     10  C2  60X d   1      18.536   9.523  21.041  0.00  0.00     0.727 A 
ATOM     11  C1  60X d   1      16.263   9.413  21.339  0.00  0.00     0.092 A 
ATOM     12  C5  60X d   1      20.945   9.668  20.683  0.00  0.00     0.041 C 
ATOM     13  N5  60X d   1      22.620  11.381  24.114  0.00  0.00    -0.156 N 
ATOM     14  N3  60X d   1      22.227   9.496  22.740  0.00  0.00    -0.210 N 
ATOM     15  N   60X d   1      17.443   9.924  21.732  0.00  0.00    -0.065 NA
ATOM     16  C   60X d   1      16.194   8.476  20.277  0.00  0.00     0.194 A 
ATOM     17  F   60X d   1      15.038   7.938  19.855  0.00  0.00    -0.199 F 
ATOM     18  H5  60X d   1      19.748  11.026  23.264  0.00  0.00     0.066 H 
ATOM     19  H6  60X d   1      19.264  12.106  21.913  0.00  0.00     0.066 H 
ATOM     20  H9  60X d   1      21.486  12.390  21.168  0.00  0.00     0.061 H 
ATOM     21  H16 60X d   1      20.985  10.031  19.645  0.00  0.00     0.069 H 
ATOM     22  H17 60X d   1      21.026   8.571  20.691  0.00  0.00     0.069 H 
ATOM     23  H20 60X d   1      22.077   8.479  22.669  0.00  0.00     0.179 HD
ENDROOT
BRANCH   8  24
ATOM     24  C12 60X d   1      23.354  10.504  20.750  0.00  0.00     0.012 A 
ATOM     25  C17 60X d   1      23.427  11.237  19.568  0.00  0.00     0.128 A 
ATOM     26  C16 60X d   1      24.577  11.408  18.844  0.00  0.00    -0.008 A 
ATOM     27  F2  60X d   1      22.297  11.798  19.087  0.00  0.00    -0.205 F 
ATOM     28  C15 60X d   1      25.709  10.820  19.339  0.00  0.00     0.119 A 
ATOM     29  H4  60X d   1      24.590  11.981  17.924  0.00  0.00     0.093 H 
ATOM     30  C14 60X d   1      25.727  10.069  20.484  0.00  0.00    -0.045 A 
ATOM     31  F1  60X d   1      26.874  11.013  18.670  0.00  0.00    -0.206 F 
ATOM     32  C13 60X d   1      24.541   9.912  21.180  0.00  0.00    -0.069 A 
ATOM     33  H8  60X d   1      26.644   9.610  20.835  0.00  0.00     0.088 H 
ATOM     34  H7  60X d   1      24.535   9.313  22.083  0.00  0.00     0.084 H 
ENDBRANCH   8  24
BRANCH   9  35
ATOM     35  O   60X d   1      17.357   7.096  18.796  0.00  0.00    -0.337 OA
BRANCH  35  36
ATOM     36  C4  60X d   1      18.600   6.457  18.484  0.00  0.00     0.012 C 
ATOM     37  H13 60X d   1      18.424   5.647  17.761  0.00  0.00     0.067 H 
ATOM     38  H14 60X d   1      19.039   6.040  19.402  0.00  0.00     0.067 H 
ATOM     39  H15 60X d   1      19.292   7.193  18.049  0.00  0.00     0.067 H 
ENDBRANCH  35  36
ENDBRANCH   9  35
BRANCH  11  40
ATOM     40  C18 60X d   1      15.042   9.885  22.073  0.00  0.00    -0.032 C 
ATOM     41  H1  60X d   1      14.151   9.393  21.656  0.00  0.00     0.035 H 
ATOM     42  H2  60X d   1      14.946  10.975  21.962  0.00  0.00     0.035 H 
ATOM     43  H3  60X d   1      15.135   9.632  23.140  0.00  0.00     0.035 H 
ENDBRANCH  11  40
BRANCH  13  44
ATOM     44  C8  60X d   1      23.269  11.966  25.299  0.00  0.00     0.005 C 
ATOM     45  H10 60X d   1      23.715  11.164  25.906  0.00  0.00     0.058 H 
ATOM     46  H11 60X d   1      22.521  12.506  25.898  0.00  0.00     0.058 H 
ATOM     47  H12 60X d   1      24.056  12.664  24.979  0.00  0.00     0.058 H 
ENDBRANCH  13  44
BRANCH   6  48
ATOM     48  N4  60X d   1      22.923   9.241  24.909  0.00  0.00    -0.234 N 
ATOM     49  H18 60X d   1      22.895   8.218  24.790  0.00  0.00     0.174 HD
ATOM     50  H19 60X d   1      23.229   9.646  25.805  0.00  0.00     0.174 HD
ENDBRANCH   6  48
TORSDOF 6
