REMARK WARNING: 32 MAX_TORS EXCEEDED!!!
REMARK  37 active torsions:
REMARK  status: ('A' for Active; 'I' for Inactive)
REMARK    1  A    between atoms: N_1  and  CA_2 
REMARK    2  A    between atoms: CA_2  and  C_3 
REMARK    3  A    between atoms: CA_2  and  CB_5 
REMARK       I    between atoms: C_3  and  N_6 
REMARK    4  A    between atoms: N_6  and  CA_7 
REMARK    5  A    between atoms: CA_7  and  C_8 
REMARK    6  A    between atoms: CA_7  and  CB_10 
REMARK       I    between atoms: C_8  and  N_14 
REMARK    7  A    between atoms: CB_10  and  CG_11 
REMARK       I    between atoms: CG_11  and  ND2_13 
REMARK    8  A    between atoms: N_14  and  CA_15 
REMARK    9  A    between atoms: CA_15  and  C_16 
REMARK   10  A    between atoms: CA_15  and  CB_18 
REMARK       I    between atoms: C_16  and  N_26 
REMARK   11  A    between atoms: CB_18  and  CG_19 
REMARK   12  A    between atoms: CZ_24  and  OH_25 
REMARK   13  A    between atoms: N_26  and  CA_27 
REMARK   14  A    between atoms: CA_27  and  C_28 
REMARK   15  A    between atoms: CA_27  and  CB_30 
REMARK       I    between atoms: C_28  and  N_35 
REMARK   16  A    between atoms: CB_30  and  CG_31 
REMARK   17  A    between atoms: CG_31  and  CD_32 
REMARK   18  A    between atoms: CD_32  and  CE_33 
REMARK   19  A    between atoms: CE_33  and  NZ_34 
REMARK   20  A    between atoms: N_35  and  CA_36 
REMARK   21  A    between atoms: CA_36  and  C_37 
REMARK   22  A    between atoms: CA_36  and  CB_39 
REMARK       I    between atoms: C_37  and  N_44 
REMARK   23  A    between atoms: CB_39  and  CG_40 
REMARK   24  A    between atoms: CG_40  and  CD_41 
REMARK       I    between atoms: CD_41  and  NE2_43 
REMARK   25  A    between atoms: N_44  and  CA_45 
REMARK   26  A    between atoms: CA_45  and  C_46 
REMARK   27  A    between atoms: CA_45  and  CB_48 
REMARK       I    between atoms: C_46  and  N_55 
REMARK   28  A    between atoms: CB_48  and  CG_49 
REMARK   29  A    between atoms: N_55  and  CA_56 
REMARK   30  A    between atoms: CA_56  and  C_57 
REMARK   31  A    between atoms: CA_56  and  CB_59 
REMARK       I    between atoms: C_57  and  N_61 
REMARK   32  A    between atoms: CB_59  and  OG_60 
REMARK   33  A    between atoms: N_61  and  CA_62 
REMARK   34  A    between atoms: CA_62  and  C_63 
REMARK   35  A    between atoms: CA_62  and  CB_65 
REMARK   36  A    between atoms: CB_65  and  CG1_66 
REMARK   37  A    between atoms: CB_65  and  CG2_67 
ROOT
ATOM      1  CA  LYS d   1      37.916  49.958  22.451  0.00  0.00     0.089 C 
ATOM      2  H24 LYS d   1      38.531  49.609  21.609  0.00  0.00     0.087 H 
ENDROOT
BRANCH   1   3
ATOM      3  N   LYS d   1      37.905  48.918  23.480  0.00  0.00    -0.346 N 
ATOM      4  C   TYR d   1      37.964  47.618  23.196  0.00  0.00     0.241 C 
ATOM      5  O   TYR d   1      37.915  47.173  22.050  0.00  0.00    -0.271 OA
ATOM      6  H23 LYS d   1      37.851  49.196  24.439  0.00  0.00     0.163 HD
BRANCH   4   7
ATOM      7  CA  TYR d   1      38.123  46.686  24.404  0.00  0.00     0.093 C 
ATOM      8  H15 TYR d   1      37.861  47.262  25.304  0.00  0.00     0.088 H 
BRANCH   7   9
ATOM      9  N   TYR d   1      37.269  45.493  24.382  0.00  0.00    -0.346 N 
ATOM     10  C   ASN d   1      35.953  45.555  24.253  0.00  0.00     0.241 C 
ATOM     11  O   ASN d   1      35.362  46.569  24.059  0.00  0.00    -0.271 OA
ATOM     12  H14 TYR d   1      37.700  44.595  24.468  0.00  0.00     0.163 HD
BRANCH  10  13
ATOM     13  CA  ASN d   1      35.173  44.237  24.380  0.00  0.00     0.097 C 
ATOM     14  H9  ASN d   1      34.889  43.907  23.370  0.00  0.00     0.088 H 
BRANCH  13  15
ATOM     15  N   ASN d   1      35.991  43.168  24.980  0.00  0.00    -0.346 N 
ATOM     16  C   LYS d   1      36.389  43.239  26.235  0.00  0.00     0.248 C 
ATOM     17  O   LYS d   1      36.098  44.139  26.963  0.00  0.00    -0.271 OA
ATOM     18  H8  ASN d   1      36.248  42.376  24.426  0.00  0.00     0.163 HD
BRANCH  16  19
ATOM     19  CA  LYS d   1      37.288  42.155  26.732  0.00  0.00     0.172 C 
ATOM     20  H4  LYS d   1      36.954  41.769  27.706  0.00  0.00     0.098 H 
BRANCH  19  21
ATOM     21  N   LYS d   1      37.230  41.130  25.742  0.00  0.00    -0.067 N 
ATOM     22  H1  LYS d   1      37.821  40.361  26.019  0.00  0.00     0.275 HD
ATOM     23  H2  LYS d   1      37.549  41.497  24.859  0.00  0.00     0.275 HD
ATOM     24  H3  LYS d   1      36.280  40.807  25.648  0.00  0.00     0.275 HD
ENDBRANCH  19  21
BRANCH  19  25
ATOM     25  CB  LYS d   1      38.693  42.759  26.855  0.00  0.00    -0.042 C 
ATOM     26  H5  LYS d   1      38.689  43.542  27.628  0.00  0.00     0.030 H 
ATOM     27  H6  LYS d   1      38.990  43.197  25.890  0.00  0.00     0.030 H 
ATOM     28  H7  LYS d   1      39.408  41.971  27.135  0.00  0.00     0.030 H 
ENDBRANCH  19  25
ENDBRANCH  16  19
ENDBRANCH  13  15
BRANCH  13  29
ATOM     29  CB  ASN d   1      33.900  44.503  25.164  0.00  0.00     0.036 C 
ATOM     30  H10 ASN d   1      34.170  44.964  26.125  0.00  0.00     0.051 H 
ATOM     31  H11 ASN d   1      33.394  43.544  25.347  0.00  0.00     0.051 H 
BRANCH  29  32
ATOM     32  CG  ASN d   1      32.947  45.417  24.446  0.00  0.00     0.217 C 
ATOM     33  OD1 ASN d   1      32.487  46.389  24.987  0.00  0.00    -0.274 OA
ATOM     34  ND2 ASN d   1      32.597  45.061  23.231  0.00  0.00    -0.370 N 
ATOM     35  H12 ASN d   1      31.965  45.631  22.706  0.00  0.00     0.159 HD
ATOM     36  H13 ASN d   1      32.962  44.220  22.832  0.00  0.00     0.159 HD
ENDBRANCH  29  32
ENDBRANCH  13  29
ENDBRANCH  10  13
ENDBRANCH   7   9
BRANCH   7  37
ATOM     37  CB  TYR d   1      39.580  46.259  24.506  0.00  0.00    -0.014 C 
ATOM     38  H16 TYR d   1      39.730  45.385  23.855  0.00  0.00     0.043 H 
ATOM     39  H17 TYR d   1      39.786  45.979  25.550  0.00  0.00     0.043 H 
BRANCH  37  40
ATOM     40  CG  TYR d   1      40.563  47.327  24.099  0.00  0.00    -0.056 A 
ATOM     41  CD1 TYR d   1      40.875  48.365  24.967  0.00  0.00    -0.074 A 
ATOM     42  CE1 TYR d   1      41.777  49.338  24.616  0.00  0.00    -0.051 A 
ATOM     43  H18 TYR d   1      40.398  48.407  25.939  0.00  0.00     0.084 H 
ATOM     44  CZ  TYR d   1      42.389  49.275  23.389  0.00  0.00     0.065 A 
ATOM     45  H20 TYR d   1      42.004  50.148  25.300  0.00  0.00     0.087 H 
ATOM     46  CE2 TYR d   1      42.092  48.260  22.503  0.00  0.00    -0.051 A 
ATOM     47  CD2 TYR d   1      41.187  47.289  22.868  0.00  0.00    -0.074 A 
ATOM     48  H21 TYR d   1      42.567  48.227  21.529  0.00  0.00     0.087 H 
ATOM     49  H19 TYR d   1      40.961  46.483  22.179  0.00  0.00     0.084 H 
BRANCH  44  50
ATOM     50  OH  TYR d   1      43.281  50.239  23.064  0.00  0.00    -0.361 OA
ATOM     51  H22 TYR d   1      44.126  49.841  22.889  0.00  0.00     0.217 HD
ENDBRANCH  44  50
ENDBRANCH  37  40
ENDBRANCH   7  37
ENDBRANCH   4   7
ENDBRANCH   1   3
BRANCH   1  52
ATOM     52  C   LYS d   1      38.523  51.242  23.003  0.00  0.00     0.241 C 
ATOM     53  O   LYS d   1      38.382  51.541  24.197  0.00  0.00    -0.271 OA
ATOM     54  N   GLN d   1      39.194  51.999  22.135  0.00  0.00    -0.346 N 
ATOM     55  H36 GLN d   1      39.393  51.637  21.224  0.00  0.00     0.163 HD
BRANCH  54  56
ATOM     56  CA  GLN d   1      39.645  53.341  22.481  0.00  0.00     0.090 C 
ATOM     57  H37 GLN d   1      39.450  53.505  23.551  0.00  0.00     0.087 H 
BRANCH  56  58
ATOM     58  C   GLN d   1      38.904  54.375  21.678  0.00  0.00     0.241 C 
ATOM     59  O   GLN d   1      38.533  54.138  20.529  0.00  0.00    -0.271 OA
ATOM     60  N   PHE d   1      38.724  55.538  22.282  0.00  0.00    -0.346 N 
ATOM     61  H44 PHE d   1      38.950  55.629  23.252  0.00  0.00     0.163 HD
BRANCH  60  62
ATOM     62  CA  PHE d   1      38.199  56.693  21.553  0.00  0.00     0.093 C 
ATOM     63  H45 PHE d   1      38.346  56.515  20.477  0.00  0.00     0.088 H 
BRANCH  62  64
ATOM     64  C   PHE d   1      38.913  57.969  21.947  0.00  0.00     0.241 C 
ATOM     65  O   PHE d   1      39.189  58.172  23.116  0.00  0.00    -0.271 OA
ATOM     66  N   SER d   1      39.118  58.851  20.974  0.00  0.00    -0.344 N 
ATOM     67  H53 SER d   1      38.916  58.586  20.031  0.00  0.00     0.163 HD
BRANCH  66  68
ATOM     68  CA  SER d   1      39.628  60.193  21.235  0.00  0.00     0.109 C 
ATOM     69  H54 SER d   1      40.226  60.179  22.158  0.00  0.00     0.090 H 
BRANCH  68  70
ATOM     70  C   SER d   1      38.446  61.117  21.408  0.00  0.00     0.243 C 
ATOM     71  O   SER d   1      37.489  61.059  20.620  0.00  0.00    -0.271 OA
ATOM     72  N   VAL d   1      38.516  62.001  22.397  0.00  0.00    -0.344 N 
ATOM     73  H58 VAL d   1      39.334  62.033  22.971  0.00  0.00     0.163 HD
BRANCH  72  74
ATOM     74  CA  VAL d   1      37.427  62.919  22.658  0.00  0.00     0.099 C 
ATOM     75  H59 VAL d   1      36.749  62.913  21.792  0.00  0.00     0.090 H 
BRANCH  74  76
ATOM     76  C   VAL d   1      38.006  64.316  22.812  0.00  0.00     0.197 C 
ATOM     77  O   VAL d   1      37.251  65.287  22.831  0.00  0.00    -0.646 OA
ATOM     78  OXT VAL d   1      39.229  64.473  22.896  0.00  0.00    -0.646 OA
ENDBRANCH  74  76
BRANCH  74  79
ATOM     79  CB  VAL d   1      36.614  62.508  23.900  0.00  0.00    -0.032 C 
ATOM     80  H60 VAL d   1      35.802  63.236  24.043  0.00  0.00     0.042 H 
BRANCH  79  81
ATOM     81  CG1 VAL d   1      35.996  61.121  23.710  0.00  0.00    -0.071 C 
ATOM     82  H61 VAL d   1      35.421  60.849  24.608  0.00  0.00     0.028 H 
ATOM     83  H62 VAL d   1      36.795  60.382  23.549  0.00  0.00     0.028 H 
ATOM     84  H63 VAL d   1      35.327  61.134  22.837  0.00  0.00     0.028 H 
ENDBRANCH  79  81
BRANCH  79  85
ATOM     85  CG2 VAL d   1      37.499  62.522  25.130  0.00  0.00    -0.071 C 
ATOM     86  H64 VAL d   1      37.937  63.523  25.255  0.00  0.00     0.028 H 
ATOM     87  H65 VAL d   1      38.304  61.782  25.011  0.00  0.00     0.028 H 
ATOM     88  H66 VAL d   1      36.898  62.271  26.017  0.00  0.00     0.028 H 
ENDBRANCH  79  85
ENDBRANCH  74  79
ENDBRANCH  72  74
ENDBRANCH  68  70
BRANCH  68  89
ATOM     89  CB  SER d   1      40.500  60.705  20.084  0.00  0.00     0.044 C 
ATOM     90  H55 SER d   1      40.819  61.733  20.309  0.00  0.00     0.077 H 
ATOM     91  H56 SER d   1      39.907  60.699  19.157  0.00  0.00     0.077 H 
BRANCH  89  92
ATOM     92  OG  SER d   1      41.642  59.902  19.900  0.00  0.00    -0.398 OA
ATOM     93  H57 SER d   1      42.162  59.906  20.695  0.00  0.00     0.209 HD
ENDBRANCH  89  92
ENDBRANCH  68  89
ENDBRANCH  66  68
ENDBRANCH  62  64
BRANCH  62  94
ATOM     94  CB  PHE d   1      36.716  56.910  21.821  0.00  0.00    -0.014 C 
ATOM     95  H46 PHE d   1      36.404  57.834  21.311  0.00  0.00     0.043 H 
ATOM     96  H47 PHE d   1      36.574  57.024  22.906  0.00  0.00     0.043 H 
BRANCH  94  97
ATOM     97  CG  PHE d   1      35.842  55.796  21.348  0.00  0.00    -0.056 A 
ATOM     98  CD1 PHE d   1      35.338  55.810  20.064  0.00  0.00    -0.077 A 
ATOM     99  CE1 PHE d   1      34.505  54.767  19.621  0.00  0.00    -0.082 A 
ATOM    100  H48 PHE d   1      35.584  56.627  19.395  0.00  0.00     0.084 H 
ATOM    101  CZ  PHE d   1      34.196  53.730  20.474  0.00  0.00    -0.083 A 
ATOM    102  H50 PHE d   1      34.108  54.779  18.613  0.00  0.00     0.083 H 
ATOM    103  CE2 PHE d   1      34.697  53.716  21.756  0.00  0.00    -0.082 A 
ATOM    104  H52 PHE d   1      33.557  52.923  20.135  0.00  0.00     0.083 H 
ATOM    105  CD2 PHE d   1      35.512  54.750  22.193  0.00  0.00    -0.077 A 
ATOM    106  H51 PHE d   1      34.455  52.897  22.424  0.00  0.00     0.083 H 
ATOM    107  H49 PHE d   1      35.895  54.739  23.207  0.00  0.00     0.084 H 
ENDBRANCH  94  97
ENDBRANCH  62  94
ENDBRANCH  60  62
ENDBRANCH  56  58
BRANCH  56 108
ATOM    108  CB  GLN d   1      41.129  53.535  22.215  0.00  0.00    -0.030 C 
ATOM    109  H38 GLN d   1      41.390  54.571  22.477  0.00  0.00     0.037 H 
ATOM    110  H39 GLN d   1      41.308  53.372  21.142  0.00  0.00     0.037 H 
BRANCH 108 111
ATOM    111  CG  GLN d   1      42.022  52.632  22.971  0.00  0.00     0.011 C 
ATOM    112  H40 GLN d   1      42.484  51.923  22.268  0.00  0.00     0.047 H 
ATOM    113  H41 GLN d   1      41.422  52.079  23.709  0.00  0.00     0.047 H 
BRANCH 111 114
ATOM    114  CD  GLN d   1      43.124  53.381  23.702  0.00  0.00     0.215 C 
ATOM    115  OE1 GLN d   1      43.041  54.591  23.932  0.00  0.00    -0.274 OA
ATOM    116  NE2 GLN d   1      44.169  52.661  24.059  0.00  0.00    -0.370 N 
ATOM    117  H42 GLN d   1      44.931  53.091  24.544  0.00  0.00     0.159 HD
ATOM    118  H43 GLN d   1      44.200  51.685  23.845  0.00  0.00     0.159 HD
ENDBRANCH 111 114
ENDBRANCH 108 111
ENDBRANCH  56 108
ENDBRANCH  54  56
ENDBRANCH   1  52
BRANCH   1 119
ATOM    119  CB  LYS d   1      36.499  50.241  21.939  0.00  0.00    -0.038 C 
ATOM    120  H25 LYS d   1      36.471  51.276  21.568  0.00  0.00     0.036 H 
ATOM    121  H26 LYS d   1      35.804  50.136  22.785  0.00  0.00     0.036 H 
BRANCH 119 122
ATOM    122  CG  LYS d   1      36.019  49.323  20.815  0.00  0.00    -0.061 C 
ATOM    123  H27 LYS d   1      34.948  49.505  20.640  0.00  0.00     0.033 H 
ATOM    124  H28 LYS d   1      36.168  48.277  21.122  0.00  0.00     0.033 H 
BRANCH 122 125
ATOM    125  CD  LYS d   1      36.782  49.568  19.509  0.00  0.00    -0.043 C 
ATOM    126  H29 LYS d   1      36.541  48.759  18.804  0.00  0.00     0.035 H 
ATOM    127  H30 LYS d   1      37.861  49.557  19.725  0.00  0.00     0.035 H 
BRANCH 125 128
ATOM    128  CE  LYS d   1      36.430  50.897  18.862  0.00  0.00     0.080 C 
ATOM    129  H31 LYS d   1      36.140  51.615  19.644  0.00  0.00     0.075 H 
ATOM    130  H32 LYS d   1      35.589  50.751  18.169  0.00  0.00     0.075 H 
BRANCH 128 131
ATOM    131  NZ  LYS d   1      37.596  51.436  18.110  0.00  0.00    -0.079 N 
ATOM    132  H33 LYS d   1      37.346  52.316  17.688  0.00  0.00     0.274 HD
ATOM    133  H34 LYS d   1      37.863  50.782  17.391  0.00  0.00     0.274 HD
ATOM    134  H35 LYS d   1      38.369  51.574  18.742  0.00  0.00     0.274 HD
ENDBRANCH 128 131
ENDBRANCH 125 128
ENDBRANCH 122 125
ENDBRANCH 119 122
ENDBRANCH   1 119
TORSDOF 37
