REMARK  8 active torsions:
REMARK  status: ('A' for Active; 'I' for Inactive)
REMARK    1  A    between atoms: C16_13  and  C17_3 
REMARK    2  A    between atoms: C17_3  and  C18_17 
REMARK    3  A    between atoms: C21_5  and  N27_21 
REMARK    4  A    between atoms: C07_16  and  C01_8 
REMARK    5  A    between atoms: N27_21  and  S28_22 
REMARK    6  A    between atoms: S28_22  and  C31_25 
REMARK    7  A    between atoms: C31_25  and  C32_26 
REMARK    8  A    between atoms: C32_26  and  C33_27 
ROOT
ATOM      1  C17 032 d   1      26.312  69.916   1.960  0.00  0.00     0.200 C 
ATOM      2  O19 032 d   1      26.396  69.040   1.155  0.00  0.00    -0.286 OA
ENDROOT
BRANCH   1   3
ATOM      3  C16 032 d   1      26.822  71.261   1.791  0.00  0.00     0.044 A 
ATOM      4  C15 032 d   1      26.886  72.205   2.777  0.00  0.00    -0.006 A 
ATOM      5  N14 032 d   1      27.282  73.399   2.255  0.00  0.00    -0.349 N 
ATOM      6  H1  032 d   1      26.654  72.028   3.826  0.00  0.00     0.112 H 
ATOM      7  C06 032 d   1      27.523  73.256   0.923  0.00  0.00     0.138 A 
ATOM      8  H5  032 d   1      27.384  74.275   2.787  0.00  0.00     0.167 HD
ATOM      9  N03 032 d   1      27.976  74.203   0.099  0.00  0.00    -0.242 NA
ATOM     10  C05 032 d   1      27.247  71.928   0.581  0.00  0.00     0.026 A 
ATOM     11  C02 032 d   1      28.202  73.803  -1.144  0.00  0.00     0.015 A 
ATOM     12  C01 032 d   1      27.973  72.517  -1.618  0.00  0.00    -0.007 A 
ATOM     13  H3  032 d   1      28.595  74.533  -1.843  0.00  0.00     0.116 H 
ATOM     14  C04 032 d   1      27.466  71.553  -0.738  0.00  0.00    -0.056 A 
ATOM     15  H4  032 d   1      27.251  70.546  -1.076  0.00  0.00     0.086 H 
BRANCH  12  16
ATOM     16  C07 032 d   1      28.235  72.189  -3.031  0.00  0.00    -0.024 A 
ATOM     17  C08 032 d   1      28.726  70.936  -3.404  0.00  0.00    -0.071 A 
ATOM     18  C09 032 d   1      28.914  70.610  -4.735  0.00  0.00    -0.061 A 
ATOM     19  H15 032 d   1      28.964  70.207  -2.638  0.00  0.00     0.084 H 
ATOM     20  C10 032 d   1      28.569  71.527  -5.708  0.00  0.00     0.034 A 
ATOM     21  H16 032 d   1      29.327  69.647  -5.011  0.00  0.00     0.086 H 
ATOM     22  C11 032 d   1      28.089  72.772  -5.379  0.00  0.00    -0.061 A 
ATOM     23 CL13 032 d   1      28.698  71.075  -7.406  0.00  0.00    -0.084 Cl
ATOM     24  C12 032 d   1      27.935  73.103  -4.045  0.00  0.00    -0.071 A 
ATOM     25  H17 032 d   1      27.834  73.485  -6.155  0.00  0.00     0.086 H 
ATOM     26  H18 032 d   1      27.575  74.091  -3.781  0.00  0.00     0.084 H 
ENDBRANCH  12  16
ENDBRANCH   1   3
BRANCH   1  27
ATOM     27  C18 032 d   1      25.606  69.539   3.237  0.00  0.00     0.094 A 
ATOM     28  C20 032 d   1      26.188  68.728   4.168  0.00  0.00     0.160 A 
ATOM     29  C21 032 d   1      25.587  68.459   5.395  0.00  0.00     0.082 A 
ATOM     30  F26 032 d   1      27.362  68.142   3.894  0.00  0.00    -0.203 F 
ATOM     31  C22 032 d   1      24.323  68.948   5.684  0.00  0.00    -0.051 A 
ATOM     32  C23 032 d   1      23.712  69.762   4.758  0.00  0.00    -0.042 A 
ATOM     33  H2  032 d   1      23.829  68.696   6.615  0.00  0.00     0.087 H 
ATOM     34  C24 032 d   1      24.367  70.040   3.570  0.00  0.00     0.133 A 
ATOM     35  H6  032 d   1      22.732  70.180   4.956  0.00  0.00     0.088 H 
ATOM     36  F25 032 d   1      23.797  70.903   2.712  0.00  0.00    -0.205 F 
BRANCH  29  37
ATOM     37  N27 032 d   1      26.358  67.726   6.329  0.00  0.00    -0.281 N 
ATOM     38  H7  032 d   1      27.232  67.387   5.982  0.00  0.00     0.178 HD
BRANCH  37  39
ATOM     39  S28 032 d   1      26.045  67.355   7.861  0.00  0.00     0.231 S 
ATOM     40  O29 032 d   1      27.154  66.622   8.317  0.00  0.00    -0.206 OA
ATOM     41  O30 032 d   1      24.751  66.769   7.924  0.00  0.00    -0.206 OA
BRANCH  39  42
ATOM     42  C31 032 d   1      25.948  68.948   8.625  0.00  0.00     0.046 C 
ATOM     43  H8  032 d   1      25.467  68.808   9.604  0.00  0.00     0.058 H 
ATOM     44  H9  032 d   1      25.306  69.574   7.987  0.00  0.00     0.058 H 
BRANCH  42  45
ATOM     45  C32 032 d   1      27.148  69.674   8.850  0.00  0.00    -0.055 C 
ATOM     46  H10 032 d   1      27.645  69.857   7.886  0.00  0.00     0.033 H 
ATOM     47  H11 032 d   1      27.811  69.082   9.498  0.00  0.00     0.033 H 
BRANCH  45  48
ATOM     48  C33 032 d   1      26.854  71.022   9.528  0.00  0.00    -0.076 C 
ATOM     49  H12 032 d   1      27.797  71.564   9.691  0.00  0.00     0.027 H 
ATOM     50  H13 032 d   1      26.360  70.846  10.495  0.00  0.00     0.027 H 
ATOM     51  H14 032 d   1      26.194  71.621   8.883  0.00  0.00     0.027 H 
ENDBRANCH  45  48
ENDBRANCH  42  45
ENDBRANCH  39  42
ENDBRANCH  37  39
ENDBRANCH  29  37
ENDBRANCH   1  27
TORSDOF 8
