REMARK  11 active torsions:
REMARK  status: ('A' for Active; 'I' for Inactive)
REMARK    1  A    between atoms: C11_11  and  C6_6 
REMARK    2  A    between atoms: C7_7  and  C12_12 
REMARK    3  A    between atoms: C9_9  and  C18_18 
REMARK    4  A    between atoms: S32_32  and  C10_10 
REMARK       I    between atoms: N20_20  and  C11_11 
REMARK    5  A    between atoms: C13_13  and  N20_20 
REMARK    6  A    between atoms: C14_14  and  O29_29 
REMARK    7  A    between atoms: C15_15  and  O30_30 
REMARK    8  A    between atoms: C19_19  and  C16_16 
REMARK    9  A    between atoms: C17_17  and  O31_31 
REMARK   10  A    between atoms: N21_21  and  C19_19 
REMARK   11  A    between atoms: N21_21  and  S32_32 
ROOT
ATOM      1  C13 604 d   1      34.262   0.592 -62.948  0.00  0.00     0.087 C 
ATOM      2  C14 604 d   1      35.447   1.358 -63.497  0.00  0.00     0.086 C 
ATOM      3  C15 604 d   1      35.499   2.698 -62.796  0.00  0.00     0.089 C 
ATOM      4  C16 604 d   1      35.718   2.438 -61.325  0.00  0.00     0.084 C 
ATOM      5  C17 604 d   1      34.460   0.403 -61.463  0.00  0.00     0.151 C 
ATOM      6  O28 604 d   1      34.655   1.655 -60.813  0.00  0.00    -0.350 OA
ATOM      7  H6  604 d   1      33.359   1.202 -63.097  0.00  0.00     0.084 H 
ATOM      8  H7  604 d   1      36.372   0.802 -63.287  0.00  0.00     0.090 H 
ATOM      9  H8  604 d   1      34.569   3.263 -62.959  0.00  0.00     0.091 H 
ATOM     10  H9  604 d   1      36.666   1.893 -61.208  0.00  0.00     0.090 H 
ATOM     11  H10 604 d   1      33.533  -0.035 -61.065  0.00  0.00     0.132 H 
ENDROOT
BRANCH   4  12
ATOM     12  C19 604 d   1      35.777   3.708 -60.495  0.00  0.00     0.029 C 
ATOM     13  H14 604 d   1      36.696   4.258 -60.744  0.00  0.00     0.069 H 
ATOM     14  H15 604 d   1      35.787   3.441 -59.428  0.00  0.00     0.069 H 
BRANCH  12  15
ATOM     15  N21 604 d   1      34.611   4.569 -60.766  0.00  0.00    -0.311 N 
ATOM     16  H17 604 d   1      34.546   5.070 -61.629  0.00  0.00     0.172 HD
BRANCH  15  17
ATOM     17  S32 604 d   1      33.361   4.707 -59.587  0.00  0.00     0.281 S 
ATOM     18  O25 604 d   1      33.176   3.518 -58.781  0.00  0.00    -0.199 OA
ATOM     19  O26 604 d   1      32.193   5.329 -60.164  0.00  0.00    -0.199 OA
BRANCH  17  20
ATOM     20  C10 604 d   1      33.857   5.918 -58.462  0.00  0.00     0.191 A 
ATOM     21  C5  604 d   1      33.668   5.962 -57.100  0.00  0.00    -0.018 A 
ATOM     22  C7  604 d   1      34.258   7.174 -56.687  0.00  0.00     0.073 A 
ATOM     23  H5  604 d   1      33.170   5.221 -56.476  0.00  0.00     0.090 H 
ATOM     24  C9  604 d   1      34.771   7.804 -57.789  0.00  0.00     0.068 A 
ATOM     25  O27 604 d   1      34.527   7.031 -58.886  0.00  0.00    -0.301 OA
BRANCH  22  26
ATOM     26  C12 604 d   1      34.296   7.670 -55.257  0.00  0.00     0.212 C 
ATOM     27  O22 604 d   1      34.711   8.853 -55.092  0.00  0.00    -0.644 OA
ATOM     28  O24 604 d   1      33.895   6.806 -54.428  0.00  0.00    -0.644 OA
ENDBRANCH  22  26
BRANCH  24  29
ATOM     29  C18 604 d   1      35.485   9.073 -57.945  0.00  0.00    -0.030 C 
ATOM     30  H11 604 d   1      35.733   9.226 -59.006  0.00  0.00     0.036 H 
ATOM     31  H12 604 d   1      36.411   9.048 -57.352  0.00  0.00     0.036 H 
ATOM     32  H13 604 d   1      34.847   9.898 -57.594  0.00  0.00     0.036 H 
ENDBRANCH  24  29
ENDBRANCH  17  20
ENDBRANCH  15  17
ENDBRANCH  12  15
ENDBRANCH   4  12
BRANCH   3  33
ATOM     33  O30 604 d   1      36.612   3.410 -63.299  0.00  0.00    -0.390 OA
ATOM     34  H19 604 d   1      36.696   4.234 -62.834  0.00  0.00     0.210 HD
ENDBRANCH   3  33
BRANCH   2  35
ATOM     35  O29 604 d   1      35.319   1.520 -64.905  0.00  0.00    -0.391 OA
ATOM     36  H18 604 d   1      35.289   0.666 -65.320  0.00  0.00     0.210 HD
ENDBRANCH   2  35
BRANCH   5  37
ATOM     37  O31 604 d   1      35.511  -0.499 -61.162  0.00  0.00    -0.369 OA
ATOM     38  H20 604 d   1      35.542  -0.645 -60.224  0.00  0.00     0.212 HD
ENDBRANCH   5  37
BRANCH   1  39
ATOM     39  N20 604 d   1      34.060  -0.657 -63.645  0.00  0.00    -0.345 N 
ATOM     40  C11 604 d   1      32.824  -1.263 -63.701  0.00  0.00     0.252 C 
ATOM     41  O23 604 d   1      31.822  -0.892 -63.115  0.00  0.00    -0.268 OA
ATOM     42  H16 604 d   1      34.837  -1.093 -64.099  0.00  0.00     0.163 HD
BRANCH  40  43
ATOM     43  C6  604 d   1      32.765  -2.482 -64.517  0.00  0.00     0.033 A 
ATOM     44  C2A 604 d   1      31.542  -3.005 -64.851  0.00  0.00    -0.068 A 
ATOM     45  C1  604 d   1      31.448  -4.150 -65.618  0.00  0.00    -0.081 A 
ATOM     46  H2  604 d   1      30.638  -2.514 -64.509  0.00  0.00     0.085 H 
ATOM     47  C3  604 d   1      32.593  -4.778 -66.040  0.00  0.00    -0.066 A 
ATOM     48  H1  604 d   1      30.476  -4.550 -65.885  0.00  0.00     0.083 H 
ATOM     49  C8  604 d   1      33.824  -4.254 -65.694  0.00  0.00     0.011 A 
ATOM     50  H3  604 d   1      32.532  -5.678 -66.640  0.00  0.00     0.085 H 
ATOM     51  C4  604 d   1      33.918  -3.103 -64.936  0.00  0.00    -0.051 A 
ATOM     52 BR   604 d   1      35.406  -5.149 -66.281  0.00  0.00    -0.051 Br
ATOM     53  H4  604 d   1      34.888  -2.695 -64.675  0.00  0.00     0.087 H 
ENDBRANCH  40  43
ENDBRANCH   1  39
TORSDOF 11
