REMARK WARNING: 32 MAX_TORS EXCEEDED!!!
REMARK  42 active torsions:
REMARK  status: ('A' for Active; 'I' for Inactive)
REMARK    1  A    between atoms: N_1  and  CA_2 
REMARK    2  A    between atoms: CA_2  and  C_3 
REMARK    3  A    between atoms: CA_2  and  CB_5 
REMARK       I    between atoms: C_3  and  N_10 
REMARK    4  A    between atoms: CB_5  and  CG_6 
REMARK    5  A    between atoms: CG_6  and  CD_7 
REMARK    6  A    between atoms: CD_7  and  CE_8 
REMARK    7  A    between atoms: CE_8  and  NZ_9 
REMARK    8  A    between atoms: N_10  and  CA_11 
REMARK    9  A    between atoms: CA_11  and  C_12 
REMARK   10  A    between atoms: CA_11  and  CB_14 
REMARK       I    between atoms: C_12  and  N_18 
REMARK   11  A    between atoms: CB_14  and  CG_15 
REMARK       I    between atoms: CG_15  and  ND2_17 
REMARK   12  A    between atoms: N_18  and  CA_19 
REMARK   13  A    between atoms: CA_19  and  C_20 
REMARK   14  A    between atoms: CA_19  and  CB_22 
REMARK       I    between atoms: C_20  and  N_30 
REMARK   15  A    between atoms: CB_22  and  CG_23 
REMARK   16  A    between atoms: CZ_28  and  OH_29 
REMARK   17  A    between atoms: N_30  and  CA_31 
REMARK   18  A    between atoms: CA_31  and  C_32 
REMARK   19  A    between atoms: CA_31  and  CB_34 
REMARK       I    between atoms: C_32  and  N_39 
REMARK   20  A    between atoms: CB_34  and  CG_35 
REMARK   21  A    between atoms: CG_35  and  CD_36 
REMARK   22  A    between atoms: CD_36  and  CE_37 
REMARK   23  A    between atoms: CE_37  and  NZ_38 
REMARK   24  A    between atoms: N_39  and  CA_40 
REMARK   25  A    between atoms: CA_40  and  C_41 
REMARK   26  A    between atoms: CA_40  and  CB_43 
REMARK       I    between atoms: C_41  and  N_48 
REMARK   27  A    between atoms: CB_43  and  CG_44 
REMARK   28  A    between atoms: CG_44  and  CD_45 
REMARK       I    between atoms: CD_45  and  NE2_47 
REMARK   29  A    between atoms: N_48  and  CA_49 
REMARK   30  A    between atoms: CA_49  and  C_50 
REMARK   31  A    between atoms: CA_49  and  CB_52 
REMARK       I    between atoms: C_50  and  N_55 
REMARK   32  A    between atoms: CB_52  and  OG1_53 
REMARK   33  A    between atoms: CB_52  and  CG2_54 
REMARK   34  A    between atoms: N_55  and  CA_56 
REMARK   35  A    between atoms: CA_56  and  C_57 
REMARK   36  A    between atoms: CA_56  and  CB_59 
REMARK       I    between atoms: C_57  and  N_61 
REMARK   37  A    between atoms: CB_59  and  OG_60 
REMARK   38  A    between atoms: N_61  and  CA_62 
REMARK   39  A    between atoms: CA_62  and  C_63 
REMARK   40  A    between atoms: CA_62  and  CB_65 
REMARK   41  A    between atoms: CB_65  and  CG1_66 
REMARK   42  A    between atoms: CB_65  and  CG2_67 
ROOT
ATOM      1  CA  LYS d   1      38.315  50.577  22.949  0.00  0.00     0.089 C 
ATOM      2  H32 LYS d   1      38.759  50.310  21.979  0.00  0.00     0.087 H 
ENDROOT
BRANCH   1   3
ATOM      3  N   LYS d   1      38.543  49.486  23.889  0.00  0.00    -0.346 N 
ATOM      4  C   TYR d   1      38.814  48.251  23.484  0.00  0.00     0.241 C 
ATOM      5  O   TYR d   1      38.860  47.929  22.295  0.00  0.00    -0.271 OA
ATOM      6  H31 LYS d   1      38.494  49.674  24.870  0.00  0.00     0.163 HD
BRANCH   4   7
ATOM      7  CA  TYR d   1      39.061  47.225  24.581  0.00  0.00     0.093 C 
ATOM      8  H23 TYR d   1      38.578  47.578  25.504  0.00  0.00     0.088 H 
BRANCH   7   9
ATOM      9  N   TYR d   1      38.484  45.951  24.207  0.00  0.00    -0.346 N 
ATOM     10  C   ASN d   1      37.187  45.695  24.302  0.00  0.00     0.241 C 
ATOM     11  O   ASN d   1      36.363  46.512  24.712  0.00  0.00    -0.271 OA
ATOM     12  H22 TYR d   1      39.090  45.234  23.862  0.00  0.00     0.163 HD
BRANCH  10  13
ATOM     13  CA  ASN d   1      36.776  44.298  23.852  0.00  0.00     0.097 C 
ATOM     14  H17 ASN d   1      36.388  44.355  22.824  0.00  0.00     0.088 H 
BRANCH  13  15
ATOM     15  N   ASN d   1      37.961  43.444  23.862  0.00  0.00    -0.346 N 
ATOM     16  C   LYS d   1      38.618  43.171  24.986  0.00  0.00     0.249 C 
ATOM     17  O   LYS d   1      38.154  43.399  26.106  0.00  0.00    -0.271 OA
ATOM     18  H16 ASN d   1      38.287  43.054  23.001  0.00  0.00     0.163 HD
BRANCH  16  19
ATOM     19  CA  LYS d   1      40.010  42.567  24.834  0.00  0.00     0.176 C 
ATOM     20  H4  LYS d   1      40.381  42.752  23.815  0.00  0.00     0.099 H 
BRANCH  19  21
ATOM     21  N   LYS d   1      40.866  43.276  25.790  0.00  0.00    -0.067 N 
ATOM     22  H1  LYS d   1      41.805  42.915  25.732  0.00  0.00     0.275 HD
ATOM     23  H2  LYS d   1      40.511  43.141  26.724  0.00  0.00     0.275 HD
ATOM     24  H3  LYS d   1      40.871  44.260  25.571  0.00  0.00     0.275 HD
ENDBRANCH  19  21
BRANCH  19  25
ATOM     25  CB  LYS d   1      39.974  41.056  25.059  0.00  0.00    -0.030 C 
ATOM     26  H5  LYS d   1      39.373  40.851  25.957  0.00  0.00     0.036 H 
ATOM     27  H6  LYS d   1      41.003  40.702  25.218  0.00  0.00     0.036 H 
BRANCH  25  28
ATOM     28  CG  LYS d   1      39.376  40.291  23.894  0.00  0.00    -0.061 C 
ATOM     29  H7  LYS d   1      38.596  40.905  23.421  0.00  0.00     0.033 H 
ATOM     30  H8  LYS d   1      38.931  39.356  24.266  0.00  0.00     0.033 H 
BRANCH  28  31
ATOM     31  CD  LYS d   1      40.440  39.961  22.866  0.00  0.00    -0.043 C 
ATOM     32  H9  LYS d   1      41.258  40.692  22.948  0.00  0.00     0.035 H 
ATOM     33  H10 LYS d   1      39.998  40.016  21.860  0.00  0.00     0.035 H 
BRANCH  31  34
ATOM     34  CE  LYS d   1      40.997  38.569  23.086  0.00  0.00     0.080 C 
ATOM     35  H11 LYS d   1      41.240  38.443  24.151  0.00  0.00     0.075 H 
ATOM     36  H12 LYS d   1      41.910  38.448  22.485  0.00  0.00     0.075 H 
BRANCH  34  37
ATOM     37  NZ  LYS d   1      40.011  37.530  22.687  0.00  0.00    -0.079 N 
ATOM     38  H13 LYS d   1      40.405  36.615  22.843  0.00  0.00     0.274 HD
ATOM     39  H14 LYS d   1      39.787  37.637  21.710  0.00  0.00     0.274 HD
ATOM     40  H15 LYS d   1      39.173  37.633  23.238  0.00  0.00     0.274 HD
ENDBRANCH  34  37
ENDBRANCH  31  34
ENDBRANCH  28  31
ENDBRANCH  25  28
ENDBRANCH  19  25
ENDBRANCH  16  19
ENDBRANCH  13  15
BRANCH  13  41
ATOM     41  CB  ASN d   1      35.678  43.733  24.748  0.00  0.00     0.036 C 
ATOM     42  H18 ASN d   1      34.761  44.320  24.596  0.00  0.00     0.051 H 
ATOM     43  H19 ASN d   1      35.999  43.819  25.797  0.00  0.00     0.051 H 
BRANCH  41  44
ATOM     44  CG  ASN d   1      35.380  42.277  24.447  0.00  0.00     0.217 C 
ATOM     45  OD1 ASN d   1      35.281  41.449  25.353  0.00  0.00    -0.274 OA
ATOM     46  ND2 ASN d   1      35.250  41.955  23.162  0.00  0.00    -0.370 N 
ATOM     47  H20 ASN d   1      35.053  41.010  22.901  0.00  0.00     0.159 HD
ATOM     48  H21 ASN d   1      35.349  42.658  22.458  0.00  0.00     0.159 HD
ENDBRANCH  41  44
ENDBRANCH  13  41
ENDBRANCH  10  13
ENDBRANCH   7   9
BRANCH   7  49
ATOM     49  CB  TYR d   1      40.554  47.045  24.849  0.00  0.00    -0.014 C 
ATOM     50  H24 TYR d   1      40.880  46.114  24.363  0.00  0.00     0.043 H 
ATOM     51  H25 TYR d   1      40.700  46.962  25.936  0.00  0.00     0.043 H 
BRANCH  49  52
ATOM     52  CG  TYR d   1      41.418  48.166  24.343  0.00  0.00    -0.056 A 
ATOM     53  CD1 TYR d   1      41.798  48.219  23.014  0.00  0.00    -0.074 A 
ATOM     54  CE1 TYR d   1      42.574  49.239  22.540  0.00  0.00    -0.051 A 
ATOM     55  H26 TYR d   1      41.474  47.437  22.336  0.00  0.00     0.084 H 
ATOM     56  CZ  TYR d   1      43.010  50.211  23.401  0.00  0.00     0.065 A 
ATOM     57  H28 TYR d   1      42.843  49.279  21.491  0.00  0.00     0.087 H 
ATOM     58  CE2 TYR d   1      42.660  50.186  24.739  0.00  0.00    -0.051 A 
ATOM     59  CD2 TYR d   1      41.870  49.157  25.200  0.00  0.00    -0.074 A 
ATOM     60  H29 TYR d   1      43.002  50.963  25.413  0.00  0.00     0.087 H 
ATOM     61  H27 TYR d   1      41.597  49.121  26.249  0.00  0.00     0.084 H 
BRANCH  56  62
ATOM     62  OH  TYR d   1      43.792  51.207  22.915  0.00  0.00    -0.361 OA
ATOM     63  H30 TYR d   1      43.934  51.072  21.985  0.00  0.00     0.217 HD
ENDBRANCH  56  62
ENDBRANCH  49  52
ENDBRANCH   7  49
ENDBRANCH   4   7
ENDBRANCH   1   3
BRANCH   1  64
ATOM     64  C   LYS d   1      38.972  51.822  23.468  0.00  0.00     0.241 C 
ATOM     65  O   LYS d   1      39.010  52.025  24.679  0.00  0.00    -0.271 OA
ATOM     66  N   GLN d   1      39.455  52.656  22.548  0.00  0.00    -0.346 N 
ATOM     67  H44 GLN d   1      39.387  52.395  21.585  0.00  0.00     0.163 HD
BRANCH  66  68
ATOM     68  CA  GLN d   1      40.078  53.932  22.880  0.00  0.00     0.090 C 
ATOM     69  H45 GLN d   1      39.779  54.220  23.899  0.00  0.00     0.087 H 
BRANCH  68  70
ATOM     70  C   GLN d   1      39.589  55.011  21.905  0.00  0.00     0.241 C 
ATOM     71  O   GLN d   1      39.394  54.735  20.719  0.00  0.00    -0.271 OA
ATOM     72  N   THR d   1      39.342  56.219  22.415  0.00  0.00    -0.344 N 
ATOM     73  H52 THR d   1      39.528  56.372  23.386  0.00  0.00     0.163 HD
BRANCH  72  74
ATOM     74  CA  THR d   1      38.814  57.329  21.626  0.00  0.00     0.113 C 
ATOM     75  H53 THR d   1      39.114  57.184  20.578  0.00  0.00     0.091 H 
BRANCH  74  76
ATOM     76  C   THR d   1      39.361  58.653  22.124  0.00  0.00     0.243 C 
ATOM     77  O   THR d   1      39.456  58.867  23.324  0.00  0.00    -0.271 OA
ATOM     78  N   SER d   1      39.700  59.546  21.198  0.00  0.00    -0.344 N 
ATOM     79  H59 SER d   1      39.698  59.270  20.237  0.00  0.00     0.163 HD
BRANCH  78  80
ATOM     80  CA  SER d   1      40.075  60.914  21.539  0.00  0.00     0.109 C 
ATOM     81  H60 SER d   1      40.624  60.899  22.492  0.00  0.00     0.090 H 
BRANCH  80  82
ATOM     82  C   SER d   1      38.842  61.776  21.692  0.00  0.00     0.243 C 
ATOM     83  O   SER d   1      37.937  61.701  20.853  0.00  0.00    -0.271 OA
ATOM     84  N   VAL d   1      38.822  62.602  22.742  0.00  0.00    -0.344 N 
ATOM     85  H64 VAL d   1      39.586  62.589  23.387  0.00  0.00     0.163 HD
BRANCH  84  86
ATOM     86  CA  VAL d   1      37.715  63.521  22.970  0.00  0.00     0.099 C 
ATOM     87  H65 VAL d   1      37.074  63.519  22.076  0.00  0.00     0.090 H 
BRANCH  86  88
ATOM     88  C   VAL d   1      38.255  64.933  23.176  0.00  0.00     0.197 C 
ATOM     89  O   VAL d   1      37.449  65.871  23.238  0.00  0.00    -0.646 OA
ATOM     90  OXT VAL d   1      39.473  65.163  23.289  0.00  0.00    -0.646 OA
ENDBRANCH  86  88
BRANCH  86  91
ATOM     91  CB  VAL d   1      36.848  63.083  24.188  0.00  0.00    -0.032 C 
ATOM     92  H66 VAL d   1      36.061  63.836  24.342  0.00  0.00     0.042 H 
BRANCH  91  93
ATOM     93  CG1 VAL d   1      36.199  61.749  23.919  0.00  0.00    -0.071 C 
ATOM     94  H67 VAL d   1      35.592  61.455  24.788  0.00  0.00     0.028 H 
ATOM     95  H68 VAL d   1      36.977  60.992  23.742  0.00  0.00     0.028 H 
ATOM     96  H69 VAL d   1      35.555  61.827  23.031  0.00  0.00     0.028 H 
ENDBRANCH  91  93
BRANCH  91  97
ATOM     97  CG2 VAL d   1      37.669  62.987  25.437  0.00  0.00    -0.071 C 
ATOM     98  H70 VAL d   1      38.145  63.958  25.638  0.00  0.00     0.028 H 
ATOM     99  H71 VAL d   1      38.445  62.218  25.308  0.00  0.00     0.028 H 
ATOM    100  H72 VAL d   1      37.020  62.715  26.282  0.00  0.00     0.028 H 
ENDBRANCH  91  97
ENDBRANCH  86  91
ENDBRANCH  84  86
ENDBRANCH  80  82
BRANCH  80 101
ATOM    101  CB  SER d   1      40.970  61.531  20.462  0.00  0.00     0.044 C 
ATOM    102  H61 SER d   1      41.316  62.517  20.804  0.00  0.00     0.077 H 
ATOM    103  H62 SER d   1      40.389  61.647  19.535  0.00  0.00     0.077 H 
BRANCH 101 104
ATOM    104  OG  SER d   1      42.092  60.711  20.205  0.00  0.00    -0.398 OA
ATOM    105  H63 SER d   1      42.599  60.611  21.002  0.00  0.00     0.209 HD
ENDBRANCH 101 104
ENDBRANCH  80 101
ENDBRANCH  78  80
ENDBRANCH  74  76
BRANCH  74 106
ATOM    106  CB  THR d   1      37.260  57.406  21.704  0.00  0.00     0.060 C 
ATOM    107  H54 THR d   1      36.972  57.575  22.752  0.00  0.00     0.086 H 
BRANCH 106 108
ATOM    108  OG1 THR d   1      36.690  56.170  21.261  0.00  0.00    -0.393 OA
ATOM    109  H55 THR d   1      36.998  55.463  21.816  0.00  0.00     0.210 HD
ENDBRANCH 106 108
BRANCH 106 110
ATOM    110  CG2 THR d   1      36.716  58.547  20.864  0.00  0.00    -0.050 C 
ATOM    111  H56 THR d   1      35.619  58.570  20.943  0.00  0.00     0.031 H 
ATOM    112  H57 THR d   1      37.005  58.398  19.813  0.00  0.00     0.031 H 
ATOM    113  H58 THR d   1      37.130  59.499  21.227  0.00  0.00     0.031 H 
ENDBRANCH 106 110
ENDBRANCH  74 106
ENDBRANCH  72  74
ENDBRANCH  68  70
BRANCH  68 114
ATOM    114  CB  GLN d   1      41.604  53.790  22.844  0.00  0.00    -0.030 C 
ATOM    115  H46 GLN d   1      41.902  53.565  21.809  0.00  0.00     0.037 H 
ATOM    116  H47 GLN d   1      41.885  52.951  23.497  0.00  0.00     0.037 H 
BRANCH 114 117
ATOM    117  CG  GLN d   1      42.369  55.017  23.298  0.00  0.00     0.011 C 
ATOM    118  H48 GLN d   1      41.732  55.584  23.993  0.00  0.00     0.047 H 
ATOM    119  H49 GLN d   1      42.588  55.635  22.414  0.00  0.00     0.047 H 
BRANCH 117 120
ATOM    120  CD  GLN d   1      43.690  54.703  24.004  0.00  0.00     0.215 C 
ATOM    121  OE1 GLN d   1      44.358  55.623  24.478  0.00  0.00    -0.274 OA
ATOM    122  NE2 GLN d   1      44.071  53.411  24.078  0.00  0.00    -0.370 N 
ATOM    123  H50 GLN d   1      44.928  53.168  24.532  0.00  0.00     0.159 HD
ATOM    124  H51 GLN d   1      43.496  52.697  23.679  0.00  0.00     0.159 HD
ENDBRANCH 117 120
ENDBRANCH 114 117
ENDBRANCH  68 114
ENDBRANCH  66  68
ENDBRANCH   1  64
BRANCH   1 125
ATOM    125  CB  LYS d   1      36.822  50.832  22.756  0.00  0.00    -0.038 C 
ATOM    126  H33 LYS d   1      36.691  51.511  21.900  0.00  0.00     0.036 H 
ATOM    127  H34 LYS d   1      36.428  51.309  23.666  0.00  0.00     0.036 H 
BRANCH 125 128
ATOM    128  CG  LYS d   1      36.031  49.569  22.494  0.00  0.00    -0.061 C 
ATOM    129  H35 LYS d   1      36.157  48.886  23.347  0.00  0.00     0.033 H 
ATOM    130  H36 LYS d   1      36.415  49.090  21.581  0.00  0.00     0.033 H 
BRANCH 128 131
ATOM    131  CD  LYS d   1      34.557  49.860  22.312  0.00  0.00    -0.043 C 
ATOM    132  H37 LYS d   1      34.330  49.892  21.236  0.00  0.00     0.035 H 
ATOM    133  H38 LYS d   1      34.327  50.836  22.764  0.00  0.00     0.035 H 
BRANCH 131 134
ATOM    134  CE  LYS d   1      33.684  48.788  22.973  0.00  0.00     0.080 C 
ATOM    135  H39 LYS d   1      32.634  48.985  22.710  0.00  0.00     0.075 H 
ATOM    136  H40 LYS d   1      33.809  48.863  24.063  0.00  0.00     0.075 H 
BRANCH 134 137
ATOM    137  NZ  LYS d   1      34.019  47.395  22.556  0.00  0.00    -0.079 N 
ATOM    138  H41 LYS d   1      33.408  46.747  23.028  0.00  0.00     0.274 HD
ATOM    139  H42 LYS d   1      34.976  47.192  22.799  0.00  0.00     0.274 HD
ATOM    140  H43 LYS d   1      33.899  47.305  21.559  0.00  0.00     0.274 HD
ENDBRANCH 134 137
ENDBRANCH 131 134
ENDBRANCH 128 131
ENDBRANCH 125 128
ENDBRANCH   1 125
TORSDOF 42
