REMARK WARNING: 32 MAX_TORS EXCEEDED!!!
REMARK  33 active torsions:
REMARK  status: ('A' for Active; 'I' for Inactive)
REMARK    1  A    between atoms: N_1  and  CA_2 
REMARK    2  A    between atoms: CA_2  and  C_3 
REMARK    3  A    between atoms: CA_2  and  CB_5 
REMARK       I    between atoms: C_3  and  N_6 
REMARK    4  A    between atoms: N_6  and  CA_7 
REMARK    5  A    between atoms: CA_7  and  C_8 
REMARK    6  A    between atoms: CA_7  and  CB_10 
REMARK       I    between atoms: C_8  and  N_18 
REMARK    7  A    between atoms: CB_10  and  CG_11 
REMARK    8  A    between atoms: CZ_16  and  OH_17 
REMARK    9  A    between atoms: N_18  and  CA_19 
REMARK   10  A    between atoms: CA_19  and  C_20 
REMARK   11  A    between atoms: CA_19  and  CB_22 
REMARK       I    between atoms: C_20  and  N_27 
REMARK   12  A    between atoms: CB_22  and  CG_23 
REMARK   13  A    between atoms: CG_23  and  CD_24 
REMARK   14  A    between atoms: CD_24  and  CE_25 
REMARK   15  A    between atoms: CE_25  and  NZ_26 
REMARK   16  A    between atoms: N_27  and  CA_28 
REMARK   17  A    between atoms: CA_28  and  C_29 
REMARK   18  A    between atoms: CA_28  and  CB_31 
REMARK       I    between atoms: C_29  and  N_36 
REMARK   19  A    between atoms: CB_31  and  CG_32 
REMARK   20  A    between atoms: CG_32  and  CD_33 
REMARK       I    between atoms: CD_33  and  NE2_35 
REMARK   21  A    between atoms: N_36  and  CA_37 
REMARK   22  A    between atoms: CA_37  and  C_38 
REMARK   23  A    between atoms: CA_37  and  CB_40 
REMARK       I    between atoms: C_38  and  N_47 
REMARK   24  A    between atoms: CB_40  and  CG_41 
REMARK   25  A    between atoms: N_47  and  CA_48 
REMARK   26  A    between atoms: CA_48  and  C_49 
REMARK   27  A    between atoms: CA_48  and  CB_51 
REMARK       I    between atoms: C_49  and  N_53 
REMARK   28  A    between atoms: CB_51  and  OG_52 
REMARK   29  A    between atoms: N_53  and  CA_54 
REMARK   30  A    between atoms: CA_54  and  C_55 
REMARK   31  A    between atoms: CA_54  and  CB_57 
REMARK   32  A    between atoms: CB_57  and  CG1_58 
REMARK   33  A    between atoms: CB_57  and  CG2_59 
ROOT
ATOM      1  CA  GLN d   1      40.122  53.375  22.841  0.00  0.00     0.090 C 
ATOM      2  H31 GLN d   1      39.712  53.605  23.836  0.00  0.00     0.087 H 
ENDROOT
BRANCH   1   3
ATOM      3  N   GLN d   1      39.570  52.102  22.394  0.00  0.00    -0.346 N 
ATOM      4  C   LYS d   1      38.926  51.285  23.222  0.00  0.00     0.241 C 
ATOM      5  O   LYS d   1      38.708  51.562  24.402  0.00  0.00    -0.271 OA
ATOM      6  H30 GLN d   1      39.679  51.835  21.436  0.00  0.00     0.163 HD
BRANCH   4   7
ATOM      7  CA  LYS d   1      38.451  49.957  22.633  0.00  0.00     0.089 C 
ATOM      8  H18 LYS d   1      39.199  49.607  21.906  0.00  0.00     0.087 H 
BRANCH   7   9
ATOM      9  N   LYS d   1      38.331  48.964  23.694  0.00  0.00    -0.346 N 
ATOM     10  C   TYR d   1      38.340  47.656  23.448  0.00  0.00     0.241 C 
ATOM     11  O   TYR d   1      38.353  47.183  22.312  0.00  0.00    -0.271 OA
ATOM     12  H17 LYS d   1      38.239  49.277  24.639  0.00  0.00     0.163 HD
BRANCH  10  13
ATOM     13  CA  TYR d   1      38.384  46.748  24.685  0.00  0.00     0.093 C 
ATOM     14  H9  TYR d   1      37.937  47.311  25.518  0.00  0.00     0.088 H 
BRANCH  13  15
ATOM     15  N   TYR d   1      37.663  45.482  24.581  0.00  0.00    -0.346 N 
ATOM     16  C   ASN d   1      36.373  45.369  24.875  0.00  0.00     0.248 C 
ATOM     17  O   ASN d   1      35.616  46.334  24.950  0.00  0.00    -0.271 OA
ATOM     18  H8  TYR d   1      38.160  44.669  24.277  0.00  0.00     0.163 HD
BRANCH  16  19
ATOM     19  CA  ASN d   1      35.855  43.948  25.081  0.00  0.00     0.172 C 
ATOM     20  H4  ASN d   1      34.857  43.873  24.624  0.00  0.00     0.098 H 
BRANCH  19  21
ATOM     21  N   ASN d   1      36.725  42.967  24.444  0.00  0.00    -0.067 N 
ATOM     22  H1  ASN d   1      36.357  42.041  24.598  0.00  0.00     0.275 HD
ATOM     23  H2  ASN d   1      37.650  43.031  24.840  0.00  0.00     0.275 HD
ATOM     24  H3  ASN d   1      36.770  43.151  23.454  0.00  0.00     0.275 HD
ENDBRANCH  19  21
BRANCH  19  25
ATOM     25  CB  ASN d   1      35.731  43.653  26.578  0.00  0.00    -0.042 C 
ATOM     26  H5  ASN d   1      35.073  44.400  27.046  0.00  0.00     0.030 H 
ATOM     27  H6  ASN d   1      36.726  43.698  27.044  0.00  0.00     0.030 H 
ATOM     28  H7  ASN d   1      35.305  42.649  26.720  0.00  0.00     0.030 H 
ENDBRANCH  19  25
ENDBRANCH  16  19
ENDBRANCH  13  15
BRANCH  13  29
ATOM     29  CB  TYR d   1      39.847  46.446  25.023  0.00  0.00    -0.014 C 
ATOM     30  H10 TYR d   1      40.126  45.499  24.537  0.00  0.00     0.043 H 
ATOM     31  H11 TYR d   1      39.935  46.338  26.114  0.00  0.00     0.043 H 
BRANCH  29  32
ATOM     32  CG  TYR d   1      40.811  47.513  24.572  0.00  0.00    -0.056 A 
ATOM     33  CD1 TYR d   1      41.116  48.589  25.391  0.00  0.00    -0.074 A 
ATOM     34  CE1 TYR d   1      41.993  49.568  24.979  0.00  0.00    -0.051 A 
ATOM     35  H12 TYR d   1      40.657  48.661  26.371  0.00  0.00     0.084 H 
ATOM     36  CZ  TYR d   1      42.579  49.474  23.735  0.00  0.00     0.065 A 
ATOM     37  H14 TYR d   1      42.221  50.406  25.628  0.00  0.00     0.087 H 
ATOM     38  CE2 TYR d   1      42.293  48.418  22.904  0.00  0.00    -0.051 A 
ATOM     39  CD2 TYR d   1      41.417  47.444  23.323  0.00  0.00    -0.074 A 
ATOM     40  H15 TYR d   1      42.754  48.353  21.925  0.00  0.00     0.087 H 
ATOM     41  H13 TYR d   1      41.196  46.609  22.668  0.00  0.00     0.084 H 
BRANCH  36  42
ATOM     42  OH  TYR d   1      43.456  50.439  23.307  0.00  0.00    -0.361 OA
ATOM     43  H16 TYR d   1      43.553  51.099  23.983  0.00  0.00     0.217 HD
ENDBRANCH  36  42
ENDBRANCH  29  32
ENDBRANCH  13  29
ENDBRANCH  10  13
ENDBRANCH   7   9
BRANCH   7  44
ATOM     44  CB  LYS d   1      37.115  50.133  21.907  0.00  0.00    -0.038 C 
ATOM     45  H19 LYS d   1      36.378  50.502  22.635  0.00  0.00     0.036 H 
ATOM     46  H20 LYS d   1      36.799  49.148  21.532  0.00  0.00     0.036 H 
BRANCH  44  47
ATOM     47  CG  LYS d   1      37.139  51.098  20.732  0.00  0.00    -0.061 C 
ATOM     48  H21 LYS d   1      37.459  52.086  21.094  0.00  0.00     0.033 H 
ATOM     49  H22 LYS d   1      36.123  51.172  20.316  0.00  0.00     0.033 H 
BRANCH  47  50
ATOM     50  CD  LYS d   1      38.085  50.654  19.630  0.00  0.00    -0.043 C 
ATOM     51  H23 LYS d   1      38.128  49.555  19.613  0.00  0.00     0.035 H 
ATOM     52  H24 LYS d   1      39.088  51.057  19.831  0.00  0.00     0.035 H 
BRANCH  50  53
ATOM     53  CE  LYS d   1      37.608  51.156  18.275  0.00  0.00     0.080 C 
ATOM     54  H25 LYS d   1      36.968  52.037  18.431  0.00  0.00     0.075 H 
ATOM     55  H26 LYS d   1      37.024  50.360  17.790  0.00  0.00     0.075 H 
BRANCH  53  56
ATOM     56  NZ  LYS d   1      38.730  51.537  17.378  0.00  0.00    -0.079 N 
ATOM     57  H27 LYS d   1      38.361  51.861  16.498  0.00  0.00     0.274 HD
ATOM     58  H28 LYS d   1      39.321  50.736  17.220  0.00  0.00     0.274 HD
ATOM     59  H29 LYS d   1      39.269  52.273  17.808  0.00  0.00     0.274 HD
ENDBRANCH  53  56
ENDBRANCH  50  53
ENDBRANCH  47  50
ENDBRANCH  44  47
ENDBRANCH   7  44
ENDBRANCH   4   7
ENDBRANCH   1   3
BRANCH   1  60
ATOM     60  C   GLN d   1      39.717  54.493  21.883  0.00  0.00     0.241 C 
ATOM     61  O   GLN d   1      39.786  54.332  20.663  0.00  0.00    -0.271 OA
ATOM     62  N   PHE d   1      39.287  55.618  22.448  0.00  0.00    -0.346 N 
ATOM     63  H38 PHE d   1      39.316  55.697  23.445  0.00  0.00     0.163 HD
BRANCH  62  64
ATOM     64  CA  PHE d   1      38.775  56.742  21.671  0.00  0.00     0.093 C 
ATOM     65  H39 PHE d   1      38.936  56.526  20.605  0.00  0.00     0.088 H 
BRANCH  64  66
ATOM     66  C   PHE d   1      39.494  58.040  22.016  0.00  0.00     0.241 C 
ATOM     67  O   PHE d   1      39.842  58.276  23.173  0.00  0.00    -0.271 OA
ATOM     68  N   SER d   1      39.707  58.878  21.005  0.00  0.00    -0.344 N 
ATOM     69  H47 SER d   1      39.541  58.561  20.071  0.00  0.00     0.163 HD
BRANCH  68  70
ATOM     70  CA  SER d   1      40.175  60.245  21.215  0.00  0.00     0.109 C 
ATOM     71  H48 SER d   1      40.770  60.276  22.140  0.00  0.00     0.090 H 
BRANCH  70  72
ATOM     72  C   SER d   1      38.976  61.174  21.368  0.00  0.00     0.243 C 
ATOM     73  O   SER d   1      37.998  61.059  20.629  0.00  0.00    -0.271 OA
ATOM     74  N   VAL d   1      39.049  62.096  22.323  0.00  0.00    -0.344 N 
ATOM     75  H52 VAL d   1      39.874  62.160  22.884  0.00  0.00     0.163 HD
BRANCH  74  76
ATOM     76  CA  VAL d   1      37.944  63.015  22.564  0.00  0.00     0.099 C 
ATOM     77  H53 VAL d   1      37.277  62.981  21.690  0.00  0.00     0.090 H 
BRANCH  76  78
ATOM     78  C   VAL d   1      38.451  64.449  22.715  0.00  0.00     0.197 C 
ATOM     79  O   VAL d   1      37.674  65.402  22.628  0.00  0.00    -0.646 OA
ATOM     80  OXT VAL d   1      39.641  64.698  22.917  0.00  0.00    -0.646 OA
ENDBRANCH  76  78
BRANCH  76  81
ATOM     81  CB  VAL d   1      37.130  62.584  23.802  0.00  0.00    -0.032 C 
ATOM     82  H54 VAL d   1      36.280  63.273  23.913  0.00  0.00     0.042 H 
BRANCH  81  83
ATOM     83  CG1 VAL d   1      36.587  61.175  23.613  0.00  0.00    -0.071 C 
ATOM     84  H55 VAL d   1      36.010  60.882  24.502  0.00  0.00     0.028 H 
ATOM     85  H56 VAL d   1      37.424  60.475  23.472  0.00  0.00     0.028 H 
ATOM     86  H57 VAL d   1      35.935  61.149  22.728  0.00  0.00     0.028 H 
ENDBRANCH  81  83
BRANCH  81  87
ATOM     87  CG2 VAL d   1      37.972  62.658  25.064  0.00  0.00    -0.071 C 
ATOM     88  H58 VAL d   1      38.358  63.681  25.188  0.00  0.00     0.028 H 
ATOM     89  H59 VAL d   1      38.815  61.956  24.984  0.00  0.00     0.028 H 
ATOM     90  H60 VAL d   1      37.353  62.391  25.934  0.00  0.00     0.028 H 
ENDBRANCH  81  87
ENDBRANCH  76  81
ENDBRANCH  74  76
ENDBRANCH  70  72
BRANCH  70  91
ATOM     91  CB  SER d   1      41.056  60.714  20.052  0.00  0.00     0.044 C 
ATOM     92  H49 SER d   1      41.163  61.808  20.102  0.00  0.00     0.077 H 
ATOM     93  H50 SER d   1      40.575  60.436  19.103  0.00  0.00     0.077 H 
BRANCH  91  94
ATOM     94  OG  SER d   1      42.339  60.123  20.108  0.00  0.00    -0.398 OA
ATOM     95  H51 SER d   1      42.762  60.364  20.924  0.00  0.00     0.209 HD
ENDBRANCH  91  94
ENDBRANCH  70  91
ENDBRANCH  68  70
ENDBRANCH  64  66
BRANCH  64  96
ATOM     96  CB  PHE d   1      37.272  56.923  21.918  0.00  0.00    -0.014 C 
ATOM     97  H40 PHE d   1      36.957  57.869  21.454  0.00  0.00     0.043 H 
ATOM     98  H41 PHE d   1      37.104  56.974  23.004  0.00  0.00     0.043 H 
BRANCH  96  99
ATOM     99  CG  PHE d   1      36.421  55.818  21.360  0.00  0.00    -0.056 A 
ATOM    100  CD1 PHE d   1      35.879  55.921  20.090  0.00  0.00    -0.077 A 
ATOM    101  CE1 PHE d   1      35.090  54.908  19.572  0.00  0.00    -0.082 A 
ATOM    102  H42 PHE d   1      36.075  56.805  19.494  0.00  0.00     0.084 H 
ATOM    103  CZ  PHE d   1      34.834  53.780  20.326  0.00  0.00    -0.083 A 
ATOM    104  H44 PHE d   1      34.674  55.000  18.575  0.00  0.00     0.083 H 
ATOM    105  CE2 PHE d   1      35.365  53.669  21.596  0.00  0.00    -0.082 A 
ATOM    106  H46 PHE d   1      34.218  52.984  19.922  0.00  0.00     0.083 H 
ATOM    107  CD2 PHE d   1      36.153  54.686  22.107  0.00  0.00    -0.077 A 
ATOM    108  H45 PHE d   1      35.165  52.786  22.192  0.00  0.00     0.083 H 
ATOM    109  H43 PHE d   1      36.565  54.594  23.105  0.00  0.00     0.084 H 
ENDBRANCH  96  99
ENDBRANCH  64  96
ENDBRANCH  62  64
ENDBRANCH   1  60
BRANCH   1 110
ATOM    110  CB  GLN d   1      41.646  53.278  22.956  0.00  0.00    -0.030 C 
ATOM    111  H32 GLN d   1      42.066  53.233  21.940  0.00  0.00     0.037 H 
ATOM    112  H33 GLN d   1      41.893  52.352  23.496  0.00  0.00     0.037 H 
BRANCH 110 113
ATOM    113  CG  GLN d   1      42.296  54.448  23.691  0.00  0.00     0.011 C 
ATOM    114  H34 GLN d   1      41.752  54.609  24.634  0.00  0.00     0.047 H 
ATOM    115  H35 GLN d   1      42.209  55.344  23.059  0.00  0.00     0.047 H 
BRANCH 113 116
ATOM    116  CD  GLN d   1      43.771  54.235  24.019  0.00  0.00     0.215 C 
ATOM    117  OE1 GLN d   1      44.497  55.201  24.260  0.00  0.00    -0.274 OA
ATOM    118  NE2 GLN d   1      44.219  52.980  24.037  0.00  0.00    -0.370 N 
ATOM    119  H36 GLN d   1      45.179  52.795  24.247  0.00  0.00     0.159 HD
ATOM    120  H37 GLN d   1      43.595  52.224  23.840  0.00  0.00     0.159 HD
ENDBRANCH 113 116
ENDBRANCH 110 113
ENDBRANCH   1 110
TORSDOF 33
