REMARK  27 active torsions:
REMARK  status: ('A' for Active; 'I' for Inactive)
REMARK    1  A    between atoms: N_1  and  CA_2 
REMARK    2  A    between atoms: CA_2  and  C_3 
REMARK    3  A    between atoms: CA_2  and  CB_5 
REMARK       I    between atoms: C_3  and  N_13 
REMARK    4  A    between atoms: CB_5  and  CG_6 
REMARK    5  A    between atoms: CZ_11  and  OH_12 
REMARK    6  A    between atoms: N_13  and  CA_14 
REMARK    7  A    between atoms: CA_14  and  C_15 
REMARK    8  A    between atoms: CA_14  and  CB_17 
REMARK       I    between atoms: C_15  and  N_18 
REMARK    9  A    between atoms: N_18  and  CA_19 
REMARK   10  A    between atoms: CA_19  and  C_20 
REMARK   11  A    between atoms: CA_19  and  CB_22 
REMARK       I    between atoms: C_20  and  N_27 
REMARK   12  A    between atoms: CB_22  and  CG_23 
REMARK   13  A    between atoms: CG_23  and  CD_24 
REMARK       I    between atoms: CD_24  and  NE2_26 
REMARK   14  A    between atoms: N_27  and  CA_28 
REMARK   15  A    between atoms: CA_28  and  C_29 
REMARK   16  A    between atoms: CA_28  and  CB_31 
REMARK       I    between atoms: C_29  and  N_34 
REMARK   17  A    between atoms: CB_31  and  OG1_32 
REMARK   18  A    between atoms: CB_31  and  CG2_33 
REMARK   19  A    between atoms: N_34  and  CA_35 
REMARK   20  A    between atoms: CA_35  and  C_36 
REMARK   21  A    between atoms: CA_35  and  CB_38 
REMARK       I    between atoms: C_36  and  N_40 
REMARK   22  A    between atoms: CB_38  and  OG_39 
REMARK   23  A    between atoms: N_40  and  CA_41 
REMARK   24  A    between atoms: CA_41  and  C_42 
REMARK   25  A    between atoms: CA_41  and  CB_44 
REMARK   26  A    between atoms: CB_44  and  CG1_45 
REMARK   27  A    between atoms: CB_44  and  CG2_46 
ROOT
ATOM      1  CA  GLN d   1      39.588  53.136  22.765  0.00  0.00     0.090 C 
ATOM      2  H18 GLN d   1      39.173  53.431  23.740  0.00  0.00     0.087 H 
ENDROOT
BRANCH   1   3
ATOM      3  N   GLN d   1      38.962  51.878  22.362  0.00  0.00    -0.346 N 
ATOM      4  C   LYS d   1      38.269  51.138  23.224  0.00  0.00     0.240 C 
ATOM      5  O   LYS d   1      38.155  51.433  24.415  0.00  0.00    -0.271 OA
ATOM      6  H17 GLN d   1      39.057  51.566  21.417  0.00  0.00     0.163 HD
BRANCH   4   7
ATOM      7  CA  LYS d   1      37.618  49.868  22.672  0.00  0.00     0.086 C 
ATOM      8  H13 LYS d   1      38.081  49.631  21.703  0.00  0.00     0.086 H 
BRANCH   7   9
ATOM      9  N   LYS d   1      37.840  48.745  23.579  0.00  0.00    -0.346 N 
ATOM     10  C   TYR d   1      37.923  47.488  23.148  0.00  0.00     0.249 C 
ATOM     11  O   TYR d   1      37.787  47.172  21.967  0.00  0.00    -0.271 OA
ATOM     12  H12 LYS d   1      37.933  48.926  24.558  0.00  0.00     0.163 HD
BRANCH  10  13
ATOM     13  CA  TYR d   1      38.209  46.433  24.214  0.00  0.00     0.179 C 
ATOM     14  H4  TYR d   1      37.945  46.862  25.192  0.00  0.00     0.099 H 
BRANCH  13  15
ATOM     15  N   TYR d   1      37.441  45.210  24.035  0.00  0.00    -0.066 N 
ATOM     16  H1  TYR d   1      37.674  44.557  24.767  0.00  0.00     0.275 HD
ATOM     17  H2  TYR d   1      37.661  44.803  23.139  0.00  0.00     0.275 HD
ATOM     18  H3  TYR d   1      36.456  45.422  24.075  0.00  0.00     0.275 HD
ENDBRANCH  13  15
BRANCH  13  19
ATOM     19  CB  TYR d   1      39.691  46.083  24.218  0.00  0.00    -0.006 C 
ATOM     20  H5  TYR d   1      39.854  45.268  23.497  0.00  0.00     0.043 H 
ATOM     21  H6  TYR d   1      39.960  45.739  25.227  0.00  0.00     0.043 H 
BRANCH  19  22
ATOM     22  CG  TYR d   1      40.601  47.223  23.852  0.00  0.00    -0.056 A 
ATOM     23  CD1 TYR d   1      40.917  48.200  24.779  0.00  0.00    -0.074 A 
ATOM     24  CE1 TYR d   1      41.759  49.239  24.467  0.00  0.00    -0.051 A 
ATOM     25  H7  TYR d   1      40.490  48.144  25.774  0.00  0.00     0.084 H 
ATOM     26  CZ  TYR d   1      42.305  49.318  23.201  0.00  0.00     0.065 A 
ATOM     27  H9  TYR d   1      41.994  49.993  25.210  0.00  0.00     0.087 H 
ATOM     28  CE2 TYR d   1      42.007  48.347  22.243  0.00  0.00    -0.051 A 
ATOM     29  CD2 TYR d   1      41.151  47.307  22.586  0.00  0.00    -0.074 A 
ATOM     30  H10 TYR d   1      42.436  48.403  21.249  0.00  0.00     0.087 H 
ATOM     31  H8  TYR d   1      40.911  46.549  21.849  0.00  0.00     0.084 H 
BRANCH  26  32
ATOM     32  OH  TYR d   1      43.146  50.368  22.927  0.00  0.00    -0.361 OA
ATOM     33  H11 TYR d   1      43.225  50.918  23.697  0.00  0.00     0.217 HD
ENDBRANCH  26  32
ENDBRANCH  19  22
ENDBRANCH  13  19
ENDBRANCH  10  13
ENDBRANCH   7   9
BRANCH   7  34
ATOM     34  CB  LYS d   1      36.120  50.092  22.453  0.00  0.00    -0.049 C 
ATOM     35  H14 LYS d   1      35.972  50.940  21.768  0.00  0.00     0.030 H 
ATOM     36  H15 LYS d   1      35.637  50.310  23.417  0.00  0.00     0.030 H 
ATOM     37  H16 LYS d   1      35.674  49.186  22.016  0.00  0.00     0.030 H 
ENDBRANCH   7  34
ENDBRANCH   4   7
ENDBRANCH   1   3
BRANCH   1  38
ATOM     38  C   GLN d   1      39.272  54.232  21.756  0.00  0.00     0.241 C 
ATOM     39  O   GLN d   1      39.329  54.016  20.546  0.00  0.00    -0.271 OA
ATOM     40  N   THR d   1      38.948  55.415  22.266  0.00  0.00    -0.344 N 
ATOM     41  H25 THR d   1      39.011  55.551  23.255  0.00  0.00     0.163 HD
BRANCH  40  42
ATOM     42  CA  THR d   1      38.502  56.522  21.425  0.00  0.00     0.113 C 
ATOM     43  H26 THR d   1      38.839  56.328  20.396  0.00  0.00     0.091 H 
BRANCH  42  44
ATOM     44  C   THR d   1      39.085  57.852  21.886  0.00  0.00     0.243 C 
ATOM     45  O   THR d   1      39.267  58.071  23.079  0.00  0.00    -0.271 OA
ATOM     46  N   SER d   1      39.357  58.743  20.935  0.00  0.00    -0.344 N 
ATOM     47  H32 SER d   1      39.258  58.475  19.977  0.00  0.00     0.163 HD
BRANCH  46  48
ATOM     48  CA  SER d   1      39.795  60.097  21.247  0.00  0.00     0.109 C 
ATOM     49  H33 SER d   1      40.360  60.078  22.191  0.00  0.00     0.090 H 
BRANCH  48  50
ATOM     50  C   SER d   1      38.584  61.005  21.410  0.00  0.00     0.243 C 
ATOM     51  O   SER d   1      37.640  60.928  20.620  0.00  0.00    -0.271 OA
ATOM     52  N   VAL d   1      38.614  61.873  22.418  0.00  0.00    -0.344 N 
ATOM     53  H37 VAL d   1      39.392  61.873  23.046  0.00  0.00     0.163 HD
BRANCH  52  54
ATOM     54  CA  VAL d   1      37.527  62.824  22.620  0.00  0.00     0.099 C 
ATOM     55  H38 VAL d   1      36.892  62.806  21.722  0.00  0.00     0.090 H 
BRANCH  54  56
ATOM     56  C   VAL d   1      38.061  64.235  22.793  0.00  0.00     0.197 C 
ATOM     57  O   VAL d   1      37.267  65.184  22.784  0.00  0.00    -0.646 OA
ATOM     58  OXT VAL d   1      39.262  64.445  22.951  0.00  0.00    -0.646 OA
ENDBRANCH  54  56
BRANCH  54  59
ATOM     59  CB  VAL d   1      36.657  62.436  23.828  0.00  0.00    -0.032 C 
ATOM     60  H39 VAL d   1      35.855  63.182  23.933  0.00  0.00     0.042 H 
BRANCH  59  61
ATOM     61  CG1 VAL d   1      36.020  61.076  23.608  0.00  0.00    -0.071 C 
ATOM     62  H40 VAL d   1      35.403  60.815  24.480  0.00  0.00     0.028 H 
ATOM     63  H41 VAL d   1      36.807  60.319  23.477  0.00  0.00     0.028 H 
ATOM     64  H42 VAL d   1      35.388  61.108  22.708  0.00  0.00     0.028 H 
ENDBRANCH  59  61
BRANCH  59  65
ATOM     65  CG2 VAL d   1      37.486  62.439  25.104  0.00  0.00    -0.071 C 
ATOM     66  H43 VAL d   1      37.938  63.432  25.245  0.00  0.00     0.028 H 
ATOM     67  H44 VAL d   1      38.280  61.682  25.027  0.00  0.00     0.028 H 
ATOM     68  H45 VAL d   1      36.839  62.206  25.962  0.00  0.00     0.028 H 
ENDBRANCH  59  65
ENDBRANCH  54  59
ENDBRANCH  52  54
ENDBRANCH  48  50
BRANCH  48  69
ATOM     69  CB  SER d   1      40.701  60.649  20.139  0.00  0.00     0.044 C 
ATOM     70  H34 SER d   1      41.038  61.657  20.423  0.00  0.00     0.077 H 
ATOM     71  H35 SER d   1      40.126  60.705  19.203  0.00  0.00     0.077 H 
BRANCH  69  72
ATOM     72  OG  SER d   1      41.833  59.828  19.933  0.00  0.00    -0.398 OA
ATOM     73  H36 SER d   1      42.338  59.779  20.736  0.00  0.00     0.209 HD
ENDBRANCH  69  72
ENDBRANCH  48  69
ENDBRANCH  46  48
ENDBRANCH  42  44
BRANCH  42  74
ATOM     74  CB  THR d   1      36.964  56.639  21.431  0.00  0.00     0.060 C 
ATOM     75  H27 THR d   1      36.644  57.055  22.398  0.00  0.00     0.086 H 
BRANCH  74  76
ATOM     76  OG1 THR d   1      36.378  55.343  21.260  0.00  0.00    -0.393 OA
ATOM     77  H28 THR d   1      35.431  55.422  21.265  0.00  0.00     0.210 HD
ENDBRANCH  74  76
BRANCH  74  78
ATOM     78  CG2 THR d   1      36.487  57.559  20.316  0.00  0.00    -0.050 C 
ATOM     79  H29 THR d   1      35.389  57.626  20.341  0.00  0.00     0.031 H 
ATOM     80  H30 THR d   1      36.808  57.155  19.345  0.00  0.00     0.031 H 
ATOM     81  H31 THR d   1      36.919  58.561  20.457  0.00  0.00     0.031 H 
ENDBRANCH  74  78
ENDBRANCH  42  74
ENDBRANCH  40  42
ENDBRANCH   1  38
BRANCH   1  82
ATOM     82  CB  GLN d   1      41.106  52.970  22.918  0.00  0.00    -0.030 C 
ATOM     83  H19 GLN d   1      41.505  52.549  21.983  0.00  0.00     0.037 H 
ATOM     84  H20 GLN d   1      41.297  52.271  23.745  0.00  0.00     0.037 H 
BRANCH  82  85
ATOM     85  CG  GLN d   1      41.840  54.270  23.210  0.00  0.00     0.011 C 
ATOM     86  H21 GLN d   1      41.199  54.889  23.855  0.00  0.00     0.047 H 
ATOM     87  H22 GLN d   1      42.011  54.790  22.256  0.00  0.00     0.047 H 
BRANCH  85  88
ATOM     88  CD  GLN d   1      43.185  54.093  23.904  0.00  0.00     0.215 C 
ATOM     89  OE1 GLN d   1      43.814  55.078  24.301  0.00  0.00    -0.274 OA
ATOM     90  NE2 GLN d   1      43.659  52.847  24.007  0.00  0.00    -0.370 N 
ATOM     91  H23 GLN d   1      44.538  52.682  24.455  0.00  0.00     0.159 HD
ATOM     92  H24 GLN d   1      43.135  52.080  23.637  0.00  0.00     0.159 HD
ENDBRANCH  85  88
ENDBRANCH  82  85
ENDBRANCH   1  82
TORSDOF 27
