REMARK WARNING: 32 MAX_TORS EXCEEDED!!!
REMARK  36 active torsions:
REMARK  status: ('A' for Active; 'I' for Inactive)
REMARK    1  A    between atoms: N_1  and  CA_2 
REMARK    2  A    between atoms: CA_2  and  C_3 
REMARK    3  A    between atoms: CA_2  and  CB_5 
REMARK       I    between atoms: C_3  and  N_9 
REMARK    4  A    between atoms: CB_5  and  CG_6 
REMARK       I    between atoms: CG_6  and  ND2_8 
REMARK    5  A    between atoms: N_9  and  CA_10 
REMARK    6  A    between atoms: CA_10  and  C_11 
REMARK    7  A    between atoms: CA_10  and  CB_13 
REMARK    8  A    between atoms: C_11  and  O_12 
REMARK    9  A    between atoms: C_11  and  N_21 
REMARK   10  A    between atoms: CB_13  and  CG_14 
REMARK   11  A    between atoms: CZ_19  and  OH_20 
REMARK   12  A    between atoms: N_21  and  CA_22 
REMARK   13  A    between atoms: CA_22  and  C_23 
REMARK   14  A    between atoms: CA_22  and  CB_25 
REMARK       I    between atoms: C_23  and  N_30 
REMARK   15  A    between atoms: CB_25  and  CG_26 
REMARK   16  A    between atoms: CG_26  and  CD_27 
REMARK   17  A    between atoms: CD_27  and  CE_28 
REMARK   18  A    between atoms: CE_28  and  NZ_29 
REMARK   19  A    between atoms: N_30  and  CA_31 
REMARK   20  A    between atoms: CA_31  and  C_32 
REMARK   21  A    between atoms: CA_31  and  CB_34 
REMARK       I    between atoms: C_32  and  N_39 
REMARK   22  A    between atoms: CB_34  and  CG_35 
REMARK   23  A    between atoms: CG_35  and  CD_36 
REMARK       I    between atoms: CD_36  and  NE2_38 
REMARK   24  A    between atoms: N_39  and  CA_40 
REMARK   25  A    between atoms: CA_40  and  C_41 
REMARK   26  A    between atoms: CA_40  and  CB_43 
REMARK       I    between atoms: C_41  and  N_50 
REMARK   27  A    between atoms: CB_43  and  CG_44 
REMARK   28  A    between atoms: N_50  and  CA_51 
REMARK   29  A    between atoms: CA_51  and  C_52 
REMARK   30  A    between atoms: CA_51  and  CB_54 
REMARK       I    between atoms: C_52  and  N_56 
REMARK   31  A    between atoms: CB_54  and  OG_55 
REMARK   32  A    between atoms: N_56  and  CA_57 
REMARK   33  A    between atoms: CA_57  and  C_58 
REMARK   34  A    between atoms: CA_57  and  CB_60 
REMARK   35  A    between atoms: CB_60  and  CG1_61 
REMARK   36  A    between atoms: CB_60  and  CG2_62 
ROOT
ATOM      1  C   LYS d   1      38.345  51.187  22.927  0.00  0.00     0.249 C 
ATOM      2  O   LYS d   1      38.276  51.418  24.136  0.00  0.00    -0.271 OA
ATOM      3  N   GLN d   1      38.978  51.992  22.080  0.00  0.00    -0.346 N 
ATOM      4  H34 GLN d   1      39.038  51.745  21.113  0.00  0.00     0.163 HD
ENDROOT
BRANCH   3   5
ATOM      5  CA  GLN d   1      39.586  53.233  22.549  0.00  0.00     0.090 C 
ATOM      6  H35 GLN d   1      39.177  53.462  23.544  0.00  0.00     0.087 H 
BRANCH   5   7
ATOM      7  C   GLN d   1      39.239  54.390  21.617  0.00  0.00     0.241 C 
ATOM      8  O   GLN d   1      39.427  54.305  20.403  0.00  0.00    -0.271 OA
ATOM      9  N   PHE d   1      38.714  55.462  22.203  0.00  0.00    -0.346 N 
ATOM     10  H42 PHE d   1      38.653  55.486  23.201  0.00  0.00     0.163 HD
BRANCH   9  11
ATOM     11  CA  PHE d   1      38.223  56.606  21.439  0.00  0.00     0.093 C 
ATOM     12  H43 PHE d   1      38.414  56.417  20.372  0.00  0.00     0.088 H 
BRANCH  11  13
ATOM     13  C   PHE d   1      38.947  57.887  21.844  0.00  0.00     0.241 C 
ATOM     14  O   PHE d   1      39.233  58.101  23.020  0.00  0.00    -0.271 OA
ATOM     15  N   SER d   1      39.234  58.737  20.864  0.00  0.00    -0.344 N 
ATOM     16  H51 SER d   1      39.090  58.453  19.916  0.00  0.00     0.163 HD
BRANCH  15  17
ATOM     17  CA  SER d   1      39.754  60.073  21.133  0.00  0.00     0.109 C 
ATOM     18  H52 SER d   1      40.313  60.051  22.080  0.00  0.00     0.090 H 
BRANCH  17  19
ATOM     19  C   SER d   1      38.591  61.048  21.268  0.00  0.00     0.243 C 
ATOM     20  O   SER d   1      37.709  61.087  20.410  0.00  0.00    -0.271 OA
ATOM     21  N   VAL d   1      38.590  61.833  22.342  0.00  0.00    -0.344 N 
ATOM     22  H56 VAL d   1      39.343  61.767  22.997  0.00  0.00     0.163 HD
BRANCH  21  23
ATOM     23  CA  VAL d   1      37.514  62.788  22.586  0.00  0.00     0.099 C 
ATOM     24  H57 VAL d   1      36.850  62.787  21.709  0.00  0.00     0.090 H 
BRANCH  23  25
ATOM     25  C   VAL d   1      38.080  64.193  22.753  0.00  0.00     0.197 C 
ATOM     26  O   VAL d   1      37.332  65.172  22.745  0.00  0.00    -0.646 OA
ATOM     27  OXT VAL d   1      39.289  64.389  22.896  0.00  0.00    -0.646 OA
ENDBRANCH  23  25
BRANCH  23  28
ATOM     28  CB  VAL d   1      36.677  62.384  23.818  0.00  0.00    -0.032 C 
ATOM     29  H58 VAL d   1      35.869  63.120  23.943  0.00  0.00     0.042 H 
BRANCH  28  30
ATOM     30  CG1 VAL d   1      36.049  61.015  23.604  0.00  0.00    -0.071 C 
ATOM     31  H59 VAL d   1      35.456  60.741  24.489  0.00  0.00     0.028 H 
ATOM     32  H60 VAL d   1      36.842  60.268  23.448  0.00  0.00     0.028 H 
ATOM     33  H61 VAL d   1      35.395  61.046  22.720  0.00  0.00     0.028 H 
ENDBRANCH  28  30
BRANCH  28  34
ATOM     34  CG2 VAL d   1      37.528  62.393  25.080  0.00  0.00    -0.071 C 
ATOM     35  H62 VAL d   1      37.972  63.390  25.216  0.00  0.00     0.028 H 
ATOM     36  H63 VAL d   1      38.329  61.645  24.988  0.00  0.00     0.028 H 
ATOM     37  H64 VAL d   1      36.898  62.151  25.949  0.00  0.00     0.028 H 
ENDBRANCH  28  34
ENDBRANCH  23  28
ENDBRANCH  21  23
ENDBRANCH  17  19
BRANCH  17  38
ATOM     38  CB  SER d   1      40.701  60.526  20.019  0.00  0.00     0.044 C 
ATOM     39  H53 SER d   1      41.078  61.532  20.256  0.00  0.00     0.077 H 
ATOM     40  H54 SER d   1      40.148  60.557  19.069  0.00  0.00     0.077 H 
BRANCH  38  41
ATOM     41  OG  SER d   1      41.797  59.642  19.886  0.00  0.00    -0.398 OA
ATOM     42  H55 SER d   1      42.281  59.615  20.703  0.00  0.00     0.209 HD
ENDBRANCH  38  41
ENDBRANCH  17  38
ENDBRANCH  15  17
ENDBRANCH  11  13
BRANCH  11  43
ATOM     43  CB  PHE d   1      36.717  56.789  21.642  0.00  0.00    -0.014 C 
ATOM     44  H44 PHE d   1      36.406  57.704  21.117  0.00  0.00     0.043 H 
ATOM     45  H45 PHE d   1      36.524  56.900  22.719  0.00  0.00     0.043 H 
BRANCH  43  46
ATOM     46  CG  PHE d   1      35.888  55.647  21.130  0.00  0.00    -0.056 A 
ATOM     47  CD1 PHE d   1      35.581  54.575  21.949  0.00  0.00    -0.077 A 
ATOM     48  CE1 PHE d   1      34.820  53.524  21.481  0.00  0.00    -0.082 A 
ATOM     49  H46 PHE d   1      35.943  54.561  22.971  0.00  0.00     0.084 H 
ATOM     50  CZ  PHE d   1      34.353  53.537  20.185  0.00  0.00    -0.083 A 
ATOM     51  H48 PHE d   1      34.590  52.689  22.132  0.00  0.00     0.083 H 
ATOM     52  CE2 PHE d   1      34.647  54.600  19.359  0.00  0.00    -0.082 A 
ATOM     53  H50 PHE d   1      33.755  52.712  19.816  0.00  0.00     0.083 H 
ATOM     54  CD2 PHE d   1      35.409  55.649  19.832  0.00  0.00    -0.077 A 
ATOM     55  H49 PHE d   1      34.280  54.612  18.339  0.00  0.00     0.083 H 
ATOM     56  H47 PHE d   1      35.635  56.484  19.179  0.00  0.00     0.084 H 
ENDBRANCH  43  46
ENDBRANCH  11  43
ENDBRANCH   9  11
ENDBRANCH   5   7
BRANCH   5  57
ATOM     57  CB  GLN d   1      41.105  53.067  22.684  0.00  0.00    -0.030 C 
ATOM     58  H36 GLN d   1      41.517  52.828  21.693  0.00  0.00     0.037 H 
ATOM     59  H37 GLN d   1      41.303  52.234  23.374  0.00  0.00     0.037 H 
BRANCH  57  60
ATOM     60  CG  GLN d   1      41.817  54.310  23.214  0.00  0.00     0.011 C 
ATOM     61  H38 GLN d   1      41.172  54.777  23.973  0.00  0.00     0.047 H 
ATOM     62  H39 GLN d   1      41.960  55.007  22.375  0.00  0.00     0.047 H 
BRANCH  60  63
ATOM     63  CD  GLN d   1      43.185  54.043  23.850  0.00  0.00     0.215 C 
ATOM     64  OE1 GLN d   1      43.844  54.978  24.303  0.00  0.00    -0.274 OA
ATOM     65  NE2 GLN d   1      43.611  52.781  23.893  0.00  0.00    -0.370 N 
ATOM     66  H40 GLN d   1      44.499  52.567  24.300  0.00  0.00     0.159 HD
ATOM     67  H41 GLN d   1      43.043  52.048  23.518  0.00  0.00     0.159 HD
ENDBRANCH  60  63
ENDBRANCH  57  60
ENDBRANCH   5  57
ENDBRANCH   3   5
BRANCH   1  68
ATOM     68  CA  LYS d   1      37.709  49.929  22.354  0.00  0.00     0.180 C 
ATOM     69  H22 LYS d   1      38.246  49.620  21.445  0.00  0.00     0.099 H 
BRANCH  68  70
ATOM     70  N   LYS d   1      37.847  48.907  23.375  0.00  0.00    -0.034 N 
ATOM     71  H20 LYS d   1      38.832  48.873  23.588  0.00  0.00     0.281 HD
ATOM     72  H21 LYS d   1      37.342  49.258  24.174  0.00  0.00     0.281 HD
BRANCH  70  73
ATOM     73  C   TYR d   1      37.475  47.656  23.250  0.00  0.00     0.210 C 
ATOM     74  H11 TYR d   1      36.394  47.578  23.439  0.00  0.00     0.132 H 
BRANCH  73  75
ATOM     75  CA  TYR d   1      38.137  46.768  24.272  0.00  0.00     0.065 C 
ATOM     76  H10 TYR d   1      38.280  47.314  25.216  0.00  0.00     0.079 H 
BRANCH  75  77
ATOM     77  N   TYR d   1      37.238  45.657  24.468  0.00  0.00    -0.350 N 
ATOM     78  C   ASN d   1      37.237  44.630  23.641  0.00  0.00     0.249 C 
ATOM     79  O   ASN d   1      37.881  44.596  22.593  0.00  0.00    -0.271 OA
ATOM     80  H9  TYR d   1      36.606  45.666  25.243  0.00  0.00     0.163 HD
BRANCH  78  81
ATOM     81  CA  ASN d   1      36.296  43.488  24.013  0.00  0.00     0.183 C 
ATOM     82  H4  ASN d   1      35.277  43.892  24.106  0.00  0.00     0.099 H 
BRANCH  81  83
ATOM     83  N   ASN d   1      36.293  42.464  22.976  0.00  0.00    -0.066 N 
ATOM     84  H1  ASN d   1      35.666  41.720  23.240  0.00  0.00     0.275 HD
ATOM     85  H2  ASN d   1      37.225  42.095  22.865  0.00  0.00     0.275 HD
ATOM     86  H3  ASN d   1      35.986  42.868  22.105  0.00  0.00     0.275 HD
ENDBRANCH  81  83
BRANCH  81  87
ATOM     87  CB  ASN d   1      36.705  42.884  25.360  0.00  0.00     0.044 C 
ATOM     88  H5  ASN d   1      36.023  42.053  25.595  0.00  0.00     0.051 H 
ATOM     89  H6  ASN d   1      36.618  43.660  26.135  0.00  0.00     0.051 H 
BRANCH  87  90
ATOM     90  CG  ASN d   1      38.128  42.358  25.357  0.00  0.00     0.217 C 
ATOM     91  OD1 ASN d   1      38.712  42.115  24.300  0.00  0.00    -0.274 OA
ATOM     92  ND2 ASN d   1      38.693  42.174  26.545  0.00  0.00    -0.370 N 
ATOM     93  H7  ASN d   1      39.630  41.829  26.605  0.00  0.00     0.159 HD
ATOM     94  H8  ASN d   1      38.182  42.380  27.379  0.00  0.00     0.159 HD
ENDBRANCH  87  90
ENDBRANCH  81  87
ENDBRANCH  78  81
ENDBRANCH  75  77
BRANCH  75  95
ATOM     95  CB  TYR d   1      39.483  46.282  23.764  0.00  0.00    -0.018 C 
ATOM     96  H13 TYR d   1      39.336  45.825  22.774  0.00  0.00     0.043 H 
ATOM     97  H14 TYR d   1      39.865  45.525  24.465  0.00  0.00     0.043 H 
BRANCH  95  98
ATOM     98  CG  TYR d   1      40.509  47.366  23.635  0.00  0.00    -0.056 A 
ATOM     99  CD1 TYR d   1      40.737  48.255  24.667  0.00  0.00    -0.074 A 
ATOM    100  CE1 TYR d   1      41.682  49.251  24.554  0.00  0.00    -0.051 A 
ATOM    101  H15 TYR d   1      40.162  48.167  25.582  0.00  0.00     0.084 H 
ATOM    102  CZ  TYR d   1      42.409  49.362  23.397  0.00  0.00     0.065 A 
ATOM    103  H17 TYR d   1      41.849  49.941  25.373  0.00  0.00     0.087 H 
ATOM    104  CE2 TYR d   1      42.198  48.492  22.355  0.00  0.00    -0.051 A 
ATOM    105  CD2 TYR d   1      41.252  47.500  22.481  0.00  0.00    -0.074 A 
ATOM    106  H18 TYR d   1      42.772  48.586  21.440  0.00  0.00     0.087 H 
ATOM    107  H16 TYR d   1      41.088  46.812  21.659  0.00  0.00     0.084 H 
BRANCH 102 108
ATOM    108  OH  TYR d   1      43.338  50.348  23.281  0.00  0.00    -0.361 OA
ATOM    109  H19 TYR d   1      43.359  50.857  24.083  0.00  0.00     0.217 HD
ENDBRANCH 102 108
ENDBRANCH  95  98
ENDBRANCH  75  95
ENDBRANCH  73  75
BRANCH  73 110
ATOM    110  O   TYR d   1      37.660  47.450  22.053  0.00  0.00    -0.368 OA
ATOM    111  H12 TYR d   1      37.419  46.555  21.846  0.00  0.00     0.212 HD
ENDBRANCH  73 110
ENDBRANCH  70  73
ENDBRANCH  68  70
BRANCH  68 112
ATOM    112  CB  LYS d   1      36.241  50.176  21.997  0.00  0.00    -0.030 C 
ATOM    113  H23 LYS d   1      36.209  50.757  21.063  0.00  0.00     0.036 H 
ATOM    114  H24 LYS d   1      35.785  50.761  22.809  0.00  0.00     0.036 H 
BRANCH 112 115
ATOM    115  CG  LYS d   1      35.411  48.913  21.799  0.00  0.00    -0.061 C 
ATOM    116  H25 LYS d   1      35.498  48.285  22.698  0.00  0.00     0.033 H 
ATOM    117  H26 LYS d   1      35.800  48.364  20.929  0.00  0.00     0.033 H 
BRANCH 115 118
ATOM    118  CD  LYS d   1      33.941  49.235  21.562  0.00  0.00    -0.043 C 
ATOM    119  H27 LYS d   1      33.596  49.919  22.351  0.00  0.00     0.035 H 
ATOM    120  H28 LYS d   1      33.361  48.301  21.607  0.00  0.00     0.035 H 
BRANCH 118 121
ATOM    121  CE  LYS d   1      33.713  49.890  20.209  0.00  0.00     0.080 C 
ATOM    122  H29 LYS d   1      34.058  49.206  19.420  0.00  0.00     0.075 H 
ATOM    123  H30 LYS d   1      34.292  50.824  20.163  0.00  0.00     0.075 H 
BRANCH 121 124
ATOM    124  NZ  LYS d   1      32.274  50.203  19.981  0.00  0.00    -0.079 N 
ATOM    125  H31 LYS d   1      32.163  50.635  19.077  0.00  0.00     0.274 HD
ATOM    126  H32 LYS d   1      31.950  50.834  20.697  0.00  0.00     0.274 HD
ATOM    127  H33 LYS d   1      31.735  49.352  20.015  0.00  0.00     0.274 HD
ENDBRANCH 121 124
ENDBRANCH 118 121
ENDBRANCH 115 118
ENDBRANCH 112 115
ENDBRANCH  68 112
ENDBRANCH   1  68
TORSDOF 36
