REMARK WARNING: 32 MAX_TORS EXCEEDED!!!
REMARK  34 active torsions:
REMARK  status: ('A' for Active; 'I' for Inactive)
REMARK    1  A    between atoms: N_1  and  CA_2 
REMARK    2  A    between atoms: CA_2  and  C_3 
REMARK    3  A    between atoms: CA_2  and  CB_5 
REMARK       I    between atoms: C_3  and  N_6 
REMARK    4  A    between atoms: N_6  and  CA_7 
REMARK    5  A    between atoms: CA_7  and  C_8 
REMARK    6  A    between atoms: CA_7  and  CB_10 
REMARK       I    between atoms: C_8  and  N_11 
REMARK    7  A    between atoms: N_11  and  CA_12 
REMARK    8  A    between atoms: CA_12  and  C_13 
REMARK    9  A    between atoms: CA_12  and  CB_15 
REMARK       I    between atoms: C_13  and  N_23 
REMARK   10  A    between atoms: CB_15  and  CG_16 
REMARK   11  A    between atoms: CZ_21  and  OH_22 
REMARK   12  A    between atoms: N_23  and  CA_24 
REMARK   13  A    between atoms: CA_24  and  C_25 
REMARK   14  A    between atoms: CA_24  and  CB_27 
REMARK       I    between atoms: C_25  and  N_30 
REMARK   15  A    between atoms: CB_27  and  CG_28 
REMARK   16  A    between atoms: CG_28  and  CD_29 
REMARK   17  A    between atoms: N_30  and  CA_31 
REMARK   18  A    between atoms: CA_31  and  C_32 
REMARK   19  A    between atoms: CA_31  and  CB_34 
REMARK       I    between atoms: C_32  and  N_39 
REMARK   20  A    between atoms: CB_34  and  CG_35 
REMARK   21  A    between atoms: CG_35  and  CD_36 
REMARK       I    between atoms: CD_36  and  NE2_38 
REMARK   22  A    between atoms: N_39  and  CA_40 
REMARK   23  A    between atoms: CA_40  and  C_41 
REMARK   24  A    between atoms: CA_40  and  CB_43 
REMARK       I    between atoms: C_41  and  N_50 
REMARK   25  A    between atoms: CB_43  and  CG_44 
REMARK   26  A    between atoms: N_50  and  CA_51 
REMARK   27  A    between atoms: CA_51  and  C_52 
REMARK   28  A    between atoms: CA_51  and  CB_54 
REMARK       I    between atoms: C_52  and  N_56 
REMARK   29  A    between atoms: CB_54  and  OG_55 
REMARK   30  A    between atoms: N_56  and  CA_57 
REMARK   31  A    between atoms: CA_57  and  C_58 
REMARK   32  A    between atoms: CA_57  and  CB_60 
REMARK   33  A    between atoms: CB_60  and  CG1_61 
REMARK   34  A    between atoms: CB_60  and  CG2_62 
ROOT
ATOM      1  CA  GLN d   1      39.648  53.216  22.839  0.00  0.00     0.090 C 
ATOM      2  H32 GLN d   1      39.273  53.507  23.831  0.00  0.00     0.087 H 
ENDROOT
BRANCH   1   3
ATOM      3  N   GLN d   1      39.035  51.933  22.480  0.00  0.00    -0.346 N 
ATOM      4  C   LYS d   1      38.423  51.174  23.392  0.00  0.00     0.241 C 
ATOM      5  O   LYS d   1      38.429  51.432  24.599  0.00  0.00    -0.271 OA
ATOM      6  H31 GLN d   1      39.076  51.620  21.531  0.00  0.00     0.163 HD
BRANCH   4   7
ATOM      7  CA  LYS d   1      37.718  49.925  22.900  0.00  0.00     0.089 C 
ATOM      8  H23 LYS d   1      38.184  49.592  21.961  0.00  0.00     0.087 H 
BRANCH   7   9
ATOM      9  N   LYS d   1      37.867  48.870  23.908  0.00  0.00    -0.346 N 
ATOM     10  C   TYR d   1      38.088  47.618  23.567  0.00  0.00     0.241 C 
ATOM     11  O   TYR d   1      38.134  47.243  22.436  0.00  0.00    -0.271 OA
ATOM     12  H22 LYS d   1      37.799  49.107  24.877  0.00  0.00     0.163 HD
BRANCH  10  13
ATOM     13  CA  TYR d   1      38.380  46.665  24.700  0.00  0.00     0.093 C 
ATOM     14  H14 TYR d   1      37.868  47.030  25.603  0.00  0.00     0.088 H 
BRANCH  13  15
ATOM     15  N   TYR d   1      37.853  45.381  24.346  0.00  0.00    -0.346 N 
ATOM     16  C   ASN d   1      36.570  45.083  24.447  0.00  0.00     0.240 C 
ATOM     17  O   ASN d   1      35.717  45.870  24.771  0.00  0.00    -0.271 OA
ATOM     18  H13 TYR d   1      38.482  44.681  24.008  0.00  0.00     0.163 HD
BRANCH  16  19
ATOM     19  CA  ASN d   1      36.201  43.655  24.065  0.00  0.00     0.086 C 
ATOM     20  H9  ASN d   1      35.660  43.676  23.108  0.00  0.00     0.086 H 
BRANCH  19  21
ATOM     21  N   ASN d   1      37.384  42.848  23.898  0.00  0.00    -0.346 N 
ATOM     22  C   LYS d   1      38.121  42.459  24.911  0.00  0.00     0.248 C 
ATOM     23  O   LYS d   1      37.776  42.604  26.073  0.00  0.00    -0.271 OA
ATOM     24  H8  ASN d   1      37.653  42.574  22.974  0.00  0.00     0.163 HD
BRANCH  22  25
ATOM     25  CA  LYS d   1      39.451  41.815  24.535  0.00  0.00     0.172 C 
ATOM     26  H4  LYS d   1      39.300  40.730  24.441  0.00  0.00     0.098 H 
BRANCH  25  27
ATOM     27  N   LYS d   1      39.970  42.332  23.257  0.00  0.00    -0.067 N 
ATOM     28  H1  LYS d   1      40.847  41.883  23.044  0.00  0.00     0.275 HD
ATOM     29  H2  LYS d   1      40.111  43.328  23.330  0.00  0.00     0.275 HD
ATOM     30  H3  LYS d   1      39.307  42.139  22.523  0.00  0.00     0.275 HD
ENDBRANCH  25  27
BRANCH  25  31
ATOM     31  CB  LYS d   1      40.479  42.085  25.635  0.00  0.00    -0.042 C 
ATOM     32  H5  LYS d   1      40.099  41.702  26.594  0.00  0.00     0.030 H 
ATOM     33  H6  LYS d   1      40.653  43.168  25.716  0.00  0.00     0.030 H 
ATOM     34  H7  LYS d   1      41.424  41.579  25.386  0.00  0.00     0.030 H 
ENDBRANCH  25  31
ENDBRANCH  22  25
ENDBRANCH  19  21
BRANCH  19  35
ATOM     35  CB  ASN d   1      35.296  43.074  25.113  0.00  0.00    -0.049 C 
ATOM     36  H10 ASN d   1      34.404  43.708  25.219  0.00  0.00     0.030 H 
ATOM     37  H11 ASN d   1      35.830  43.028  26.074  0.00  0.00     0.030 H 
ATOM     38  H12 ASN d   1      34.992  42.060  24.814  0.00  0.00     0.030 H 
ENDBRANCH  19  35
ENDBRANCH  16  19
ENDBRANCH  13  15
BRANCH  13  39
ATOM     39  CB  TYR d   1      39.857  46.541  25.012  0.00  0.00    -0.014 C 
ATOM     40  H15 TYR d   1      40.190  45.559  24.644  0.00  0.00     0.043 H 
ATOM     41  H16 TYR d   1      39.967  46.579  26.106  0.00  0.00     0.043 H 
BRANCH  39  42
ATOM     42  CG  TYR d   1      40.778  47.575  24.432  0.00  0.00    -0.056 A 
ATOM     43  CD1 TYR d   1      41.262  47.452  23.170  0.00  0.00    -0.074 A 
ATOM     44  CE1 TYR d   1      42.106  48.390  22.644  0.00  0.00    -0.051 A 
ATOM     45  H17 TYR d   1      40.975  46.596  22.570  0.00  0.00     0.084 H 
ATOM     46  CZ  TYR d   1      42.461  49.458  23.386  0.00  0.00     0.065 A 
ATOM     47  H19 TYR d   1      42.488  48.276  21.636  0.00  0.00     0.087 H 
ATOM     48  CE2 TYR d   1      41.947  49.615  24.632  0.00  0.00    -0.051 A 
ATOM     49  CD2 TYR d   1      41.107  48.679  25.141  0.00  0.00    -0.074 A 
ATOM     50  H20 TYR d   1      42.207  50.487  25.220  0.00  0.00     0.087 H 
ATOM     51  H18 TYR d   1      40.692  48.818  26.133  0.00  0.00     0.084 H 
BRANCH  46  52
ATOM     52  OH  TYR d   1      43.247  50.398  22.935  0.00  0.00    -0.361 OA
ATOM     53  H21 TYR d   1      43.539  50.172  22.060  0.00  0.00     0.217 HD
ENDBRANCH  46  52
ENDBRANCH  39  42
ENDBRANCH  13  39
ENDBRANCH  10  13
ENDBRANCH   7   9
BRANCH   7  54
ATOM     54  CB  LYS d   1      36.242  50.229  22.638  0.00  0.00    -0.038 C 
ATOM     55  H24 LYS d   1      36.188  51.022  21.878  0.00  0.00     0.036 H 
ATOM     56  H25 LYS d   1      35.797  50.589  23.577  0.00  0.00     0.036 H 
BRANCH  54  57
ATOM     57  CG  LYS d   1      35.437  49.080  22.160  0.00  0.00    -0.066 C 
ATOM     58  H26 LYS d   1      34.380  49.252  22.413  0.00  0.00     0.032 H 
ATOM     59  H27 LYS d   1      35.789  48.164  22.657  0.00  0.00     0.032 H 
BRANCH  57  60
ATOM     60  CD  LYS d   1      35.566  48.907  20.645  0.00  0.00    -0.076 C 
ATOM     61  H28 LYS d   1      34.959  48.049  20.321  0.00  0.00     0.027 H 
ATOM     62  H29 LYS d   1      36.620  48.730  20.385  0.00  0.00     0.027 H 
ATOM     63  H30 LYS d   1      35.212  49.818  20.140  0.00  0.00     0.027 H 
ENDBRANCH  57  60
ENDBRANCH  54  57
ENDBRANCH   7  54
ENDBRANCH   4   7
ENDBRANCH   1   3
BRANCH   1  64
ATOM     64  C   GLN d   1      39.254  54.313  21.844  0.00  0.00     0.241 C 
ATOM     65  O   GLN d   1      39.246  54.093  20.623  0.00  0.00    -0.271 OA
ATOM     66  N   PHE d   1      38.893  55.476  22.385  0.00  0.00    -0.346 N 
ATOM     67  H39 PHE d   1      38.974  55.576  23.377  0.00  0.00     0.163 HD
BRANCH  66  68
ATOM     68  CA  PHE d   1      38.382  56.625  21.614  0.00  0.00     0.093 C 
ATOM     69  H40 PHE d   1      38.569  56.433  20.547  0.00  0.00     0.088 H 
BRANCH  68  70
ATOM     70  C   PHE d   1      39.076  57.913  22.013  0.00  0.00     0.241 C 
ATOM     71  O   PHE d   1      39.349  58.157  23.171  0.00  0.00    -0.271 OA
ATOM     72  N   SER d   1      39.329  58.758  21.017  0.00  0.00    -0.344 N 
ATOM     73  H48 SER d   1      39.188  58.451  20.076  0.00  0.00     0.163 HD
BRANCH  72  74
ATOM     74  CA  SER d   1      39.804  60.115  21.251  0.00  0.00     0.109 C 
ATOM     75  H49 SER d   1      40.405  60.140  22.172  0.00  0.00     0.090 H 
BRANCH  74  76
ATOM     76  C   SER d   1      38.597  61.022  21.405  0.00  0.00     0.243 C 
ATOM     77  O   SER d   1      37.642  60.950  20.618  0.00  0.00    -0.271 OA
ATOM     78  N   VAL d   1      38.612  61.876  22.415  0.00  0.00    -0.344 N 
ATOM     79  H53 VAL d   1      39.377  61.864  23.059  0.00  0.00     0.163 HD
BRANCH  78  80
ATOM     80  CA  VAL d   1      37.540  62.824  22.601  0.00  0.00     0.099 C 
ATOM     81  H54 VAL d   1      36.895  62.786  21.711  0.00  0.00     0.090 H 
BRANCH  80  82
ATOM     82  C   VAL d   1      38.118  64.253  22.711  0.00  0.00     0.197 C 
ATOM     83  O   VAL d   1      37.327  65.206  22.710  0.00  0.00    -0.646 OA
ATOM     84  OXT VAL d   1      39.337  64.521  22.782  0.00  0.00    -0.646 OA
ENDBRANCH  80  82
BRANCH  80  85
ATOM     85  CB  VAL d   1      36.665  62.461  23.833  0.00  0.00    -0.032 C 
ATOM     86  H55 VAL d   1      35.865  63.211  23.919  0.00  0.00     0.042 H 
BRANCH  85  87
ATOM     87  CG1 VAL d   1      36.029  61.088  23.693  0.00  0.00    -0.071 C 
ATOM     88  H56 VAL d   1      35.421  60.873  24.584  0.00  0.00     0.028 H 
ATOM     89  H57 VAL d   1      36.817  60.327  23.595  0.00  0.00     0.028 H 
ATOM     90  H58 VAL d   1      35.389  61.070  22.799  0.00  0.00     0.028 H 
ENDBRANCH  85  87
BRANCH  85  91
ATOM     91  CG2 VAL d   1      37.484  62.481  25.088  0.00  0.00    -0.071 C 
ATOM     92  H59 VAL d   1      37.952  63.470  25.205  0.00  0.00     0.028 H 
ATOM     93  H60 VAL d   1      38.266  61.710  25.028  0.00  0.00     0.028 H 
ATOM     94  H61 VAL d   1      36.835  62.278  25.953  0.00  0.00     0.028 H 
ENDBRANCH  85  91
ENDBRANCH  80  85
ENDBRANCH  78  80
ENDBRANCH  74  76
BRANCH  74  95
ATOM     95  CB  SER d   1      40.665  60.595  20.071  0.00  0.00     0.044 C 
ATOM     96  H50 SER d   1      41.002  61.623  20.272  0.00  0.00     0.077 H 
ATOM     97  H51 SER d   1      40.054  60.582  19.157  0.00  0.00     0.077 H 
BRANCH  95  98
ATOM     98  OG  SER d   1      41.793  59.776  19.876  0.00  0.00    -0.398 OA
ATOM     99  H52 SER d   1      42.298  60.104  19.141  0.00  0.00     0.209 HD
ENDBRANCH  95  98
ENDBRANCH  74  95
ENDBRANCH  72  74
ENDBRANCH  68  70
BRANCH  68 100
ATOM    100  CB  PHE d   1      36.873  56.828  21.829  0.00  0.00    -0.014 C 
ATOM    101  H41 PHE d   1      36.577  57.772  21.348  0.00  0.00     0.043 H 
ATOM    102  H42 PHE d   1      36.681  56.892  22.910  0.00  0.00     0.043 H 
BRANCH 100 103
ATOM    103  CG  PHE d   1      36.038  55.729  21.266  0.00  0.00    -0.056 A 
ATOM    104  CD1 PHE d   1      35.606  55.793  19.970  0.00  0.00    -0.077 A 
ATOM    105  CE1 PHE d   1      34.843  54.769  19.416  0.00  0.00    -0.082 A 
ATOM    106  H43 PHE d   1      35.862  56.655  19.364  0.00  0.00     0.084 H 
ATOM    107  CZ  PHE d   1      34.504  53.677  20.184  0.00  0.00    -0.083 A 
ATOM    108  H45 PHE d   1      34.517  54.831  18.384  0.00  0.00     0.083 H 
ATOM    109  CE2 PHE d   1      34.924  53.601  21.486  0.00  0.00    -0.082 A 
ATOM    110  H47 PHE d   1      33.906  52.879  19.759  0.00  0.00     0.083 H 
ATOM    111  CD2 PHE d   1      35.698  54.628  22.028  0.00  0.00    -0.077 A 
ATOM    112  H46 PHE d   1      34.656  52.745  22.094  0.00  0.00     0.083 H 
ATOM    113  H44 PHE d   1      36.035  54.561  23.056  0.00  0.00     0.084 H 
ENDBRANCH 100 103
ENDBRANCH  68 100
ENDBRANCH  66  68
ENDBRANCH   1  64
BRANCH   1 114
ATOM    114  CB  GLN d   1      41.182  53.080  22.927  0.00  0.00    -0.030 C 
ATOM    115  H33 GLN d   1      41.564  52.786  21.938  0.00  0.00     0.037 H 
ATOM    116  H34 GLN d   1      41.421  52.295  23.660  0.00  0.00     0.037 H 
BRANCH 114 117
ATOM    117  CG  GLN d   1      41.878  54.365  23.351  0.00  0.00     0.011 C 
ATOM    118  H35 GLN d   1      41.273  54.840  24.137  0.00  0.00     0.047 H 
ATOM    119  H36 GLN d   1      41.931  55.031  22.477  0.00  0.00     0.047 H 
BRANCH 117 120
ATOM    120  CD  GLN d   1      43.298  54.173  23.892  0.00  0.00     0.215 C 
ATOM    121  OE1 GLN d   1      43.989  55.159  24.197  0.00  0.00    -0.274 OA
ATOM    122  NE2 GLN d   1      43.786  52.924  23.896  0.00  0.00    -0.370 N 
ATOM    123  H37 GLN d   1      44.709  52.749  24.240  0.00  0.00     0.159 HD
ATOM    124  H38 GLN d   1      43.227  52.168  23.555  0.00  0.00     0.159 HD
ENDBRANCH 117 120
ENDBRANCH 114 117
ENDBRANCH   1 114
TORSDOF 34
