REMARK  10 active torsions:
REMARK  status: ('A' for Active; 'I' for Inactive)
REMARK    1  A    between atoms: C17_17  and  C16_16 
REMARK    2  A    between atoms: C20_20  and  C18_18 
REMARK    3  A    between atoms: S37_37  and  C19_19 
REMARK       I    between atoms: N28_28  and  C20_20 
REMARK    4  A    between atoms: C21_21  and  N28_28 
REMARK    5  A    between atoms: C22_22  and  O34_34 
REMARK    6  A    between atoms: C23_23  and  O35_35 
REMARK    7  A    between atoms: C26_26  and  C24_24 
REMARK    8  A    between atoms: C25_25  and  O36_36 
REMARK    9  A    between atoms: N29_29  and  C26_26 
REMARK   10  A    between atoms: N29_29  and  S37_37 
ROOT
ATOM      1  C1  603 d   1      29.018   1.500 -62.624  0.00  0.00     0.099 C 
ATOM      2  C6  603 d   1      30.096   1.998 -60.487  0.00  0.00    -0.061 A 
ATOM      3  C7  603 d   1      30.736   3.215 -62.435  0.00  0.00    -0.061 A 
ATOM      4  C12 603 d   1      31.002   2.711 -59.724  0.00  0.00    -0.059 A 
ATOM      5  C13 603 d   1      31.649   3.932 -61.688  0.00  0.00    -0.059 A 
ATOM      6  C15 603 d   1      29.961   2.245 -61.838  0.00  0.00     0.044 A 
ATOM      7  C19 603 d   1      31.776   3.673 -60.336  0.00  0.00     0.079 A 
ATOM      8  N27 603 d   1      28.269   0.888 -63.269  0.00  0.00    -0.191 NA
ATOM      9  H5  603 d   1      29.484   1.236 -60.018  0.00  0.00     0.085 H 
ATOM     10  H6  603 d   1      30.628   3.416 -63.495  0.00  0.00     0.085 H 
ATOM     11  H11 603 d   1      31.102   2.517 -58.662  0.00  0.00     0.086 H 
ATOM     12  H12 603 d   1      32.262   4.693 -62.158  0.00  0.00     0.086 H 
ENDROOT
BRANCH   7  13
ATOM     13  S37 603 d   1      32.964   4.591 -59.363  0.00  0.00     0.258 S 
ATOM     14  O31 603 d   1      33.372   5.786 -60.075  0.00  0.00    -0.201 OA
ATOM     15  O32 603 d   1      32.475   4.635 -57.999  0.00  0.00    -0.201 OA
BRANCH  13  16
ATOM     16  N29 603 d   1      34.331   3.560 -59.404  0.00  0.00    -0.313 N 
ATOM     17  H22 603 d   1      34.550   2.938 -58.652  0.00  0.00     0.172 HD
BRANCH  16  18
ATOM     18  C26 603 d   1      35.162   3.646 -60.612  0.00  0.00     0.029 C 
ATOM     19  H19 603 d   1      34.780   4.430 -61.283  0.00  0.00     0.069 H 
ATOM     20  H20 603 d   1      36.205   3.871 -60.342  0.00  0.00     0.069 H 
BRANCH  18  21
ATOM     21  C24 603 d   1      35.074   2.295 -61.282  0.00  0.00     0.084 C 
ATOM     22  C23 603 d   1      34.792   2.523 -62.747  0.00  0.00     0.089 C 
ATOM     23  C22 603 d   1      34.665   1.187 -63.410  0.00  0.00     0.086 C 
ATOM     24  H16 603 d   1      33.867   3.107 -62.868  0.00  0.00     0.091 H 
ATOM     25  C21 603 d   1      33.426   0.563 -62.830  0.00  0.00     0.087 C 
ATOM     26  H15 603 d   1      35.551   0.559 -63.236  0.00  0.00     0.090 H 
ATOM     27  C25 603 d   1      33.607   0.425 -61.339  0.00  0.00     0.151 C 
ATOM     28  H14 603 d   1      32.545   1.186 -63.046  0.00  0.00     0.084 H 
ATOM     29  O33 603 d   1      33.940   1.658 -60.710  0.00  0.00    -0.350 OA
ATOM     30  H18 603 d   1      32.671   0.050 -60.899  0.00  0.00     0.132 H 
ATOM     31  H17 603 d   1      35.991   1.705 -61.137  0.00  0.00     0.090 H 
BRANCH  22  32
ATOM     32  O35 603 d   1      35.878   3.194 -63.356  0.00  0.00    -0.390 OA
ATOM     33  H24 603 d   1      36.009   4.033 -62.930  0.00  0.00     0.210 HD
ENDBRANCH  22  32
BRANCH  23  34
ATOM     34  O34 603 d   1      34.464   1.412 -64.790  0.00  0.00    -0.391 OA
ATOM     35  H23 603 d   1      34.380   0.578 -65.237  0.00  0.00     0.210 HD
ENDBRANCH  23  34
BRANCH  25  36
ATOM     36  N28 603 d   1      33.274  -0.730 -63.423  0.00  0.00    -0.345 N 
ATOM     37  C20 603 d   1      32.107  -1.394 -63.240  0.00  0.00     0.252 C 
ATOM     38  O30 603 d   1      31.264  -1.109 -62.411  0.00  0.00    -0.268 OA
ATOM     39  H21 603 d   1      34.013  -1.135 -63.961  0.00  0.00     0.163 HD
BRANCH  37  40
ATOM     40  C18 603 d   1      31.920  -2.495 -64.174  0.00  0.00     0.032 A 
ATOM     41  C11 603 d   1      31.416  -3.703 -63.749  0.00  0.00    -0.068 A 
ATOM     42  C5  603 d   1      31.257  -4.703 -64.688  0.00  0.00    -0.081 A 
ATOM     43  H10 603 d   1      31.152  -3.864 -62.710  0.00  0.00     0.085 H 
ATOM     44  C10 603 d   1      31.582  -4.488 -66.012  0.00  0.00    -0.072 A 
ATOM     45  H4  603 d   1      30.872  -5.669 -64.381  0.00  0.00     0.083 H 
ATOM     46  C17 603 d   1      32.076  -3.264 -66.425  0.00  0.00    -0.025 A 
ATOM     47  H9  603 d   1      31.449  -5.285 -66.734  0.00  0.00     0.084 H 
ATOM     48  C14 603 d   1      32.244  -2.265 -65.487  0.00  0.00    -0.057 A 
ATOM     49  H13 603 d   1      32.632  -1.299 -65.788  0.00  0.00     0.086 H 
BRANCH  46  50
ATOM     50  C16 603 d   1      32.381  -2.976 -67.820  0.00  0.00    -0.026 A 
ATOM     51  C8  603 d   1      32.315  -3.956 -68.794  0.00  0.00    -0.072 A 
ATOM     52  C3  603 d   1      32.602  -3.634 -70.101  0.00  0.00    -0.082 A 
ATOM     53  H7  603 d   1      32.039  -4.971 -68.530  0.00  0.00     0.084 H 
ATOM     54  C2  603 d   1      32.950  -2.341 -70.434  0.00  0.00    -0.083 A 
ATOM     55  H2  603 d   1      32.555  -4.397 -70.870  0.00  0.00     0.083 H 
ATOM     56  C4  603 d   1      33.018  -1.344 -69.487  0.00  0.00    -0.082 A 
ATOM     57  H1  603 d   1      33.176  -2.104 -71.468  0.00  0.00     0.083 H 
ATOM     58  C9  603 d   1      32.729  -1.682 -68.183  0.00  0.00    -0.072 A 
ATOM     59  H3  603 d   1      33.289  -0.330 -69.757  0.00  0.00     0.083 H 
ATOM     60  H8  603 d   1      32.775  -0.915 -67.418  0.00  0.00     0.084 H 
ENDBRANCH  46  50
ENDBRANCH  37  40
ENDBRANCH  25  36
BRANCH  27  61
ATOM     61  O36 603 d   1      34.638  -0.510 -61.120  0.00  0.00    -0.369 OA
ATOM     62  H25 603 d   1      34.744  -0.650 -60.186  0.00  0.00     0.212 HD
ENDBRANCH  27  61
ENDBRANCH  18  21
ENDBRANCH  16  18
ENDBRANCH  13  16
ENDBRANCH   7  13
TORSDOF 10
