REMARK  8 active torsions:
REMARK  status: ('A' for Active; 'I' for Inactive)
REMARK    1  A    between atoms: C4_1  and  O4_22 
REMARK    2  A    between atoms: C5_2  and  C6_3 
REMARK    3  A    between atoms: C6_3  and  O6_24 
REMARK    4  A    between atoms: C8_4  and  C10_5 
REMARK       I    between atoms: N7_16  and  C8_4 
REMARK    5  A    between atoms: C11_14  and  C12_13 
REMARK    6  A    between atoms: C2_17  and  N7_16 
REMARK    7  A    between atoms: C1_18  and  O1_19 
REMARK    8  A    between atoms: C3_20  and  O3_21 
ROOT
ATOM      1  C4  62C d   1      66.463 -49.397 -72.139  0.00  0.00     0.089 C 
ATOM      2  C5  62C d   1      65.948 -49.413 -70.698  0.00  0.00     0.089 C 
ATOM      3  C2  62C d   1      67.301 -47.086 -71.665  0.00  0.00     0.087 C 
ATOM      4  C1  62C d   1      66.746 -47.252 -70.256  0.00  0.00     0.151 C 
ATOM      5  C3  62C d   1      66.543 -47.969 -72.650  0.00  0.00     0.086 C 
ATOM      6  O5  62C d   1      66.798 -48.590 -69.893  0.00  0.00    -0.349 OA
ATOM      7  H1  62C d   1      67.470 -49.840 -72.158  0.00  0.00     0.091 H 
ATOM      8  H2  62C d   1      64.920 -49.023 -70.686  0.00  0.00     0.090 H 
ATOM      9  H11 62C d   1      68.355 -47.400 -71.659  0.00  0.00     0.084 H 
ATOM     10  H12 62C d   1      67.368 -46.677 -69.554  0.00  0.00     0.132 H 
ATOM     11  H14 62C d   1      65.524 -47.577 -72.786  0.00  0.00     0.090 H 
ENDROOT
BRANCH   3  12
ATOM     12  N7  62C d   1      67.241 -45.700 -72.082  0.00  0.00    -0.346 N 
ATOM     13  C8  62C d   1      68.066 -44.823 -71.515  0.00  0.00     0.241 C 
ATOM     14  O9  62C d   1      68.918 -45.168 -70.679  0.00  0.00    -0.269 OA
ATOM     15  H10 62C d   1      66.591 -45.407 -72.784  0.00  0.00     0.163 HD
BRANCH  13  16
ATOM     16  C10 62C d   1      67.972 -43.467 -72.048  0.00  0.00    -0.017 C 
ATOM     17  C11 62C d   1      68.417 -42.413 -71.390  0.00  0.00    -0.068 C 
ATOM     18  H9  62C d   1      68.793 -42.553 -70.377  0.00  0.00     0.085 H 
ATOM     19  H5  62C d   1      67.517 -43.319 -73.026  0.00  0.00     0.092 H 
BRANCH  17  20
ATOM     20  C12 62C d   1      68.428 -41.065 -71.960  0.00  0.00    -0.034 A 
ATOM     21  C13 62C d   1      67.873 -40.818 -73.217  0.00  0.00    -0.071 A 
ATOM     22  C14 62C d   1      67.941 -39.564 -73.794  0.00  0.00    -0.059 A 
ATOM     23  H6  62C d   1      67.380 -41.623 -73.749  0.00  0.00     0.084 H 
ATOM     24  C15 62C d   1      68.589 -38.543 -73.125  0.00  0.00     0.055 A 
ATOM     25  H8  62C d   1      67.490 -39.383 -74.763  0.00  0.00     0.086 H 
ATOM     26  C16 62C d   1      69.171 -38.781 -71.891  0.00  0.00     0.056 A 
ATOM     27 CL2  62C d   1      68.655 -36.967 -73.844  0.00  0.00    -0.083 Cl
ATOM     28  C17 62C d   1      69.111 -40.036 -71.316  0.00  0.00    -0.050 A 
ATOM     29 CL1  62C d   1      69.987 -37.522 -71.052  0.00  0.00    -0.083 Cl
ATOM     30  H7  62C d   1      69.595 -40.220 -70.364  0.00  0.00     0.087 H 
ENDBRANCH  17  20
ENDBRANCH  13  16
ENDBRANCH   3  12
BRANCH   4  31
ATOM     31  O1  62C d   1      65.455 -46.743 -70.221  0.00  0.00    -0.369 OA
ATOM     32  H13 62C d   1      65.109 -46.822 -69.340  0.00  0.00     0.212 HD
ENDBRANCH   4  31
BRANCH   5  33
ATOM     33  O3  62C d   1      67.235 -47.937 -73.884  0.00  0.00    -0.391 OA
ATOM     34  H15 62C d   1      67.270 -47.043 -74.203  0.00  0.00     0.210 HD
ENDBRANCH   5  33
BRANCH   1  35
ATOM     35  O4  62C d   1      65.613 -50.157 -72.988  0.00  0.00    -0.390 OA
ATOM     36  H16 62C d   1      65.564 -51.050 -72.668  0.00  0.00     0.210 HD
ENDBRANCH   1  35
BRANCH   2  37
ATOM     37  C6  62C d   1      65.967 -50.783 -70.066  0.00  0.00     0.043 C 
ATOM     38  H3  62C d   1      65.278 -51.445 -70.611  0.00  0.00     0.078 H 
ATOM     39  H4  62C d   1      65.646 -50.704 -69.017  0.00  0.00     0.078 H 
BRANCH  37  40
ATOM     40  O6  62C d   1      67.275 -51.325 -70.116  0.00  0.00    -0.398 OA
ATOM     41  H17 62C d   1      67.275 -52.187 -69.716  0.00  0.00     0.209 HD
ENDBRANCH  37  40
ENDBRANCH   2  37
TORSDOF 8
