REMARK  9 active torsions:
REMARK  status: ('A' for Active; 'I' for Inactive)
REMARK    1  A    between atoms: C15_5  and  N17_21 
REMARK    2  A    between atoms: C19_23  and  C20_6 
REMARK    3  A    between atoms: C26_8  and  N29_29 
REMARK    4  A    between atoms: N22_25  and  C1_10 
REMARK    5  A    between atoms: C3_12  and  O10_16 
REMARK    6  A    between atoms: O10_16  and  C11_17 
REMARK       I    between atoms: N17_21  and  C18_22 
REMARK    7  A    between atoms: C18_22  and  C19_23 
REMARK    8  A    between atoms: N22_25  and  C23_26 
REMARK    9  A    between atoms: N32_32  and  C35_35 
ROOT
ATOM      1  C4  633 d   1       9.994  -3.927 -33.549  0.00  0.00     0.066 A 
ATOM      2  C5  633 d   1       9.693  -2.567 -33.721  0.00  0.00     0.161 A 
ATOM      3  C8  633 d   1       7.781  -3.708 -33.805  0.00  0.00    -0.020 A 
ATOM      4  C1  633 d   1      11.875  -1.898 -33.557  0.00  0.00     0.731 A 
ATOM      5  N2  633 d   1      12.260  -3.194 -33.377  0.00  0.00    -0.037 NA
ATOM      6  C3  633 d   1      11.352  -4.223 -33.372  0.00  0.00     0.203 A 
ATOM      7  N6  633 d   1      10.570  -1.522 -33.738  0.00  0.00    -0.044 NA
ATOM      8  N7  633 d   1       8.344  -2.458 -33.873  0.00  0.00    -0.349 N 
ATOM      9  C9  633 d   1       8.779  -4.639 -33.606  0.00  0.00    -0.050 A 
ATOM     10  H1  633 d   1       6.718  -3.929 -33.894  0.00  0.00     0.111 H 
ATOM     11  H8  633 d   1       7.828  -1.578 -34.016  0.00  0.00     0.166 HD
ATOM     12  H9  633 d   1       8.653  -5.716 -33.511  0.00  0.00     0.087 H 
ENDROOT
BRANCH   4  13
ATOM     13  N22 633 d   1      12.845  -0.877 -33.559  0.00  0.00    -0.188 N 
ATOM     14  H16 633 d   1      12.459   0.063 -33.727  0.00  0.00     0.184 HD
BRANCH  13  15
ATOM     15  C23 633 d   1      14.248  -0.894 -33.374  0.00  0.00     0.049 A 
ATOM     16  C24 633 d   1      15.014  -2.066 -33.095  0.00  0.00    -0.055 A 
ATOM     17  C25 633 d   1      16.421  -2.012 -32.896  0.00  0.00    -0.060 A 
ATOM     18  H6  633 d   1      14.509  -3.023 -33.033  0.00  0.00     0.087 H 
ATOM     19  C26 633 d   1      17.142  -0.771 -32.970  0.00  0.00     0.010 A 
ATOM     20  H17 633 d   1      16.962  -2.927 -32.684  0.00  0.00     0.086 H 
ATOM     21  C27 633 d   1      16.357   0.403 -33.262  0.00  0.00    -0.060 A 
ATOM     22  C28 633 d   1      14.951   0.338 -33.455  0.00  0.00    -0.055 A 
ATOM     23  H18 633 d   1      16.854   1.363 -33.336  0.00  0.00     0.086 H 
ATOM     24  H7  633 d   1      14.403   1.248 -33.669  0.00  0.00     0.087 H 
BRANCH  19  25
ATOM     25  N29 633 d   1      18.559  -0.644 -32.768  0.00  0.00    -0.280 NA
ATOM     26  C30 633 d   1      19.374  -1.898 -32.763  0.00  0.00     0.006 C 
ATOM     27  C31 633 d   1      20.867  -1.569 -32.653  0.00  0.00     0.094 C 
ATOM     28  H19 633 d   1      19.193  -2.451 -33.697  0.00  0.00     0.058 H 
ATOM     29  H20 633 d   1      19.076  -2.519 -31.906  0.00  0.00     0.058 H 
ATOM     30  N32 633 d   1      21.111  -0.735 -31.407  0.00  0.00    -0.073 N 
ATOM     31  H21 633 d   1      21.184  -1.003 -33.541  0.00  0.00     0.077 H 
ATOM     32  H22 633 d   1      21.445  -2.503 -32.588  0.00  0.00     0.077 H 
ATOM     33  C33 633 d   1      20.287   0.535 -31.398  0.00  0.00     0.094 C 
ATOM     34  H23 633 d   1      20.841  -1.287 -30.608  0.00  0.00     0.279 HD
ATOM     35  C34 633 d   1      18.807   0.172 -31.523  0.00  0.00     0.006 C 
ATOM     36  H24 633 d   1      20.583   1.172 -32.245  0.00  0.00     0.077 H 
ATOM     37  H25 633 d   1      20.455   1.077 -30.455  0.00  0.00     0.077 H 
ATOM     38  H26 633 d   1      18.503  -0.413 -30.642  0.00  0.00     0.058 H 
ATOM     39  H27 633 d   1      18.212   1.096 -31.573  0.00  0.00     0.058 H 
BRANCH  30  40
ATOM     40  C35 633 d   1      22.571  -0.400 -31.278  0.00  0.00     0.066 C 
ATOM     41  H28 633 d   1      23.162  -1.328 -31.285  0.00  0.00     0.068 H 
ATOM     42  H29 633 d   1      22.742   0.136 -30.333  0.00  0.00     0.068 H 
ATOM     43  H30 633 d   1      22.877   0.236 -32.121  0.00  0.00     0.068 H 
ENDBRANCH  30  40
ENDBRANCH  19  25
ENDBRANCH  13  15
ENDBRANCH   4  13
BRANCH   6  44
ATOM     44  O10 633 d   1      11.766  -5.544 -33.193  0.00  0.00    -0.291 OA
BRANCH  44  45
ATOM     45  C11 633 d   1      13.069  -5.734 -32.780  0.00  0.00     0.080 A 
ATOM     46  C12 633 d   1      14.145  -5.719 -33.712  0.00  0.00    -0.050 A 
ATOM     47  C13 633 d   1      15.469  -5.914 -33.248  0.00  0.00    -0.078 A 
ATOM     48  H10 633 d   1      13.953  -5.560 -34.767  0.00  0.00     0.087 H 
ATOM     49  C14 633 d   1      15.717  -6.121 -31.860  0.00  0.00    -0.057 A 
ATOM     50  H2  633 d   1      16.295  -5.906 -33.950  0.00  0.00     0.083 H 
ATOM     51  C15 633 d   1      14.632  -6.136 -30.923  0.00  0.00     0.037 A 
ATOM     52  H11 633 d   1      16.733  -6.268 -31.510  0.00  0.00     0.086 H 
ATOM     53  C16 633 d   1      13.310  -5.942 -31.398  0.00  0.00    -0.025 A 
ATOM     54  H12 633 d   1      12.480  -5.953 -30.701  0.00  0.00     0.091 H 
BRANCH  51  55
ATOM     55  N17 633 d   1      14.759  -6.331 -29.516  0.00  0.00    -0.327 N 
ATOM     56  C18 633 d   1      15.903  -6.523 -28.763  0.00  0.00     0.221 C 
ATOM     57  O21 633 d   1      17.068  -6.360 -29.127  0.00  0.00    -0.273 OA
ATOM     58  H13 633 d   1      13.901  -6.329 -29.002  0.00  0.00     0.169 HD
BRANCH  56  59
ATOM     59  C19 633 d   1      15.569  -6.966 -27.349  0.00  0.00     0.006 C 
ATOM     60  H14 633 d   1      14.500  -6.776 -27.171  0.00  0.00     0.046 H 
ATOM     61  H15 633 d   1      15.768  -8.045 -27.269  0.00  0.00     0.046 H 
BRANCH  59  62
ATOM     62  C20 633 d   1      16.368  -6.251 -26.271  0.00  0.00    -0.068 C 
ATOM     63  H3  633 d   1      16.068  -6.627 -25.282  0.00  0.00     0.028 H 
ATOM     64  H4  633 d   1      16.173  -5.170 -26.326  0.00  0.00     0.028 H 
ATOM     65  H5  633 d   1      17.441  -6.439 -26.425  0.00  0.00     0.028 H 
ENDBRANCH  59  62
ENDBRANCH  56  59
ENDBRANCH  51  55
ENDBRANCH  44  45
ENDBRANCH   6  44
TORSDOF 9
