REMARK  10 active torsions:
REMARK  status: ('A' for Active; 'I' for Inactive)
REMARK    1  A    between atoms: C2_13  and  N1_1 
REMARK    2  A    between atoms: N1_1  and  C25_26 
REMARK    3  A    between atoms: O12_18  and  C4_3 
REMARK    4  A    between atoms: C13_7  and  O12_18 
REMARK    5  A    between atoms: C14_19  and  C13_7 
REMARK    6  A    between atoms: C15_8  and  O23_25 
REMARK    7  A    between atoms: C20_9  and  C21_10 
REMARK    8  A    between atoms: C19_23  and  C20_9 
REMARK    9  A    between atoms: O23_25  and  C24_11 
REMARK       I    between atoms: N17_21  and  C19_23 
REMARK   10  A    between atoms: N27_27  and  C30_30 
ROOT
ATOM      1  C13 630 d   1     -14.277  16.187 -26.804  0.00  0.00     0.035 C 
ATOM      2  H2  630 d   1     -13.682  15.803 -25.962  0.00  0.00     0.076 H 
ATOM      3  H3  630 d   1     -15.065  15.463 -27.056  0.00  0.00     0.076 H 
ENDROOT
BRANCH   1   4
ATOM      4  O12 630 d   1     -13.408  16.339 -27.950  0.00  0.00    -0.333 OA
BRANCH   4   5
ATOM      5  C4  630 d   1     -12.840  15.113 -28.314  0.00  0.00     0.199 A 
ATOM      6  N3  630 d   1     -13.474  13.945 -27.963  0.00  0.00    -0.037 NA
ATOM      7  C2  630 d   1     -12.971  12.719 -28.290  0.00  0.00     0.731 A 
ATOM      8  N7  630 d   1     -11.805  12.551 -28.991  0.00  0.00    -0.044 NA
ATOM      9  C6  630 d   1     -11.186  13.728 -29.331  0.00  0.00     0.163 A 
ATOM     10  C5  630 d   1     -11.623  15.034 -29.039  0.00  0.00     0.087 A 
ATOM     11  N8  630 d   1     -10.010  13.830 -30.029  0.00  0.00    -0.348 N 
ATOM     12  C10 630 d   1     -10.664  15.917 -29.586  0.00  0.00     0.067 A 
ATOM     13  C9  630 d   1      -9.683  15.155 -30.190  0.00  0.00     0.001 A 
ATOM     14 CL1  630 d   1     -10.724  17.615 -29.502  0.00  0.00    -0.082 Cl
ATOM     15  H15 630 d   1      -8.803  15.538 -30.705  0.00  0.00     0.114 H 
ATOM     16  H14 630 d   1      -9.457  13.035 -30.379  0.00  0.00     0.167 HD
BRANCH   7  17
ATOM     17  N1  630 d   1     -13.681  11.555 -27.885  0.00  0.00    -0.185 N 
ATOM     18  H1  630 d   1     -13.250  10.664 -28.171  0.00  0.00     0.184 HD
BRANCH  17  19
ATOM     19  C25 630 d   1     -14.846  11.429 -27.176  0.00  0.00     0.085 A 
ATOM     20  C26 630 d   1     -15.435  10.234 -26.842  0.00  0.00     0.026 A 
ATOM     21  N27 630 d   1     -16.561  10.551 -26.136  0.00  0.00    -0.283 N 
ATOM     22  H13 630 d   1     -15.077   9.236 -27.090  0.00  0.00     0.117 H 
ATOM     23  N28 630 d   1     -16.754  11.866 -25.985  0.00  0.00    -0.183 NA
ATOM     24  C29 630 d   1     -15.710  12.399 -26.618  0.00  0.00     0.049 A 
ATOM     25  H21 630 d   1     -15.540  13.472 -26.698  0.00  0.00     0.121 H 
BRANCH  21  26
ATOM     26  C30 630 d   1     -17.516   9.633 -25.566  0.00  0.00     0.002 C 
ATOM     27  H22 630 d   1     -18.311  10.199 -25.059  0.00  0.00     0.059 H 
ATOM     28  H23 630 d   1     -17.009   8.981 -24.839  0.00  0.00     0.059 H 
ATOM     29  H24 630 d   1     -17.956   9.018 -26.365  0.00  0.00     0.059 H 
ENDBRANCH  21  26
ENDBRANCH  17  19
ENDBRANCH   7  17
ENDBRANCH   4   5
ENDBRANCH   1   4
BRANCH   1  30
ATOM     30  C14 630 d   1     -14.940  17.496 -26.373  0.00  0.00     0.009 C 
ATOM     31  C15 630 d   1     -14.003  18.676 -26.082  0.00  0.00     0.060 C 
ATOM     32  C16 630 d   1     -13.609  18.433 -24.615  0.00  0.00     0.022 C 
ATOM     33  H4  630 d   1     -13.126  18.704 -26.745  0.00  0.00     0.086 H 
ATOM     34  N17 630 d   1     -14.788  17.772 -24.024  0.00  0.00    -0.349 N 
ATOM     35  H17 630 d   1     -13.400  19.385 -24.105  0.00  0.00     0.068 H 
ATOM     36  H18 630 d   1     -12.725  17.782 -24.552  0.00  0.00     0.068 H 
ATOM     37  C18 630 d   1     -15.708  17.317 -25.066  0.00  0.00     0.005 C 
ATOM     38  C19 630 d   1     -15.070  17.569 -22.664  0.00  0.00     0.219 C 
ATOM     39  H19 630 d   1     -15.973  16.260 -24.914  0.00  0.00     0.065 H 
ATOM     40  H20 630 d   1     -16.623  17.927 -25.068  0.00  0.00     0.065 H 
ATOM     41  O22 630 d   1     -16.105  17.017 -22.273  0.00  0.00    -0.273 OA
ATOM     42  H16 630 d   1     -15.634  17.788 -27.175  0.00  0.00     0.049 H 
BRANCH  31  43
ATOM     43  O23 630 d   1     -14.801  19.869 -26.220  0.00  0.00    -0.389 OA
BRANCH  43  44
ATOM     44  C24 630 d   1     -14.064  21.084 -26.201  0.00  0.00     0.005 C 
ATOM     45  H10 630 d   1     -14.754  21.933 -26.312  0.00  0.00     0.066 H 
ATOM     46  H11 630 d   1     -13.342  21.088 -27.031  0.00  0.00     0.066 H 
ATOM     47  H12 630 d   1     -13.526  21.171 -25.246  0.00  0.00     0.066 H 
ENDBRANCH  43  44
ENDBRANCH  31  43
BRANCH  38  48
ATOM     48  C20 630 d   1     -14.017  18.084 -21.678  0.00  0.00     0.006 C 
ATOM     49  H5  630 d   1     -13.021  17.875 -22.096  0.00  0.00     0.046 H 
ATOM     50  H6  630 d   1     -14.148  19.171 -21.569  0.00  0.00     0.046 H 
BRANCH  48  51
ATOM     51  C21 630 d   1     -14.099  17.450 -20.295  0.00  0.00    -0.068 C 
ATOM     52  H7  630 d   1     -13.313  17.872 -19.651  0.00  0.00     0.028 H 
ATOM     53  H8  630 d   1     -13.958  16.363 -20.381  0.00  0.00     0.028 H 
ATOM     54  H9  630 d   1     -15.085  17.658 -19.854  0.00  0.00     0.028 H 
ENDBRANCH  48  51
ENDBRANCH  38  48
ENDBRANCH   1  30
TORSDOF 10
