REMARK  8 active torsions:
REMARK  status: ('A' for Active; 'I' for Inactive)
REMARK    1  A    between atoms: C15_5  and  N17_21 
REMARK    2  A    between atoms: C20_6  and  C21_7 
REMARK    3  A    between atoms: C18_22  and  C20_6 
REMARK    4  A    between atoms: N25_26  and  C28_9 
REMARK    5  A    between atoms: N22_24  and  C1_10 
REMARK    6  A    between atoms: C3_12  and  O10_16 
REMARK    7  A    between atoms: O10_16  and  C11_17 
REMARK       I    between atoms: N17_21  and  C18_22 
REMARK    8  A    between atoms: N22_24  and  C23_25 
ROOT
ATOM      1  C4  634 d   1      10.096  -4.018 -33.480  0.00  0.00     0.066 A 
ATOM      2  C5  634 d   1       9.809  -2.652 -33.604  0.00  0.00     0.161 A 
ATOM      3  C8  634 d   1       7.879  -3.776 -33.738  0.00  0.00    -0.020 A 
ATOM      4  C1  634 d   1      12.002  -2.008 -33.403  0.00  0.00     0.731 A 
ATOM      5  N2  634 d   1      12.373  -3.314 -33.274  0.00  0.00    -0.037 NA
ATOM      6  C3  634 d   1      11.453  -4.331 -33.308  0.00  0.00     0.203 A 
ATOM      7  N6  634 d   1      10.700  -1.613 -33.576  0.00  0.00    -0.044 NA
ATOM      8  N7  634 d   1       8.459  -2.530 -33.759  0.00  0.00    -0.349 N 
ATOM      9  C9  634 d   1       8.866  -4.720 -33.567  0.00  0.00    -0.050 A 
ATOM     10  H1  634 d   1       6.815  -3.982 -33.840  0.00  0.00     0.111 H 
ATOM     11  H12 634 d   1       7.952  -1.641 -33.874  0.00  0.00     0.166 HD
ATOM     12  H13 634 d   1       8.729  -5.799 -33.510  0.00  0.00     0.087 H 
ENDROOT
BRANCH   6  13
ATOM     13  O10 634 d   1      11.856  -5.658 -33.171  0.00  0.00    -0.291 OA
BRANCH  13  14
ATOM     14  C11 634 d   1      13.159  -5.881 -32.774  0.00  0.00     0.080 A 
ATOM     15  C12 634 d   1      14.225  -5.871 -33.720  0.00  0.00    -0.050 A 
ATOM     16  C13 634 d   1      15.547  -6.106 -33.267  0.00  0.00    -0.078 A 
ATOM     17  H14 634 d   1      14.027  -5.686 -34.770  0.00  0.00     0.087 H 
ATOM     18  C14 634 d   1      15.806  -6.351 -31.887  0.00  0.00    -0.057 A 
ATOM     19  H2  634 d   1      16.367  -6.099 -33.975  0.00  0.00     0.083 H 
ATOM     20  C15 634 d   1      14.731  -6.361 -30.938  0.00  0.00     0.037 A 
ATOM     21  H15 634 d   1      16.821  -6.531 -31.553  0.00  0.00     0.086 H 
ATOM     22  C16 634 d   1      13.409  -6.124 -31.396  0.00  0.00    -0.025 A 
ATOM     23  H16 634 d   1      12.585  -6.128 -30.691  0.00  0.00     0.091 H 
BRANCH  20  24
ATOM     24  N17 634 d   1      14.862  -6.605 -29.542  0.00  0.00    -0.327 N 
ATOM     25  C18 634 d   1      15.991  -6.536 -28.733  0.00  0.00     0.221 C 
ATOM     26  O19 634 d   1      17.138  -6.238 -29.068  0.00  0.00    -0.273 OA
ATOM     27  H17 634 d   1      14.017  -6.864 -29.074  0.00  0.00     0.169 HD
BRANCH  25  28
ATOM     28  C20 634 d   1      15.603  -6.906 -27.303  0.00  0.00     0.006 C 
ATOM     29  H3  634 d   1      14.553  -6.616 -27.147  0.00  0.00     0.046 H 
ATOM     30  H4  634 d   1      15.702  -7.996 -27.193  0.00  0.00     0.046 H 
BRANCH  28  31
ATOM     31  C21 634 d   1      16.440  -6.245 -26.226  0.00  0.00    -0.068 C 
ATOM     32  H5  634 d   1      16.088  -6.571 -25.236  0.00  0.00     0.028 H 
ATOM     33  H6  634 d   1      16.346  -5.152 -26.307  0.00  0.00     0.028 H 
ATOM     34  H7  634 d   1      17.494  -6.532 -26.353  0.00  0.00     0.028 H 
ENDBRANCH  28  31
ENDBRANCH  25  28
ENDBRANCH  20  24
ENDBRANCH  13  14
ENDBRANCH   6  13
BRANCH   4  35
ATOM     35  N22 634 d   1      13.006  -1.007 -33.357  0.00  0.00    -0.185 N 
ATOM     36  H18 634 d   1      12.668  -0.040 -33.464  0.00  0.00     0.184 HD
BRANCH  35  37
ATOM     37  C23 634 d   1      14.362  -1.140 -33.191  0.00  0.00     0.085 A 
ATOM     38  C24 634 d   1      15.130  -2.277 -33.021  0.00  0.00     0.026 A 
ATOM     39  N25 634 d   1      16.415  -1.863 -32.901  0.00  0.00    -0.283 N 
ATOM     40  H8  634 d   1      14.772  -3.305 -32.990  0.00  0.00     0.117 H 
ATOM     41  N26 634 d   1      16.557  -0.530 -32.978  0.00  0.00    -0.183 NA
ATOM     42  C27 634 d   1      15.304  -0.092 -33.155  0.00  0.00     0.049 A 
ATOM     43  H19 634 d   1      15.041   0.960 -33.260  0.00  0.00     0.121 H 
BRANCH  39  44
ATOM     44  C28 634 d   1      17.568  -2.708 -32.707  0.00  0.00     0.002 C 
ATOM     45  H9  634 d   1      18.473  -2.085 -32.646  0.00  0.00     0.059 H 
ATOM     46  H10 634 d   1      17.659  -3.405 -33.553  0.00  0.00     0.059 H 
ATOM     47  H11 634 d   1      17.452  -3.278 -31.774  0.00  0.00     0.059 H 
ENDBRANCH  39  44
ENDBRANCH  35  37
ENDBRANCH   4  35
TORSDOF 8
