REMARK  9 active torsions:
REMARK  status: ('A' for Active; 'I' for Inactive)
REMARK       I    between atoms: N3_1  and  C10_5 
REMARK    1  A    between atoms: C5_3  and  C6_4 
REMARK    2  A    between atoms: C10_5  and  C11_15 
REMARK    3  A    between atoms: N25_26  and  C26_9 
REMARK    4  A    between atoms: C14_18  and  C1_10 
REMARK    5  A    between atoms: C11_15  and  C12_16 
REMARK    6  A    between atoms: O15_19  and  C14_18 
REMARK    7  A    between atoms: C16_20  and  O15_19 
REMARK    8  A    between atoms: C18_22  and  N25_26 
REMARK    9  A    between atoms: N28_28  and  C31_31 
ROOT
ATOM      1  C14 63A d   1     -13.271  17.130 -26.801  0.00  0.00     0.033 C 
ATOM      2  H13 63A d   1     -13.441  16.137 -26.359  0.00  0.00     0.075 H 
ATOM      3  H14 63A d   1     -12.328  17.545 -26.417  0.00  0.00     0.075 H 
ENDROOT
BRANCH   1   4
ATOM      4  C1  63A d   1     -14.424  18.057 -26.426  0.00  0.00    -0.004 C 
ATOM      5  C5  63A d   1     -13.870  19.420 -25.961  0.00  0.00     0.062 C 
ATOM      6  C4  63A d   1     -13.697  19.271 -24.435  0.00  0.00     0.009 C 
ATOM      7  H3  63A d   1     -12.891  19.604 -26.428  0.00  0.00     0.056 H 
ATOM      8  N3  63A d   1     -14.517  18.110 -24.045  0.00  0.00    -0.351 N 
ATOM      9  H1  63A d   1     -12.640  19.094 -24.186  0.00  0.00     0.065 H 
ATOM     10  H2  63A d   1     -14.048  20.177 -23.920  0.00  0.00     0.065 H 
ATOM     11  C10 63A d   1     -14.703  17.567 -22.761  0.00  0.00     0.219 C 
ATOM     12  C2  63A d   1     -15.176  17.524 -25.201  0.00  0.00     0.004 C 
ATOM     13  O13 63A d   1     -15.427  16.584 -22.554  0.00  0.00    -0.273 OA
ATOM     14  H6  63A d   1     -16.232  17.831 -25.236  0.00  0.00     0.065 H 
ATOM     15  H7  63A d   1     -15.114  16.427 -25.162  0.00  0.00     0.065 H 
ATOM     16  H5  63A d   1     -15.102  18.175 -27.284  0.00  0.00     0.046 H 
BRANCH   5  17
ATOM     17  C6  63A d   1     -14.815  20.586 -26.340  0.00  0.00     0.393 C 
ATOM     18  F7  63A d   1     -14.957  20.671 -27.684  0.00  0.00    -0.171 F 
ATOM     19  F8  63A d   1     -16.058  20.458 -25.819  0.00  0.00    -0.171 F 
ATOM     20  F9  63A d   1     -14.313  21.773 -25.924  0.00  0.00    -0.171 F 
ENDBRANCH   5  17
BRANCH  11  21
ATOM     21  C11 63A d   1     -13.956  18.263 -21.620  0.00  0.00     0.006 C 
ATOM     22  H8  63A d   1     -14.398  19.261 -21.480  0.00  0.00     0.046 H 
ATOM     23  H9  63A d   1     -12.901  18.367 -21.914  0.00  0.00     0.046 H 
BRANCH  21  24
ATOM     24  C12 63A d   1     -14.006  17.529 -20.282  0.00  0.00    -0.068 C 
ATOM     25  H10 63A d   1     -13.445  18.102 -19.529  0.00  0.00     0.028 H 
ATOM     26  H11 63A d   1     -13.556  16.531 -20.394  0.00  0.00     0.028 H 
ATOM     27  H12 63A d   1     -15.053  17.425 -19.959  0.00  0.00     0.028 H 
ENDBRANCH  21  24
ENDBRANCH  11  21
ENDBRANCH   1   4
BRANCH   1  28
ATOM     28  O15 63A d   1     -13.194  17.010 -28.240  0.00  0.00    -0.333 OA
BRANCH  28  29
ATOM     29  C16 63A d   1     -12.665  15.772 -28.574  0.00  0.00     0.197 A 
ATOM     30  C21 63A d   1     -11.468  15.622 -29.312  0.00  0.00     0.065 A 
ATOM     31  C20 63A d   1     -11.086  14.285 -29.555  0.00  0.00     0.161 A 
ATOM     32  C22 63A d   1     -10.487  16.452 -29.910  0.00  0.00    -0.050 A 
ATOM     33  N19 63A d   1     -11.746  13.151 -29.154  0.00  0.00    -0.044 NA
ATOM     34  N24 63A d   1      -9.924  14.313 -30.272  0.00  0.00    -0.349 N 
ATOM     35  C18 63A d   1     -12.895  13.394 -28.442  0.00  0.00     0.731 A 
ATOM     36  N17 63A d   1     -13.346  14.654 -28.158  0.00  0.00    -0.037 NA
ATOM     37  C23 63A d   1      -9.546  15.619 -30.496  0.00  0.00    -0.020 A 
ATOM     38  H16 63A d   1      -9.408  13.483 -30.596  0.00  0.00     0.166 HD
ATOM     39  H15 63A d   1      -8.660  15.942 -31.040  0.00  0.00     0.111 H 
ATOM     40  H4  63A d   1     -10.475  17.541 -29.909  0.00  0.00     0.087 H 
BRANCH  35  41
ATOM     41  N25 63A d   1     -13.644  12.280 -27.976  0.00  0.00    -0.185 N 
ATOM     42  H17 63A d   1     -13.253  11.360 -28.223  0.00  0.00     0.184 HD
BRANCH  41  43
ATOM     43  C26 63A d   1     -14.805  12.238 -27.249  0.00  0.00     0.085 A 
ATOM     44  C27 63A d   1     -15.432  11.079 -26.855  0.00  0.00     0.026 A 
ATOM     45  N28 63A d   1     -16.535  11.470 -26.155  0.00  0.00    -0.283 N 
ATOM     46  H18 63A d   1     -15.113  10.058 -27.060  0.00  0.00     0.117 H 
ATOM     47  N29 63A d   1     -16.681  12.802 -26.062  0.00  0.00    -0.183 NA
ATOM     48  C30 63A d   1     -15.627  13.270 -26.729  0.00  0.00     0.049 A 
ATOM     49  H19 63A d   1     -15.419  14.331 -26.861  0.00  0.00     0.121 H 
BRANCH  45  50
ATOM     50  C31 63A d   1     -17.515  10.615 -25.532  0.00  0.00     0.002 C 
ATOM     51  H20 63A d   1     -18.284  11.233 -25.044  0.00  0.00     0.059 H 
ATOM     52  H21 63A d   1     -17.023   9.981 -24.780  0.00  0.00     0.059 H 
ATOM     53  H22 63A d   1     -17.986   9.979 -26.296  0.00  0.00     0.059 H 
ENDBRANCH  45  50
ENDBRANCH  41  43
ENDBRANCH  35  41
ENDBRANCH  28  29
ENDBRANCH   1  28
TORSDOF 9
