REMARK  7 active torsions:
REMARK  status: ('A' for Active; 'I' for Inactive)
REMARK    1  A    between atoms: C10_10  and  C19_19 
REMARK    2  A    between atoms: C11_12  and  O2_23 
REMARK    3  A    between atoms: C13_13  and  C18_18 
REMARK    4  A    between atoms: C17_17  and  C20_20 
REMARK    5  A    between atoms: C17_17  and  O3_24 
REMARK    6  A    between atoms: C20_20  and  C21_21 
REMARK    7  A    between atoms: C21_21  and  O5_26 
ROOT
ATOM      1  C1  HCY d   1      25.783  58.160  27.768  0.00  0.00    -0.048 C 
ATOM      2  C2  HCY d   1      25.133  59.432  27.230  0.00  0.00    -0.005 C 
ATOM      3  C3  HCY d   1      24.396  60.191  28.310  0.00  0.00     0.149 C 
ATOM      4  C4  HCY d   1      24.620  59.880  29.742  0.00  0.00    -0.036 C 
ATOM      5  C5  HCY d   1      25.701  59.180  30.106  0.00  0.00    -0.068 C 
ATOM      6  C6  HCY d   1      26.180  59.262  31.539  0.00  0.00    -0.043 C 
ATOM      7  C7  HCY d   1      26.464  57.845  32.086  0.00  0.00    -0.057 C 
ATOM      8  C8  HCY d   1      27.215  56.897  31.144  0.00  0.00    -0.043 C 
ATOM      9  C9  HCY d   1      26.546  56.894  29.752  0.00  0.00    -0.015 C 
ATOM     10  C10 HCY d   1      26.470  58.304  29.124  0.00  0.00    -0.014 C 
ATOM     11  C12 HCY d   1      27.214  54.356  29.446  0.00  0.00    -0.030 C 
ATOM     12  C11 HCY d   1      27.030  55.746  28.798  0.00  0.00     0.041 C 
ATOM     13  C13 HCY d   1      27.936  54.450  30.824  0.00  0.00     0.001 C 
ATOM     14  C14 HCY d   1      27.201  55.483  31.681  0.00  0.00    -0.040 C 
ATOM     15  C15 HCY d   1      27.616  55.177  33.100  0.00  0.00    -0.058 C 
ATOM     16  C16 HCY d   1      27.808  53.667  33.152  0.00  0.00    -0.028 C 
ATOM     17  C17 HCY d   1      27.794  53.168  31.685  0.00  0.00     0.128 C 
ATOM     18  O1  HCY d   1      23.666  61.107  27.988  0.00  0.00    -0.293 OA
ATOM     19  H1  HCY d   1      26.536  57.828  27.038  0.00  0.00     0.035 H 
ATOM     20  H2  HCY d   1      25.001  57.392  27.863  0.00  0.00     0.035 H 
ATOM     21  H3  HCY d   1      24.420  59.159  26.438  0.00  0.00     0.044 H 
ATOM     22  H4  HCY d   1      25.916  60.081  26.811  0.00  0.00     0.044 H 
ATOM     23  H5  HCY d   1      23.909  60.219  30.494  0.00  0.00     0.089 H 
ATOM     24  H6  HCY d   1      25.405  59.741  32.155  0.00  0.00     0.039 H 
ATOM     25  H7  HCY d   1      27.102  59.860  31.581  0.00  0.00     0.039 H 
ATOM     26  H8  HCY d   1      25.498  57.380  32.331  0.00  0.00     0.034 H 
ATOM     27  H9  HCY d   1      27.063  57.952  33.002  0.00  0.00     0.034 H 
ATOM     28  H10 HCY d   1      28.256  57.239  31.049  0.00  0.00     0.041 H 
ATOM     29  H11 HCY d   1      25.496  56.636  29.956  0.00  0.00     0.046 H 
ATOM     30  H12 HCY d   1      27.813  53.726  28.773  0.00  0.00     0.038 H 
ATOM     31  H13 HCY d   1      26.225  53.898  29.593  0.00  0.00     0.038 H 
ATOM     32  H14 HCY d   1      26.321  55.646  27.963  0.00  0.00     0.083 H 
ATOM     33  H15 HCY d   1      26.136  55.214  31.635  0.00  0.00     0.042 H 
ATOM     34  H16 HCY d   1      26.832  55.489  33.806  0.00  0.00     0.033 H 
ATOM     35  H17 HCY d   1      28.556  55.693  33.345  0.00  0.00     0.033 H 
ATOM     36  H18 HCY d   1      26.990  53.200  33.720  0.00  0.00     0.038 H 
ATOM     37  H19 HCY d   1      28.770  53.423  33.627  0.00  0.00     0.038 H 
ENDROOT
BRANCH  17  38
ATOM     38  C20 HCY d   1      28.814  52.076  31.421  0.00  0.00     0.184 C 
ATOM     39  O4  HCY d   1      29.889  52.070  32.001  0.00  0.00    -0.292 OA
BRANCH  38  40
ATOM     40  C21 HCY d   1      28.518  50.971  30.428  0.00  0.00     0.074 C 
ATOM     41  H26 HCY d   1      27.747  51.284  29.709  0.00  0.00     0.086 H 
ATOM     42  H27 HCY d   1      28.189  50.056  30.943  0.00  0.00     0.086 H 
BRANCH  40  43
ATOM     43  O5  HCY d   1      29.771  50.768  29.777  0.00  0.00    -0.393 OA
ATOM     44  H30 HCY d   1      30.423  50.514  30.419  0.00  0.00     0.209 HD
ENDBRANCH  40  43
ENDBRANCH  38  40
ENDBRANCH  17  38
BRANCH  17  45
ATOM     45  O3  HCY d   1      26.536  52.506  31.420  0.00  0.00    -0.381 OA
ATOM     46  H29 HCY d   1      25.823  53.118  31.556  0.00  0.00     0.211 HD
ENDBRANCH  17  45
BRANCH  13  47
ATOM     47  C18 HCY d   1      29.453  54.780  30.705  0.00  0.00    -0.065 C 
ATOM     48  H20 HCY d   1      29.584  55.688  30.098  0.00  0.00     0.028 H 
ATOM     49  H21 HCY d   1      29.975  53.939  30.225  0.00  0.00     0.028 H 
ATOM     50  H22 HCY d   1      29.872  54.947  31.708  0.00  0.00     0.028 H 
ENDBRANCH  13  47
BRANCH  12  51
ATOM     51  O2  HCY d   1      28.302  56.207  28.332  0.00  0.00    -0.395 OA
ATOM     52  H28 HCY d   1      28.644  55.594  27.692  0.00  0.00     0.210 HD
ENDBRANCH  12  51
BRANCH  10  53
ATOM     53  C19 HCY d   1      27.831  59.006  28.924  0.00  0.00    -0.065 C 
ATOM     54  H23 HCY d   1      27.670  59.997  28.474  0.00  0.00     0.028 H 
ATOM     55  H24 HCY d   1      28.462  58.399  28.258  0.00  0.00     0.028 H 
ATOM     56  H25 HCY d   1      28.330  59.122  29.897  0.00  0.00     0.028 H 
ENDBRANCH  10  53
TORSDOF 7
