REMARK  5 active torsions:
REMARK  status: ('A' for Active; 'I' for Inactive)
REMARK    1  A    between atoms: C3_6  and  O2_7 
REMARK    2  A    between atoms: C1_9  and  O1_10 
REMARK    3  A    between atoms: C7_12  and  C10_14 
REMARK    4  A    between atoms: C10_14  and  C11_15 
REMARK    5  A    between atoms: C12_17  and  C16_18 
ROOT
ATOM      1  C10 KRS d   1       5.204 -23.098 -17.541  0.00  0.00    -0.016 C 
ATOM      2  H8  KRS d   1       5.105 -23.025 -16.448  0.00  0.00     0.040 H 
ATOM      3  H9  KRS d   1       4.226 -23.341 -17.982  0.00  0.00     0.040 H 
ENDROOT
BRANCH   1   4
ATOM      4  C7  KRS d   1       6.210 -24.177 -17.895  0.00  0.00     0.054 C 
ATOM      5  O3  KRS d   1       6.213 -24.341 -19.283  0.00  0.00    -0.311 OA
ATOM      6  C8  KRS d   1       6.998 -25.327 -19.835  0.00  0.00     0.297 C 
ATOM      7  O4  KRS d   1       7.539 -25.167 -20.924  0.00  0.00    -0.259 OA
ATOM      8  C9  KRS d   1       7.176 -26.587 -19.066  0.00  0.00     0.079 A 
ATOM      9  C5  KRS d   1       6.636 -26.700 -17.779  0.00  0.00    -0.034 A 
ATOM     10  C1  KRS d   1       7.888 -27.656 -19.635  0.00  0.00     0.085 A 
ATOM     11  C4  KRS d   1       6.804 -27.875 -17.058  0.00  0.00    -0.044 A 
ATOM     12  C6  KRS d   1       5.839 -25.475 -17.162  0.00  0.00    -0.015 C 
ATOM     13  C3  KRS d   1       7.522 -28.952 -17.634  0.00  0.00     0.068 A 
ATOM     14  H1  KRS d   1       6.388 -27.968 -16.061  0.00  0.00     0.088 H 
ATOM     15  C2  KRS d   1       8.057 -28.836 -18.913  0.00  0.00    -0.018 A 
ATOM     16  H3  KRS d   1       8.605 -29.664 -19.348  0.00  0.00     0.092 H 
ATOM     17  H6  KRS d   1       6.093 -25.376 -16.096  0.00  0.00     0.044 H 
ATOM     18  H7  KRS d   1       4.759 -25.655 -17.266  0.00  0.00     0.044 H 
ATOM     19  H5  KRS d   1       7.213 -23.863 -17.571  0.00  0.00     0.084 H 
BRANCH  13  20
ATOM     20  O2  KRS d   1       7.703 -30.173 -16.898  0.00  0.00    -0.361 OA
ATOM     21  H2  KRS d   1       6.854 -30.547 -16.693  0.00  0.00     0.217 HD
ENDBRANCH  13  20
BRANCH  10  22
ATOM     22  O1  KRS d   1       8.409 -27.545 -20.878  0.00  0.00    -0.360 OA
ATOM     23  H4  KRS d   1       8.206 -26.686 -21.230  0.00  0.00     0.217 HD
ENDBRANCH  10  22
ENDBRANCH   1   4
BRANCH   1  24
ATOM     24  C11 KRS d   1       5.708 -21.779 -18.102  0.00  0.00     0.041 C 
ATOM     25  O5  KRS d   1       6.935 -21.416 -17.423  0.00  0.00    -0.381 OA
ATOM     26  C12 KRS d   1       6.734 -21.009 -16.054  0.00  0.00     0.035 C 
ATOM     27  C13 KRS d   1       5.696 -19.944 -15.935  0.00  0.00    -0.041 C 
ATOM     28  H11 KRS d   1       6.416 -21.883 -15.467  0.00  0.00     0.082 H 
ATOM     29  C14 KRS d   1       4.445 -20.347 -16.573  0.00  0.00    -0.060 C 
ATOM     30  H15 KRS d   1       6.066 -19.028 -16.419  0.00  0.00     0.036 H 
ATOM     31  H16 KRS d   1       5.507 -19.746 -14.870  0.00  0.00     0.036 H 
ATOM     32  C15 KRS d   1       4.626 -20.755 -17.936  0.00  0.00    -0.041 C 
ATOM     33  H17 KRS d   1       3.748 -19.496 -16.550  0.00  0.00     0.033 H 
ATOM     34  H18 KRS d   1       4.016 -21.188 -16.008  0.00  0.00     0.033 H 
ATOM     35  H19 KRS d   1       3.681 -21.181 -18.303  0.00  0.00     0.036 H 
ATOM     36  H20 KRS d   1       4.886 -19.870 -18.535  0.00  0.00     0.036 H 
ATOM     37  H10 KRS d   1       5.923 -21.895 -19.175  0.00  0.00     0.083 H 
BRANCH  26  38
ATOM     38  C16 KRS d   1       8.032 -20.481 -15.504  0.00  0.00    -0.052 C 
ATOM     39  H12 KRS d   1       7.887 -20.168 -14.459  0.00  0.00     0.030 H 
ATOM     40  H13 KRS d   1       8.360 -19.619 -16.103  0.00  0.00     0.030 H 
ATOM     41  H14 KRS d   1       8.797 -21.270 -15.548  0.00  0.00     0.030 H 
ENDBRANCH  26  38
ENDBRANCH   1  24
TORSDOF 5
