REMARK WARNING: 32 MAX_TORS EXCEEDED!!!
REMARK  62 active torsions:
REMARK  status: ('A' for Active; 'I' for Inactive)
REMARK    1  A    between atoms: N_1  and  CA_2 
REMARK    2  A    between atoms: CA_2  and  C_3 
REMARK    3  A    between atoms: CA_2  and  CB_5 
REMARK       I    between atoms: C_3  and  N_9 
REMARK    4  A    between atoms: CB_5  and  CG1_6 
REMARK    5  A    between atoms: CB_5  and  CG2_7 
REMARK    6  A    between atoms: CG1_6  and  CD1_8 
REMARK    7  A    between atoms: N_9  and  CA_10 
REMARK    8  A    between atoms: CA_10  and  C_11 
REMARK    9  A    between atoms: CA_10  and  CB_13 
REMARK       I    between atoms: C_11  and  N_19 
REMARK   10  A    between atoms: CB_13  and  CG_14 
REMARK   11  A    between atoms: N_19  and  CA_20 
REMARK   12  A    between atoms: CA_20  and  C_21 
REMARK   13  A    between atoms: CA_20  and  CB_23 
REMARK       I    between atoms: C_21  and  N_26 
REMARK   14  A    between atoms: CB_23  and  CG1_24 
REMARK   15  A    between atoms: CB_23  and  CG2_25 
REMARK   16  A    between atoms: N_26  and  CA_27 
REMARK   17  A    between atoms: CA_27  and  C_28 
REMARK   18  A    between atoms: CA_27  and  CB_30 
REMARK       I    between atoms: C_28  and  N_33 
REMARK   19  A    between atoms: CB_30  and  OG1_31 
REMARK   20  A    between atoms: CB_30  and  CG2_32 
REMARK   21  A    between atoms: N_33  and  CA_34 
REMARK   22  A    between atoms: CA_34  and  C_35 
REMARK   23  A    between atoms: CA_34  and  CB_37 
REMARK       I    between atoms: C_35  and  N_41 
REMARK   24  A    between atoms: CB_37  and  CG1_38 
REMARK   25  A    between atoms: CB_37  and  CG2_39 
REMARK   26  A    between atoms: CG1_38  and  CD1_40 
REMARK   27  A    between atoms: CA_42  and  C_43 
REMARK       I    between atoms: C_43  and  N_48 
REMARK   28  A    between atoms: N_48  and  CA_49 
REMARK   29  A    between atoms: CA_49  and  C_50 
REMARK   30  A    between atoms: CA_49  and  CB_52 
REMARK       I    between atoms: C_50  and  N_53 
REMARK   31  A    between atoms: N_53  and  CA_54 
REMARK   32  A    between atoms: CA_54  and  C_55 
REMARK   33  A    between atoms: CA_54  and  CB_57 
REMARK       I    between atoms: C_55  and  N_61 
REMARK   34  A    between atoms: CB_57  and  CG_58 
REMARK   35  A    between atoms: N_61  and  CA_62 
REMARK   36  A    between atoms: CA_62  and  C_63 
REMARK   37  A    between atoms: CA_62  and  CB_65 
REMARK       I    between atoms: C_63  and  N_69 
REMARK   38  A    between atoms: CB_65  and  CG_66 
REMARK   39  A    between atoms: CG_66  and  CD1_67 
REMARK   40  A    between atoms: CG_66  and  CD2_68 
REMARK   41  A    between atoms: N_69  and  CA_70 
REMARK   42  A    between atoms: CA_70  and  C_71 
REMARK   43  A    between atoms: CA_70  and  CB_73 
REMARK       I    between atoms: C_71  and  N_83 
REMARK   44  A    between atoms: CB_73  and  CG_74 
REMARK   45  A    between atoms: N_83  and  CA_84 
REMARK   46  A    between atoms: CA_84  and  C_85 
REMARK   47  A    between atoms: CA_84  and  CB_87 
REMARK       I    between atoms: C_85  and  N_91 
REMARK   48  A    between atoms: CB_87  and  CG_88 
REMARK   49  A    between atoms: N_91  and  CA_92 
REMARK   50  A    between atoms: CA_92  and  C_93 
REMARK   51  A    between atoms: CA_92  and  CB_95 
REMARK       I    between atoms: C_93  and  N_105 
REMARK   52  A    between atoms: CB_95  and  CG_96 
REMARK   53  A    between atoms: N_105  and  CA_106 
REMARK   54  A    between atoms: CA_106  and  C_107 
REMARK   55  A    between atoms: CA_106  and  CB_109 
REMARK       I    between atoms: C_107  and  N_113 
REMARK   56  A    between atoms: CB_109  and  CG1_110 
REMARK   57  A    between atoms: CB_109  and  CG2_111 
REMARK   58  A    between atoms: CG1_110  and  CD1_112 
REMARK   59  A    between atoms: N_113  and  CA_114 
REMARK   60  A    between atoms: CA_114  and  C_115 
REMARK   61  A    between atoms: CA_114  and  CB_117 
REMARK   62  A    between atoms: CB_117  and  CG_118 
REMARK       I    between atoms: CG_118  and  ND2_120 
ROOT
ATOM      1  CA  ASP d   1      74.237 -62.607  99.035  0.00  0.00     0.098 C 
ATOM      2  H61 ASP d   1      73.808 -62.085  99.903  0.00  0.00     0.088 H 
ENDROOT
BRANCH   1   3
ATOM      3  N   ASP d   1      74.897 -63.817  99.489  0.00  0.00    -0.346 N 
ATOM      4  C   ALA d   1      74.346 -64.911 100.049  0.00  0.00     0.240 C 
ATOM      5  O   ALA d   1      73.136 -65.041 100.255  0.00  0.00    -0.271 OA
ATOM      6  H60 ASP d   1      75.890 -63.842  99.371  0.00  0.00     0.163 HD
BRANCH   4   7
ATOM      7  CA  ALA d   1      75.325 -66.071 100.347  0.00  0.00     0.086 C 
ATOM      8  H56 ALA d   1      74.751 -67.007 100.416  0.00  0.00     0.086 H 
BRANCH   7   9
ATOM      9  N   ALA d   1      76.317 -66.202  99.258  0.00  0.00    -0.346 N 
ATOM     10  C   PRO d   1      76.017 -66.305  97.942  0.00  0.00     0.241 C 
ATOM     11  O   PRO d   1      74.859 -66.339  97.506  0.00  0.00    -0.271 OA
ATOM     12  H55 ALA d   1      77.284 -66.216  99.513  0.00  0.00     0.163 HD
BRANCH  10  13
ATOM     13  CA  PRO d   1      77.184 -66.387  96.965  0.00  0.00     0.091 C 
ATOM     14  N   PRO d   1      76.763 -66.999  95.691  0.00  0.00    -0.337 N 
ATOM     15  C   ILE d   1      76.434 -68.310  95.671  0.00  0.00     0.243 C 
ATOM     16  CD  PRO d   1      76.678 -66.005  94.601  0.00  0.00    -0.001 C 
ATOM     17  O   ILE d   1      76.535 -69.019  96.673  0.00  0.00    -0.271 OA
ATOM     18  CG  PRO d   1      77.424 -64.832  95.125  0.00  0.00    -0.048 C 
ATOM     19  H53 PRO d   1      75.630 -65.741  94.393  0.00  0.00     0.064 H 
ATOM     20  H54 PRO d   1      77.148 -66.389  93.684  0.00  0.00     0.064 H 
ATOM     21  CB  PRO d   1      77.675 -64.986  96.572  0.00  0.00    -0.036 C 
ATOM     22  H51 PRO d   1      78.385 -64.749  94.597  0.00  0.00     0.035 H 
ATOM     23  H52 PRO d   1      76.832 -63.921  94.955  0.00  0.00     0.035 H 
ATOM     24  H49 PRO d   1      78.751 -64.890  96.781  0.00  0.00     0.036 H 
ATOM     25  H50 PRO d   1      77.122 -64.220  97.135  0.00  0.00     0.036 H 
ATOM     26  H48 PRO d   1      77.999 -66.967  97.422  0.00  0.00     0.087 H 
BRANCH  15  27
ATOM     27  CA  ILE d   1      75.956 -68.954  94.380  0.00  0.00     0.092 C 
ATOM     28  H38 ILE d   1      76.440 -68.413  93.553  0.00  0.00     0.088 H 
BRANCH  27  29
ATOM     29  N   ILE d   1      76.413 -70.342  94.324  0.00  0.00    -0.346 N 
ATOM     30  C   THR d   1      77.460 -70.757  93.622  0.00  0.00     0.243 C 
ATOM     31  O   THR d   1      78.169 -70.006  92.942  0.00  0.00    -0.271 OA
ATOM     32  H37 ILE d   1      75.903 -71.023  94.849  0.00  0.00     0.163 HD
BRANCH  30  33
ATOM     33  CA  THR d   1      77.709 -72.248  93.691  0.00  0.00     0.113 C 
ATOM     34  H31 THR d   1      76.991 -72.651  94.420  0.00  0.00     0.091 H 
BRANCH  33  35
ATOM     35  N   THR d   1      77.387 -72.873  92.404  0.00  0.00    -0.344 N 
ATOM     36  C   VAL d   1      76.360 -73.750  92.259  0.00  0.00     0.241 C 
ATOM     37  O   VAL d   1      75.654 -74.112  93.194  0.00  0.00    -0.271 OA
ATOM     38  H30 THR d   1      77.943 -72.645  91.605  0.00  0.00     0.163 HD
BRANCH  36  39
ATOM     39  CA  VAL d   1      76.114 -74.346  90.862  0.00  0.00     0.092 C 
ATOM     40  H22 VAL d   1      77.002 -74.126  90.252  0.00  0.00     0.088 H 
BRANCH  39  41
ATOM     41  N   VAL d   1      75.987 -75.810  90.946  0.00  0.00    -0.346 N 
ATOM     42  C   HIS d   1      76.745 -76.671  90.238  0.00  0.00     0.241 C 
ATOM     43  O   HIS d   1      77.640 -76.309  89.465  0.00  0.00    -0.271 OA
ATOM     44  H21 VAL d   1      75.298 -76.188  91.564  0.00  0.00     0.163 HD
BRANCH  42  45
ATOM     45  CA  HIS d   1      76.479 -78.165  90.443  0.00  0.00     0.094 C 
ATOM     46  H15 HIS d   1      75.526 -78.292  90.977  0.00  0.00     0.088 H 
BRANCH  45  47
ATOM     47  N   HIS d   1      76.377 -78.833  89.137  0.00  0.00    -0.346 N 
ATOM     48  C   ILE d   1      75.347 -79.597  88.709  0.00  0.00     0.249 C 
ATOM     49  O   ILE d   1      74.370 -79.884  89.407  0.00  0.00    -0.271 OA
ATOM     50  H14 HIS d   1      77.142 -78.710  88.505  0.00  0.00     0.163 HD
BRANCH  48  51
ATOM     51  CA  ILE d   1      75.482 -80.167  87.285  0.00  0.00     0.179 C 
ATOM     52  H4  ILE d   1      76.561 -80.272  87.097  0.00  0.00     0.099 H 
BRANCH  51  53
ATOM     53  N   ILE d   1      74.904 -81.507  87.190  0.00  0.00    -0.066 N 
ATOM     54  H1  ILE d   1      75.277 -82.087  87.926  0.00  0.00     0.275 HD
ATOM     55  H2  ILE d   1      75.135 -81.910  86.295  0.00  0.00     0.275 HD
ATOM     56  H3  ILE d   1      73.902 -81.448  87.284  0.00  0.00     0.275 HD
ENDBRANCH  51  53
BRANCH  51  57
ATOM     57  CB  ILE d   1      74.932 -79.229  86.161  0.00  0.00    -0.022 C 
ATOM     58  H5  ILE d   1      73.895 -79.529  85.951  0.00  0.00     0.043 H 
BRANCH  57  59
ATOM     59  CG1 ILE d   1      75.777 -79.462  84.868  0.00  0.00    -0.063 C 
ATOM     60  H6  ILE d   1      75.869 -80.550  84.734  0.00  0.00     0.033 H 
ATOM     61  H7  ILE d   1      76.772 -79.030  85.051  0.00  0.00     0.033 H 
BRANCH  59  62
ATOM     62  CD1 ILE d   1      75.263 -78.873  83.506  0.00  0.00    -0.076 C 
ATOM     63  H11 ILE d   1      75.973 -79.128  82.705  0.00  0.00     0.027 H 
ATOM     64  H12 ILE d   1      75.180 -77.779  83.588  0.00  0.00     0.027 H 
ATOM     65  H13 ILE d   1      74.276 -79.299  83.271  0.00  0.00     0.027 H 
ENDBRANCH  59  62
ENDBRANCH  57  59
BRANCH  57  66
ATOM     66  CG2 ILE d   1      74.901 -77.726  86.568  0.00  0.00    -0.070 C 
ATOM     67  H8  ILE d   1      74.298 -77.606  87.480  0.00  0.00     0.028 H 
ATOM     68  H9  ILE d   1      74.457 -77.135  85.754  0.00  0.00     0.028 H 
ATOM     69  H10 ILE d   1      75.927 -77.376  86.758  0.00  0.00     0.028 H 
ENDBRANCH  57  66
ENDBRANCH  51  57
ENDBRANCH  48  51
ENDBRANCH  45  47
BRANCH  45  70
ATOM     70  CB  HIS d   1      77.618 -78.765  91.309  0.00  0.00     0.002 C 
ATOM     71  H16 HIS d   1      77.680 -78.182  92.240  0.00  0.00     0.046 H 
ATOM     72  H17 HIS d   1      78.560 -78.664  90.749  0.00  0.00     0.046 H 
BRANCH  70  73
ATOM     73  CG  HIS d   1      77.451 -80.208  91.677  0.00  0.00     0.030 A 
ATOM     74  ND1 HIS d   1      76.512 -80.612  92.613  0.00  0.00    -0.353 N 
ATOM     75  CE1 HIS d   1      76.635 -81.929  92.703  0.00  0.00     0.063 A 
ATOM     76  H18 HIS d   1      75.854 -80.013  93.132  0.00  0.00     0.166 HD
ATOM     77  NE2 HIS d   1      77.600 -82.388  91.901  0.00  0.00    -0.254 NA
ATOM     78  H20 HIS d   1      76.025 -82.558  93.350  0.00  0.00     0.143 H 
ATOM     79  CD2 HIS d   1      78.140 -81.295  91.251  0.00  0.00     0.025 A 
ATOM     80  H19 HIS d   1      78.960 -81.305  90.535  0.00  0.00     0.117 H 
ENDBRANCH  70  73
ENDBRANCH  45  70
ENDBRANCH  42  45
ENDBRANCH  39  41
BRANCH  39  81
ATOM     81  CB  VAL d   1      74.894 -73.700  90.140  0.00  0.00    -0.033 C 
ATOM     82  H23 VAL d   1      73.984 -74.054  90.646  0.00  0.00     0.042 H 
BRANCH  81  83
ATOM     83  CG1 VAL d   1      74.918 -72.173  90.242  0.00  0.00    -0.071 C 
ATOM     84  H24 VAL d   1      74.043 -71.757  89.721  0.00  0.00     0.028 H 
ATOM     85  H25 VAL d   1      75.838 -71.789  89.777  0.00  0.00     0.028 H 
ATOM     86  H26 VAL d   1      74.890 -71.876  91.301  0.00  0.00     0.028 H 
ENDBRANCH  81  83
BRANCH  81  87
ATOM     87  CG2 VAL d   1      74.816 -74.144  88.677  0.00  0.00    -0.071 C 
ATOM     88  H27 VAL d   1      74.800 -75.243  88.628  0.00  0.00     0.028 H 
ATOM     89  H28 VAL d   1      75.693 -73.765  88.132  0.00  0.00     0.028 H 
ATOM     90  H29 VAL d   1      73.899 -73.743  88.221  0.00  0.00     0.028 H 
ENDBRANCH  81  87
ENDBRANCH  39  81
ENDBRANCH  36  39
ENDBRANCH  33  35
BRANCH  33  91
ATOM     91  CB  THR d   1      79.102 -72.613  94.232  0.00  0.00     0.060 C 
ATOM     92  H32 THR d   1      79.817 -71.886  93.820  0.00  0.00     0.086 H 
BRANCH  91  93
ATOM     93  OG1 THR d   1      79.505 -73.917  93.803  0.00  0.00    -0.393 OA
ATOM     94  H33 THR d   1      80.367 -74.112  94.153  0.00  0.00     0.210 HD
ENDBRANCH  91  93
BRANCH  91  95
ATOM     95  CG2 THR d   1      79.168 -72.520  95.752  0.00  0.00    -0.050 C 
ATOM     96  H34 THR d   1      80.179 -72.789  96.092  0.00  0.00     0.031 H 
ATOM     97  H35 THR d   1      78.436 -73.212  96.194  0.00  0.00     0.031 H 
ATOM     98  H36 THR d   1      78.936 -71.492  96.067  0.00  0.00     0.031 H 
ENDBRANCH  91  95
ENDBRANCH  33  91
ENDBRANCH  30  33
ENDBRANCH  27  29
BRANCH  27  99
ATOM     99  CB  ILE d   1      74.408 -68.848  94.140  0.00  0.00    -0.030 C 
ATOM    100  H39 ILE d   1      74.118 -67.796  94.277  0.00  0.00     0.043 H 
BRANCH  99 101
ATOM    101  CG1 ILE d   1      73.575 -69.698  95.127  0.00  0.00    -0.063 C 
ATOM    102  H40 ILE d   1      74.201 -70.538  95.463  0.00  0.00     0.033 H 
ATOM    103  H41 ILE d   1      72.700 -70.087  94.585  0.00  0.00     0.033 H 
BRANCH 101 104
ATOM    104  CD1 ILE d   1      73.102 -69.008  96.290  0.00  0.00    -0.076 C 
ATOM    105  H45 ILE d   1      72.525 -69.702  96.919  0.00  0.00     0.027 H 
ATOM    106  H46 ILE d   1      72.458 -68.171  95.983  0.00  0.00     0.027 H 
ATOM    107  H47 ILE d   1      73.959 -68.622  96.861  0.00  0.00     0.027 H 
ENDBRANCH 101 104
ENDBRANCH  99 101
BRANCH  99 108
ATOM    108  CG2 ILE d   1      74.083 -69.257  92.699  0.00  0.00    -0.071 C 
ATOM    109  H42 ILE d   1      74.678 -68.649  92.002  0.00  0.00     0.028 H 
ATOM    110  H43 ILE d   1      73.013 -69.095  92.504  0.00  0.00     0.028 H 
ATOM    111  H44 ILE d   1      74.325 -70.321  92.556  0.00  0.00     0.028 H 
ENDBRANCH  99 108
ENDBRANCH  27  99
ENDBRANCH  15  27
ENDBRANCH  10  13
ENDBRANCH   7   9
BRANCH   7 112
ATOM    112  CB  ALA d   1      76.036 -65.833 101.675  0.00  0.00    -0.049 C 
ATOM    113  H57 ALA d   1      75.290 -65.737 102.478  0.00  0.00     0.030 H 
ATOM    114  H58 ALA d   1      76.629 -64.909 101.613  0.00  0.00     0.030 H 
ATOM    115  H59 ALA d   1      76.701 -66.682 101.892  0.00  0.00     0.030 H 
ENDBRANCH   7 112
ENDBRANCH   4   7
ENDBRANCH   1   3
BRANCH   1 116
ATOM    116  C   ASP d   1      73.089 -62.926  98.049  0.00  0.00     0.241 C 
ATOM    117  O   ASP d   1      71.954 -62.586  98.337  0.00  0.00    -0.271 OA
ATOM    118  N   LEU d   1      73.381 -63.621  96.920  0.00  0.00    -0.346 N 
ATOM    119  H64 LEU d   1      74.332 -63.898  96.784  0.00  0.00     0.163 HD
BRANCH 118 120
ATOM    120  CA  LEU d   1      72.407 -64.001  95.877  0.00  0.00     0.089 C 
ATOM    121  H65 LEU d   1      71.922 -63.072  95.544  0.00  0.00     0.087 H 
BRANCH 120 122
ATOM    122  C   LEU d   1      71.302 -64.914  96.380  0.00  0.00     0.241 C 
ATOM    123  O   LEU d   1      70.198 -64.874  95.839  0.00  0.00    -0.271 OA
ATOM    124  N   TRP d   1      71.580 -65.726  97.406  0.00  0.00    -0.346 N 
ATOM    125  H75 TRP d   1      72.501 -65.744  97.795  0.00  0.00     0.163 HD
BRANCH 124 126
ATOM    126  CA  TRP d   1      70.542 -66.581  97.954  0.00  0.00     0.093 C 
ATOM    127  H76 TRP d   1      70.151 -67.200  97.133  0.00  0.00     0.088 H 
BRANCH 126 128
ATOM    128  C   TRP d   1      69.390 -65.715  98.471  0.00  0.00     0.241 C 
ATOM    129  O   TRP d   1      68.245 -65.987  98.099  0.00  0.00    -0.271 OA
ATOM    130  N   ASP d   1      69.702 -64.606  99.214  0.00  0.00    -0.345 N 
ATOM    131  H85 ASP d   1      70.664 -64.453  99.442  0.00  0.00     0.163 HD
BRANCH 130 132
ATOM    132  CA  ASP d   1      68.718 -63.624  99.700  0.00  0.00     0.098 C 
ATOM    133  H86 ASP d   1      68.085 -64.123 100.449  0.00  0.00     0.088 H 
BRANCH 132 134
ATOM    134  C   ASP d   1      67.812 -63.171  98.537  0.00  0.00     0.241 C 
ATOM    135  O   ASP d   1      66.583 -63.169  98.655  0.00  0.00    -0.271 OA
ATOM    136  N   TRP d   1      68.440 -62.810  97.410  0.00  0.00    -0.346 N 
ATOM    137  H89 TRP d   1      69.437 -62.886  97.381  0.00  0.00     0.163 HD
BRANCH 136 138
ATOM    138  CA  TRP d   1      67.760 -62.316  96.233  0.00  0.00     0.093 C 
ATOM    139  H90 TRP d   1      67.105 -61.493  96.556  0.00  0.00     0.088 H 
BRANCH 138 140
ATOM    140  C   TRP d   1      66.852 -63.366  95.574  0.00  0.00     0.241 C 
ATOM    141  O   TRP d   1      65.701 -63.042  95.296  0.00  0.00    -0.271 OA
ATOM    142  N   ILE d   1      67.345 -64.610  95.334  0.00  0.00    -0.346 N 
ATOM    143  H99 ILE d   1      68.289 -64.807  95.598  0.00  0.00     0.163 HD
BRANCH 142 144
ATOM    144  CA  ILE d   1      66.552 -65.685  94.702  0.00  0.00     0.092 C 
ATOM    145 0H10 ILE d   1      66.199 -65.293  93.737  0.00  0.00     0.088 H 
BRANCH 144 146
ATOM    146  C   ILE d   1      65.292 -66.008  95.533  0.00  0.00     0.241 C 
ATOM    147  O   ILE d   1      64.242 -66.357  94.972  0.00  0.00    -0.271 OA
ATOM    148  N   ASN d   1      65.398 -65.821  96.869  0.00  0.00    -0.344 N 
ATOM    149 0H11 ASN d   1      66.273 -65.490  97.221  0.00  0.00     0.163 HD
BRANCH 148 150
ATOM    150  CA  ASN d   1      64.329 -66.066  97.837  0.00  0.00     0.104 C 
ATOM    151 1H11 ASN d   1      63.476 -66.510  97.303  0.00  0.00     0.090 H 
BRANCH 150 152
ATOM    152  C   ASN d   1      63.848 -64.760  98.496  0.00  0.00     0.197 C 
ATOM    153  O   ASN d   1      62.959 -64.074  97.977  0.00  0.00    -0.646 OA
ATOM    154  OXT ASN d   1      64.339 -64.365  99.561  0.00  0.00    -0.646 OA
ENDBRANCH 150 152
BRANCH 150 155
ATOM    155  CB  ASN d   1      64.812 -67.068  98.890  0.00  0.00     0.037 C 
ATOM    156 2H11 ASN d   1      64.107 -67.042  99.734  0.00  0.00     0.051 H 
ATOM    157 3H11 ASN d   1      65.807 -66.749  99.234  0.00  0.00     0.051 H 
BRANCH 155 158
ATOM    158  CG  ASN d   1      64.919 -68.506  98.409  0.00  0.00     0.217 C 
ATOM    159  OD1 ASN d   1      64.317 -69.410  98.998  0.00  0.00    -0.274 OA
ATOM    160  ND2 ASN d   1      65.719 -68.772  97.366  0.00  0.00    -0.370 N 
ATOM    161 4H11 ASN d   1      65.807 -69.710  97.030  0.00  0.00     0.159 HD
ATOM    162 5H11 ASN d   1      66.227 -68.033  96.924  0.00  0.00     0.159 HD
ENDBRANCH 155 158
ENDBRANCH 150 155
ENDBRANCH 148 150
ENDBRANCH 144 146
BRANCH 144 163
ATOM    163  CB  ILE d   1      67.413 -66.947  94.375  0.00  0.00    -0.030 C 
ATOM    164 1H10 ILE d   1      67.818 -67.330  95.323  0.00  0.00     0.043 H 
BRANCH 163 165
ATOM    165  CG1 ILE d   1      68.620 -66.571  93.464  0.00  0.00    -0.063 C 
ATOM    166 2H10 ILE d   1      69.231 -65.837  94.011  0.00  0.00     0.033 H 
ATOM    167 3H10 ILE d   1      68.215 -66.105  92.554  0.00  0.00     0.033 H 
BRANCH 165 168
ATOM    168  CD1 ILE d   1      69.569 -67.731  93.015  0.00  0.00    -0.076 C 
ATOM    169 7H10 ILE d   1      70.371 -67.324  92.381  0.00  0.00     0.027 H 
ATOM    170 8H10 ILE d   1      68.994 -68.476  92.446  0.00  0.00     0.027 H 
ATOM    171 9H10 ILE d   1      70.010 -68.208  93.903  0.00  0.00     0.027 H 
ENDBRANCH 165 168
ENDBRANCH 163 165
BRANCH 163 172
ATOM    172  CG2 ILE d   1      66.551 -68.076  93.745  0.00  0.00    -0.071 C 
ATOM    173 4H10 ILE d   1      65.711 -68.313  94.415  0.00  0.00     0.028 H 
ATOM    174 5H10 ILE d   1      67.171 -68.974  93.602  0.00  0.00     0.028 H 
ATOM    175 6H10 ILE d   1      66.161 -67.740  92.773  0.00  0.00     0.028 H 
ENDBRANCH 163 172
ENDBRANCH 144 163
ENDBRANCH 142 144
ENDBRANCH 138 140
BRANCH 138 176
ATOM    176  CB  TRP d   1      68.782 -61.728  95.264  0.00  0.00    -0.012 C 
ATOM    177  H91 TRP d   1      69.464 -62.533  94.953  0.00  0.00     0.044 H 
ATOM    178  H92 TRP d   1      69.351 -60.950  95.795  0.00  0.00     0.044 H 
BRANCH 176 179
ATOM    179  CG  TRP d   1      68.190 -61.117  94.036  0.00  0.00    -0.028 A 
ATOM    180  CD1 TRP d   1      67.845 -59.813  93.854  0.00  0.00    -0.015 A 
ATOM    181  NE1 TRP d   1      67.358 -59.627  92.583  0.00  0.00    -0.365 N 
ATOM    182  H93 TRP d   1      67.941 -59.031  94.606  0.00  0.00     0.112 H 
ATOM    183  CE2 TRP d   1      67.399 -60.818  91.910  0.00  0.00     0.042 A 
ATOM    184  H94 TRP d   1      67.017 -58.734  92.198  0.00  0.00     0.165 HD
ATOM    185  CD2 TRP d   1      67.932 -61.779  92.793  0.00  0.00    -0.002 A 
ATOM    186  CZ2 TRP d   1      67.060 -61.123  90.593  0.00  0.00    -0.056 A 
ATOM    187  CE3 TRP d   1      68.088 -63.096  92.343  0.00  0.00    -0.070 A 
ATOM    188  CZ3 TRP d   1      67.727 -63.402  91.046  0.00  0.00    -0.082 A 
ATOM    189  H95 TRP d   1      68.485 -63.861  93.001  0.00  0.00     0.084 H 
ATOM    190  CH2 TRP d   1      67.230 -62.422  90.183  0.00  0.00    -0.081 A 
ATOM    191  H97 TRP d   1      67.831 -64.421  90.691  0.00  0.00     0.083 H 
ATOM    192  H98 TRP d   1      66.973 -62.694  89.166  0.00  0.00     0.083 H 
ATOM    193  H96 TRP d   1      66.677 -60.365  89.919  0.00  0.00     0.086 H 
ENDBRANCH 176 179
ENDBRANCH 138 176
ENDBRANCH 136 138
ENDBRANCH 132 134
BRANCH 132 194
ATOM    194  CB  ASP d   1      69.407 -62.400 100.403  0.00  0.00     0.043 C 
ATOM    195  H87 ASP d   1      70.431 -62.712 100.655  0.00  0.00     0.052 H 
ATOM    196  H88 ASP d   1      68.844 -62.206 101.328  0.00  0.00     0.052 H 
BRANCH 194 197
ATOM    197  CG  ASP d   1      69.522 -61.039  99.649  0.00  0.00     0.175 C 
ATOM    198  OD1 ASP d   1      68.465 -60.462  99.275  0.00  0.00    -0.648 OA
ATOM    199  OD2 ASP d   1      70.660 -60.497  99.548  0.00  0.00    -0.648 OA
ENDBRANCH 194 197
ENDBRANCH 132 194
ENDBRANCH 130 132
ENDBRANCH 126 128
BRANCH 126 200
ATOM    200  CB  TRP d   1      71.077 -67.534  99.018  0.00  0.00    -0.012 C 
ATOM    201  H77 TRP d   1      71.382 -66.950  99.899  0.00  0.00     0.044 H 
ATOM    202  H78 TRP d   1      71.949 -68.067  98.612  0.00  0.00     0.044 H 
BRANCH 200 203
ATOM    203  CG  TRP d   1      70.048 -68.535  99.434  0.00  0.00    -0.028 A 
ATOM    204  CD1 TRP d   1      69.278 -68.492 100.558  0.00  0.00    -0.015 A 
ATOM    205  NE1 TRP d   1      68.387 -69.543 100.565  0.00  0.00    -0.365 N 
ATOM    206  H79 TRP d   1      69.356 -67.736 101.338  0.00  0.00     0.112 H 
ATOM    207  CE2 TRP d   1      68.551 -70.273  99.416  0.00  0.00     0.042 A 
ATOM    208  H80 TRP d   1      67.708 -69.747 101.312  0.00  0.00     0.165 HD
ATOM    209  CD2 TRP d   1      69.579 -69.654  98.669  0.00  0.00    -0.002 A 
ATOM    210  CZ2 TRP d   1      67.866 -71.403  98.956  0.00  0.00    -0.056 A 
ATOM    211  CE3 TRP d   1      69.933 -70.203  97.427  0.00  0.00    -0.070 A 
ATOM    212  CZ3 TRP d   1      69.257 -71.328  96.978  0.00  0.00    -0.082 A 
ATOM    213  H81 TRP d   1      70.720 -69.756  96.830  0.00  0.00     0.084 H 
ATOM    214  CH2 TRP d   1      68.232 -71.910  97.735  0.00  0.00    -0.081 A 
ATOM    215  H83 TRP d   1      69.527 -71.765  96.023  0.00  0.00     0.083 H 
ATOM    216  H84 TRP d   1      67.716 -72.781  97.347  0.00  0.00     0.083 H 
ATOM    217  H82 TRP d   1      67.077 -71.860  99.542  0.00  0.00     0.086 H 
ENDBRANCH 200 203
ENDBRANCH 126 200
ENDBRANCH 124 126
ENDBRANCH 120 122
BRANCH 120 218
ATOM    218  CB  LEU d   1      73.116 -64.610  94.648  0.00  0.00    -0.035 C 
ATOM    219  H66 LEU d   1      73.722 -65.454  95.010  0.00  0.00     0.037 H 
ATOM    220  H67 LEU d   1      73.777 -63.832  94.238  0.00  0.00     0.037 H 
BRANCH 218 221
ATOM    221  CG  LEU d   1      72.263 -65.134  93.486  0.00  0.00    -0.059 C 
ATOM    222  H68 LEU d   1      71.578 -65.899  93.880  0.00  0.00     0.038 H 
BRANCH 221 223
ATOM    223  CD1 LEU d   1      71.457 -64.043  92.866  0.00  0.00    -0.073 C 
ATOM    224  H69 LEU d   1      70.859 -64.454  92.039  0.00  0.00     0.028 H 
ATOM    225  H70 LEU d   1      72.130 -63.264  92.480  0.00  0.00     0.028 H 
ATOM    226  H71 LEU d   1      70.787 -63.608  93.622  0.00  0.00     0.028 H 
ENDBRANCH 221 223
BRANCH 221 227
ATOM    227  CD2 LEU d   1      73.112 -65.749  92.432  0.00  0.00    -0.073 C 
ATOM    228  H72 LEU d   1      73.715 -66.557  92.872  0.00  0.00     0.028 H 
ATOM    229  H73 LEU d   1      73.779 -64.985  92.006  0.00  0.00     0.028 H 
ATOM    230  H74 LEU d   1      72.471 -66.160  91.638  0.00  0.00     0.028 H 
ENDBRANCH 221 227
ENDBRANCH 218 221
ENDBRANCH 120 218
ENDBRANCH 118 120
ENDBRANCH   1 116
BRANCH   1 231
ATOM    231  CB  ASP d   1      75.310 -61.712  98.396  0.00  0.00     0.043 C 
ATOM    232  H62 ASP d   1      75.678 -62.220  97.493  0.00  0.00     0.052 H 
ATOM    233  H63 ASP d   1      76.133 -61.605  99.118  0.00  0.00     0.052 H 
BRANCH 231 234
ATOM    234  CG  ASP d   1      74.861 -60.326  97.997  0.00  0.00     0.175 C 
ATOM    235  OD1 ASP d   1      73.700 -59.957  98.313  0.00  0.00    -0.648 OA
ATOM    236  OD2 ASP d   1      75.660 -59.611  97.350  0.00  0.00    -0.648 OA
ENDBRANCH 231 234
ENDBRANCH   1 231
TORSDOF 62
