REMARK  2 active torsions:
REMARK  status: ('A' for Active; 'I' for Inactive)
REMARK    1  A    between atoms: C03_6  and  C10_1 
REMARK    2  A    between atoms: C04_7  and  C07_10 
ROOT
ATOM      1  C01 61O d   1     -16.170   4.584 -11.819  0.00  0.00    -0.082 A 
ATOM      2  C02 61O d   1     -16.675   4.137 -10.600  0.00  0.00    -0.071 A 
ATOM      3  C03 61O d   1     -17.273   2.892 -10.472  0.00  0.00    -0.007 A 
ATOM      4  C04 61O d   1     -17.365   2.104 -11.640  0.00  0.00     0.051 A 
ATOM      5  C05 61O d   1     -16.875   2.567 -12.854  0.00  0.00    -0.066 A 
ATOM      6  C06 61O d   1     -16.261   3.802 -12.964  0.00  0.00    -0.082 A 
ATOM      7  H3  61O d   1     -15.698   5.558 -11.875  0.00  0.00     0.083 H 
ATOM      8  H4  61O d   1     -16.599   4.778  -9.729  0.00  0.00     0.084 H 
ATOM      9  H5  61O d   1     -16.976   1.946 -13.737  0.00  0.00     0.085 H 
ATOM     10  H6  61O d   1     -15.864   4.148 -13.912  0.00  0.00     0.083 H 
ENDROOT
BRANCH   3  11
ATOM     11  C10 61O d   1     -17.757   2.483  -9.207  0.00  0.00    -0.007 A 
ATOM     12  C15 61O d   1     -19.018   1.910  -9.051  0.00  0.00     0.013 A 
ATOM     13  N14 61O d   1     -19.493   1.530  -7.845  0.00  0.00    -0.272 NA
ATOM     14  H2  61O d   1     -19.639   1.764  -9.928  0.00  0.00     0.116 H 
ATOM     15  C13 61O d   1     -18.761   1.694  -6.716  0.00  0.00     0.002 A 
ATOM     16  C12 61O d   1     -17.510   2.280  -6.794  0.00  0.00    -0.065 A 
ATOM     17  H1  61O d   1     -19.153   1.369  -5.759  0.00  0.00     0.114 H 
ATOM     18  C11 61O d   1     -17.019   2.684  -8.025  0.00  0.00    -0.070 A 
ATOM     19  H8  61O d   1     -16.918   2.422  -5.897  0.00  0.00     0.085 H 
ATOM     20  H7  61O d   1     -16.049   3.164  -8.079  0.00  0.00     0.085 H 
ENDBRANCH   3  11
BRANCH   4  21
ATOM     21  C07 61O d   1     -17.940   0.704 -11.582  0.00  0.00     0.210 C 
ATOM     22  O08 61O d   1     -18.814   0.251 -12.386  0.00  0.00    -0.644 OA
ATOM     23  O09 61O d   1     -17.453  -0.043 -10.648  0.00  0.00    -0.644 OA
ENDBRANCH   4  21
TORSDOF 2
