REMARK  13 active torsions:
REMARK  status: ('A' for Active; 'I' for Inactive)
REMARK    1  A    between atoms: C18_2  and  C1_4 
REMARK    2  A    between atoms: C1_4  and  N2_5 
REMARK    3  A    between atoms: C1_4  and  C3_6 
REMARK    4  A    between atoms: C1_4  and  C10_14 
REMARK    5  A    between atoms: C3_6  and  C4_7 
REMARK    6  A    between atoms: C4_7  and  C5_8 
REMARK    7  A    between atoms: C5_8  and  C6_9 
REMARK    8  A    between atoms: C6_9  and  B7_10 
REMARK    9  A    between atoms: B7_10  and  O9_12 
REMARK   10  A    between atoms: B7_10  and  O19_13 
REMARK   11  A    between atoms: B7_10  and  O8_11 
REMARK   12  A    between atoms: C10_14  and  C11_15 
REMARK   13  A    between atoms: C11_15  and  N12_16 
ROOT
ATOM      1  C1  X7A d   1     -25.261   0.528  30.855  0.00  0.00     0.212 C 
ENDROOT
BRANCH   1   2
ATOM      2  C18 X7A d   1     -26.701  -0.013  30.572  0.00  0.00     0.210 C 
ATOM      3  O20 X7A d   1     -27.593  -0.007  31.469  0.00  0.00    -0.646 OA
ATOM      4  O21 X7A d   1     -26.981  -0.453  29.413  0.00  0.00    -0.646 OA
ENDBRANCH   1   2
BRANCH   1   5
ATOM      5  N2  X7A d   1     -25.193   0.961  32.189  0.00  0.00    -0.060 N 
ATOM      6  H   X7A d   1     -25.369   0.172  32.811  0.00  0.00     0.275 HD
ATOM      7  H   X7A d   1     -24.265   1.341  32.375  0.00  0.00     0.275 HD
ATOM      8  H   X7A d   1     -25.895   1.683  32.347  0.00  0.00     0.275 HD
ENDBRANCH   1   5
BRANCH   1   9
ATOM      9  C3  X7A d   1     -24.171  -0.513  30.657  0.00  0.00    -0.024 C 
ATOM     10  H   X7A d   1     -23.345  -0.223  31.307  0.00  0.00     0.037 H 
ATOM     11  H   X7A d   1     -23.950  -0.529  29.590  0.00  0.00     0.037 H 
BRANCH   9  12
ATOM     12  C4  X7A d   1     -24.548  -1.962  31.048  0.00  0.00    -0.063 C 
ATOM     13  H   X7A d   1     -25.240  -2.344  30.298  0.00  0.00     0.033 H 
ATOM     14  H   X7A d   1     -24.987  -1.938  32.045  0.00  0.00     0.033 H 
BRANCH  12  15
ATOM     15  C5  X7A d   1     -23.304  -2.913  31.089  0.00  0.00    -0.065 C 
ATOM     16  H   X7A d   1     -22.691  -2.621  31.942  0.00  0.00     0.032 H 
ATOM     17  H   X7A d   1     -22.783  -2.818  30.136  0.00  0.00     0.032 H 
BRANCH  15  18
ATOM     18  C6  X7A d   1     -23.692  -4.430  31.275  0.00  0.00    -0.003 C 
ATOM     19  H   X7A d   1     -24.178  -4.775  30.363  0.00  0.00     0.033 H 
ATOM     20  H   X7A d   1     -24.352  -4.513  32.138  0.00  0.00     0.033 H 
BRANCH  18  21
ATOM     21  B7  X7A d   1     -22.343  -5.383  31.548  0.00  0.00     0.604 B 
BRANCH  21  22
ATOM     22  O9  X7A d   1     -21.616  -5.016  32.971  0.00  0.00    -0.410 OA
ATOM     23  H   X7A d   1     -22.257  -5.080  33.682  0.00  0.00     0.188 HD
ENDBRANCH  21  22
BRANCH  21  24
ATOM     24  O19 X7A d   1     -21.264  -5.281  30.310  0.00  0.00    -0.410 OA
ATOM     25  H   X7A d   1     -20.916  -4.387  30.263  0.00  0.00     0.188 HD
ENDBRANCH  21  24
BRANCH  21  26
ATOM     26  O8  X7A d   1     -22.685  -7.011  31.731  0.00  0.00    -0.410 OA
ATOM     27  H1  X7A d   1     -23.116  -7.333  30.948  0.00  0.00     0.188 HD
ENDBRANCH  21  26
ENDBRANCH  18  21
ENDBRANCH  15  18
ENDBRANCH  12  15
ENDBRANCH   9  12
ENDBRANCH   1   9
BRANCH   1  28
ATOM     28  C10 X7A d   1     -25.002   1.680  29.856  0.00  0.00     0.001 C 
ATOM     29  H   X7A d   1     -25.213   1.302  28.855  0.00  0.00     0.040 H 
ATOM     30  H   X7A d   1     -23.969   2.003  29.985  0.00  0.00     0.040 H 
BRANCH  28  31
ATOM     31  C11 X7A d   1     -25.928   2.934  30.098  0.00  0.00     0.116 C 
ATOM     32  H   X7A d   1     -25.676   3.361  31.069  0.00  0.00     0.080 H 
ATOM     33  H   X7A d   1     -26.966   2.604  30.053  0.00  0.00     0.080 H 
BRANCH  31  34
ATOM     34  N12 X7A d   1     -25.760   3.820  29.224  0.00  0.00     0.088 N 
ATOM     35  C13 X7A d   1     -24.692   4.694  29.580  0.00  0.00     0.113 C 
ATOM     36  C14 X7A d   1     -24.491   5.752  28.495  0.00  0.00    -0.040 C 
ATOM     37  H   X7A d   1     -23.776   4.113  29.686  0.00  0.00     0.079 H 
ATOM     38  H   X7A d   1     -24.935   5.189  30.520  0.00  0.00     0.079 H 
ATOM     39  C15 X7A d   1     -25.662   6.493  28.241  0.00  0.00    -0.062 C 
ATOM     40  H   X7A d   1     -24.210   5.241  27.574  0.00  0.00     0.035 H 
ATOM     41  H   X7A d   1     -23.723   6.444  28.839  0.00  0.00     0.035 H 
ATOM     42  C16 X7A d   1     -26.772   5.645  27.922  0.00  0.00    -0.040 C 
ATOM     43  H   X7A d   1     -25.475   7.146  27.389  0.00  0.00     0.033 H 
ATOM     44  H   X7A d   1     -25.911   7.058  29.139  0.00  0.00     0.033 H 
ATOM     45  C17 X7A d   1     -26.958   4.550  28.961  0.00  0.00     0.113 C 
ATOM     46  H   X7A d   1     -26.580   5.175  26.957  0.00  0.00     0.035 H 
ATOM     47  H   X7A d   1     -27.675   6.255  27.899  0.00  0.00     0.035 H 
ATOM     48  H   X7A d   1     -27.268   5.025  29.892  0.00  0.00     0.079 H 
ATOM     49  H   X7A d   1     -27.696   3.848  28.574  0.00  0.00     0.079 H 
ENDBRANCH  31  34
ENDBRANCH  28  31
ENDBRANCH   1  28
TORSDOF 13
