REMARK  13 active torsions:
REMARK  status: ('A' for Active; 'I' for Inactive)
REMARK    1  A    between atoms: O01_1  and  B02_2 
REMARK    2  A    between atoms: B02_2  and  O03_3 
REMARK    3  A    between atoms: B02_2  and  O04_4 
REMARK    4  A    between atoms: C05_5  and  B02_2 
REMARK    5  A    between atoms: C05_5  and  C06_6 
REMARK    6  A    between atoms: C06_6  and  C07_7 
REMARK    7  A    between atoms: C07_7  and  C08_8 
REMARK    8  A    between atoms: C08_8  and  C09_9 
REMARK    9  A    between atoms: C09_9  and  N10_10 
REMARK   10  A    between atoms: C09_9  and  C11_11 
REMARK   11  A    between atoms: C09_9  and  C26_26 
REMARK   12  A    between atoms: N14_14  and  C15_15 
REMARK   13  A    between atoms: C15_15  and  C16_16 
ROOT
ATOM      1  C11 XA2 d   1     -24.550   1.766  31.000  0.00  0.00    -0.009 C 
ATOM      2  C12 XA2 d   1     -25.532   2.844  31.261  0.00  0.00    -0.034 C 
ATOM      3  C13 XA2 d   1     -24.974   4.194  30.857  0.00  0.00     0.114 C 
ATOM      4  N14 XA2 d   1     -23.685   4.455  31.515  0.00  0.00     0.092 N 
ATOM      5  C24 XA2 d   1     -22.690   3.387  31.234  0.00  0.00     0.114 C 
ATOM      6  C25 XA2 d   1     -23.234   2.041  31.632  0.00  0.00    -0.034 C 
ATOM      7  H   XA2 d   1     -24.404   1.715  29.921  0.00  0.00     0.044 H 
ATOM      8  H   XA2 d   1     -25.757   2.863  32.327  0.00  0.00     0.036 H 
ATOM      9  H   XA2 d   1     -26.431   2.648  30.677  0.00  0.00     0.036 H 
ATOM     10  H   XA2 d   1     -25.681   4.967  31.158  0.00  0.00     0.079 H 
ATOM     11  H   XA2 d   1     -24.821   4.198  29.778  0.00  0.00     0.079 H 
ATOM     12  H   XA2 d   1     -21.785   3.587  31.808  0.00  0.00     0.079 H 
ATOM     13  H   XA2 d   1     -22.472   3.379  30.166  0.00  0.00     0.079 H 
ATOM     14  H   XA2 d   1     -22.530   1.277  31.302  0.00  0.00     0.036 H 
ATOM     15  H   XA2 d   1     -23.366   2.032  32.714  0.00  0.00     0.036 H 
ENDROOT
BRANCH   1  16
ATOM     16  C09 XA2 d   1     -25.087   0.442  31.536  0.00  0.00     0.214 C 
BRANCH  16  17
ATOM     17  C08 XA2 d   1     -24.066  -0.692  31.170  0.00  0.00    -0.024 C 
ATOM     18  H   XA2 d   1     -24.142  -0.888  30.100  0.00  0.00     0.037 H 
ATOM     19  H   XA2 d   1     -23.068  -0.357  31.453  0.00  0.00     0.037 H 
BRANCH  17  20
ATOM     20  C07 XA2 d   1     -24.373  -2.033  31.940  0.00  0.00    -0.063 C 
ATOM     21  H   XA2 d   1     -24.645  -1.785  32.966  0.00  0.00     0.033 H 
ATOM     22  H   XA2 d   1     -25.181  -2.549  31.422  0.00  0.00     0.033 H 
BRANCH  20  23
ATOM     23  C06 XA2 d   1     -23.120  -2.984  31.976  0.00  0.00    -0.065 C 
ATOM     24  H   XA2 d   1     -22.551  -2.835  31.058  0.00  0.00     0.032 H 
ATOM     25  H   XA2 d   1     -22.532  -2.742  32.861  0.00  0.00     0.032 H 
BRANCH  23  26
ATOM     26  C05 XA2 d   1     -23.520  -4.434  32.055  0.00  0.00    -0.003 C 
ATOM     27  H   XA2 d   1     -24.102  -4.600  32.961  0.00  0.00     0.033 H 
ATOM     28  H   XA2 d   1     -24.121  -4.692  31.183  0.00  0.00     0.033 H 
BRANCH  26  29
ATOM     29  B02 XA2 d   1     -22.110  -5.343  32.364  0.00  0.00     0.604 B 
BRANCH  29  30
ATOM     30  O01 XA2 d   1     -22.508  -6.952  32.491  0.00  0.00    -0.410 OA
ATOM     31  H   XA2 d   1     -21.712  -7.467  32.641  0.00  0.00     0.188 HD
ENDBRANCH  29  30
BRANCH  29  32
ATOM     32  O03 XA2 d   1     -21.399  -4.890  33.761  0.00  0.00    -0.410 OA
ATOM     33  H   XA2 d   1     -20.610  -5.418  33.903  0.00  0.00     0.188 HD
ENDBRANCH  29  32
BRANCH  29  34
ATOM     34  O04 XA2 d   1     -21.010  -5.195  31.089  0.00  0.00    -0.410 OA
ATOM     35  H   XA2 d   1     -20.759  -4.274  30.989  0.00  0.00     0.188 HD
ENDBRANCH  29  34
ENDBRANCH  26  29
ENDBRANCH  23  26
ENDBRANCH  20  23
ENDBRANCH  17  20
ENDBRANCH  16  17
BRANCH  16  36
ATOM     36  N10 XA2 d   1     -25.216   0.536  32.944  0.00  0.00    -0.060 N 
ATOM     37  H   XA2 d   1     -25.881   1.274  33.175  0.00  0.00     0.275 HD
ATOM     38  H   XA2 d   1     -25.552  -0.353  33.313  0.00  0.00     0.275 HD
ATOM     39  H   XA2 d   1     -24.308   0.754  33.354  0.00  0.00     0.275 HD
ENDBRANCH  16  36
BRANCH  16  40
ATOM     40  C26 XA2 d   1     -26.445   0.120  30.917  0.00  0.00     0.210 C 
ATOM     41  O27 XA2 d   1     -26.555  -0.026  29.679  0.00  0.00    -0.646 OA
ATOM     42  O28 XA2 d   1     -27.462  -0.006  31.654  0.00  0.00    -0.646 OA
ENDBRANCH  16  40
ENDBRANCH   1  16
BRANCH   4  43
ATOM     43  C15 XA2 d   1     -23.193   5.759  31.130  0.00  0.00     0.137 C 
ATOM     44  H   XA2 d   1     -23.977   6.494  31.311  0.00  0.00     0.087 H 
ATOM     45  H   XA2 d   1     -22.916   5.729  30.076  0.00  0.00     0.087 H 
BRANCH  43  46
ATOM     46  C16 XA2 d   1     -21.961   6.149  31.947  0.00  0.00    -0.029 A 
ATOM     47  C17 XA2 d   1     -20.757   6.361  31.309  0.00  0.00    -0.073 A 
ATOM     48  C18 XA2 d   1     -19.635   6.722  32.048  0.00  0.00    -0.060 A 
ATOM     49  H   XA2 d   1     -20.684   6.246  30.227  0.00  0.00     0.084 H 
ATOM     50  C19 XA2 d   1     -19.727   6.868  33.413  0.00  0.00     0.055 A 
ATOM     51  H   XA2 d   1     -18.682   6.889  31.545  0.00  0.00     0.086 H 
ATOM     52 CL1  XA2 d   1     -18.313   7.323  34.351  0.00  0.00    -0.083 Cl
ATOM     53  C21 XA2 d   1     -20.942   6.657  34.055  0.00  0.00     0.056 A 
ATOM     54 CL2  XA2 d   1     -21.053   6.846  35.794  0.00  0.00    -0.083 Cl
ATOM     55  C23 XA2 d   1     -22.058   6.300  33.323  0.00  0.00    -0.052 A 
ATOM     56  H   XA2 d   1     -23.012   6.137  33.825  0.00  0.00     0.087 H 
ENDBRANCH  43  46
ENDBRANCH   4  43
TORSDOF 13
