REMARK WARNING: 32 MAX_TORS EXCEEDED!!!
REMARK  44 active torsions:
REMARK  status: ('A' for Active; 'I' for Inactive)
REMARK    1  A    between atoms: N_1  and  CA_2 
REMARK    2  A    between atoms: CA_2  and  C_3 
REMARK    3  A    between atoms: CA_2  and  CB_5 
REMARK       I    between atoms: C_3  and  N_8 
REMARK    4  A    between atoms: CB_5  and  OG1_6 
REMARK    5  A    between atoms: CB_5  and  CG2_7 
REMARK    6  A    between atoms: N_8  and  CA_9 
REMARK    7  A    between atoms: CA_9  and  C_10 
REMARK    8  A    between atoms: CA_9  and  CB_12 
REMARK       I    between atoms: C_10  and  N_17 
REMARK    9  A    between atoms: CB_12  and  CG_13 
REMARK   10  A    between atoms: CG_13  and  CD_14 
REMARK   11  A    between atoms: CD_14  and  CE_15 
REMARK   12  A    between atoms: CE_15  and  NZ_16 
REMARK   13  A    between atoms: N_17  and  CA_18 
REMARK   14  A    between atoms: CA_18  and  C_19 
REMARK   15  A    between atoms: CA_18  and  CB_21 
REMARK       I    between atoms: C_19  and  N_26 
REMARK   16  A    between atoms: CB_21  and  CG_22 
REMARK   17  A    between atoms: CG_22  and  CD_23 
REMARK       I    between atoms: CD_23  and  NE2_25 
REMARK   18  A    between atoms: N_26  and  CA_27 
REMARK   19  A    between atoms: CA_27  and  C_28 
REMARK   20  A    between atoms: CA_27  and  CB_30 
REMARK       I    between atoms: C_28  and  N_33 
REMARK   21  A    between atoms: CB_30  and  OG1_31 
REMARK   22  A    between atoms: CB_30  and  CG2_32 
REMARK   23  A    between atoms: N_33  and  CA_34 
REMARK   24  A    between atoms: CA_34  and  C_35 
REMARK   25  A    between atoms: CA_34  and  CB_37 
REMARK       I    between atoms: C_35  and  N_38 
REMARK   26  A    between atoms: N_38  and  CA_39 
REMARK   27  A    between atoms: CA_39  and  C_40 
REMARK   28  A    between atoms: CA_39  and  CB_42 
REMARK       I    between atoms: C_40  and  N_49 
REMARK   29  A    between atoms: CB_42  and  CG_43 
REMARK   30  A    between atoms: CG_43  and  CD_44 
REMARK   31  A    between atoms: CD_44  and  NE_45 
REMARK       I    between atoms: NE_45  and  CZ_46 
REMARK       I    between atoms: CZ_46  and  NH1_47 
REMARK   32  A    between atoms: N_49  and  CA_50 
REMARK   33  A    between atoms: CA_50  and  CB_51 
REMARK   34  A    between atoms: CA_50  and  C_61 
REMARK   35  A    between atoms: CB_51  and  CG_52 
REMARK   36  A    between atoms: CG_52  and  CD_53 
REMARK   37  A    between atoms: CD_53  and  CE_54 
REMARK   38  A    between atoms: CE_54  and  NZ_55 
REMARK       I    between atoms: NZ_55  and  CH_56 
REMARK   39  A    between atoms: CH_56  and  CX_58 
REMARK   40  A    between atoms: CY_59  and  CH3_60 
REMARK       I    between atoms: C_61  and  N_63 
REMARK   41  A    between atoms: N_63  and  CA_64 
REMARK   42  A    between atoms: CA_64  and  C_65 
REMARK   43  A    between atoms: CA_64  and  CB_67 
REMARK   44  A    between atoms: CB_67  and  OG_68 
ROOT
ATOM      1  CA  ALA d   1      58.190  20.781  -6.985  0.00  0.00     0.086 C 
ATOM      2  H39 ALA d   1      58.203  21.880  -7.020  0.00  0.00     0.086 H 
ENDROOT
BRANCH   1   3
ATOM      3  N   ALA d   1      58.375  20.362  -5.609  0.00  0.00    -0.346 N 
ATOM      4  C   THR d   1      57.643  20.934  -4.665  0.00  0.00     0.243 C 
ATOM      5  O   THR d   1      56.989  21.961  -4.868  0.00  0.00    -0.271 OA
ATOM      6  H38 ALA d   1      59.043  19.654  -5.377  0.00  0.00     0.163 HD
BRANCH   4   7
ATOM      7  CA  THR d   1      57.582  20.176  -3.348  0.00  0.00     0.113 C 
ATOM      8  H32 THR d   1      58.582  20.156  -2.890  0.00  0.00     0.091 H 
BRANCH   7   9
ATOM      9  N   THR d   1      56.655  20.824  -2.421  0.00  0.00    -0.344 N 
ATOM     10  C   GLN d   1      56.942  21.932  -1.734  0.00  0.00     0.241 C 
ATOM     11  O   GLN d   1      57.998  22.476  -1.769  0.00  0.00    -0.271 OA
ATOM     12  H31 THR d   1      55.752  20.413  -2.294  0.00  0.00     0.163 HD
BRANCH  10  13
ATOM     13  CA  GLN d   1      55.869  22.522  -0.855  0.00  0.00     0.090 C 
ATOM     14  H24 GLN d   1      55.337  21.714  -0.332  0.00  0.00     0.087 H 
BRANCH  13  15
ATOM     15  N   GLN d   1      56.459  23.430   0.083  0.00  0.00    -0.346 N 
ATOM     16  C   LYS d   1      56.561  23.171   1.367  0.00  0.00     0.241 C 
ATOM     17  O   LYS d   1      56.391  22.027   1.813  0.00  0.00    -0.271 OA
ATOM     18  H23 GLN d   1      56.810  24.303  -0.256  0.00  0.00     0.163 HD
BRANCH  16  19
ATOM     19  CA  LYS d   1      56.938  24.311   2.310  0.00  0.00     0.089 C 
ATOM     20  H11 LYS d   1      57.865  24.024   2.828  0.00  0.00     0.087 H 
BRANCH  19  21
ATOM     21  N   LYS d   1      57.190  25.548   1.586  0.00  0.00    -0.346 N 
ATOM     22  C   THR d   1      58.368  25.764   1.001  0.00  0.00     0.251 C 
ATOM     23  O   THR d   1      59.275  24.951   1.058  0.00  0.00    -0.271 OA
ATOM     24  H10 LYS d   1      56.473  26.242   1.527  0.00  0.00     0.163 HD
BRANCH  22  25
ATOM     25  CA  THR d   1      58.545  27.075   0.215  0.00  0.00     0.199 C 
ATOM     26  H4  THR d   1      59.382  26.947  -0.488  0.00  0.00     0.103 H 
BRANCH  25  27
ATOM     27  N   THR d   1      57.331  27.351  -0.563  0.00  0.00    -0.064 N 
ATOM     28  H1  THR d   1      57.134  26.569  -1.168  0.00  0.00     0.275 HD
ATOM     29  H2  THR d   1      57.470  28.180  -1.120  0.00  0.00     0.275 HD
ATOM     30  H3  THR d   1      56.555  27.494   0.064  0.00  0.00     0.275 HD
ENDBRANCH  25  27
BRANCH  25  31
ATOM     31  CB  THR d   1      58.900  28.265   1.178  0.00  0.00     0.068 C 
ATOM     32  H5  THR d   1      58.039  28.443   1.839  0.00  0.00     0.086 H 
BRANCH  31  33
ATOM     33  OG1 THR d   1      59.160  29.462   0.421  0.00  0.00    -0.393 OA
ATOM     34  H6  THR d   1      59.373  30.172   1.016  0.00  0.00     0.210 HD
ENDBRANCH  31  33
BRANCH  31  35
ATOM     35  CG2 THR d   1      60.130  27.947   2.048  0.00  0.00    -0.050 C 
ATOM     36  H7  THR d   1      60.345  28.802   2.706  0.00  0.00     0.031 H 
ATOM     37  H8  THR d   1      60.998  27.756   1.400  0.00  0.00     0.031 H 
ATOM     38  H9  THR d   1      59.926  27.056   2.660  0.00  0.00     0.031 H 
ENDBRANCH  31  35
ENDBRANCH  25  31
ENDBRANCH  22  25
ENDBRANCH  19  21
BRANCH  19  39
ATOM     39  CB  LYS d   1      55.846  24.545   3.375  0.00  0.00    -0.038 C 
ATOM     40  H12 LYS d   1      54.868  24.526   2.872  0.00  0.00     0.036 H 
ATOM     41  H13 LYS d   1      56.010  25.537   3.820  0.00  0.00     0.036 H 
BRANCH  39  42
ATOM     42  CG  LYS d   1      55.819  23.503   4.519  0.00  0.00    -0.061 C 
ATOM     43  H14 LYS d   1      56.849  23.361   4.878  0.00  0.00     0.033 H 
ATOM     44  H15 LYS d   1      55.440  22.555   4.110  0.00  0.00     0.033 H 
BRANCH  42  45
ATOM     45  CD  LYS d   1      54.935  23.894   5.731  0.00  0.00    -0.043 C 
ATOM     46  H16 LYS d   1      53.897  24.030   5.393  0.00  0.00     0.035 H 
ATOM     47  H17 LYS d   1      55.307  24.835   6.162  0.00  0.00     0.035 H 
BRANCH  45  48
ATOM     48  CE  LYS d   1      54.978  22.776   6.824  0.00  0.00     0.080 C 
ATOM     49  H18 LYS d   1      56.034  22.559   7.044  0.00  0.00     0.075 H 
ATOM     50  H19 LYS d   1      54.498  21.878   6.408  0.00  0.00     0.075 H 
BRANCH  48  51
ATOM     51  NZ  LYS d   1      54.293  23.108   8.123  0.00  0.00    -0.079 N 
ATOM     52  H20 LYS d   1      54.377  22.328   8.756  0.00  0.00     0.274 HD
ATOM     53  H21 LYS d   1      53.318  23.297   7.950  0.00  0.00     0.274 HD
ATOM     54  H22 LYS d   1      54.726  23.921   8.533  0.00  0.00     0.274 HD
ENDBRANCH  48  51
ENDBRANCH  45  48
ENDBRANCH  42  45
ENDBRANCH  39  42
ENDBRANCH  19  39
ENDBRANCH  16  19
ENDBRANCH  13  15
BRANCH  13  55
ATOM     55  CB  GLN d   1      54.901  23.353  -1.663  0.00  0.00    -0.030 C 
ATOM     56  H25 GLN d   1      55.500  24.032  -2.287  0.00  0.00     0.037 H 
ATOM     57  H26 GLN d   1      54.305  23.940  -0.949  0.00  0.00     0.037 H 
BRANCH  55  58
ATOM     58  CG  GLN d   1      53.943  22.660  -2.567  0.00  0.00     0.011 C 
ATOM     59  H27 GLN d   1      53.499  21.810  -2.028  0.00  0.00     0.047 H 
ATOM     60  H28 GLN d   1      54.490  22.291  -3.447  0.00  0.00     0.047 H 
BRANCH  58  61
ATOM     61  CD  GLN d   1      52.843  23.565  -3.028  0.00  0.00     0.215 C 
ATOM     62  OE1 GLN d   1      52.322  23.435  -4.089  0.00  0.00    -0.274 OA
ATOM     63  NE2 GLN d   1      52.469  24.467  -2.191  0.00  0.00    -0.370 N 
ATOM     64  H29 GLN d   1      51.739  25.105  -2.436  0.00  0.00     0.159 HD
ATOM     65  H30 GLN d   1      52.909  24.531  -1.295  0.00  0.00     0.159 HD
ENDBRANCH  58  61
ENDBRANCH  55  58
ENDBRANCH  13  55
ENDBRANCH  10  13
ENDBRANCH   7   9
BRANCH   7  66
ATOM     66  CB  THR d   1      57.143  18.750  -3.667  0.00  0.00     0.060 C 
ATOM     67  H33 THR d   1      57.796  18.350  -4.457  0.00  0.00     0.086 H 
BRANCH  66  68
ATOM     68  OG1 THR d   1      55.790  18.789  -4.154  0.00  0.00    -0.393 OA
ATOM     69  H34 THR d   1      55.752  19.324  -4.938  0.00  0.00     0.210 HD
ENDBRANCH  66  68
BRANCH  66  70
ATOM     70  CG2 THR d   1      57.247  17.827  -2.446  0.00  0.00    -0.050 C 
ATOM     71  H35 THR d   1      56.921  16.814  -2.724  0.00  0.00     0.031 H 
ATOM     72  H36 THR d   1      56.604  18.211  -1.640  0.00  0.00     0.031 H 
ATOM     73  H37 THR d   1      58.290  17.794  -2.099  0.00  0.00     0.031 H 
ENDBRANCH  66  70
ENDBRANCH   7  66
ENDBRANCH   4   7
ENDBRANCH   1   3
BRANCH   1  74
ATOM     74  C   ALA d   1      56.839  20.289  -7.515  0.00  0.00     0.240 C 
ATOM     75  O   ALA d   1      56.201  19.382  -6.961  0.00  0.00    -0.271 OA
ATOM     76  N   ARG d   1      56.411  20.891  -8.622  0.00  0.00    -0.346 N 
ATOM     77  H43 ARG d   1      56.957  21.629  -9.018  0.00  0.00     0.163 HD
BRANCH  76  78
ATOM     78  CA  ARG d   1      55.164  20.501  -9.273  0.00  0.00     0.089 C 
ATOM     79  H44 ARG d   1      54.668  19.747  -8.645  0.00  0.00     0.087 H 
BRANCH  78  80
ATOM     80  C   ARG d   1      55.376  19.897 -10.647  0.00  0.00     0.241 C 
ATOM     81  O   ARG d   1      56.481  19.925 -11.175  0.00  0.00    -0.271 OA
ATOM     82  N   KCR d   1      54.320  19.361 -11.244  0.00  0.00    -0.346 N 
ATOM     83  H56 KCR d   1      53.445  19.307 -10.762  0.00  0.00     0.163 HD
BRANCH  82  84
ATOM     84  CA  KCR d   1      54.435  18.863 -12.572  0.00  0.00     0.089 C 
ATOM     85  H57 KCR d   1      55.473  18.550 -12.759  0.00  0.00     0.087 H 
BRANCH  84  86
ATOM     86  CB  KCR d   1      53.513  17.694 -12.733  0.00  0.00    -0.038 C 
ATOM     87  H58 KCR d   1      53.713  17.187 -13.688  0.00  0.00     0.036 H 
ATOM     88  H59 KCR d   1      52.467  18.035 -12.711  0.00  0.00     0.036 H 
BRANCH  86  89
ATOM     89  CG  KCR d   1      53.771  16.750 -11.585  0.00  0.00    -0.061 C 
ATOM     90  H60 KCR d   1      53.540  17.266 -10.641  0.00  0.00     0.033 H 
ATOM     91  H61 KCR d   1      54.832  16.460 -11.594  0.00  0.00     0.033 H 
BRANCH  89  92
ATOM     92  CD  KCR d   1      52.923  15.504 -11.681  0.00  0.00    -0.050 C 
ATOM     93  H62 KCR d   1      53.039  15.061 -12.681  0.00  0.00     0.035 H 
ATOM     94  H63 KCR d   1      51.868  15.768 -11.517  0.00  0.00     0.035 H 
BRANCH  92  95
ATOM     95  CE  KCR d   1      53.355  14.503 -10.639  0.00  0.00    -0.004 C 
ATOM     96  H64 KCR d   1      52.708  14.566  -9.751  0.00  0.00     0.064 H 
ATOM     97  H65 KCR d   1      54.400  14.679 -10.345  0.00  0.00     0.064 H 
BRANCH  95  98
ATOM     98  NZ  KCR d   1      53.222  13.254 -11.256  0.00  0.00    -0.358 N 
ATOM     99  CH  KCR d   1      53.366  12.072 -10.513  0.00  0.00     0.240 C 
ATOM    100  OH  KCR d   1      53.645  12.044  -9.312  0.00  0.00    -0.269 OA
ATOM    101  H66 KCR d   1      53.023  13.203 -12.235  0.00  0.00     0.162 HD
BRANCH  99 102
ATOM    102  CX  KCR d   1      53.167  10.868 -11.393  0.00  0.00    -0.022 C 
ATOM    103  CY  KCR d   1      53.237   9.600 -10.977  0.00  0.00    -0.102 C 
ATOM    104  H68 KCR d   1      53.456   9.325  -9.946  0.00  0.00     0.076 H 
ATOM    105  H67 KCR d   1      52.950  11.043 -12.446  0.00  0.00     0.091 H 
BRANCH 103 106
ATOM    106  CH3 KCR d   1      52.986   8.587 -12.060  0.00  0.00    -0.059 C 
ATOM    107  H69 KCR d   1      53.061   7.574 -11.639  0.00  0.00     0.032 H 
ATOM    108  H70 KCR d   1      53.734   8.709 -12.857  0.00  0.00     0.032 H 
ATOM    109  H71 KCR d   1      51.979   8.737 -12.476  0.00  0.00     0.032 H 
ENDBRANCH 103 106
ENDBRANCH  99 102
ENDBRANCH  95  98
ENDBRANCH  92  95
ENDBRANCH  89  92
ENDBRANCH  86  89
ENDBRANCH  84  86
BRANCH  84 110
ATOM    110  C   KCR d   1      54.043  19.920 -13.562  0.00  0.00     0.241 C 
ATOM    111  O   KCR d   1      53.819  21.110 -13.188  0.00  0.00    -0.271 OA
ATOM    112  N   SER d   1      53.924  19.506 -14.819  0.00  0.00    -0.343 N 
ATOM    113  H72 SER d   1      54.107  18.546 -15.030  0.00  0.00     0.163 HD
BRANCH 112 114
ATOM    114  CA  SER d   1      53.536  20.402 -15.901  0.00  0.00     0.116 C 
ATOM    115  H73 SER d   1      54.306  21.182 -15.990  0.00  0.00     0.093 H 
BRANCH 114 116
ATOM    116  C   SER d   1      52.197  21.085 -15.631  0.00  0.00     0.198 C 
ATOM    117  O   SER d   1      52.094  22.309 -15.744  0.00  0.00    -0.646 OA
ATOM    118  OXT SER d   1      51.217  20.414 -15.300  0.00  0.00    -0.646 OA
ENDBRANCH 114 116
BRANCH 114 119
ATOM    119  CB  SER d   1      53.468  19.632 -17.224  0.00  0.00     0.045 C 
ATOM    120  H74 SER d   1      52.479  19.160 -17.320  0.00  0.00     0.077 H 
ATOM    121  H75 SER d   1      54.247  18.856 -17.234  0.00  0.00     0.077 H 
BRANCH 119 122
ATOM    122  OG  SER d   1      53.673  20.515 -18.308  0.00  0.00    -0.398 OA
ATOM    123  H76 SER d   1      53.629  20.029 -19.123  0.00  0.00     0.209 HD
ENDBRANCH 119 122
ENDBRANCH 114 119
ENDBRANCH 112 114
ENDBRANCH  84 110
ENDBRANCH  82  84
ENDBRANCH  78  80
BRANCH  78 124
ATOM    124  CB  ARG d   1      54.273  21.721  -9.368  0.00  0.00    -0.036 C 
ATOM    125  H45 ARG d   1      53.227  21.407  -9.501  0.00  0.00     0.036 H 
ATOM    126  H46 ARG d   1      54.582  22.340 -10.224  0.00  0.00     0.036 H 
BRANCH 124 127
ATOM    127  CG  ARG d   1      54.403  22.497  -8.122  0.00  0.00    -0.048 C 
ATOM    128  H47 ARG d   1      55.306  23.122  -8.183  0.00  0.00     0.035 H 
ATOM    129  H48 ARG d   1      54.495  21.801  -7.275  0.00  0.00     0.035 H 
BRANCH 127 130
ATOM    130  CD  ARG d   1      53.250  23.352  -7.907  0.00  0.00     0.009 C 
ATOM    131  H49 ARG d   1      52.847  23.652  -8.886  0.00  0.00     0.064 H 
ATOM    132  H50 ARG d   1      53.573  24.246  -7.354  0.00  0.00     0.064 H 
BRANCH 130 133
ATOM    133  NE  ARG d   1      52.198  22.696  -7.154  0.00  0.00    -0.227 N 
ATOM    134  CZ  ARG d   1      50.957  22.656  -7.591  0.00  0.00     0.665 C 
ATOM    135  NH1 ARG d   1      50.001  22.091  -6.876  0.00  0.00    -0.235 N 
ATOM    136  NH2 ARG d   1      50.689  23.194  -8.772  0.00  0.00    -0.235 N 
ATOM    137  H52 ARG d   1      49.035  22.069  -7.234  0.00  0.00     0.174 HD
ATOM    138  H53 ARG d   1      50.221  21.673  -5.961  0.00  0.00     0.174 HD
ATOM    139  H54 ARG d   1      51.442  23.632  -9.321  0.00  0.00     0.174 HD
ATOM    140  H55 ARG d   1      49.727  23.174  -9.141  0.00  0.00     0.174 HD
ATOM    141  H51 ARG d   1      52.428  22.250  -6.254  0.00  0.00     0.177 HD
ENDBRANCH 130 133
ENDBRANCH 127 130
ENDBRANCH 124 127
ENDBRANCH  78 124
ENDBRANCH  76  78
ENDBRANCH   1  74
BRANCH   1 142
ATOM    142  CB  ALA d   1      59.315  20.255  -7.866  0.00  0.00    -0.049 C 
ATOM    143  H40 ALA d   1      59.154  20.585  -8.903  0.00  0.00     0.030 H 
ATOM    144  H41 ALA d   1      59.327  19.156  -7.829  0.00  0.00     0.030 H 
ATOM    145  H42 ALA d   1      60.278  20.645  -7.503  0.00  0.00     0.030 H 
ENDBRANCH   1 142
TORSDOF 44
