REMARK WARNING: 32 MAX_TORS EXCEEDED!!!
REMARK  44 active torsions:
REMARK  status: ('A' for Active; 'I' for Inactive)
REMARK    1  A    between atoms: CA_2  and  N_1 
REMARK    2  A    between atoms: C_3  and  CA_2 
REMARK    3  A    between atoms: CA_2  and  CB_5 
REMARK       I    between atoms: N_6  and  C_3 
REMARK    4  A    between atoms: C_8  and  CA_7 
REMARK       I    between atoms: N_13  and  C_8 
REMARK    5  A    between atoms: CA_14  and  N_13 
REMARK    6  A    between atoms: C_15  and  CA_14 
REMARK    7  A    between atoms: CA_14  and  CB_17 
REMARK       I    between atoms: N_33  and  C_15 
REMARK    8  A    between atoms: CB_17  and  CG_18 
REMARK    9  A    between atoms: CG_18  and  CD_19 
REMARK   10  A    between atoms: CD_19  and  NE_20 
REMARK       I    between atoms: NE_20  and  CZ_21 
REMARK       I    between atoms: CZ_21  and  NH1_22 
REMARK   11  A    between atoms: CH_25  and  CH3_26 
REMARK       I    between atoms: NZ_27  and  CH_25 
REMARK   12  A    between atoms: CE_28  and  NZ_27 
REMARK   13  A    between atoms: CD_29  and  CE_28 
REMARK   14  A    between atoms: CG_30  and  CD_29 
REMARK   15  A    between atoms: CB_31  and  CG_30 
REMARK   16  A    between atoms: CA_32  and  CB_31 
REMARK   17  A    between atoms: CA_32  and  N_33 
REMARK   18  A    between atoms: CA_32  and  C_34 
REMARK       I    between atoms: C_34  and  N_36 
REMARK   19  A    between atoms: N_36  and  CA_37 
REMARK   20  A    between atoms: CA_37  and  C_38 
REMARK   21  A    between atoms: CA_37  and  CB_40 
REMARK       I    between atoms: C_38  and  N_45 
REMARK   22  A    between atoms: CB_40  and  CG_41 
REMARK   23  A    between atoms: CG_41  and  CD_42 
REMARK       I    between atoms: CD_42  and  NE2_44 
REMARK   24  A    between atoms: N_45  and  CA_46 
REMARK   25  A    between atoms: CA_46  and  C_47 
REMARK   26  A    between atoms: CA_46  and  CB_49 
REMARK       I    between atoms: C_47  and  N_53 
REMARK   27  A    between atoms: CB_49  and  CG_50 
REMARK   28  A    between atoms: CG_50  and  CD1_51 
REMARK   29  A    between atoms: CG_50  and  CD2_52 
REMARK   30  A    between atoms: N_53  and  CA_54 
REMARK   31  A    between atoms: CA_54  and  C_55 
REMARK   32  A    between atoms: CA_54  and  CB_57 
REMARK       I    between atoms: C_55  and  N_58 
REMARK   33  A    between atoms: N_58  and  CA_59 
REMARK   34  A    between atoms: CA_59  and  C_60 
REMARK   35  A    between atoms: CA_59  and  CB_62 
REMARK       I    between atoms: C_60  and  N_65 
REMARK   36  A    between atoms: CB_62  and  OG1_63 
REMARK   37  A    between atoms: CB_62  and  CG2_64 
REMARK   38  A    between atoms: N_65  and  CA_66 
REMARK   39  A    between atoms: CA_66  and  C_67 
REMARK   40  A    between atoms: CA_66  and  CB_69 
REMARK   41  A    between atoms: CB_69  and  CG_70 
REMARK   42  A    between atoms: CG_70  and  CD_71 
REMARK   43  A    between atoms: CD_71  and  CE_72 
REMARK   44  A    between atoms: CE_72  and  NZ_73 
ROOT
ATOM      1  CA  GLN d   1     -37.410 -30.004  13.176  0.00  0.00     0.090 C 
ATOM      2  H43 GLN d   1     -38.092 -30.036  12.313  0.00  0.00     0.087 H 
ENDROOT
BRANCH   1   3
ATOM      3  N   GLN d   1     -36.483 -31.124  13.065  0.00  0.00    -0.346 N 
ATOM      4  C   ALY d   1     -36.444 -31.902  11.987  0.00  0.00     0.241 C 
ATOM      5  O   ALY d   1     -37.146 -31.674  10.998  0.00  0.00    -0.271 OA
ATOM      6  H42 GLN d   1     -35.858 -31.313  13.822  0.00  0.00     0.163 HD
BRANCH   4   7
ATOM      7  CA  ALY d   1     -35.487 -33.081  12.121  0.00  0.00     0.089 C 
ATOM      8  H40 ALY d   1     -35.315 -33.228  13.197  0.00  0.00     0.087 H 
BRANCH   7   9
ATOM      9  CB  ALY d   1     -34.099 -32.728  11.536  0.00  0.00    -0.038 C 
ATOM     10  H38 ALY d   1     -33.552 -32.140  12.288  0.00  0.00     0.036 H 
ATOM     11  H39 ALY d   1     -33.561 -33.668  11.344  0.00  0.00     0.036 H 
BRANCH   9  12
ATOM     12  CG  ALY d   1     -34.127 -31.934  10.250  0.00  0.00    -0.061 C 
ATOM     13  H36 ALY d   1     -34.184 -32.627   9.398  0.00  0.00     0.033 H 
ATOM     14  H37 ALY d   1     -35.010 -31.278  10.249  0.00  0.00     0.033 H 
BRANCH  12  15
ATOM     15  CD  ALY d   1     -32.876 -31.086  10.120  0.00  0.00    -0.050 C 
ATOM     16  H34 ALY d   1     -33.101 -30.209   9.496  0.00  0.00     0.035 H 
ATOM     17  H35 ALY d   1     -32.563 -30.754  11.121  0.00  0.00     0.035 H 
BRANCH  15  18
ATOM     18  CE  ALY d   1     -31.733 -31.877   9.476  0.00  0.00    -0.005 C 
ATOM     19  H32 ALY d   1     -31.268 -32.506  10.249  0.00  0.00     0.064 H 
ATOM     20  H33 ALY d   1     -32.156 -32.517   8.688  0.00  0.00     0.064 H 
BRANCH  18  21
ATOM     21  NZ  ALY d   1     -30.713 -31.052   8.890  0.00  0.00    -0.361 N 
ATOM     22  CH  ALY d   1     -29.898 -31.446   7.841  0.00  0.00     0.213 C 
ATOM     23  OH  ALY d   1     -29.996 -32.575   7.320  0.00  0.00    -0.274 OA
ATOM     24  H31 ALY d   1     -30.583 -30.134   9.264  0.00  0.00     0.162 HD
BRANCH  22  25
ATOM     25  CH3 ALY d   1     -28.880 -30.444   7.350  0.00  0.00    -0.003 C 
ATOM     26  H28 ALY d   1     -28.961 -29.520   7.941  0.00  0.00     0.040 H 
ATOM     27  H29 ALY d   1     -29.069 -30.219   6.290  0.00  0.00     0.040 H 
ATOM     28  H30 ALY d   1     -27.869 -30.863   7.461  0.00  0.00     0.040 H 
ENDBRANCH  22  25
ENDBRANCH  18  21
ENDBRANCH  15  18
ENDBRANCH  12  15
ENDBRANCH   9  12
ENDBRANCH   7   9
BRANCH   7  29
ATOM     29  N   ALY d   1     -36.132 -34.297  11.670  0.00  0.00    -0.346 N 
ATOM     30  C   ARG d   1     -37.085 -34.870  12.399  0.00  0.00     0.241 C 
ATOM     31  O   ARG d   1     -37.489 -34.391  13.459  0.00  0.00    -0.271 OA
ATOM     32  H41 ALY d   1     -35.858 -34.710  10.801  0.00  0.00     0.163 HD
BRANCH  30  33
ATOM     33  CA  ARG d   1     -37.665 -36.177  11.871  0.00  0.00     0.089 C 
ATOM     34  H16 ARG d   1     -37.046 -36.526  11.032  0.00  0.00     0.087 H 
BRANCH  33  35
ATOM     35  N   ARG d   1     -37.635 -37.184  12.925  0.00  0.00    -0.346 N 
ATOM     36  C   PRO d   1     -37.014 -38.349  12.774  0.00  0.00     0.241 C 
ATOM     37  O   PRO d   1     -36.488 -38.704  11.718  0.00  0.00    -0.271 OA
ATOM     38  H15 ARG d   1     -38.097 -36.992  13.791  0.00  0.00     0.163 HD
BRANCH  36  39
ATOM     39  CA  PRO d   1     -36.971 -39.257  14.001  0.00  0.00     0.091 C 
ATOM     40  N   PRO d   1     -37.393 -40.635  13.725  0.00  0.00    -0.337 N 
ATOM     41  C   ALA d   1     -38.633 -40.965  13.333  0.00  0.00     0.250 C 
ATOM     42  CD  PRO d   1     -36.320 -41.602  14.009  0.00  0.00    -0.001 C 
ATOM     43  O   ALA d   1     -39.513 -40.129  13.128  0.00  0.00    -0.271 OA
ATOM     44  CG  PRO d   1     -35.432 -40.841  14.940  0.00  0.00    -0.048 C 
ATOM     45  H13 PRO d   1     -35.785 -41.882  13.090  0.00  0.00     0.064 H 
ATOM     46  H14 PRO d   1     -36.718 -42.507  14.491  0.00  0.00     0.064 H 
ATOM     47  CB  PRO d   1     -35.528 -39.424  14.493  0.00  0.00    -0.036 C 
ATOM     48  H11 PRO d   1     -35.782 -40.944  15.978  0.00  0.00     0.035 H 
ATOM     49  H12 PRO d   1     -34.395 -41.200  14.865  0.00  0.00     0.035 H 
ATOM     50  H9  PRO d   1     -35.324 -38.740  15.330  0.00  0.00     0.036 H 
ATOM     51  H10 PRO d   1     -34.817 -39.227  13.677  0.00  0.00     0.036 H 
ATOM     52  H8  PRO d   1     -37.603 -38.818  14.787  0.00  0.00     0.087 H 
BRANCH  41  53
ATOM     53  CA  ALA d   1     -38.919 -42.451  13.148  0.00  0.00     0.172 C 
ATOM     54  H4  ALA d   1     -38.084 -43.019  13.582  0.00  0.00     0.098 H 
BRANCH  53  55
ATOM     55  N   ALA d   1     -40.143 -42.837  13.839  0.00  0.00    -0.067 N 
ATOM     56  H1  ALA d   1     -40.310 -43.822  13.702  0.00  0.00     0.275 HD
ATOM     57  H2  ALA d   1     -40.918 -42.310  13.469  0.00  0.00     0.275 HD
ATOM     58  H3  ALA d   1     -40.047 -42.646  14.824  0.00  0.00     0.275 HD
ENDBRANCH  53  55
BRANCH  53  59
ATOM     59  CB  ALA d   1     -39.015 -42.794  11.672  0.00  0.00    -0.042 C 
ATOM     60  H5  ALA d   1     -38.085 -42.497  11.165  0.00  0.00     0.030 H 
ATOM     61  H6  ALA d   1     -39.864 -42.256  11.225  0.00  0.00     0.030 H 
ATOM     62  H7  ALA d   1     -39.166 -43.877  11.556  0.00  0.00     0.030 H 
ENDBRANCH  53  59
ENDBRANCH  41  53
ENDBRANCH  36  39
ENDBRANCH  33  35
BRANCH  33  63
ATOM     63  CB  ARG d   1     -39.093 -35.961  11.365  0.00  0.00    -0.036 C 
ATOM     64  H17 ARG d   1     -39.728 -35.706  12.226  0.00  0.00     0.036 H 
ATOM     65  H18 ARG d   1     -39.445 -36.901  10.916  0.00  0.00     0.036 H 
BRANCH  63  66
ATOM     66  CG  ARG d   1     -39.232 -34.858  10.328  0.00  0.00    -0.048 C 
ATOM     67  H19 ARG d   1     -38.707 -35.160   9.409  0.00  0.00     0.035 H 
ATOM     68  H20 ARG d   1     -38.781 -33.935  10.722  0.00  0.00     0.035 H 
BRANCH  66  69
ATOM     69  CD  ARG d   1     -40.695 -34.597  10.002  0.00  0.00     0.009 C 
ATOM     70  H21 ARG d   1     -40.894 -33.520  10.109  0.00  0.00     0.064 H 
ATOM     71  H22 ARG d   1     -41.320 -35.158  10.712  0.00  0.00     0.064 H 
BRANCH  69  72
ATOM     72  NE  ARG d   1     -41.046 -35.005   8.645  0.00  0.00    -0.227 N 
ATOM     73  CZ  ARG d   1     -41.201 -34.163   7.627  0.00  0.00     0.665 C 
ATOM     74  NH1 ARG d   1     -41.043 -32.860   7.814  0.00  0.00    -0.235 N 
ATOM     75  NH2 ARG d   1     -41.520 -34.623   6.425  0.00  0.00    -0.235 N 
ATOM     76  H24 ARG d   1     -41.163 -32.208   7.026  0.00  0.00     0.174 HD
ATOM     77  H25 ARG d   1     -40.800 -32.499   8.748  0.00  0.00     0.174 HD
ATOM     78  H26 ARG d   1     -41.643 -35.635   6.277  0.00  0.00     0.174 HD
ATOM     79  H27 ARG d   1     -41.644 -33.968   5.639  0.00  0.00     0.174 HD
ATOM     80  H23 ARG d   1     -41.182 -36.010   8.464  0.00  0.00     0.177 HD
ENDBRANCH  69  72
ENDBRANCH  66  69
ENDBRANCH  63  66
ENDBRANCH  33  63
ENDBRANCH  30  33
ENDBRANCH   7  29
ENDBRANCH   4   7
ENDBRANCH   1   3
BRANCH   1  81
ATOM     81  C   GLN d   1     -36.676 -28.666  13.155  0.00  0.00     0.241 C 
ATOM     82  O   GLN d   1     -35.970 -28.318  14.103  0.00  0.00    -0.271 OA
ATOM     83  N   LEU d   1     -36.851 -27.919  12.070  0.00  0.00    -0.346 N 
ATOM     84  H50 LEU d   1     -37.467 -28.243  11.351  0.00  0.00     0.163 HD
BRANCH  83  85
ATOM     85  CA  LEU d   1     -36.171 -26.640  11.897  0.00  0.00     0.089 C 
ATOM     86  H51 LEU d   1     -35.133 -26.757  12.240  0.00  0.00     0.087 H 
BRANCH  85  87
ATOM     87  C   LEU d   1     -36.820 -25.530  12.715  0.00  0.00     0.241 C 
ATOM     88  O   LEU d   1     -36.205 -24.491  12.956  0.00  0.00    -0.271 OA
ATOM     89  N   ALA d   1     -38.064 -25.754  13.131  0.00  0.00    -0.346 N 
ATOM     90  H61 ALA d   1     -38.485 -26.641  12.940  0.00  0.00     0.163 HD
BRANCH  89  91
ATOM     91  CA  ALA d   1     -38.836 -24.749  13.857  0.00  0.00     0.086 C 
ATOM     92  H62 ALA d   1     -38.991 -23.891  13.187  0.00  0.00     0.086 H 
BRANCH  91  93
ATOM     93  C   ALA d   1     -38.100 -24.251  15.097  0.00  0.00     0.240 C 
ATOM     94  O   ALA d   1     -37.478 -25.031  15.818  0.00  0.00    -0.271 OA
ATOM     95  N   THR d   1     -38.175 -22.945  15.330  0.00  0.00    -0.344 N 
ATOM     96  H66 THR d   1     -38.752 -22.381  14.739  0.00  0.00     0.163 HD
BRANCH  95  97
ATOM     97  CA  THR d   1     -37.445 -22.306  16.419  0.00  0.00     0.113 C 
ATOM     98  H67 THR d   1     -36.395 -22.627  16.347  0.00  0.00     0.091 H 
BRANCH  97  99
ATOM     99  C   THR d   1     -37.965 -22.698  17.799  0.00  0.00     0.243 C 
ATOM    100  O   THR d   1     -39.115 -23.110  17.953  0.00  0.00    -0.271 OA
ATOM    101  N   LYS d   1     -37.103 -22.552  18.800  0.00  0.00    -0.345 N 
ATOM    102  H73 LYS d   1     -36.200 -22.166  18.608  0.00  0.00     0.163 HD
BRANCH 101 103
ATOM    103  CA  LYS d   1     -37.429 -22.935  20.168  0.00  0.00     0.096 C 
ATOM    104  H74 LYS d   1     -38.446 -23.355  20.178  0.00  0.00     0.089 H 
BRANCH 103 105
ATOM    105  C   LYS d   1     -37.399 -21.727  21.100  0.00  0.00     0.196 C 
ATOM    106  O   LYS d   1     -38.446 -21.208  21.492  0.00  0.00    -0.646 OA
ATOM    107  OXT LYS d   1     -36.327 -21.249  21.477  0.00  0.00    -0.646 OA
ENDBRANCH 103 105
BRANCH 103 108
ATOM    108  CB  LYS d   1     -36.456 -24.005  20.660  0.00  0.00    -0.037 C 
ATOM    109  H75 LYS d   1     -36.822 -24.392  21.622  0.00  0.00     0.036 H 
ATOM    110  H76 LYS d   1     -35.470 -23.540  20.803  0.00  0.00     0.036 H 
BRANCH 108 111
ATOM    111  CG  LYS d   1     -36.302 -25.174  19.698  0.00  0.00    -0.061 C 
ATOM    112  H77 LYS d   1     -36.187 -24.779  18.678  0.00  0.00     0.033 H 
ATOM    113  H78 LYS d   1     -37.208 -25.796  19.751  0.00  0.00     0.033 H 
BRANCH 111 114
ATOM    114  CD  LYS d   1     -35.093 -26.042  20.025  0.00  0.00    -0.043 C 
ATOM    115  H79 LYS d   1     -34.261 -25.389  20.328  0.00  0.00     0.035 H 
ATOM    116  H80 LYS d   1     -34.808 -26.604  19.123  0.00  0.00     0.035 H 
BRANCH 114 117
ATOM    117  CE  LYS d   1     -35.372 -27.031  21.149  0.00  0.00     0.080 C 
ATOM    118  H81 LYS d   1     -34.583 -27.798  21.142  0.00  0.00     0.075 H 
ATOM    119  H82 LYS d   1     -36.346 -27.506  20.962  0.00  0.00     0.075 H 
BRANCH 117 120
ATOM    120  NZ  LYS d   1     -35.406 -26.402  22.496  0.00  0.00    -0.079 N 
ATOM    121  H83 LYS d   1     -35.594 -27.107  23.191  0.00  0.00     0.274 HD
ATOM    122  H84 LYS d   1     -36.131 -25.703  22.522  0.00  0.00     0.274 HD
ATOM    123  H85 LYS d   1     -34.516 -25.970  22.688  0.00  0.00     0.274 HD
ENDBRANCH 117 120
ENDBRANCH 114 117
ENDBRANCH 111 114
ENDBRANCH 108 111
ENDBRANCH 103 108
ENDBRANCH 101 103
ENDBRANCH  97  99
BRANCH  97 124
ATOM    124  CB  THR d   1     -37.493 -20.773  16.293  0.00  0.00     0.060 C 
ATOM    125  H68 THR d   1     -36.615 -20.428  15.728  0.00  0.00     0.086 H 
BRANCH 124 126
ATOM    126  OG1 THR d   1     -37.482 -20.188  17.601  0.00  0.00    -0.393 OA
ATOM    127  H69 THR d   1     -37.512 -19.242  17.524  0.00  0.00     0.210 HD
ENDBRANCH 124 126
BRANCH 124 128
ATOM    128  CG2 THR d   1     -38.757 -20.339  15.573  0.00  0.00    -0.050 C 
ATOM    129  H70 THR d   1     -38.775 -19.242  15.492  0.00  0.00     0.031 H 
ATOM    130  H71 THR d   1     -39.637 -20.679  16.139  0.00  0.00     0.031 H 
ATOM    131  H72 THR d   1     -38.776 -20.781  14.566  0.00  0.00     0.031 H 
ENDBRANCH 124 128
ENDBRANCH  97 124
ENDBRANCH  95  97
ENDBRANCH  91  93
BRANCH  91 132
ATOM    132  CB  ALA d   1     -40.197 -25.306  14.240  0.00  0.00    -0.049 C 
ATOM    133  H63 ALA d   1     -40.767 -24.539  14.785  0.00  0.00     0.030 H 
ATOM    134  H64 ALA d   1     -40.064 -26.190  14.882  0.00  0.00     0.030 H 
ATOM    135  H65 ALA d   1     -40.745 -25.592  13.330  0.00  0.00     0.030 H 
ENDBRANCH  91 132
ENDBRANCH  89  91
ENDBRANCH  85  87
BRANCH  85 136
ATOM    136  CB  LEU d   1     -36.153 -26.244  10.420  0.00  0.00    -0.035 C 
ATOM    137  H52 LEU d   1     -35.593 -25.301  10.337  0.00  0.00     0.037 H 
ATOM    138  H53 LEU d   1     -37.195 -26.080  10.109  0.00  0.00     0.037 H 
BRANCH 136 139
ATOM    139  CG  LEU d   1     -35.531 -27.236   9.436  0.00  0.00    -0.059 C 
ATOM    140  H54 LEU d   1     -36.106 -28.172   9.480  0.00  0.00     0.038 H 
BRANCH 139 141
ATOM    141  CD1 LEU d   1     -35.610 -26.693   8.017  0.00  0.00    -0.073 C 
ATOM    142  H55 LEU d   1     -35.159 -27.417   7.322  0.00  0.00     0.028 H 
ATOM    143  H56 LEU d   1     -35.065 -25.740   7.958  0.00  0.00     0.028 H 
ATOM    144  H57 LEU d   1     -36.663 -26.530   7.745  0.00  0.00     0.028 H 
ENDBRANCH 139 141
BRANCH 139 145
ATOM    145  CD2 LEU d   1     -34.093 -27.545   9.814  0.00  0.00    -0.073 C 
ATOM    146  H58 LEU d   1     -34.060 -27.936  10.842  0.00  0.00     0.028 H 
ATOM    147  H59 LEU d   1     -33.492 -26.626   9.752  0.00  0.00     0.028 H 
ATOM    148  H60 LEU d   1     -33.686 -28.297   9.123  0.00  0.00     0.028 H 
ENDBRANCH 139 145
ENDBRANCH 136 139
ENDBRANCH  85 136
ENDBRANCH  83  85
ENDBRANCH   1  81
BRANCH   1 149
ATOM    149  CB  GLN d   1     -38.241 -30.128  14.456  0.00  0.00    -0.030 C 
ATOM    150  H44 GLN d   1     -38.992 -29.324  14.457  0.00  0.00     0.037 H 
ATOM    151  H45 GLN d   1     -37.567 -30.001  15.316  0.00  0.00     0.037 H 
BRANCH 149 152
ATOM    152  CG  GLN d   1     -38.967 -31.455  14.614  0.00  0.00     0.011 C 
ATOM    153  H46 GLN d   1     -39.356 -31.522  15.641  0.00  0.00     0.047 H 
ATOM    154  H47 GLN d   1     -38.249 -32.270  14.440  0.00  0.00     0.047 H 
BRANCH 152 155
ATOM    155  CD  GLN d   1     -40.124 -31.615  13.647  0.00  0.00     0.215 C 
ATOM    156  OE1 GLN d   1     -40.559 -30.653  13.012  0.00  0.00    -0.274 OA
ATOM    157  NE2 GLN d   1     -40.631 -32.836  13.531  0.00  0.00    -0.370 N 
ATOM    158  H48 GLN d   1     -41.395 -33.003  12.908  0.00  0.00     0.159 HD
ATOM    159  H49 GLN d   1     -40.248 -33.589  14.066  0.00  0.00     0.159 HD
ENDBRANCH 152 155
ENDBRANCH 149 152
ENDBRANCH   1 149
TORSDOF 44
