REMARK WARNING: 32 MAX_TORS EXCEEDED!!!
REMARK  37 active torsions:
REMARK  status: ('A' for Active; 'I' for Inactive)
REMARK    1  A    between atoms: N_1  and  CA_2 
REMARK    2  A    between atoms: CA_2  and  C_3 
REMARK    3  A    between atoms: CA_2  and  CB_5 
REMARK       I    between atoms: C_3  and  N_10 
REMARK    4  A    between atoms: CB_5  and  CG_6 
REMARK    5  A    between atoms: CG_6  and  CD_7 
REMARK    6  A    between atoms: CD_7  and  CE_8 
REMARK    7  A    between atoms: CE_8  and  NZ_9 
REMARK    8  A    between atoms: N_10  and  CA_11 
REMARK    9  A    between atoms: CA_11  and  C_12 
REMARK   10  A    between atoms: CA_11  and  CB_14 
REMARK       I    between atoms: C_12  and  N_15 
REMARK   11  A    between atoms: CA_16  and  C_17 
REMARK       I    between atoms: C_17  and  N_22 
REMARK   12  A    between atoms: N_22  and  CA_23 
REMARK   13  A    between atoms: CA_23  and  C_24 
REMARK   14  A    between atoms: CA_23  and  CB_26 
REMARK       I    between atoms: C_24  and  N_33 
REMARK   15  A    between atoms: CB_26  and  CG_27 
REMARK   16  A    between atoms: CG_27  and  CD_28 
REMARK   17  A    between atoms: CD_28  and  NE_29 
REMARK       I    between atoms: NE_29  and  CZ_30 
REMARK       I    between atoms: CZ_30  and  NH1_31 
REMARK   18  A    between atoms: N_33  and  CA_34 
REMARK   19  A    between atoms: CA_34  and  CB_35 
REMARK   20  A    between atoms: CA_34  and  C_45 
REMARK   21  A    between atoms: CB_35  and  CG_36 
REMARK   22  A    between atoms: CG_36  and  CD_37 
REMARK   23  A    between atoms: CD_37  and  CE_38 
REMARK   24  A    between atoms: CE_38  and  NZ_39 
REMARK       I    between atoms: NZ_39  and  CH_40 
REMARK   25  A    between atoms: CH_40  and  CX_42 
REMARK   26  A    between atoms: CY_43  and  CH3_44 
REMARK       I    between atoms: C_45  and  N_47 
REMARK   27  A    between atoms: N_47  and  CA_48 
REMARK   28  A    between atoms: CA_48  and  C_49 
REMARK   29  A    between atoms: CA_48  and  CB_51 
REMARK       I    between atoms: C_49  and  N_56 
REMARK   30  A    between atoms: CB_51  and  CG_52 
REMARK   31  A    between atoms: CG_52  and  CD_53 
REMARK       I    between atoms: CD_53  and  NE2_55 
REMARK   32  A    between atoms: N_56  and  CA_57 
REMARK   33  A    between atoms: CA_57  and  C_58 
REMARK   34  A    between atoms: CA_57  and  CB_60 
REMARK   35  A    between atoms: CB_60  and  CG_61 
REMARK   36  A    between atoms: CG_61  and  CD1_62 
REMARK   37  A    between atoms: CG_61  and  CD2_63 
ROOT
ATOM      1  CA  ARG d   1     -10.097   5.840  61.760  0.00  0.00     0.089 C 
ATOM      2  H29 ARG d   1     -10.537   6.707  61.246  0.00  0.00     0.087 H 
ENDROOT
BRANCH   1   3
ATOM      3  N   ARG d   1      -9.056   6.315  62.660  0.00  0.00    -0.346 N 
ATOM      4  C   PRO d   1      -8.685   7.589  62.678  0.00  0.00     0.241 C 
ATOM      5  O   PRO d   1      -9.163   8.443  61.932  0.00  0.00    -0.271 OA
ATOM      6  H28 ARG d   1      -8.611   5.667  63.278  0.00  0.00     0.163 HD
BRANCH   4   7
ATOM      7  CA  PRO d   1      -7.607   7.968  63.683  0.00  0.00     0.091 C 
ATOM      8  N   PRO d   1      -6.735   9.026  63.173  0.00  0.00    -0.337 N 
ATOM      9  C   ALA d   1      -5.703   8.787  62.343  0.00  0.00     0.243 C 
ATOM     10  CD  PRO d   1      -7.161  10.355  63.657  0.00  0.00    -0.001 C 
ATOM     11  O   ALA d   1      -5.432   7.665  61.916  0.00  0.00    -0.271 OA
ATOM     12  CG  PRO d   1      -8.345  10.041  64.546  0.00  0.00    -0.048 C 
ATOM     13  H26 PRO d   1      -7.459  11.002  62.819  0.00  0.00     0.064 H 
ATOM     14  H27 PRO d   1      -6.357  10.842  64.229  0.00  0.00     0.064 H 
ATOM     15  CB  PRO d   1      -8.220   8.607  64.925  0.00  0.00    -0.036 C 
ATOM     16  H24 PRO d   1      -8.324  10.675  65.445  0.00  0.00     0.035 H 
ATOM     17  H25 PRO d   1      -9.285  10.209  64.000  0.00  0.00     0.035 H 
ATOM     18  H22 PRO d   1      -7.560   8.486  65.797  0.00  0.00     0.036 H 
ATOM     19  H23 PRO d   1      -9.205   8.171  65.147  0.00  0.00     0.036 H 
ATOM     20  H21 PRO d   1      -7.025   7.072  63.946  0.00  0.00     0.087 H 
BRANCH   9  21
ATOM     21  CA  ALA d   1      -4.858   9.994  61.951  0.00  0.00     0.086 C 
ATOM     22  H17 ALA d   1      -5.011  10.762  62.723  0.00  0.00     0.086 H 
BRANCH  21  23
ATOM     23  N   ALA d   1      -3.414   9.738  61.872  0.00  0.00    -0.346 N 
ATOM     24  C   LYS d   1      -2.557   9.566  62.889  0.00  0.00     0.248 C 
ATOM     25  O   LYS d   1      -1.341   9.603  62.699  0.00  0.00    -0.271 OA
ATOM     26  H16 ALA d   1      -3.024   9.686  60.953  0.00  0.00     0.163 HD
BRANCH  24  27
ATOM     27  CA  LYS d   1      -3.058   9.341  64.334  0.00  0.00     0.176 C 
ATOM     28  H4  LYS d   1      -2.194   9.502  64.995  0.00  0.00     0.099 H 
BRANCH  27  29
ATOM     29  N   LYS d   1      -4.113  10.239  64.804  0.00  0.00    -0.067 N 
ATOM     30  H1  LYS d   1      -4.359  10.001  65.752  0.00  0.00     0.275 HD
ATOM     31  H2  LYS d   1      -4.924  10.143  64.213  0.00  0.00     0.275 HD
ATOM     32  H3  LYS d   1      -3.783  11.191  64.771  0.00  0.00     0.275 HD
ENDBRANCH  27  29
BRANCH  27  33
ATOM     33  CB  LYS d   1      -3.508   7.881  64.491  0.00  0.00    -0.030 C 
ATOM     34  H5  LYS d   1      -4.491   7.770  64.011  0.00  0.00     0.036 H 
ATOM     35  H6  LYS d   1      -3.598   7.662  65.565  0.00  0.00     0.036 H 
BRANCH  33  36
ATOM     36  CG  LYS d   1      -2.558   6.862  63.874  0.00  0.00    -0.061 C 
ATOM     37  H7  LYS d   1      -1.885   7.379  63.174  0.00  0.00     0.033 H 
ATOM     38  H8  LYS d   1      -3.147   6.110  63.328  0.00  0.00     0.033 H 
BRANCH  36  39
ATOM     39  CD  LYS d   1      -1.724   6.162  64.931  0.00  0.00    -0.043 C 
ATOM     40  H9  LYS d   1      -2.246   6.212  65.898  0.00  0.00     0.035 H 
ATOM     41  H10 LYS d   1      -0.749   6.663  65.015  0.00  0.00     0.035 H 
BRANCH  39  42
ATOM     42  CE  LYS d   1      -1.509   4.706  64.551  0.00  0.00     0.080 C 
ATOM     43  H11 LYS d   1      -2.466   4.170  64.636  0.00  0.00     0.075 H 
ATOM     44  H12 LYS d   1      -0.776   4.261  65.240  0.00  0.00     0.075 H 
BRANCH  42  45
ATOM     45  NZ  LYS d   1      -1.002   4.573  63.153  0.00  0.00    -0.079 N 
ATOM     46  H13 LYS d   1      -0.871   3.598  62.934  0.00  0.00     0.274 HD
ATOM     47  H14 LYS d   1      -0.122   5.058  63.067  0.00  0.00     0.274 HD
ATOM     48  H15 LYS d   1      -1.670   4.974  62.514  0.00  0.00     0.274 HD
ENDBRANCH  42  45
ENDBRANCH  39  42
ENDBRANCH  36  39
ENDBRANCH  33  36
ENDBRANCH  27  33
ENDBRANCH  24  27
ENDBRANCH  21  23
BRANCH  21  49
ATOM     49  CB  ALA d   1      -5.344  10.551  60.620  0.00  0.00    -0.049 C 
ATOM     50  H18 ALA d   1      -6.426  10.744  60.676  0.00  0.00     0.030 H 
ATOM     51  H19 ALA d   1      -5.143   9.822  59.822  0.00  0.00     0.030 H 
ATOM     52  H20 ALA d   1      -4.815  11.490  60.401  0.00  0.00     0.030 H 
ENDBRANCH  21  49
ENDBRANCH   9  21
ENDBRANCH   4   7
ENDBRANCH   1   3
BRANCH   1  53
ATOM     53  C   ARG d   1     -11.194   5.146  62.558  0.00  0.00     0.241 C 
ATOM     54  O   ARG d   1     -11.006   4.821  63.727  0.00  0.00    -0.271 OA
ATOM     55  N   KCR d   1     -12.341   4.926  61.925  0.00  0.00    -0.346 N 
ATOM     56  H41 KCR d   1     -12.411   5.146  60.952  0.00  0.00     0.163 HD
BRANCH  55  57
ATOM     57  CA  KCR d   1     -13.475   4.385  62.598  0.00  0.00     0.089 C 
ATOM     58  H42 KCR d   1     -13.503   4.792  63.620  0.00  0.00     0.087 H 
BRANCH  57  59
ATOM     59  CB  KCR d   1     -14.724   4.822  61.869  0.00  0.00    -0.038 C 
ATOM     60  H43 KCR d   1     -15.603   4.418  62.392  0.00  0.00     0.036 H 
ATOM     61  H44 KCR d   1     -14.695   4.428  60.843  0.00  0.00     0.036 H 
BRANCH  59  62
ATOM     62  CG  KCR d   1     -14.835   6.332  61.813  0.00  0.00    -0.061 C 
ATOM     63  H45 KCR d   1     -14.437   6.680  60.848  0.00  0.00     0.033 H 
ATOM     64  H46 KCR d   1     -14.239   6.761  62.632  0.00  0.00     0.033 H 
BRANCH  62  65
ATOM     65  CD  KCR d   1     -16.263   6.811  61.950  0.00  0.00    -0.050 C 
ATOM     66  H47 KCR d   1     -16.696   6.372  62.861  0.00  0.00     0.035 H 
ATOM     67  H48 KCR d   1     -16.834   6.472  61.073  0.00  0.00     0.035 H 
BRANCH  65  68
ATOM     68  CE  KCR d   1     -16.367   8.317  62.043  0.00  0.00    -0.004 C 
ATOM     69  H49 KCR d   1     -16.079   8.768  61.082  0.00  0.00     0.064 H 
ATOM     70  H50 KCR d   1     -15.700   8.686  62.836  0.00  0.00     0.064 H 
BRANCH  68  71
ATOM     71  NZ  KCR d   1     -17.710   8.662  62.350  0.00  0.00    -0.358 N 
ATOM     72  CH  KCR d   1     -18.085   9.985  62.700  0.00  0.00     0.240 C 
ATOM     73  OH  KCR d   1     -17.260  10.877  62.750  0.00  0.00    -0.269 OA
ATOM     74  H51 KCR d   1     -18.413   7.951  62.319  0.00  0.00     0.162 HD
BRANCH  72  75
ATOM     75  CX  KCR d   1     -19.538  10.258  63.021  0.00  0.00    -0.022 C 
ATOM     76  CY  KCR d   1     -19.955  11.493  63.355  0.00  0.00    -0.102 C 
ATOM     77  H53 KCR d   1     -19.246  12.318  63.403  0.00  0.00     0.076 H 
ATOM     78  H52 KCR d   1     -20.258   9.442  62.981  0.00  0.00     0.091 H 
BRANCH  76  79
ATOM     79  CH3 KCR d   1     -21.418  11.725  63.663  0.00  0.00    -0.059 C 
ATOM     80  H54 KCR d   1     -21.576  12.784  63.914  0.00  0.00     0.032 H 
ATOM     81  H55 KCR d   1     -21.717  11.097  64.515  0.00  0.00     0.032 H 
ATOM     82  H56 KCR d   1     -22.024  11.462  62.783  0.00  0.00     0.032 H 
ENDBRANCH  76  79
ENDBRANCH  72  75
ENDBRANCH  68  71
ENDBRANCH  65  68
ENDBRANCH  62  65
ENDBRANCH  59  62
ENDBRANCH  57  59
BRANCH  57  83
ATOM     83  C   KCR d   1     -13.402   2.875  62.695  0.00  0.00     0.241 C 
ATOM     84  O   KCR d   1     -12.565   2.234  62.007  0.00  0.00    -0.271 OA
ATOM     85  N   GLN d   1     -14.254   2.285  63.532  0.00  0.00    -0.346 N 
ATOM     86  H57 GLN d   1     -14.945   2.835  64.001  0.00  0.00     0.163 HD
BRANCH  85  87
ATOM     87  CA  GLN d   1     -14.193   0.845  63.774  0.00  0.00     0.090 C 
ATOM     88  H58 GLN d   1     -13.141   0.536  63.684  0.00  0.00     0.087 H 
BRANCH  87  89
ATOM     89  C   GLN d   1     -14.996   0.064  62.735  0.00  0.00     0.241 C 
ATOM     90  O   GLN d   1     -16.083   0.475  62.319  0.00  0.00    -0.271 OA
ATOM     91  N   LEU d   1     -14.435  -1.065  62.315  0.00  0.00    -0.345 N 
ATOM     92  H65 LEU d   1     -13.617  -1.400  62.783  0.00  0.00     0.163 HD
BRANCH  91  93
ATOM     93  CA  LEU d   1     -14.968  -1.832  61.197  0.00  0.00     0.096 C 
ATOM     94  H66 LEU d   1     -15.979  -1.458  60.977  0.00  0.00     0.089 H 
BRANCH  93  95
ATOM     95  C   LEU d   1     -15.071  -3.316  61.529  0.00  0.00     0.196 C 
ATOM     96  O   LEU d   1     -14.584  -3.767  62.566  0.00  0.00    -0.646 OA
ATOM     97  OXT LEU d   1     -15.643  -4.096  60.767  0.00  0.00    -0.646 OA
ENDBRANCH  93  95
BRANCH  93  98
ATOM     98  CB  LEU d   1     -14.095  -1.634  59.952  0.00  0.00    -0.034 C 
ATOM     99  H67 LEU d   1     -14.242  -0.600  59.606  0.00  0.00     0.037 H 
ATOM    100  H68 LEU d   1     -14.454  -2.333  59.182  0.00  0.00     0.037 H 
BRANCH  98 101
ATOM    101  CG  LEU d   1     -12.583  -1.858  60.111  0.00  0.00    -0.059 C 
ATOM    102  H69 LEU d   1     -12.440  -2.660  60.850  0.00  0.00     0.038 H 
BRANCH 101 103
ATOM    103  CD1 LEU d   1     -11.952  -2.303  58.801  0.00  0.00    -0.073 C 
ATOM    104  H70 LEU d   1     -10.872  -2.455  58.947  0.00  0.00     0.028 H 
ATOM    105  H71 LEU d   1     -12.113  -1.530  58.035  0.00  0.00     0.028 H 
ATOM    106  H72 LEU d   1     -12.414  -3.246  58.473  0.00  0.00     0.028 H 
ENDBRANCH 101 103
BRANCH 101 107
ATOM    107  CD2 LEU d   1     -11.872  -0.608  60.629  0.00  0.00    -0.073 C 
ATOM    108  H73 LEU d   1     -12.332  -0.290  61.576  0.00  0.00     0.028 H 
ATOM    109  H74 LEU d   1     -11.964   0.200  59.888  0.00  0.00     0.028 H 
ATOM    110  H75 LEU d   1     -10.808  -0.834  60.796  0.00  0.00     0.028 H 
ENDBRANCH 101 107
ENDBRANCH  98 101
ENDBRANCH  93  98
ENDBRANCH  91  93
ENDBRANCH  87  89
BRANCH  87 111
ATOM    111  CB  GLN d   1     -14.662   0.508  65.198  0.00  0.00    -0.030 C 
ATOM    112  H59 GLN d   1     -14.482   1.392  65.828  0.00  0.00     0.037 H 
ATOM    113  H60 GLN d   1     -14.052  -0.332  65.562  0.00  0.00     0.037 H 
BRANCH 111 114
ATOM    114  CG  GLN d   1     -16.122   0.120  65.351  0.00  0.00     0.011 C 
ATOM    115  H61 GLN d   1     -16.477  -0.306  64.401  0.00  0.00     0.047 H 
ATOM    116  H62 GLN d   1     -16.705   1.022  65.589  0.00  0.00     0.047 H 
BRANCH 114 117
ATOM    117  CD  GLN d   1     -16.332  -0.903  66.454  0.00  0.00     0.215 C 
ATOM    118  OE1 GLN d   1     -15.656  -1.931  66.495  0.00  0.00    -0.274 OA
ATOM    119  NE2 GLN d   1     -17.258  -0.618  67.364  0.00  0.00    -0.370 N 
ATOM    120  H63 GLN d   1     -17.437  -1.257  68.112  0.00  0.00     0.159 HD
ATOM    121  H64 GLN d   1     -17.776   0.235  67.300  0.00  0.00     0.159 HD
ENDBRANCH 114 117
ENDBRANCH 111 114
ENDBRANCH  87 111
ENDBRANCH  85  87
ENDBRANCH  57  83
ENDBRANCH  55  57
ENDBRANCH   1  53
BRANCH   1 122
ATOM    122  CB  ARG d   1      -9.510   4.901  60.702  0.00  0.00    -0.036 C 
ATOM    123  H30 ARG d   1     -10.170   4.913  59.822  0.00  0.00     0.036 H 
ATOM    124  H31 ARG d   1      -9.475   3.884  61.120  0.00  0.00     0.036 H 
BRANCH 122 125
ATOM    125  CG  ARG d   1      -8.104   5.288  60.256  0.00  0.00    -0.048 C 
ATOM    126  H32 ARG d   1      -7.379   4.873  60.972  0.00  0.00     0.035 H 
ATOM    127  H33 ARG d   1      -8.025   6.385  60.249  0.00  0.00     0.035 H 
BRANCH 125 128
ATOM    128  CD  ARG d   1      -7.773   4.765  58.867  0.00  0.00     0.009 C 
ATOM    129  H34 ARG d   1      -8.312   3.820  58.704  0.00  0.00     0.064 H 
ATOM    130  H35 ARG d   1      -6.690   4.585  58.802  0.00  0.00     0.064 H 
BRANCH 128 131
ATOM    131  NE  ARG d   1      -8.158   5.716  57.827  0.00  0.00    -0.227 N 
ATOM    132  CZ  ARG d   1      -9.087   5.490  56.905  0.00  0.00     0.665 C 
ATOM    133  NH1 ARG d   1      -9.362   6.419  56.001  0.00  0.00    -0.235 N 
ATOM    134  NH2 ARG d   1      -9.737   4.336  56.880  0.00  0.00    -0.235 N 
ATOM    135  H37 ARG d   1     -10.082   6.244  55.286  0.00  0.00     0.174 HD
ATOM    136  H38 ARG d   1      -8.855   7.316  56.014  0.00  0.00     0.174 HD
ATOM    137  H39 ARG d   1      -9.527   3.611  57.581  0.00  0.00     0.174 HD
ATOM    138  H40 ARG d   1     -10.453   4.164  56.160  0.00  0.00     0.174 HD
ATOM    139  H36 ARG d   1      -7.675   6.626  57.807  0.00  0.00     0.177 HD
ENDBRANCH 128 131
ENDBRANCH 125 128
ENDBRANCH 122 125
ENDBRANCH   1 122
TORSDOF 37
