REMARK  6 active torsions:
REMARK  status: ('A' for Active; 'I' for Inactive)
REMARK    1  A    between atoms: C08_18  and  C10_1 
REMARK    2  A    between atoms: C12_3  and  C15_4 
REMARK    3  A    between atoms: C18_7  and  C21_10 
REMARK    4  A    between atoms: C02_12  and  C01_11 
REMARK    5  A    between atoms: C03_13  and  C02_12 
REMARK    6  A    between atoms: N04_14  and  C03_13 
ROOT
ATOM      1  N04 61W d   1       9.935  38.187 -38.234  0.00  0.00    -0.070 N 
ATOM      2  C05 61W d   1       9.097  37.240 -38.984  0.00  0.00     0.084 C 
ATOM      3  C06 61W d   1       9.599  35.884 -38.609  0.00  0.00    -0.042 C 
ATOM      4  C07 61W d   1       9.778  35.624 -37.175  0.00  0.00    -0.053 C 
ATOM      5  C08 61W d   1      10.082  36.665 -36.239  0.00  0.00     0.018 C 
ATOM      6  C09 61W d   1       9.736  38.012 -36.773  0.00  0.00     0.092 C 
ATOM      7  H16 61W d   1      10.914  38.104 -38.460  0.00  0.00     0.279 HD
ATOM      8  H17 61W d   1       9.204  37.404 -40.066  0.00  0.00     0.076 H 
ATOM      9  H18 61W d   1       8.040  37.352 -38.699  0.00  0.00     0.076 H 
ATOM     10  H19 61W d   1      10.574  35.742 -39.098  0.00  0.00     0.035 H 
ATOM     11  H20 61W d   1       8.883  35.144 -38.996  0.00  0.00     0.035 H 
ATOM     12  H21 61W d   1      10.596  34.893 -37.096  0.00  0.00     0.034 H 
ATOM     13  H22 61W d   1       8.841  35.164 -36.828  0.00  0.00     0.034 H 
ATOM     14  H23 61W d   1       9.142  36.559 -35.677  0.00  0.00     0.053 H 
ATOM     15  H24 61W d   1       8.676  38.204 -36.549  0.00  0.00     0.077 H 
ATOM     16  H25 61W d   1      10.361  38.754 -36.254  0.00  0.00     0.077 H 
ENDROOT
BRANCH   5  17
ATOM     17  C10 61W d   1      10.880  36.423 -35.058  0.00  0.00     0.087 A 
ATOM     18  C11 61W d   1      11.901  37.106 -34.387  0.00  0.00    -0.021 A 
ATOM     19  C12 61W d   1      12.337  36.339 -33.203  0.00  0.00     0.097 A 
ATOM     20  H1  61W d   1      12.315  38.066 -34.694  0.00  0.00     0.091 H 
ATOM     21  N13 61W d   1      11.551  35.225 -33.221  0.00  0.00    -0.128 NA
ATOM     22  O14 61W d   1      10.711  35.265 -34.283  0.00  0.00    -0.217 OA
BRANCH  19  23
ATOM     23  C15 61W d   1      13.428  36.704 -32.183  0.00  0.00    -0.005 A 
ATOM     24  C16 61W d   1      14.087  37.953 -32.117  0.00  0.00    -0.070 A 
ATOM     25  C17 61W d   1      15.093  38.264 -31.170  0.00  0.00    -0.076 A 
ATOM     26  H2  61W d   1      13.806  38.717 -32.833  0.00  0.00     0.084 H 
ATOM     27  C18 61W d   1      15.541  37.351 -30.199  0.00  0.00    -0.062 A 
ATOM     28  H3  61W d   1      15.538  39.252 -31.195  0.00  0.00     0.084 H 
ATOM     29  C19 61W d   1      14.897  36.100 -30.253  0.00  0.00    -0.076 A 
ATOM     30  C20 61W d   1      13.892  35.796 -31.202  0.00  0.00    -0.070 A 
ATOM     31  H4  61W d   1      15.183  35.338 -29.538  0.00  0.00     0.084 H 
ATOM     32  H5  61W d   1      13.450  34.806 -31.176  0.00  0.00     0.084 H 
BRANCH  27  33
ATOM     33  C21 61W d   1      16.620  37.691 -29.187  0.00  0.00    -0.051 C 
ATOM     34  H6  61W d   1      16.963  38.723 -29.350  0.00  0.00     0.033 H 
ATOM     35  H7  61W d   1      17.467  37.000 -29.308  0.00  0.00     0.033 H 
ATOM     36  H8  61W d   1      16.212  37.597 -28.170  0.00  0.00     0.033 H 
ENDBRANCH  27  33
ENDBRANCH  19  23
ENDBRANCH   5  17
BRANCH   1  37
ATOM     37  C03 61W d   1       9.338  39.471 -38.745  0.00  0.00     0.083 C 
ATOM     38  H14 61W d   1       8.249  39.359 -38.856  0.00  0.00     0.075 H 
ATOM     39  H15 61W d   1       9.553  40.289 -38.042  0.00  0.00     0.075 H 
BRANCH  37  40
ATOM     40  C02 61W d   1       9.965  39.769 -40.090  0.00  0.00    -0.046 C 
ATOM     41  H12 61W d   1      10.964  40.206 -39.947  0.00  0.00     0.034 H 
ATOM     42  H13 61W d   1      10.051  38.841 -40.675  0.00  0.00     0.034 H 
BRANCH  40  43
ATOM     43  C01 61W d   1       9.076  40.751 -40.817  0.00  0.00    -0.075 C 
ATOM     44  H9  61W d   1       9.513  40.983 -41.800  0.00  0.00     0.027 H 
ATOM     45  H10 61W d   1       8.991  41.675 -40.226  0.00  0.00     0.027 H 
ATOM     46  H11 61W d   1       8.078  40.310 -40.954  0.00  0.00     0.027 H 
ENDBRANCH  40  43
ENDBRANCH  37  40
ENDBRANCH   1  37
TORSDOF 6
