REMARK  4 active torsions:
REMARK  status: ('A' for Active; 'I' for Inactive)
REMARK    1  A    between atoms: CAF_5  and  NAG_21 
REMARK    2  A    between atoms: CAH_6  and  CAJ_7 
REMARK       I    between atoms: NAG_21  and  CAH_6 
REMARK    3  A    between atoms: CAQ_13  and  CAR_14 
REMARK    4  A    between atoms: CAQ_13  and  NAC_20 
ROOT
ATOM      1  CAA 61V d   1      -8.278  22.574 -25.559  0.00  0.00    -0.023 C 
ATOM      2  CAB 61V d   1      -7.998  21.193 -26.126  0.00  0.00     0.086 C 
ATOM      3  CAD 61V d   1      -9.796  21.731 -27.694  0.00  0.00     0.086 C 
ATOM      4  CAE 61V d   1     -10.536  21.811 -26.390  0.00  0.00    -0.023 C 
ATOM      5  CAF 61V d   1      -9.796  22.804 -25.491  0.00  0.00     0.015 C 
ATOM      6  NAC 61V d   1      -8.501  21.055 -27.512  0.00  0.00    -0.067 N 
ATOM      7  H1  61V d   1      -7.821  23.336 -26.207  0.00  0.00     0.038 H 
ATOM      8  H2  61V d   1      -7.851  22.648 -24.548  0.00  0.00     0.038 H 
ATOM      9  H3  61V d   1      -8.491  20.441 -25.492  0.00  0.00     0.076 H 
ATOM     10  H4  61V d   1      -6.912  21.020 -26.123  0.00  0.00     0.076 H 
ATOM     11  H5  61V d   1      -9.623  22.748 -28.075  0.00  0.00     0.076 H 
ATOM     12  H6  61V d   1     -10.400  21.166 -28.419  0.00  0.00     0.076 H 
ATOM     13  H7  61V d   1     -10.560  20.820 -25.912  0.00  0.00     0.038 H 
ATOM     14  H8  61V d   1     -11.565  22.159 -26.564  0.00  0.00     0.038 H 
ATOM     15  H9  61V d   1     -10.004  23.826 -25.839  0.00  0.00     0.072 H 
ATOM     16  H21 61V d   1      -8.609  20.072 -27.708  0.00  0.00     0.280 HD
ENDROOT
BRANCH   5  17
ATOM     17  NAG 61V d   1     -10.320  22.655 -24.127  0.00  0.00    -0.352 N 
ATOM     18  CAH 61V d   1     -11.520  23.165 -23.810  0.00  0.00     0.252 C 
ATOM     19  OAI 61V d   1     -12.232  23.781 -24.603  0.00  0.00    -0.268 OA
ATOM     20  H22 61V d   1      -9.783  22.174 -23.435  0.00  0.00     0.163 HD
BRANCH  18  21
ATOM     21  CAJ 61V d   1     -11.952  22.951 -22.510  0.00  0.00     0.032 A 
ATOM     22  CAK 61V d   1     -13.246  23.327 -22.175  0.00  0.00    -0.067 A 
ATOM     23  CAL 61V d   1     -13.722  23.126 -20.888  0.00  0.00    -0.066 A 
ATOM     24  H10 61V d   1     -13.887  23.780 -22.923  0.00  0.00     0.085 H 
ATOM     25  CAM 61V d   1     -12.899  22.546 -19.935  0.00  0.00     0.006 A 
ATOM     26  H11 61V d   1     -14.732  23.421 -20.629  0.00  0.00     0.085 H 
ATOM     27  CAN 61V d   1     -11.603  22.165 -20.267  0.00  0.00    -0.066 A 
ATOM     28  IAP 61V d   1     -13.628  22.251 -18.002  0.00  0.00    -0.045 I 
ATOM     29  CAO 61V d   1     -11.125  22.366 -21.558  0.00  0.00    -0.067 A 
ATOM     30  H12 61V d   1     -10.964  21.711 -19.518  0.00  0.00     0.085 H 
ATOM     31  H13 61V d   1     -10.116  22.069 -21.819  0.00  0.00     0.085 H 
ENDBRANCH  18  21
ENDBRANCH   5  17
BRANCH   6  32
ATOM     32  CAQ 61V d   1      -7.586  21.645 -28.499  0.00  0.00     0.107 C 
ATOM     33  H14 61V d   1      -8.074  21.644 -29.485  0.00  0.00     0.083 H 
ATOM     34  H15 61V d   1      -7.359  22.680 -28.203  0.00  0.00     0.083 H 
BRANCH  32  35
ATOM     35  CAR 61V d   1      -6.403  20.930 -28.581  0.00  0.00    -0.033 A 
ATOM     36  CAS 61V d   1      -6.422  19.586 -28.930  0.00  0.00    -0.075 A 
ATOM     37  CAT 61V d   1      -5.233  18.872 -29.011  0.00  0.00    -0.082 A 
ATOM     38  H16 61V d   1      -7.365  19.094 -29.139  0.00  0.00     0.084 H 
ATOM     39  CAU 61V d   1      -4.028  19.508 -28.743  0.00  0.00    -0.083 A 
ATOM     40  H17 61V d   1      -5.246  17.823 -29.282  0.00  0.00     0.083 H 
ATOM     41  CAV 61V d   1      -4.017  20.852 -28.395  0.00  0.00    -0.082 A 
ATOM     42  H18 61V d   1      -3.097  18.956 -28.805  0.00  0.00     0.083 H 
ATOM     43  CAW 61V d   1      -5.201  21.568 -28.314  0.00  0.00    -0.075 A 
ATOM     44  H19 61V d   1      -3.075  21.345 -28.185  0.00  0.00     0.083 H 
ATOM     45  H20 61V d   1      -5.188  22.618 -28.044  0.00  0.00     0.084 H 
ENDBRANCH  32  35
ENDBRANCH   6  32
TORSDOF 4
