REMARK  8 active torsions:
REMARK  status: ('A' for Active; 'I' for Inactive)
REMARK       I    between atoms: C18_24  and  N3_2 
REMARK    1  A    between atoms: C12_7  and  C14_5 
REMARK       I    between atoms: N2_8  and  C18_24 
REMARK    2  A    between atoms: C17_26  and  N2_8 
REMARK    3  A    between atoms: C4_9  and  N1_12 
REMARK       I    between atoms: N1_12  and  C3_14 
REMARK    4  A    between atoms: C3_14  and  C2_15 
REMARK    5  A    between atoms: C2_15  and  C1_16 
REMARK    6  A    between atoms: O2_19  and  C7_17 
REMARK    7  A    between atoms: C11_21  and  O3_18 
REMARK    8  A    between atoms: O2_19  and  C8_20 
ROOT
ATOM      1  C13 64O d   1     -21.714  25.535  30.059  0.00  0.00    -0.037 A 
ATOM      2  C12 64O d   1     -21.049  24.323  29.837  0.00  0.00     0.010 A 
ATOM      3  C8  64O d   1     -21.161  26.525  30.878  0.00  0.00     0.077 A 
ATOM      4  C11 64O d   1     -19.812  24.117  30.416  0.00  0.00     0.076 A 
ATOM      5  C9  64O d   1     -19.919  26.319  31.451  0.00  0.00    -0.048 A 
ATOM      6  C10 64O d   1     -19.274  25.114  31.212  0.00  0.00    -0.048 A 
ATOM      7  H5  64O d   1     -22.674  25.709  29.588  0.00  0.00     0.089 H 
ATOM      8  H16 64O d   1     -19.461  27.081  32.072  0.00  0.00     0.087 H 
ATOM      9  H17 64O d   1     -18.305  24.946  31.669  0.00  0.00     0.087 H 
ENDROOT
BRANCH   3  10
ATOM     10  O2  64O d   1     -21.844  27.712  31.067  0.00  0.00    -0.307 OA
BRANCH  10  11
ATOM     11  C7  64O d   1     -22.176  28.164  32.351  0.00  0.00     0.119 A 
ATOM     12  C6  64O d   1     -22.377  29.535  32.444  0.00  0.00     0.071 A 
ATOM     13  C5  64O d   1     -22.742  30.122  33.652  0.00  0.00    -0.033 A 
ATOM     14 CL1  64O d   1     -22.131  30.479  31.007  0.00  0.00    -0.081 Cl
ATOM     15  C4  64O d   1     -22.919  29.355  34.791  0.00  0.00     0.038 A 
ATOM     16  H7  64O d   1     -22.890  31.195  33.702  0.00  0.00     0.089 H 
ATOM     17  C22 64O d   1     -22.734  28.002  34.695  0.00  0.00    -0.033 A 
ATOM     18  C21 64O d   1     -22.373  27.387  33.516  0.00  0.00     0.071 A 
ATOM     19  H18 64O d   1     -22.877  27.392  35.579  0.00  0.00     0.089 H 
ATOM     20 CL2  64O d   1     -22.202  25.671  33.669  0.00  0.00    -0.081 Cl
BRANCH  15  21
ATOM     21  N1  64O d   1     -23.305  29.886  36.072  0.00  0.00    -0.327 N 
ATOM     22  C3  64O d   1     -24.652  29.689  36.544  0.00  0.00     0.221 C 
ATOM     23  O1  64O d   1     -25.461  29.088  35.857  0.00  0.00    -0.273 OA
ATOM     24  H8  64O d   1     -22.644  30.387  36.630  0.00  0.00     0.169 HD
BRANCH  22  25
ATOM     25  C2  64O d   1     -25.067  30.211  37.878  0.00  0.00     0.006 C 
ATOM     26  H9  64O d   1     -25.913  30.896  37.720  0.00  0.00     0.046 H 
ATOM     27  H10 64O d   1     -24.217  30.769  38.297  0.00  0.00     0.046 H 
BRANCH  25  28
ATOM     28  C1  64O d   1     -25.487  29.197  38.890  0.00  0.00    -0.068 C 
ATOM     29  H11 64O d   1     -25.767  29.706  39.824  0.00  0.00     0.028 H 
ATOM     30  H12 64O d   1     -24.654  28.506  39.084  0.00  0.00     0.028 H 
ATOM     31  H13 64O d   1     -26.350  28.632  38.507  0.00  0.00     0.028 H 
ENDBRANCH  25  28
ENDBRANCH  22  25
ENDBRANCH  15  21
ENDBRANCH  10  11
ENDBRANCH   3  10
BRANCH   2  32
ATOM     32  C14 64O d   1     -21.575  23.212  28.973  0.00  0.00    -0.023 A 
ATOM     33  C15 64O d   1     -21.993  22.008  29.524  0.00  0.00    -0.070 A 
ATOM     34  C16 64O d   1     -22.454  20.980  28.714  0.00  0.00    -0.056 A 
ATOM     35  H3  64O d   1     -21.959  21.870  30.599  0.00  0.00     0.084 H 
ATOM     36  C17 64O d   1     -22.496  21.143  27.339  0.00  0.00     0.036 A 
ATOM     37  H4  64O d   1     -22.782  20.047  29.158  0.00  0.00     0.086 H 
ATOM     38  C19 64O d   1     -22.057  22.342  26.785  0.00  0.00    -0.056 A 
ATOM     39  C20 64O d   1     -21.599  23.366  27.595  0.00  0.00    -0.070 A 
ATOM     40  H15 64O d   1     -22.074  22.475  25.709  0.00  0.00     0.086 H 
ATOM     41  H19 64O d   1     -21.257  24.294  27.150  0.00  0.00     0.084 H 
BRANCH  36  42
ATOM     42  N2  64O d   1     -22.964  20.058  26.530  0.00  0.00    -0.309 N 
ATOM     43  C18 64O d   1     -23.843  20.160  25.404  0.00  0.00     0.318 C 
ATOM     44  O4  64O d   1     -24.307  21.214  25.008  0.00  0.00    -0.247 OA
ATOM     45  N3  64O d   1     -24.186  18.968  24.715  0.00  0.00    -0.352 N 
ATOM     46  H1  64O d   1     -23.818  18.090  25.021  0.00  0.00     0.160 HD
ATOM     47  H2  64O d   1     -24.796  19.006  23.924  0.00  0.00     0.160 HD
ATOM     48  H6  64O d   1     -22.647  19.142  26.775  0.00  0.00     0.170 HD
ENDBRANCH  36  42
ENDBRANCH   2  32
BRANCH   4  49
ATOM     49  O3  64O d   1     -19.125  22.932  30.212  0.00  0.00    -0.360 OA
ATOM     50  H14 64O d   1     -18.299  22.961  30.680  0.00  0.00     0.217 HD
ENDBRANCH   4  49
TORSDOF 8
