REMARK  8 active torsions:
REMARK  status: ('A' for Active; 'I' for Inactive)
REMARK    1  A    between atoms: C12_4  and  C14_2 
REMARK    2  A    between atoms: C17_5  and  C20_23 
REMARK    3  A    between atoms: C11_8  and  O3_16 
REMARK    4  A    between atoms: O2_19  and  C8_10 
REMARK       I    between atoms: C20_23  and  N2_11 
REMARK    5  A    between atoms: C7_12  and  O2_19 
REMARK    6  A    between atoms: N1_17  and  C4_21 
REMARK       I    between atoms: C3_26  and  N1_17 
REMARK    7  A    between atoms: C2_25  and  C1_20 
REMARK    8  A    between atoms: C2_25  and  C3_26 
ROOT
ATOM      1  C13 64N d   1     -22.019  24.990  30.160  0.00  0.00    -0.037 A 
ATOM      2  C12 64N d   1     -21.217  23.971  29.607  0.00  0.00     0.010 A 
ATOM      3  C11 64N d   1     -19.894  23.913  29.997  0.00  0.00     0.076 A 
ATOM      4  C10 64N d   1     -19.417  24.870  30.926  0.00  0.00    -0.048 A 
ATOM      5  C8  64N d   1     -21.559  25.942  31.098  0.00  0.00     0.077 A 
ATOM      6  C9  64N d   1     -20.227  25.876  31.481  0.00  0.00    -0.048 A 
ATOM      7  H2  64N d   1     -23.055  25.047  29.846  0.00  0.00     0.089 H 
ATOM      8  H5  64N d   1     -18.376  24.824  31.224  0.00  0.00     0.087 H 
ATOM      9  H18 64N d   1     -19.820  26.585  32.193  0.00  0.00     0.087 H 
ENDROOT
BRANCH   5  10
ATOM     10  O2  64N d   1     -22.491  26.900  31.531  0.00  0.00    -0.307 OA
BRANCH  10  11
ATOM     11  C7  64N d   1     -22.344  27.779  32.628  0.00  0.00     0.119 A 
ATOM     12  C6  64N d   1     -22.385  27.271  33.939  0.00  0.00     0.071 A 
ATOM     13  C5  64N d   1     -22.297  28.101  35.051  0.00  0.00    -0.033 A 
ATOM     14 CL1  64N d   1     -22.523  25.590  34.256  0.00  0.00    -0.081 Cl
ATOM     15  C4  64N d   1     -22.182  29.474  34.903  0.00  0.00     0.038 A 
ATOM     16  H8  64N d   1     -22.319  27.669  36.045  0.00  0.00     0.089 H 
ATOM     17  C22 64N d   1     -22.151  29.986  33.609  0.00  0.00    -0.033 A 
ATOM     18  C21 64N d   1     -22.248  29.189  32.478  0.00  0.00     0.071 A 
ATOM     19  H17 64N d   1     -22.046  31.057  33.479  0.00  0.00     0.089 H 
ATOM     20 CL2  64N d   1     -22.190  30.108  30.985  0.00  0.00    -0.081 Cl
BRANCH  15  21
ATOM     21  N1  64N d   1     -22.089  30.292  36.100  0.00  0.00    -0.327 N 
ATOM     22  C3  64N d   1     -22.576  31.642  36.309  0.00  0.00     0.221 C 
ATOM     23  O1  64N d   1     -22.417  32.174  37.389  0.00  0.00    -0.273 OA
ATOM     24  H10 64N d   1     -21.630  29.869  36.881  0.00  0.00     0.169 HD
BRANCH  22  25
ATOM     25  C2  64N d   1     -23.268  32.455  35.241  0.00  0.00     0.006 C 
ATOM     26  H15 64N d   1     -23.733  31.748  34.538  0.00  0.00     0.046 H 
ATOM     27  H16 64N d   1     -24.051  33.050  35.734  0.00  0.00     0.046 H 
BRANCH  25  28
ATOM     28  C1  64N d   1     -22.423  33.401  34.436  0.00  0.00    -0.068 C 
ATOM     29  H11 64N d   1     -23.055  33.922  33.702  0.00  0.00     0.028 H 
ATOM     30  H12 64N d   1     -21.639  32.836  33.910  0.00  0.00     0.028 H 
ATOM     31  H13 64N d   1     -21.957  34.138  35.107  0.00  0.00     0.028 H 
ENDBRANCH  25  28
ENDBRANCH  22  25
ENDBRANCH  15  21
ENDBRANCH  10  11
ENDBRANCH   5  10
BRANCH   2  32
ATOM     32  C14 64N d   1     -21.861  23.011  28.614  0.00  0.00    -0.023 A 
ATOM     33  C15 64N d   1     -22.728  22.006  29.048  0.00  0.00    -0.071 A 
ATOM     34  C16 64N d   1     -23.344  21.140  28.148  0.00  0.00    -0.067 A 
ATOM     35  H4  64N d   1     -22.926  21.898  30.108  0.00  0.00     0.084 H 
ATOM     36  C17 64N d   1     -23.107  21.271  26.776  0.00  0.00     0.031 A 
ATOM     37  H3  64N d   1     -24.008  20.364  28.511  0.00  0.00     0.085 H 
ATOM     38  C18 64N d   1     -22.249  22.285  26.337  0.00  0.00    -0.067 A 
ATOM     39  C19 64N d   1     -21.634  23.144  27.247  0.00  0.00    -0.071 A 
ATOM     40  H1  64N d   1     -22.060  22.404  25.276  0.00  0.00     0.085 H 
ATOM     41  H14 64N d   1     -20.972  23.923  26.886  0.00  0.00     0.084 H 
BRANCH  36  42
ATOM     42  C20 64N d   1     -23.789  20.348  25.785  0.00  0.00     0.249 C 
ATOM     43  N2  64N d   1     -24.439  19.158  26.243  0.00  0.00    -0.366 N 
ATOM     44  H6  64N d   1     -24.888  18.550  25.588  0.00  0.00     0.159 HD
ATOM     45  H7  64N d   1     -24.444  18.934  27.218  0.00  0.00     0.159 HD
ATOM     46  O4  64N d   1     -23.848  20.609  24.586  0.00  0.00    -0.268 OA
ENDBRANCH  36  42
ENDBRANCH   2  32
BRANCH   3  47
ATOM     47  O3  64N d   1     -19.051  22.942  29.495  0.00  0.00    -0.360 OA
ATOM     48  H9  64N d   1     -18.328  23.357  29.040  0.00  0.00     0.217 HD
ENDBRANCH   3  47
TORSDOF 8
