REMARK  9 active torsions:
REMARK  status: ('A' for Active; 'I' for Inactive)
REMARK    1  A    between atoms: C2_24  and  C1_1 
REMARK       I    between atoms: N_22  and  C3_2 
REMARK    2  A    between atoms: C3_2  and  C2_24 
REMARK    3  A    between atoms: C4_3  and  N_22 
REMARK    4  A    between atoms: O4_16  and  C7_6 
REMARK    5  A    between atoms: C8_7  and  O4_16 
REMARK    6  A    between atoms: C11_10  and  O5_20 
REMARK    7  A    between atoms: C12_17  and  C14_12 
REMARK    8  A    between atoms: C14_12  and  C16_18 
REMARK    9  A    between atoms: C14_12  and  C15_19 
ROOT
ATOM      1  C8  64L d   1       2.715 -22.094 206.480  0.00  0.00     0.076 A 
ATOM      2  C9  64L d   1       2.389 -20.789 206.842  0.00  0.00    -0.048 A 
ATOM      3  C10 64L d   1       3.133 -19.740 206.309  0.00  0.00    -0.048 A 
ATOM      4  C11 64L d   1       4.183 -19.978 205.425  0.00  0.00     0.072 A 
ATOM      5  C13 64L d   1       3.770 -22.311 205.602  0.00  0.00    -0.041 A 
ATOM      6  C12 64L d   1       4.510 -21.271 205.068  0.00  0.00    -0.019 A 
ATOM      7  H2  64L d   1       1.571 -20.594 207.526  0.00  0.00     0.087 H 
ATOM      8  H3  64L d   1       2.891 -18.721 206.587  0.00  0.00     0.087 H 
ATOM      9  H4  64L d   1       4.021 -23.329 205.326  0.00  0.00     0.088 H 
ENDROOT
BRANCH   1  10
ATOM     10  O4  64L d   1       2.047 -23.228 206.948  0.00  0.00    -0.308 OA
BRANCH  10  11
ATOM     11  C7  64L d   1       1.173 -23.132 208.012  0.00  0.00     0.111 A 
ATOM     12  C6  64L d   1       1.635 -23.144 209.315  0.00  0.00     0.048 A 
ATOM     13  C5  64L d   1       0.750 -23.089 210.388  0.00  0.00    -0.037 A 
ATOM     14 BR1  64L d   1       3.531 -23.208 209.616  0.00  0.00    -0.048 Br
ATOM     15  C4  64L d   1      -0.622 -23.033 210.168  0.00  0.00     0.037 A 
ATOM     16  H1  64L d   1       1.133 -23.090 211.402  0.00  0.00     0.089 H 
ATOM     17  C18 64L d   1      -1.089 -23.035 208.863  0.00  0.00    -0.037 A 
ATOM     18  C17 64L d   1      -0.196 -23.098 207.805  0.00  0.00     0.048 A 
ATOM     19  H6  64L d   1      -2.155 -22.987 208.670  0.00  0.00     0.089 H 
ATOM     20 BR2  64L d   1      -0.894 -23.098 206.004  0.00  0.00    -0.048 Br
BRANCH  15  21
ATOM     21  N   64L d   1      -1.540 -22.968 211.310  0.00  0.00    -0.327 N 
ATOM     22  C3  64L d   1      -2.348 -24.066 211.711  0.00  0.00     0.232 C 
ATOM     23  O3  64L d   1      -3.116 -23.983 212.678  0.00  0.00    -0.273 OA
ATOM     24  H14 64L d   1      -1.600 -22.115 211.828  0.00  0.00     0.169 HD
BRANCH  22  25
ATOM     25  C2  64L d   1      -2.271 -25.351 210.955  0.00  0.00     0.089 C 
ATOM     26  H15 64L d   1      -3.095 -25.354 210.226  0.00  0.00     0.063 H 
ATOM     27  H16 64L d   1      -1.309 -25.362 210.422  0.00  0.00     0.063 H 
BRANCH  25  28
ATOM     28  C1  64L d   1      -2.363 -26.620 211.739  0.00  0.00     0.181 C 
ATOM     29  O2  64L d   1      -1.310 -27.144 212.203  0.00  0.00    -0.648 OA
ATOM     30  O1  64L d   1      -3.489 -27.155 211.938  0.00  0.00    -0.648 OA
ENDBRANCH  25  28
ENDBRANCH  22  25
ENDBRANCH  15  21
ENDBRANCH  10  11
ENDBRANCH   1  10
BRANCH   6  31
ATOM     31  C14 64L d   1       5.637 -21.527 204.116  0.00  0.00    -0.033 C 
ATOM     32  H5  64L d   1       6.059 -20.516 204.016  0.00  0.00     0.046 H 
BRANCH  31  33
ATOM     33  C16 64L d   1       5.249 -21.825 202.687  0.00  0.00    -0.069 C 
ATOM     34  H7  64L d   1       6.156 -21.994 202.088  0.00  0.00     0.028 H 
ATOM     35  H8  64L d   1       4.691 -20.972 202.273  0.00  0.00     0.028 H 
ATOM     36  H9  64L d   1       4.618 -22.725 202.659  0.00  0.00     0.028 H 
ENDBRANCH  31  33
BRANCH  31  37
ATOM     37  C15 64L d   1       6.810 -22.273 204.636  0.00  0.00    -0.069 C 
ATOM     38  H10 64L d   1       6.999 -21.978 205.679  0.00  0.00     0.028 H 
ATOM     39  H11 64L d   1       7.693 -22.041 204.023  0.00  0.00     0.028 H 
ATOM     40  H12 64L d   1       6.607 -23.353 204.592  0.00  0.00     0.028 H 
ENDBRANCH  31  37
ENDBRANCH   6  31
BRANCH   4  41
ATOM     41  O5  64L d   1       4.926 -18.932 204.897  0.00  0.00    -0.360 OA
ATOM     42  H13 64L d   1       4.590 -18.108 205.228  0.00  0.00     0.217 HD
ENDBRANCH   4  41
TORSDOF 9
