REMARK WARNING: 32 MAX_TORS EXCEEDED!!!
REMARK  41 active torsions:
REMARK  status: ('A' for Active; 'I' for Inactive)
REMARK    1  A    between atoms: N_1  and  CA_2 
REMARK    2  A    between atoms: CA_2  and  C_3 
REMARK    3  A    between atoms: CA_2  and  CB_5 
REMARK       I    between atoms: C_3  and  N_9 
REMARK    4  A    between atoms: CB_5  and  CG_6 
REMARK    5  A    between atoms: N_9  and  CA_10 
REMARK    6  A    between atoms: CA_10  and  C_11 
REMARK    7  A    between atoms: CA_10  and  CB_13 
REMARK       I    between atoms: C_11  and  N_17 
REMARK    8  A    between atoms: CB_13  and  CG_14 
REMARK       I    between atoms: CG_14  and  ND2_16 
REMARK    9  A    between atoms: N_17  and  CA_18 
REMARK   10  A    between atoms: CA_18  and  C_19 
REMARK   11  A    between atoms: CA_18  and  CB_21 
REMARK       I    between atoms: C_19  and  N_26 
REMARK   12  A    between atoms: CB_21  and  CG_22 
REMARK   13  A    between atoms: CG_22  and  CD_23 
REMARK   14  A    between atoms: N_26  and  CA_27 
REMARK   15  A    between atoms: CA_27  and  C_28 
REMARK   16  A    between atoms: CA_27  and  CB_30 
REMARK       I    between atoms: C_28  and  N_40 
REMARK   17  A    between atoms: CB_30  and  CG_31 
REMARK   18  A    between atoms: N_40  and  CA_41 
REMARK   19  A    between atoms: CA_41  and  C_42 
REMARK       I    between atoms: C_42  and  N_44 
REMARK   20  A    between atoms: N_44  and  CA_45 
REMARK   21  A    between atoms: CA_45  and  C_46 
REMARK   22  A    between atoms: CA_45  and  CB_48 
REMARK       I    between atoms: C_46  and  N_52 
REMARK   23  A    between atoms: CB_48  and  CG1_49 
REMARK   24  A    between atoms: CB_48  and  CG2_50 
REMARK   25  A    between atoms: CG1_49  and  CD1_51 
REMARK   26  A    between atoms: N_52  and  CA_53 
REMARK   27  A    between atoms: CA_53  and  C_54 
REMARK   28  A    between atoms: CA_53  and  CB_56 
REMARK       I    between atoms: C_54  and  N_61 
REMARK   29  A    between atoms: CB_56  and  CG_57 
REMARK   30  A    between atoms: CG_57  and  CD_58 
REMARK   31  A    between atoms: N_61  and  CA_62 
REMARK   32  A    between atoms: CA_62  and  C_63 
REMARK   33  A    between atoms: CA_62  and  CB_65 
REMARK       I    between atoms: C_63  and  N_69 
REMARK   34  A    between atoms: CB_65  and  CG_66 
REMARK   35  A    between atoms: CG_66  and  CD1_67 
REMARK   36  A    between atoms: CG_66  and  CD2_68 
REMARK   37  A    between atoms: N_69  and  CA_70 
REMARK   38  A    between atoms: CA_70  and  C_71 
REMARK   39  A    between atoms: CA_70  and  CB_73 
REMARK   40  A    between atoms: CB_73  and  CG1_74 
REMARK   41  A    between atoms: CB_73  and  CG2_75 
ROOT
ATOM      1  CA  GLY d   1      25.554  -5.385  -2.175  0.00  0.00     0.069 C 
ATOM      2  H30 GLY d   1      25.181  -5.587  -1.160  0.00  0.00     0.078 H 
ATOM      3  H31 GLY d   1      24.814  -5.728  -2.913  0.00  0.00     0.078 H 
ENDROOT
BRANCH   1   4
ATOM      4  N   GLY d   1      26.752  -6.180  -2.362  0.00  0.00    -0.351 N 
ATOM      5  C   TRP d   1      27.736  -6.121  -1.475  0.00  0.00     0.241 C 
ATOM      6  O   TRP d   1      27.763  -5.286  -0.575  0.00  0.00    -0.271 OA
ATOM      7  H29 GLY d   1      26.836  -6.774  -3.162  0.00  0.00     0.163 HD
BRANCH   5   8
ATOM      8  CA  TRP d   1      28.860  -7.138  -1.623  0.00  0.00     0.093 C 
ATOM      9  H20 TRP d   1      28.792  -7.833  -0.773  0.00  0.00     0.088 H 
BRANCH   8  10
ATOM     10  N   TRP d   1      28.724  -7.940  -2.846  0.00  0.00    -0.346 N 
ATOM     11  C   GLU d   1      28.351  -9.221  -2.803  0.00  0.00     0.241 C 
ATOM     12  O   GLU d   1      28.156  -9.820  -1.741  0.00  0.00    -0.271 OA
ATOM     13  H19 TRP d   1      28.915  -7.516  -3.732  0.00  0.00     0.163 HD
BRANCH  11  14
ATOM     14  CA  GLU d   1      28.164  -9.949  -4.142  0.00  0.00     0.090 C 
ATOM     15  H14 GLU d   1      27.108 -10.250  -4.204  0.00  0.00     0.087 H 
BRANCH  14  16
ATOM     16  N   GLU d   1      28.449  -9.118  -5.289  0.00  0.00    -0.346 N 
ATOM     17  C   ASN d   1      27.589  -8.218  -5.738  0.00  0.00     0.241 C 
ATOM     18  O   ASN d   1      26.500  -7.984  -5.182  0.00  0.00    -0.271 OA
ATOM     19  H13 GLU d   1      29.325  -9.226  -5.759  0.00  0.00     0.163 HD
BRANCH  17  20
ATOM     20  CA  ASN d   1      28.050  -7.437  -6.989  0.00  0.00     0.097 C 
ATOM     21  H8  ASN d   1      28.937  -6.870  -6.671  0.00  0.00     0.088 H 
BRANCH  20  22
ATOM     22  N   ASN d   1      28.505  -8.250  -8.135  0.00  0.00    -0.346 N 
ATOM     23  C   ASP d   1      27.758  -9.209  -8.691  0.00  0.00     0.249 C 
ATOM     24  O   ASP d   1      26.561  -9.398  -8.411  0.00  0.00    -0.271 OA
ATOM     25  H7  ASN d   1      29.414  -8.075  -8.513  0.00  0.00     0.163 HD
BRANCH  23  26
ATOM     26  CA  ASP d   1      28.459 -10.083  -9.732  0.00  0.00     0.185 C 
ATOM     27  H4  ASP d   1      27.695 -10.515 -10.394  0.00  0.00     0.100 H 
BRANCH  26  28
ATOM     28  N   ASP d   1      29.372  -9.284 -10.542  0.00  0.00    -0.066 N 
ATOM     29  H1  ASP d   1      29.824  -9.876 -11.221  0.00  0.00     0.275 HD
ATOM     30  H2  ASP d   1      30.068  -8.863  -9.947  0.00  0.00     0.275 HD
ATOM     31  H3  ASP d   1      28.855  -8.561 -11.017  0.00  0.00     0.275 HD
ENDBRANCH  26  28
BRANCH  26  32
ATOM     32  CB  ASP d   1      29.217 -11.234  -9.046  0.00  0.00     0.050 C 
ATOM     33  H5  ASP d   1      29.819 -10.817  -8.225  0.00  0.00     0.052 H 
ATOM     34  H6  ASP d   1      29.881 -11.706  -9.785  0.00  0.00     0.052 H 
BRANCH  32  35
ATOM     35  CG  ASP d   1      28.280 -12.314  -8.468  0.00  0.00     0.175 C 
ATOM     36  OD1 ASP d   1      27.251 -11.968  -7.828  0.00  0.00    -0.648 OA
ATOM     37  OD2 ASP d   1      28.582 -13.521  -8.649  0.00  0.00    -0.648 OA
ENDBRANCH  32  35
ENDBRANCH  26  32
ENDBRANCH  23  26
ENDBRANCH  20  22
BRANCH  20  38
ATOM     38  CB  ASN d   1      26.999  -6.398  -7.387  0.00  0.00     0.036 C 
ATOM     39  H9  ASN d   1      26.030  -6.904  -7.512  0.00  0.00     0.051 H 
ATOM     40  H10 ASN d   1      27.298  -5.939  -8.341  0.00  0.00     0.051 H 
BRANCH  38  41
ATOM     41  CG  ASN d   1      26.849  -5.299  -6.337  0.00  0.00     0.217 C 
ATOM     42  OD1 ASN d   1      27.692  -5.156  -5.440  0.00  0.00    -0.274 OA
ATOM     43  ND2 ASN d   1      25.779  -4.517  -6.448  0.00  0.00    -0.370 N 
ATOM     44  H11 ASN d   1      25.628  -3.780  -5.789  0.00  0.00     0.159 HD
ATOM     45  H12 ASN d   1      25.126  -4.666  -7.190  0.00  0.00     0.159 HD
ENDBRANCH  38  41
ENDBRANCH  20  38
ENDBRANCH  17  20
ENDBRANCH  14  16
BRANCH  14  46
ATOM     46  CB  GLU d   1      29.025 -11.220  -4.207  0.00  0.00    -0.029 C 
ATOM     47  H15 GLU d   1      28.898 -11.664  -5.206  0.00  0.00     0.037 H 
ATOM     48  H16 GLU d   1      28.652 -11.920  -3.445  0.00  0.00     0.037 H 
BRANCH  46  49
ATOM     49  CG  GLU d   1      30.518 -11.019  -3.969  0.00  0.00     0.018 C 
ATOM     50  H17 GLU d   1      30.975 -12.008  -3.817  0.00  0.00     0.049 H 
ATOM     51  H18 GLU d   1      30.640 -10.415  -3.058  0.00  0.00     0.049 H 
BRANCH  49  52
ATOM     52  CD  GLU d   1      31.272 -10.316  -5.111  0.00  0.00     0.172 C 
ATOM     53  OE1 GLU d   1      30.637  -9.635  -5.945  0.00  0.00    -0.648 OA
ATOM     54  OE2 GLU d   1      32.522 -10.441  -5.166  0.00  0.00    -0.648 OA
ENDBRANCH  49  52
ENDBRANCH  46  49
ENDBRANCH  14  46
ENDBRANCH  11  14
ENDBRANCH   8  10
BRANCH   8  55
ATOM     55  CB  TRP d   1      30.220  -6.427  -1.529  0.00  0.00    -0.012 C 
ATOM     56  H21 TRP d   1      30.239  -5.832  -0.604  0.00  0.00     0.044 H 
ATOM     57  H22 TRP d   1      30.325  -5.759  -2.397  0.00  0.00     0.044 H 
BRANCH  55  58
ATOM     58  CG  TRP d   1      31.376  -7.360  -1.512  0.00  0.00    -0.028 A 
ATOM     59  CD1 TRP d   1      32.125  -7.751  -2.583  0.00  0.00    -0.015 A 
ATOM     60  NE1 TRP d   1      33.102  -8.629  -2.180  0.00  0.00    -0.365 N 
ATOM     61  H23 TRP d   1      31.971  -7.416  -3.608  0.00  0.00     0.112 H 
ATOM     62  CE2 TRP d   1      33.001  -8.817  -0.825  0.00  0.00     0.042 A 
ATOM     63  H24 TRP d   1      33.798  -9.074  -2.796  0.00  0.00     0.165 HD
ATOM     64  CD2 TRP d   1      31.925  -8.032  -0.371  0.00  0.00    -0.002 A 
ATOM     65  CZ2 TRP d   1      33.770  -9.608   0.037  0.00  0.00    -0.056 A 
ATOM     66  CE3 TRP d   1      31.614  -8.043   0.994  0.00  0.00    -0.070 A 
ATOM     67  CZ3 TRP d   1      32.378  -8.836   1.849  0.00  0.00    -0.082 A 
ATOM     68  H25 TRP d   1      30.795  -7.446   1.379  0.00  0.00     0.084 H 
ATOM     69  CH2 TRP d   1      33.440  -9.605   1.364  0.00  0.00    -0.081 A 
ATOM     70  H27 TRP d   1      32.145  -8.857   2.907  0.00  0.00     0.083 H 
ATOM     71  H28 TRP d   1      34.014 -10.212   2.055  0.00  0.00     0.083 H 
ATOM     72  H26 TRP d   1      34.597 -10.202  -0.334  0.00  0.00     0.086 H 
ENDBRANCH  55  58
ENDBRANCH   8  55
ENDBRANCH   5   8
ENDBRANCH   1   4
BRANCH   1  73
ATOM     73  C   GLY d   1      25.677  -3.874  -2.322  0.00  0.00     0.236 C 
ATOM     74  O   GLY d   1      24.882  -3.125  -1.742  0.00  0.00    -0.272 OA
ATOM     75  N   ILE d   1      26.653  -3.420  -3.103  0.00  0.00    -0.346 N 
ATOM     76  H32 ILE d   1      27.297  -4.071  -3.505  0.00  0.00     0.163 HD
BRANCH  75  77
ATOM     77  CA  ILE d   1      26.810  -2.000  -3.389  0.00  0.00     0.092 C 
ATOM     78  H33 ILE d   1      26.833  -1.452  -2.436  0.00  0.00     0.088 H 
BRANCH  77  79
ATOM     79  C   ILE d   1      25.640  -1.488  -4.217  0.00  0.00     0.241 C 
ATOM     80  O   ILE d   1      25.236  -2.142  -5.159  0.00  0.00    -0.271 OA
ATOM     81  N   GLU d   1      25.104  -0.320  -3.869  0.00  0.00    -0.346 N 
ATOM     82  H43 GLU d   1      25.477   0.164  -3.078  0.00  0.00     0.163 HD
BRANCH  81  83
ATOM     83  CA  GLU d   1      23.988   0.282  -4.602  0.00  0.00     0.090 C 
ATOM     84  H44 GLU d   1      23.661  -0.425  -5.379  0.00  0.00     0.087 H 
BRANCH  83  85
ATOM     85  C   GLU d   1      24.401   1.596  -5.270  0.00  0.00     0.241 C 
ATOM     86  O   GLU d   1      25.111   2.420  -4.663  0.00  0.00    -0.271 OA
ATOM     87  N   LEU d   1      23.942   1.808  -6.504  0.00  0.00    -0.346 N 
ATOM     88  H49 LEU d   1      23.410   1.093  -6.958  0.00  0.00     0.163 HD
BRANCH  87  89
ATOM     89  CA  LEU d   1      24.201   3.064  -7.208  0.00  0.00     0.089 C 
ATOM     90  H50 LEU d   1      25.159   3.485  -6.868  0.00  0.00     0.087 H 
BRANCH  89  91
ATOM     91  C   LEU d   1      23.081   4.034  -6.872  0.00  0.00     0.241 C 
ATOM     92  O   LEU d   1      21.938   3.616  -6.741  0.00  0.00    -0.271 OA
ATOM     93  N   VAL d   1      23.404   5.310  -6.688  0.00  0.00    -0.344 N 
ATOM     94  H60 VAL d   1      24.368   5.577  -6.686  0.00  0.00     0.163 HD
BRANCH  93  95
ATOM     95  CA  VAL d   1      22.370   6.335  -6.488  0.00  0.00     0.099 C 
ATOM     96  H61 VAL d   1      21.425   5.888  -6.830  0.00  0.00     0.090 H 
BRANCH  95  97
ATOM     97  C   VAL d   1      22.600   7.584  -7.338  0.00  0.00     0.197 C 
ATOM     98  O   VAL d   1      21.681   8.061  -8.003  0.00  0.00    -0.646 OA
ATOM     99  OXT VAL d   1      23.706   8.123  -7.364  0.00  0.00    -0.646 OA
ENDBRANCH  95  97
BRANCH  95 100
ATOM    100  CB  VAL d   1      22.165   6.722  -4.989  0.00  0.00    -0.032 C 
ATOM    101  H62 VAL d   1      21.355   6.091  -4.594  0.00  0.00     0.042 H 
BRANCH 100 102
ATOM    102  CG1 VAL d   1      23.404   6.449  -4.157  0.00  0.00    -0.071 C 
ATOM    103  H63 VAL d   1      23.214   6.736  -3.112  0.00  0.00     0.028 H 
ATOM    104  H64 VAL d   1      24.247   7.036  -4.551  0.00  0.00     0.028 H 
ATOM    105  H65 VAL d   1      23.649   5.378  -4.205  0.00  0.00     0.028 H 
ENDBRANCH 100 102
BRANCH 100 106
ATOM    106  CG2 VAL d   1      21.726   8.184  -4.848  0.00  0.00    -0.071 C 
ATOM    107  H66 VAL d   1      20.828   8.358  -5.459  0.00  0.00     0.028 H 
ATOM    108  H67 VAL d   1      22.536   8.845  -5.191  0.00  0.00     0.028 H 
ATOM    109  H68 VAL d   1      21.499   8.399  -3.793  0.00  0.00     0.028 H 
ENDBRANCH 100 106
ENDBRANCH  95 100
ENDBRANCH  93  95
ENDBRANCH  89  91
BRANCH  89 110
ATOM    110  CB  LEU d   1      24.279   2.809  -8.714  0.00  0.00    -0.035 C 
ATOM    111  H51 LEU d   1      23.279   2.458  -9.009  0.00  0.00     0.037 H 
ATOM    112  H52 LEU d   1      25.006   1.993  -8.841  0.00  0.00     0.037 H 
BRANCH 110 113
ATOM    113  CG  LEU d   1      24.666   3.872  -9.746  0.00  0.00    -0.059 C 
ATOM    114  H53 LEU d   1      25.093   3.347 -10.613  0.00  0.00     0.038 H 
BRANCH 113 115
ATOM    115  CD1 LEU d   1      23.448   4.647 -10.236  0.00  0.00    -0.073 C 
ATOM    116  H54 LEU d   1      23.764   5.399 -10.974  0.00  0.00     0.028 H 
ATOM    117  H55 LEU d   1      22.966   5.149  -9.384  0.00  0.00     0.028 H 
ATOM    118  H56 LEU d   1      22.735   3.952 -10.704  0.00  0.00     0.028 H 
ENDBRANCH 113 115
BRANCH 113 119
ATOM    119  CD2 LEU d   1      25.738   4.813  -9.208  0.00  0.00    -0.073 C 
ATOM    120  H57 LEU d   1      26.602   4.226  -8.863  0.00  0.00     0.028 H 
ATOM    121  H58 LEU d   1      25.329   5.392  -8.367  0.00  0.00     0.028 H 
ATOM    122  H59 LEU d   1      26.057   5.500 -10.006  0.00  0.00     0.028 H 
ENDBRANCH 113 119
ENDBRANCH 110 113
ENDBRANCH  89 110
ENDBRANCH  87  89
ENDBRANCH  83  85
BRANCH  83 123
ATOM    123  CB  GLU d   1      22.810   0.568  -3.658  0.00  0.00    -0.029 C 
ATOM    124  H45 GLU d   1      22.066   1.154  -4.217  0.00  0.00     0.037 H 
ATOM    125  H46 GLU d   1      23.191   1.166  -2.817  0.00  0.00     0.037 H 
BRANCH 123 126
ATOM    126  CG  GLU d   1      22.100  -0.657  -3.077  0.00  0.00     0.018 C 
ATOM    127  H47 GLU d   1      22.844  -1.286  -2.567  0.00  0.00     0.049 H 
ATOM    128  H48 GLU d   1      21.644  -1.224  -3.902  0.00  0.00     0.049 H 
BRANCH 126 129
ATOM    129  CD  GLU d   1      21.001  -0.281  -2.072  0.00  0.00     0.172 C 
ATOM    130  OE1 GLU d   1      20.461  -1.202  -1.414  0.00  0.00    -0.648 OA
ATOM    131  OE2 GLU d   1      20.678   0.931  -1.935  0.00  0.00    -0.648 OA
ENDBRANCH 126 129
ENDBRANCH 123 126
ENDBRANCH  83 123
ENDBRANCH  81  83
ENDBRANCH  77  79
BRANCH  77 132
ATOM    132  CB  ILE d   1      28.134  -1.744  -4.139  0.00  0.00    -0.030 C 
ATOM    133  H34 ILE d   1      28.212  -2.469  -4.963  0.00  0.00     0.043 H 
BRANCH 132 134
ATOM    134  CG1 ILE d   1      29.306  -1.973  -3.185  0.00  0.00    -0.063 C 
ATOM    135  H35 ILE d   1      29.236  -2.999  -2.795  0.00  0.00     0.033 H 
ATOM    136  H36 ILE d   1      29.217  -1.258  -2.354  0.00  0.00     0.033 H 
BRANCH 134 137
ATOM    137  CD1 ILE d   1      30.674  -1.799  -3.813  0.00  0.00    -0.076 C 
ATOM    138  H40 ILE d   1      31.451  -1.982  -3.056  0.00  0.00     0.027 H 
ATOM    139  H41 ILE d   1      30.773  -0.774  -4.199  0.00  0.00     0.027 H 
ATOM    140  H42 ILE d   1      30.792  -2.515  -4.640  0.00  0.00     0.027 H 
ENDBRANCH 134 137
ENDBRANCH 132 134
BRANCH 132 141
ATOM    141  CG2 ILE d   1      28.170  -0.325  -4.750  0.00  0.00    -0.071 C 
ATOM    142  H37 ILE d   1      27.314  -0.196  -5.429  0.00  0.00     0.028 H 
ATOM    143  H38 ILE d   1      29.107  -0.191  -5.311  0.00  0.00     0.028 H 
ATOM    144  H39 ILE d   1      28.114   0.422  -3.945  0.00  0.00     0.028 H 
ENDBRANCH 132 141
ENDBRANCH  77 132
ENDBRANCH  75  77
ENDBRANCH   1  73
TORSDOF 41
