REMARK  2 active torsions:
REMARK  status: ('A' for Active; 'I' for Inactive)
REMARK    1  A    between atoms: C2_26  and  O08_11 
REMARK    2  A    between atoms: C1_25  and  O17_14 
ROOT
ATOM      1  O11 6ZJ d   1      15.445  17.249  26.053  0.00  0.00    -0.188 OA
ATOM      2  O12 6ZJ d   1      13.875  18.092  27.825  0.00  0.00    -0.188 OA
ATOM      3  C10 6ZJ d   1      14.405  16.952  27.069  0.00  0.00     0.293 C 
ATOM      4  O13 6ZJ d   1      15.671  13.255  26.783  0.00  0.00    -0.184 OA
ATOM      5  O14 6ZJ d   1      17.833  17.242  27.386  0.00  0.00    -0.184 OA
ATOM      6  C01 6ZJ d   1      13.772  13.899  25.220  0.00  0.00     0.032 C 
ATOM      7  C02 6ZJ d   1      15.188  13.484  24.544  0.00  0.00     0.293 C 
ATOM      8  O03 6ZJ d   1      16.574  13.755  24.916  0.00  0.00    -0.188 OA
ATOM      9  O05 6ZJ d   1      15.976  14.756  28.169  0.00  0.00    -0.184 OA
ATOM     10  C06 6ZJ d   1      14.836  13.973  27.673  0.00  0.00     0.324 C 
ATOM     11  C09 6ZJ d   1      13.254  15.849  27.081  0.00  0.00     0.032 C 
ATOM     12  C15 6ZJ d   1      18.818  17.805  26.435  0.00  0.00     0.324 C 
ATOM     13  C18 6ZJ d   1      19.445  16.162  24.298  0.00  0.00     0.032 C 
ATOM     14  C19 6ZJ d   1      17.954  15.987  23.624  0.00  0.00     0.293 C 
ATOM     15  O20 6ZJ d   1      16.623  16.349  24.140  0.00  0.00    -0.188 OA
ATOM     16  O21 6ZJ d   1      17.815  14.707  22.884  0.00  0.00    -0.188 OA
ATOM     17  C22 6ZJ d   1      20.413  15.887  26.672  0.00  0.00     0.032 C 
ATOM     18  C23 6ZJ d   1      19.440  14.704  27.067  0.00  0.00     0.293 C 
ATOM     19  O24 6ZJ d   1      18.452  14.074  26.274  0.00  0.00    -0.188 OA
ATOM     20  O25 6ZJ d   1      19.974  13.944  28.246  0.00  0.00    -0.188 OA
ATOM     21  O26 6ZJ d   1      18.197  18.975  25.696  0.00  0.00    -0.184 OA
ATOM     22  O27 6ZJ d   1      15.137  13.163  23.095  0.00  0.00    -0.188 OA
ATOM     23  C1  6ZJ d   1      19.973  16.977  25.613  0.00  0.00     0.136 C 
ATOM     24  C2  6ZJ d   1      13.508  14.299  26.773  0.00  0.00     0.136 C 
ATOM     25 FE   6ZJ d   1      16.830  15.576  26.225  0.00  0.00     0.000 Fe
ATOM     26  H1  6ZJ d   1      13.107  13.044  25.031  0.00  0.00     0.046 H 
ATOM     27  H2  6ZJ d   1      13.426  14.768  24.641  0.00  0.00     0.046 H 
ATOM     28  H4  6ZJ d   1      12.510  16.183  26.343  0.00  0.00     0.046 H 
ATOM     29  H5  6ZJ d   1      12.813  15.886  28.088  0.00  0.00     0.046 H 
ATOM     30  H7  6ZJ d   1      20.049  16.579  23.479  0.00  0.00     0.046 H 
ATOM     31  H8  6ZJ d   1      19.760  15.127  24.495  0.00  0.00     0.046 H 
ATOM     32  H9  6ZJ d   1      21.330  15.422  26.281  0.00  0.00     0.046 H 
ATOM     33  H10 6ZJ d   1      20.643  16.428  27.602  0.00  0.00     0.046 H 
ENDROOT
BRANCH  23  34
ATOM     34  O17 6ZJ d   1      21.194  17.709  25.267  0.00  0.00    -0.383 OA
ATOM     35  H6  6ZJ d   1      21.785  17.133  24.797  0.00  0.00     0.210 HD
ENDBRANCH  23  34
BRANCH  24  36
ATOM     36  O08 6ZJ d   1      12.182  13.727  27.092  0.00  0.00    -0.383 OA
ATOM     37  H3  6ZJ d   1      12.232  12.779  27.061  0.00  0.00     0.210 HD
ENDBRANCH  24  36
TORSDOF 2
