REMARK  5 active torsions:
REMARK  status: ('A' for Active; 'I' for Inactive)
REMARK    1  A    between atoms: C2_1  and  C21_12 
REMARK    2  A    between atoms: C10_5  and  C11_6 
REMARK    3  A    between atoms: C13_7  and  N17_22 
REMARK    4  A    between atoms: C15_8  and  C18_23 
REMARK    5  A    between atoms: C18_23  and  C19_10 
ROOT
ATOM      1  C2  61Y d   1      32.709 -25.988 -13.024  0.00  0.00    -0.004 A 
ATOM      2  C3  61Y d   1      31.430 -26.515 -12.951  0.00  0.00     0.015 A 
ATOM      3  C7  61Y d   1      32.226 -28.537 -12.277  0.00  0.00     0.138 A 
ATOM      4  C9  61Y d   1      33.520 -30.221 -11.668  0.00  0.00    -0.008 A 
ATOM      5  C10 61Y d   1      34.361 -29.217 -11.907  0.00  0.00     0.023 A 
ATOM      6  N4  61Y d   1      31.237 -27.734 -12.603  0.00  0.00    -0.242 NA
ATOM      7  C5  61Y d   1      33.796 -26.789 -12.702  0.00  0.00    -0.056 A 
ATOM      8  C6  61Y d   1      33.541 -28.089 -12.314  0.00  0.00     0.025 A 
ATOM      9  N8  61Y d   1      32.266 -29.827 -11.882  0.00  0.00    -0.349 N 
ATOM     10  H1  61Y d   1      30.579 -25.887 -13.192  0.00  0.00     0.116 H 
ATOM     11  H2  61Y d   1      33.814 -31.218 -11.345  0.00  0.00     0.112 H 
ATOM     12  H10 61Y d   1      34.809 -26.407 -12.753  0.00  0.00     0.086 H 
ATOM     13  H11 61Y d   1      31.437 -30.427 -11.762  0.00  0.00     0.167 HD
ENDROOT
BRANCH   5  14
ATOM     14  C11 61Y d   1      35.822 -29.340 -11.811  0.00  0.00     0.090 A 
ATOM     15  C16 61Y d   1      36.715 -28.368 -12.241  0.00  0.00    -0.029 A 
ATOM     16  C15 61Y d   1      38.063 -28.634 -12.139  0.00  0.00     0.055 A 
ATOM     17  H3  61Y d   1      36.362 -27.426 -12.646  0.00  0.00     0.090 H 
ATOM     18  N14 61Y d   1      38.455 -29.778 -11.638  0.00  0.00    -0.068 NA
ATOM     19  C13 61Y d   1      37.571 -30.662 -11.261  0.00  0.00     0.721 A 
ATOM     20  N12 61Y d   1      36.297 -30.462 -11.346  0.00  0.00    -0.062 NA
BRANCH  16  21
ATOM     21  C18 61Y d   1      39.096 -27.630 -12.561  0.00  0.00    -0.027 C 
ATOM     22  H14 61Y d   1      38.602 -26.786 -13.064  0.00  0.00     0.041 H 
ATOM     23  H15 61Y d   1      39.806 -28.105 -13.254  0.00  0.00     0.041 H 
BRANCH  21  24
ATOM     24  C19 61Y d   1      39.843 -27.123 -11.344  0.00  0.00    -0.071 C 
ATOM     25  H4  61Y d   1      40.599 -26.388 -11.658  0.00  0.00     0.028 H 
ATOM     26  H5  61Y d   1      40.339 -27.966 -10.840  0.00  0.00     0.028 H 
ATOM     27  H6  61Y d   1      39.134 -26.647 -10.651  0.00  0.00     0.028 H 
ENDBRANCH  21  24
ENDBRANCH  16  21
BRANCH  19  28
ATOM     28  N17 61Y d   1      37.999 -31.850 -10.737  0.00  0.00    -0.231 N 
ATOM     29  H12 61Y d   1      37.313 -32.557 -10.435  0.00  0.00     0.174 HD
ATOM     30  H13 61Y d   1      39.007 -32.038 -10.644  0.00  0.00     0.174 HD
ENDBRANCH  19  28
ENDBRANCH   5  14
BRANCH   1  31
ATOM     31  C21 61Y d   1      32.882 -24.587 -13.442  0.00  0.00     0.012 A 
ATOM     32  C20 61Y d   1      31.973 -23.827 -14.061  0.00  0.00     0.034 A 
ATOM     33  N1  61Y d   1      32.520 -22.632 -14.255  0.00  0.00    -0.187 NA
ATOM     34  H7  61Y d   1      30.969 -24.131 -14.353  0.00  0.00     0.118 H 
ATOM     35  N23 61Y d   1      33.794 -22.633 -13.741  0.00  0.00    -0.289 N 
ATOM     36  C22 61Y d   1      34.011 -23.804 -13.259  0.00  0.00     0.008 A 
ATOM     37  H9  61Y d   1      34.453 -21.841 -13.742  0.00  0.00     0.188 HD
ATOM     38  H8  61Y d   1      34.935 -24.130 -12.783  0.00  0.00     0.115 H 
ENDBRANCH   1  31
TORSDOF 5
