REMARK  9 active torsions:
REMARK  status: ('A' for Active; 'I' for Inactive)
REMARK    1  A    between atoms: C4_7  and  C5_2 
REMARK    2  A    between atoms: C6_3  and  C1_8 
REMARK    3  A    between atoms: C6_3  and  C16_18 
REMARK       I    between atoms: N1_4  and  C3_9 
REMARK    4  A    between atoms: C14_16  and  N1_4 
REMARK    5  A    between atoms: C12_14  and  C2_5 
REMARK    6  A    between atoms: C3_9  and  C4_7 
REMARK    7  A    between atoms: C4_7  and  N2_19 
REMARK    8  A    between atoms: C13_15  and  C14_16 
REMARK    9  A    between atoms: C14_16  and  C15_17 
ROOT
ATOM      1  C14 AIX d   1       5.881  19.892 -62.189  0.00  0.00     0.099 C 
ATOM      2  H15 AIX d   1       6.324  20.815 -62.591  0.00  0.00     0.088 H 
ENDROOT
BRANCH   1   3
ATOM      3  N1  AIX d   1       6.677  19.482 -61.079  0.00  0.00    -0.345 N 
ATOM      4  C3  AIX d   1       7.906  19.881 -60.909  0.00  0.00     0.253 C 
ATOM      5  O3  AIX d   1       8.525  20.491 -61.708  0.00  0.00    -0.271 OA
ATOM      6  H2  AIX d   1       6.276  18.863 -60.404  0.00  0.00     0.163 HD
BRANCH   4   7
ATOM      7  C4  AIX d   1       8.572  19.631 -59.629  0.00  0.00     0.201 C 
ATOM      8  H5  AIX d   1       7.886  19.764 -58.780  0.00  0.00     0.107 H 
BRANCH   7   9
ATOM      9  C5  AIX d   1       9.173  18.322 -59.612  0.00  0.00    -0.019 A 
ATOM     10  C7  AIX d   1      10.045  18.014 -60.604  0.00  0.00    -0.074 A 
ATOM     11  C8  AIX d   1      10.624  16.783 -60.626  0.00  0.00    -0.082 A 
ATOM     12  H9  AIX d   1      10.279  18.742 -61.372  0.00  0.00     0.084 H 
ATOM     13  C9  AIX d   1      10.334  15.879 -59.646  0.00  0.00    -0.083 A 
ATOM     14  H1  AIX d   1      11.314  16.521 -61.420  0.00  0.00     0.083 H 
ATOM     15  C10 AIX d   1       9.462  16.208 -58.644  0.00  0.00    -0.082 A 
ATOM     16  H10 AIX d   1      10.795  14.898 -59.661  0.00  0.00     0.083 H 
ATOM     17  C11 AIX d   1       8.877  17.437 -58.628  0.00  0.00    -0.074 A 
ATOM     18  H11 AIX d   1       9.237  15.490 -57.863  0.00  0.00     0.083 H 
ATOM     19  H12 AIX d   1       8.184  17.705 -57.839  0.00  0.00     0.084 H 
ENDBRANCH   7   9
BRANCH   7  20
ATOM     20  N2  AIX d   1       9.638  20.566 -59.621  0.00  0.00    -0.062 N 
ATOM     21  H20 AIX d   1      10.163  20.470 -58.766  0.00  0.00     0.275 HD
ATOM     22  H21 AIX d   1       9.266  21.501 -59.683  0.00  0.00     0.275 HD
ATOM     23  H22 AIX d   1      10.243  20.392 -60.408  0.00  0.00     0.275 HD
ENDBRANCH   7  20
ENDBRANCH   4   7
ENDBRANCH   1   3
BRANCH   1  24
ATOM     24  C13 AIX d   1       5.823  18.890 -63.338  0.00  0.00     0.173 C 
ATOM     25  N3  AIX d   1       4.688  18.023 -63.283  0.00  0.00    -0.044 N 
ATOM     26  C12 AIX d   1       4.831  17.021 -62.315  0.00  0.00     0.201 C 
ATOM     27  H3  AIX d   1       3.871  18.572 -63.063  0.00  0.00     0.279 HD
ATOM     28  H4  AIX d   1       4.568  17.588 -64.184  0.00  0.00     0.279 HD
ATOM     29  C6  AIX d   1       6.107  16.410 -62.815  0.00  0.00     0.041 C 
ATOM     30  H13 AIX d   1       4.985  17.449 -61.313  0.00  0.00     0.104 H 
ATOM     31  S1  AIX d   1       7.115  17.740 -63.285  0.00  0.00    -0.122 SA
ATOM     32  H14 AIX d   1       5.837  19.449 -64.285  0.00  0.00     0.105 H 
BRANCH  26  33
ATOM     33  C2  AIX d   1       3.651  16.169 -62.254  0.00  0.00     0.206 C 
ATOM     34  O1  AIX d   1       3.403  15.598 -61.201  0.00  0.00    -0.646 OA
ATOM     35  O2  AIX d   1       2.979  16.115 -63.253  0.00  0.00    -0.646 OA
ENDBRANCH  26  33
BRANCH  29  36
ATOM     36  C1  AIX d   1       5.831  15.563 -64.015  0.00  0.00    -0.058 C 
ATOM     37  H6  AIX d   1       6.771  15.119 -64.375  0.00  0.00     0.029 H 
ATOM     38  H7  AIX d   1       5.391  16.184 -64.809  0.00  0.00     0.029 H 
ATOM     39  H8  AIX d   1       5.128  14.762 -63.744  0.00  0.00     0.029 H 
ENDBRANCH  29  36
BRANCH  29  40
ATOM     40  C16 AIX d   1       6.830  15.597 -61.780  0.00  0.00    -0.058 C 
ATOM     41  H17 AIX d   1       7.751  15.183 -62.217  0.00  0.00     0.029 H 
ATOM     42  H18 AIX d   1       6.183  14.775 -61.442  0.00  0.00     0.029 H 
ATOM     43  H19 AIX d   1       7.086  16.238 -60.924  0.00  0.00     0.029 H 
ENDBRANCH  29  40
ENDBRANCH   1  24
BRANCH   1  44
ATOM     44  C15 AIX d   1       4.513  20.211 -61.682  0.00  0.00     0.112 C 
ATOM     45  O4  AIX d   1       4.025  19.874 -60.615  0.00  0.00    -0.305 OA
ATOM     46  H16 AIX d   1       3.881  20.810 -62.336  0.00  0.00     0.146 H 
ENDBRANCH   1  44
TORSDOF 9
