REMARK  14 active torsions:
REMARK  status: ('A' for Active; 'I' for Inactive)
REMARK    1  A    between atoms: C18_12  and  C7_1 
REMARK    2  A    between atoms: N14_8  and  O11_5 
REMARK    3  A    between atoms: O11_5  and  C23_17 
REMARK    4  A    between atoms: N12_6  and  S17_11 
REMARK    5  A    between atoms: C18_12  and  N12_6 
REMARK    6  A    between atoms: N13_7  and  C19_13 
REMARK       I    between atoms: C21_15  and  N13_7 
REMARK    7  A    between atoms: C26_20  and  N16_10 
REMARK    8  A    between atoms: C19_13  and  C18_12 
REMARK    9  A    between atoms: C19_13  and  C20_14 
REMARK   10  A    between atoms: C22_16  and  C21_15 
REMARK   11  A    between atoms: C22_16  and  C24_18 
REMARK   12  A    between atoms: C23_17  and  C27_21 
REMARK   13  A    between atoms: C23_17  and  C28_22 
REMARK   14  A    between atoms: C23_17  and  C29_23 
ROOT
ATOM      1  N14 AZR d   1     -40.276 -11.299  59.438  0.00  0.00    -0.125 NA
ATOM      2  C22 AZR d   1     -39.275 -10.666  59.982  0.00  0.00     0.180 C 
ENDROOT
BRANCH   2   3
ATOM      3  C21 AZR d   1     -38.619 -11.092  61.259  0.00  0.00     0.275 C 
ATOM      4  O10 AZR d   1     -38.643 -10.377  62.217  0.00  0.00    -0.266 OA
ATOM      5  N13 AZR d   1     -37.936 -12.317  61.226  0.00  0.00    -0.343 N 
ATOM      6  H5  AZR d   1     -37.961 -12.842  60.375  0.00  0.00     0.163 HD
BRANCH   5   7
ATOM      7  C19 AZR d   1     -37.212 -12.862  62.318  0.00  0.00     0.082 C 
ATOM      8  H9  AZR d   1     -37.657 -12.424  63.224  0.00  0.00     0.086 H 
BRANCH   7   9
ATOM      9  C18 AZR d   1     -37.330 -14.373  62.427  0.00  0.00     0.044 C 
ATOM     10  H8  AZR d   1     -37.000 -14.788  61.463  0.00  0.00     0.076 H 
BRANCH   9  11
ATOM     11  C7  AZR d   1     -38.716 -14.925  62.690  0.00  0.00    -0.054 C 
ATOM     12  H1  AZR d   1     -39.406 -14.570  61.911  0.00  0.00     0.030 H 
ATOM     13  H2  AZR d   1     -39.067 -14.582  63.675  0.00  0.00     0.030 H 
ATOM     14  H3  AZR d   1     -38.682 -16.024  62.676  0.00  0.00     0.030 H 
ENDBRANCH   9  11
BRANCH   9  15
ATOM     15  N12 AZR d   1     -36.455 -14.834  63.430  0.00  0.00    -0.294 N 
ATOM     16  H4  AZR d   1     -36.433 -14.440  64.349  0.00  0.00     0.175 HD
BRANCH  15  17
ATOM     17  S17 AZR d   1     -35.487 -16.054  62.979  0.00  0.00     0.204 S 
ATOM     18  O32 AZR d   1     -34.642 -15.791  61.868  0.00  0.00    -0.578 OA
ATOM     19  O33 AZR d   1     -34.766 -16.538  64.101  0.00  0.00    -0.578 OA
ATOM     20  O34 AZR d   1     -36.333 -17.077  62.464  0.00  0.00    -0.578 OA
ENDBRANCH  15  17
ENDBRANCH   9  15
ENDBRANCH   7   9
BRANCH   7  21
ATOM     21  C20 AZR d   1     -35.892 -12.582  62.343  0.00  0.00     0.112 C 
ATOM     22  O9  AZR d   1     -35.251 -12.635  61.297  0.00  0.00    -0.305 OA
ATOM     23  H10 AZR d   1     -35.402 -12.313  63.278  0.00  0.00     0.146 H 
ENDBRANCH   7  21
ENDBRANCH   5   7
ENDBRANCH   2   3
BRANCH   2  24
ATOM     24  C24 AZR d   1     -38.727  -9.474  59.284  0.00  0.00     0.102 A 
ATOM     25  N15 AZR d   1     -38.875  -9.330  57.754  0.00  0.00    -0.222 NA
ATOM     26  C26 AZR d   1     -38.299  -8.113  57.348  0.00  0.00     0.164 A 
ATOM     27  S8  AZR d   1     -37.701  -7.400  58.639  0.00  0.00    -0.062 SA
ATOM     28  C25 AZR d   1     -38.036  -8.330  59.829  0.00  0.00    -0.011 A 
ATOM     29  H11 AZR d   1     -37.796  -8.155  60.877  0.00  0.00     0.098 H 
BRANCH  26  30
ATOM     30  N16 AZR d   1     -38.319  -7.758  55.975  0.00  0.00    -0.378 N 
ATOM     31  H6  AZR d   1     -38.771  -8.379  55.289  0.00  0.00     0.158 HD
ATOM     32  H7  AZR d   1     -37.882  -6.879  55.664  0.00  0.00     0.158 HD
ENDBRANCH  26  30
ENDBRANCH   2  24
BRANCH   1  33
ATOM     33  O11 AZR d   1     -40.790 -12.373  60.103  0.00  0.00    -0.234 OA
BRANCH  33  34
ATOM     34  C23 AZR d   1     -42.207 -12.477  59.922  0.00  0.00     0.171 C 
BRANCH  34  35
ATOM     35  C27 AZR d   1     -42.819 -12.996  61.244  0.00  0.00    -0.036 C 
ATOM     36  H12 AZR d   1     -43.910 -13.086  61.133  0.00  0.00     0.032 H 
ATOM     37  H13 AZR d   1     -42.590 -12.290  62.056  0.00  0.00     0.032 H 
ATOM     38  H14 AZR d   1     -42.393 -13.981  61.483  0.00  0.00     0.032 H 
ENDBRANCH  34  35
BRANCH  34  39
ATOM     39  C28 AZR d   1     -42.775 -11.079  59.555  0.00  0.00    -0.036 C 
ATOM     40  H15 AZR d   1     -43.864 -11.151  59.414  0.00  0.00     0.032 H 
ATOM     41  H16 AZR d   1     -42.307 -10.726  58.624  0.00  0.00     0.032 H 
ATOM     42  H17 AZR d   1     -42.556 -10.370  60.367  0.00  0.00     0.032 H 
ENDBRANCH  34  39
BRANCH  34  43
ATOM     43  C29 AZR d   1     -42.496 -13.495  58.806  0.00  0.00     0.211 C 
ATOM     44  O30 AZR d   1     -43.455 -13.275  58.023  0.00  0.00    -0.646 OA
ATOM     45  O31 AZR d   1     -41.796 -14.548  58.657  0.00  0.00    -0.646 OA
ENDBRANCH  34  43
ENDBRANCH  33  34
ENDBRANCH   1  33
TORSDOF 14
