REMARK  7 active torsions:
REMARK  status: ('A' for Active; 'I' for Inactive)
REMARK    1  A    between atoms: CAK_2  and  CAD_4 
REMARK    2  A    between atoms: CAE_6  and  CAJ_7 
REMARK    3  A    between atoms: CB_10  and  CA_11 
REMARK    4  A    between atoms: CA_11  and  C_12 
REMARK    5  A    between atoms: CA_11  and  N_14 
REMARK       I    between atoms: N_14  and  CAM_15 
REMARK    6  A    between atoms: CAM_15  and  CAN_17 
REMARK    7  A    between atoms: CAN_17  and  CAP_18 
ROOT
ATOM      1  CAD 63V d   1      -5.101  15.181  61.513  0.00  0.00     0.189 C 
ATOM      2  NAC 63V d   1      -5.239  16.468  61.997  0.00  0.00    -0.045 N 
ATOM      3  CAE 63V d   1      -6.200  14.473  60.956  0.00  0.00    -0.012 C 
ATOM      4  CAF 63V d   1      -7.540  14.949  61.180  0.00  0.00    -0.016 C 
ATOM      5  SAA 63V d   1      -7.735  16.290  62.410  0.00  0.00    -0.133 SA
ATOM      6  CB  63V d   1      -6.388  17.109  61.472  0.00  0.00     0.172 C 
ATOM      7  H1  63V d   1      -5.240  14.714  62.499  0.00  0.00     0.102 H 
ATOM      8  H2  63V d   1      -4.423  17.002  61.742  0.00  0.00     0.279 HD
ATOM      9  H3  63V d   1      -5.316  16.432  63.001  0.00  0.00     0.279 HD
ATOM     10  H4  63V d   1      -6.050  14.581  59.872  0.00  0.00     0.044 H 
ATOM     11  H8  63V d   1      -8.146  14.095  61.517  0.00  0.00     0.049 H 
ATOM     12  H9  63V d   1      -7.929  15.318  60.219  0.00  0.00     0.049 H 
ATOM     13  H10 63V d   1      -6.492  16.781  60.427  0.00  0.00     0.105 H 
ENDROOT
BRANCH   6  14
ATOM     14  CA  63V d   1      -6.348  18.591  61.370  0.00  0.00     0.098 C 
ATOM     15  H11 63V d   1      -6.723  19.097  62.272  0.00  0.00     0.088 H 
BRANCH  14  16
ATOM     16  C   63V d   1      -5.147  19.129  60.947  0.00  0.00     0.112 C 
ATOM     17  O   63V d   1      -4.558  18.698  59.956  0.00  0.00    -0.305 OA
ATOM     18  H12 63V d   1      -4.710  19.956  61.505  0.00  0.00     0.146 H 
ENDBRANCH  14  16
BRANCH  14  19
ATOM     19  N   63V d   1      -7.200  18.674  60.201  0.00  0.00    -0.347 N 
ATOM     20  CAM 63V d   1      -8.605  19.042  60.206  0.00  0.00     0.223 C 
ATOM     21  OAO 63V d   1      -9.198  19.289  61.231  0.00  0.00    -0.273 OA
ATOM     22  H13 63V d   1      -6.786  18.460  59.316  0.00  0.00     0.163 HD
BRANCH  20  23
ATOM     23  CAN 63V d   1      -9.366  19.071  58.863  0.00  0.00     0.039 C 
ATOM     24  H14 63V d   1      -8.742  19.531  58.082  0.00  0.00     0.055 H 
ATOM     25  H15 63V d   1     -10.301  19.641  58.968  0.00  0.00     0.055 H 
BRANCH  23  26
ATOM     26  CAP 63V d   1      -9.670  17.623  58.508  0.00  0.00    -0.009 A 
ATOM     27  SAT 63V d   1     -10.748  16.649  59.382  0.00  0.00    -0.106 SA
ATOM     28  CAS 63V d   1     -10.514  15.234  58.389  0.00  0.00    -0.045 A 
ATOM     29  CAR 63V d   1      -9.560  15.565  57.355  0.00  0.00    -0.076 A 
ATOM     30  H16 63V d   1     -11.002  14.270  58.525  0.00  0.00     0.095 H 
ATOM     31  CAQ 63V d   1      -9.097  16.942  57.454  0.00  0.00    -0.069 A 
ATOM     32  H17 63V d   1      -9.226  14.865  56.590  0.00  0.00     0.084 H 
ATOM     33  H18 63V d   1      -8.376  17.386  56.770  0.00  0.00     0.085 H 
ENDBRANCH  23  26
ENDBRANCH  20  23
ENDBRANCH  14  19
ENDBRANCH   6  14
BRANCH   1  34
ATOM     34  CAK 63V d   1      -3.693  14.711  61.380  0.00  0.00     0.205 C 
ATOM     35  OAU 63V d   1      -3.273  14.236  60.295  0.00  0.00    -0.646 OA
ATOM     36  OAV 63V d   1      -2.936  14.837  62.374  0.00  0.00    -0.646 OA
ENDBRANCH   1  34
BRANCH   3  37
ATOM     37  CAJ 63V d   1      -6.161  12.972  61.226  0.00  0.00    -0.070 C 
ATOM     38  H5  63V d   1      -7.039  12.494  60.767  0.00  0.00     0.028 H 
ATOM     39  H6  63V d   1      -6.173  12.794  62.312  0.00  0.00     0.028 H 
ATOM     40  H7  63V d   1      -5.244  12.546  60.794  0.00  0.00     0.028 H 
ENDBRANCH   3  37
TORSDOF 7
