REMARK  8 active torsions:
REMARK  status: ('A' for Active; 'I' for Inactive)
REMARK    1  A    between atoms: C11_2  and  O12_1 
REMARK    2  A    between atoms: C17_3  and  C11_2 
REMARK    3  A    between atoms: C11_2  and  C10_8 
REMARK    4  A    between atoms: C10_8  and  C9_9 
REMARK    5  A    between atoms: C9_9  and  C8_10 
REMARK    6  A    between atoms: C8_10  and  C7_11 
REMARK    7  A    between atoms: C7_11  and  C2_12 
REMARK    8  A    between atoms: C23_25  and  C22_24 
ROOT
ATOM      1  C8  B9F d   1       7.858  40.890  32.722  0.00  0.00    -0.064 C 
ATOM      2  H   B9F d   1       7.850  40.827  31.634  0.00  0.00     0.033 H 
ATOM      3  H   B9F d   1       7.308  41.767  33.062  0.00  0.00     0.033 H 
ENDROOT
BRANCH   1   4
ATOM      4  C9  B9F d   1       9.282  40.998  33.192  0.00  0.00    -0.063 C 
ATOM      5  H   B9F d   1       9.274  41.562  34.125  0.00  0.00     0.033 H 
ATOM      6  H   B9F d   1       9.668  39.984  33.294  0.00  0.00     0.033 H 
BRANCH   4   7
ATOM      7  C10 B9F d   1      10.201  41.741  32.216  0.00  0.00    -0.040 C 
ATOM      8  H   B9F d   1       9.946  41.497  31.185  0.00  0.00     0.036 H 
ATOM      9  H   B9F d   1      10.088  42.820  32.326  0.00  0.00     0.036 H 
BRANCH   7  10
ATOM     10  C11 B9F d   1      11.636  41.311  32.535  0.00  0.00     0.045 C 
ATOM     11  H   B9F d   1      11.654  40.813  33.504  0.00  0.00     0.084 H 
BRANCH  10  12
ATOM     12  O12 B9F d   1      12.379  42.499  32.470  0.00  0.00    -0.395 OA
ATOM     13  H   B9F d   1      12.001  43.145  33.072  0.00  0.00     0.210 HD
ENDBRANCH  10  12
BRANCH  10  14
ATOM     14  C17 B9F d   1      12.221  40.299  31.598  0.00  0.00     0.017 C 
ATOM     15  C16 B9F d   1      11.508  39.463  30.676  0.00  0.00     0.002 A 
ATOM     16  C15 B9F d   1      12.453  38.718  29.928  0.00  0.00     0.000 A 
ATOM     17 FE1  B9F d   1      12.728  40.763  29.671  0.00  0.00     0.000 Fe
ATOM     18  C14 B9F d   1      13.736  39.070  30.377  0.00  0.00     0.000 A 
ATOM     19  C18 B9F d   1      13.606  40.039  31.394  0.00  0.00     0.002 A 
ATOM     20  C19 B9F d   1      11.575  42.276  28.901  0.00  0.00     0.000 A 
ATOM     21  C20 B9F d   1      12.823  42.795  29.334  0.00  0.00     0.000 A 
ATOM     22  C21 B9F d   1      13.873  42.141  28.640  0.00  0.00     0.000 A 
ATOM     23  C22 B9F d   1      13.263  41.218  27.750  0.00  0.00     0.000 A 
ATOM     24  C23 B9F d   1      11.850  41.293  27.919  0.00  0.00     0.000 A 
ENDBRANCH  10  14
ENDBRANCH   7  10
ENDBRANCH   4   7
ENDBRANCH   1   4
BRANCH   1  25
ATOM     25  C7  B9F d   1       7.197  39.646  33.290  0.00  0.00    -0.051 C 
ATOM     26  H   B9F d   1       6.644  39.944  34.181  0.00  0.00     0.034 H 
ATOM     27  H   B9F d   1       7.983  38.919  33.494  0.00  0.00     0.034 H 
BRANCH  25  28
ATOM     28  C2  B9F d   1       6.214  39.001  32.335  0.00  0.00     0.012 C 
ATOM     29  C4  B9F d   1       5.675  37.639  32.733  0.00  0.00     0.046 A 
ATOM     30  N2  B9F d   1       5.235  37.574  34.095  0.00  0.00    -0.335 N 
ATOM     31  C5  B9F d   1       4.351  37.381  31.951  0.00  0.00     0.042 A 
ATOM     32  H   B9F d   1       6.490  36.941  32.543  0.00  0.00     0.077 H 
ATOM     33  C3  B9F d   1       3.939  37.223  34.235  0.00  0.00     0.316 A 
ATOM     34  H   B9F d   1       5.846  37.775  34.887  0.00  0.00     0.164 HD
ATOM     35  O3  B9F d   1       3.349  37.075  35.298  0.00  0.00    -0.247 OA
ATOM     36  N1  B9F d   1       3.415  37.047  33.005  0.00  0.00    -0.336 N 
ATOM     37  H   B9F d   1       2.465  36.716  32.836  0.00  0.00     0.164 HD
ATOM     38  C6  B9F d   1       3.971  38.647  31.197  0.00  0.00    -0.002 C 
ATOM     39  H   B9F d   1       4.399  36.594  31.198  0.00  0.00     0.077 H 
ATOM     40  S1  B9F d   1       4.717  40.009  32.122  0.00  0.00    -0.160 SA
ATOM     41  H   B9F d   1       4.331  38.620  30.169  0.00  0.00     0.052 H 
ATOM     42  H   B9F d   1       2.889  38.759  31.128  0.00  0.00     0.052 H 
ATOM     43  H   B9F d   1       6.827  38.905  31.439  0.00  0.00     0.059 H 
ENDBRANCH  25  28
ENDBRANCH   1  25
TORSDOF 8
