REMARK  7 active torsions:
REMARK  status: ('A' for Active; 'I' for Inactive)
REMARK    1  A    between atoms: C4_3  and  C3_2 
REMARK    2  A    between atoms: C5_4  and  C16_20 
REMARK    3  A    between atoms: N4_30  and  C9_7 
REMARK    4  A    between atoms: C1_25  and  C_26 
REMARK    5  A    between atoms: C7_28  and  N3_27 
REMARK    6  A    between atoms: C8_29  and  C7_28 
REMARK    7  A    between atoms: C8_29  and  N4_30 
ROOT
ATOM      1  C9  65C d   1      75.338  -1.973   5.281  0.00  0.00     0.123 A 
ATOM      2  C10 65C d   1      76.704  -2.624   7.095  0.00  0.00     0.024 A 
ATOM      3  C11 65C d   1      75.728  -3.426   7.637  0.00  0.00     0.062 A 
ATOM      4  C12 65C d   1      74.508  -3.495   6.963  0.00  0.00    -0.058 A 
ATOM      5  C13 65C d   1      74.308  -2.779   5.772  0.00  0.00    -0.037 A 
ATOM      6  C14 65C d   1      75.987  -4.038   8.747  0.00  0.00     0.101 C 
ATOM      7  N5  65C d   1      76.495  -1.938   5.964  0.00  0.00    -0.242 NA
ATOM      8  N6  65C d   1      76.239  -4.571   9.755  0.00  0.00    -0.191 NA
ATOM      9  H2  65C d   1      77.663  -2.545   7.594  0.00  0.00     0.117 H 
ATOM     10  H3  65C d   1      73.707  -4.107   7.363  0.00  0.00     0.086 H 
ATOM     11  H4  65C d   1      73.366  -2.851   5.240  0.00  0.00     0.089 H 
ENDROOT
BRANCH   1  12
ATOM     12  N4  65C d   1      75.311  -1.257   4.118  0.00  0.00    -0.373 N 
ATOM     13  H18 65C d   1      76.065  -0.570   3.976  0.00  0.00     0.161 HD
BRANCH  12  14
ATOM     14  C8  65C d   1      74.326  -1.372   3.069  0.00  0.00     0.009 C 
ATOM     15  H16 65C d   1      73.328  -1.459   3.524  0.00  0.00     0.066 H 
ATOM     16  H17 65C d   1      74.366  -0.470   2.441  0.00  0.00     0.066 H 
BRANCH  14  17
ATOM     17  C7  65C d   1      74.580  -2.596   2.194  0.00  0.00     0.024 C 
ATOM     18  H14 65C d   1      75.419  -2.421   1.505  0.00  0.00     0.067 H 
ATOM     19  H15 65C d   1      74.789  -3.484   2.809  0.00  0.00     0.067 H 
BRANCH  17  20
ATOM     20  N3  65C d   1      73.351  -2.747   1.477  0.00  0.00    -0.221 N 
ATOM     21  C6  65C d   1      72.302  -3.452   1.954  0.00  0.00     0.722 A 
ATOM     22  N7  65C d   1      71.163  -3.477   1.244  0.00  0.00    -0.074 NA
ATOM     23  N2  65C d   1      72.379  -4.108   3.113  0.00  0.00    -0.061 NA
ATOM     24  C15 65C d   1      70.104  -4.153   1.679  0.00  0.00     0.037 A 
ATOM     25  C4  65C d   1      70.173  -4.846   2.871  0.00  0.00     0.058 A 
ATOM     26  H8  65C d   1      69.188  -4.160   1.099  0.00  0.00     0.117 H 
ATOM     27  C5  65C d   1      71.349  -4.842   3.585  0.00  0.00     0.103 A 
ATOM     28  H13 65C d   1      73.262  -2.297   0.555  0.00  0.00     0.177 HD
BRANCH  25  29
ATOM     29  C3  65C d   1      69.037  -5.649   3.349  0.00  0.00     0.141 A 
ATOM     30  N   65C d   1      68.992  -6.930   3.893  0.00  0.00    -0.240 NA
ATOM     31  C2  65C d   1      67.676  -7.138   4.132  0.00  0.00     0.026 A 
ATOM     32  C1  65C d   1      67.030  -5.957   3.701  0.00  0.00     0.024 A 
ATOM     33  H1  65C d   1      67.214  -8.025   4.564  0.00  0.00     0.117 H 
ATOM     34  N1  65C d   1      67.864  -5.025   3.214  0.00  0.00    -0.343 N 
ATOM     35  H9  65C d   1      67.657  -4.088   2.840  0.00  0.00     0.167 HD
BRANCH  32  36
ATOM     36  C   65C d   1      65.536  -5.923   3.858  0.00  0.00    -0.036 C 
ATOM     37  H10 65C d   1      65.192  -6.872   4.296  0.00  0.00     0.035 H 
ATOM     38  H11 65C d   1      65.067  -5.782   2.873  0.00  0.00     0.035 H 
ATOM     39  H12 65C d   1      65.256  -5.090   4.520  0.00  0.00     0.035 H 
ENDBRANCH  32  36
ENDBRANCH  25  29
BRANCH  27  40
ATOM     40  C16 65C d   1      71.578  -5.514   4.895  0.00  0.00     0.016 A 
ATOM     41  C21 65C d   1      72.567  -6.490   5.020  0.00  0.00    -0.068 A 
ATOM     42  C20 65C d   1      72.837  -7.084   6.254  0.00  0.00    -0.061 A 
ATOM     43  H5  65C d   1      73.134  -6.791   4.146  0.00  0.00     0.085 H 
ATOM     44  C19 65C d   1      72.102  -6.688   7.354  0.00  0.00     0.035 A 
ATOM     45  H7  65C d   1      73.608  -7.841   6.347  0.00  0.00     0.086 H 
ATOM     46 CL1  65C d   1      72.387  -7.383   8.967  0.00  0.00    -0.084 Cl
ATOM     47  C18 65C d   1      71.117  -5.731   7.224  0.00  0.00    -0.040 A 
ATOM     48  C17 65C d   1      70.866  -5.129   6.011  0.00  0.00     0.048 A 
ATOM     49  H6  65C d   1      70.531  -5.448   8.091  0.00  0.00     0.088 H 
ATOM     50 CL   65C d   1      69.585  -3.882   5.911  0.00  0.00    -0.083 Cl
ENDBRANCH  27  40
ENDBRANCH  17  20
ENDBRANCH  14  17
ENDBRANCH  12  14
ENDBRANCH   1  12
TORSDOF 7
