REMARK  6 active torsions:
REMARK  status: ('A' for Active; 'I' for Inactive)
REMARK    1  A    between atoms: C11_1  and  C13_2 
REMARK    2  A    between atoms: C9_6  and  C14_5 
REMARK    3  A    between atoms: C19_7  and  O2_19 
REMARK    4  A    between atoms: O2_19  and  C20_8 
REMARK    5  A    between atoms: C6_10  and  C8_9 
REMARK    6  A    between atoms: C6_10  and  C7_17 
ROOT
ATOM      1  C11 65A d   1       8.613  22.673 -19.311  0.00  0.00     0.062 A 
ATOM      2  C9  65A d   1       9.926  24.966 -18.984  0.00  0.00     0.036 A 
ATOM      3  C6  65A d   1      10.856  28.425 -21.776  0.00  0.00    -0.036 C 
ATOM      4  N3  65A d   1       9.314  25.027 -21.882  0.00  0.00    -0.344 N 
ATOM      5  C4  65A d   1      11.189  27.203 -19.530  0.00  0.00     0.159 C 
ATOM      6  C5  65A d   1      11.782  28.115 -20.605  0.00  0.00     0.001 C 
ATOM      7  C2  65A d   1      10.018  26.031 -21.372  0.00  0.00     0.022 A 
ATOM      8  C1  65A d   1      10.429  27.099 -22.364  0.00  0.00    -0.019 C 
ATOM      9  O1  65A d   1      11.497  27.352 -18.346  0.00  0.00    -0.293 OA
ATOM     10  C3  65A d   1      10.372  26.031 -19.960  0.00  0.00     0.024 A 
ATOM     11  C10 65A d   1       9.222  23.942 -19.708  0.00  0.00     0.026 A 
ATOM     12  C12 65A d   1       8.927  24.013 -21.129  0.00  0.00     0.131 A 
ATOM     13  N2  65A d   1       8.249  22.902 -21.540  0.00  0.00    -0.262 N 
ATOM     14  N1  65A d   1       8.066  22.131 -20.390  0.00  0.00    -0.178 NA
ATOM     15  H6  65A d   1      10.780  24.526 -18.448  0.00  0.00     0.063 H 
ATOM     16  H13 65A d   1       9.066  25.039 -22.881  0.00  0.00     0.167 HD
ATOM     17  H14 65A d   1      12.059  29.067 -20.129  0.00  0.00     0.046 H 
ATOM     18  H15 65A d   1      12.684  27.629 -21.004  0.00  0.00     0.046 H 
ATOM     19  H16 65A d   1      11.271  26.705 -22.952  0.00  0.00     0.043 H 
ATOM     20  H17 65A d   1       9.573  27.287 -23.029  0.00  0.00     0.043 H 
ATOM     21  H23 65A d   1       7.938  22.679 -22.496  0.00  0.00     0.191 HD
ENDROOT
BRANCH   2  22
ATOM     22  C14 65A d   1       9.027  25.701 -18.042  0.00  0.00    -0.011 A 
ATOM     23  C15 65A d   1       8.008  26.527 -18.535  0.00  0.00    -0.073 A 
ATOM     24  C16 65A d   1       7.206  27.279 -17.697  0.00  0.00    -0.082 A 
ATOM     25  H5  65A d   1       7.844  26.578 -19.605  0.00  0.00     0.084 H 
ATOM     26  C17 65A d   1       7.363  27.281 -16.324  0.00  0.00    -0.080 A 
ATOM     27  H4  65A d   1       6.424  27.890 -18.133  0.00  0.00     0.083 H 
ATOM     28  C18 65A d   1       8.317  26.466 -15.779  0.00  0.00    -0.050 A 
ATOM     29  H22 65A d   1       6.746  27.912 -15.695  0.00  0.00     0.083 H 
ATOM     30  C19 65A d   1       9.165  25.695 -16.577  0.00  0.00     0.075 A 
ATOM     31  H21 65A d   1       8.417  26.417 -14.701  0.00  0.00     0.087 H 
BRANCH  30  32
ATOM     32  O2  65A d   1      10.098  24.942 -15.973  0.00  0.00    -0.355 OA
BRANCH  32  33
ATOM     33  C20 65A d   1       9.835  24.204 -14.748  0.00  0.00     0.010 C 
ATOM     34  H7  65A d   1      10.743  23.664 -14.443  0.00  0.00     0.066 H 
ATOM     35  H8  65A d   1       9.021  23.484 -14.921  0.00  0.00     0.066 H 
ATOM     36  H9  65A d   1       9.541  24.905 -13.953  0.00  0.00     0.066 H 
ENDBRANCH  32  33
ENDBRANCH  30  32
ENDBRANCH   2  22
BRANCH   1  37
ATOM     37  C13 65A d   1       8.664  22.276 -17.885  0.00  0.00    -0.033 C 
ATOM     38  H1  65A d   1       8.165  21.304 -17.757  0.00  0.00     0.035 H 
ATOM     39  H2  65A d   1       8.152  23.034 -17.275  0.00  0.00     0.035 H 
ATOM     40  H3  65A d   1       9.713  22.195 -17.564  0.00  0.00     0.035 H 
ENDBRANCH   1  37
BRANCH   3  41
ATOM     41  C8  65A d   1       9.611  29.227 -21.318  0.00  0.00    -0.069 C 
ATOM     42  H10 65A d   1       9.931  30.189 -20.892  0.00  0.00     0.028 H 
ATOM     43  H11 65A d   1       9.065  28.652 -20.556  0.00  0.00     0.028 H 
ATOM     44  H12 65A d   1       8.954  29.409 -22.181  0.00  0.00     0.028 H 
ENDBRANCH   3  41
BRANCH   3  45
ATOM     45  C7  65A d   1      11.632  29.225 -22.824  0.00  0.00    -0.069 C 
ATOM     46  H18 65A d   1      11.941  30.189 -22.394  0.00  0.00     0.028 H 
ATOM     47  H19 65A d   1      10.990  29.403 -23.699  0.00  0.00     0.028 H 
ATOM     48  H20 65A d   1      12.523  28.658 -23.132  0.00  0.00     0.028 H 
ENDBRANCH   3  45
TORSDOF 6
