REMARK  4 active torsions:
REMARK  status: ('A' for Active; 'I' for Inactive)
REMARK    1  A    between atoms: C21_10  and  C13_7 
REMARK    2  A    between atoms: C15_8  and  C17_9 
REMARK    3  A    between atoms: C17_9  and  C18_20 
REMARK    4  A    between atoms: C2_19  and  C1_21 
REMARK       I    between atoms: C18_20  and  N19_23 
ROOT
ATOM      1  N3  62G d   1      13.579  -4.702   0.217  0.00  0.00    -0.132 NA
ATOM      2  C5  62G d   1      12.665  -6.469  -0.765  0.00  0.00     0.117 A 
ATOM      3  C6  62G d   1      11.648  -5.870  -0.059  0.00  0.00     0.036 A 
ATOM      4  C7  62G d   1      10.280  -6.366  -0.193  0.00  0.00    -0.009 A 
ATOM      5  C8  62G d   1       9.429  -6.410   0.909  0.00  0.00    -0.071 A 
ATOM      6  C10 62G d   1       7.735  -7.470  -0.416  0.00  0.00    -0.082 A 
ATOM      7  C13 62G d   1      10.643  -6.857  -2.635  0.00  0.00     0.073 C 
ATOM      8  C15 62G d   1      12.642  -7.632  -1.651  0.00  0.00     0.090 C 
ATOM      9  C9  62G d   1       8.170  -6.961   0.793  0.00  0.00    -0.082 A 
ATOM     10  C11 62G d   1       8.568  -7.423  -1.525  0.00  0.00    -0.070 A 
ATOM     11  C12 62G d   1       9.844  -6.914  -1.391  0.00  0.00     0.004 A 
ATOM     12  C2  62G d   1      12.281  -4.762   0.562  0.00  0.00     0.072 A 
ATOM     13  N14 62G d   1      11.891  -7.165  -2.810  0.00  0.00    -0.276 NA
ATOM     14  O4  62G d   1      13.829  -5.809  -0.584  0.00  0.00    -0.214 OA
ATOM     15  H1  62G d   1       9.758  -6.010   1.861  0.00  0.00     0.084 H 
ATOM     16  H2  62G d   1       6.745  -7.905  -0.498  0.00  0.00     0.083 H 
ATOM     17  H3  62G d   1      12.136  -8.480  -1.166  0.00  0.00     0.087 H 
ATOM     18  H8  62G d   1       7.516  -6.995   1.657  0.00  0.00     0.083 H 
ATOM     19  H9  62G d   1       8.220  -7.782  -2.487  0.00  0.00     0.084 H 
ENDROOT
BRANCH   7  20
ATOM     20  C21 62G d   1       9.890  -6.417  -3.822  0.00  0.00    -0.007 A 
ATOM     21  C22 62G d   1       8.764  -5.653  -3.620  0.00  0.00    -0.069 A 
ATOM     22  C23 62G d   1       8.044  -5.218  -4.712  0.00  0.00    -0.061 A 
ATOM     23  H6  62G d   1       8.447  -5.396  -2.616  0.00  0.00     0.085 H 
ATOM     24  C24 62G d   1       8.465  -5.535  -5.982  0.00  0.00     0.034 A 
ATOM     25  H11 62G d   1       7.147  -4.627  -4.570  0.00  0.00     0.086 H 
ATOM     26  C26 62G d   1       9.605  -6.301  -6.188  0.00  0.00    -0.061 A 
ATOM     27 CL25 62G d   1       7.523  -4.952  -7.308  0.00  0.00    -0.084 Cl
ATOM     28  C27 62G d   1      10.322  -6.754  -5.089  0.00  0.00    -0.069 A 
ATOM     29  H7  62G d   1       9.931  -6.542  -7.194  0.00  0.00     0.086 H 
ATOM     30  H10 62G d   1      11.208  -7.364  -5.224  0.00  0.00     0.085 H 
ENDBRANCH   7  20
BRANCH   8  31
ATOM     31  C17 62G d   1      14.039  -8.052  -2.074  0.00  0.00     0.035 C 
ATOM     32  H4  62G d   1      14.567  -8.512  -1.225  0.00  0.00     0.051 H 
ATOM     33  H5  62G d   1      14.604  -7.177  -2.426  0.00  0.00     0.051 H 
BRANCH  31  34
ATOM     34  C18 62G d   1      13.890  -9.047  -3.185  0.00  0.00     0.217 C 
ATOM     35  N19 62G d   1      14.983  -9.100  -3.992  0.00  0.00    -0.370 N 
ATOM     36  H15 62G d   1      15.000  -9.729  -4.770  0.00  0.00     0.159 HD
ATOM     37  H16 62G d   1      15.770  -8.510  -3.808  0.00  0.00     0.159 HD
ATOM     38  O20 62G d   1      12.914  -9.763  -3.336  0.00  0.00    -0.274 OA
ENDBRANCH  31  34
ENDBRANCH   8  31
BRANCH  12  39
ATOM     39  C1  62G d   1      11.717  -3.700   1.418  0.00  0.00    -0.033 C 
ATOM     40  H12 62G d   1      10.652  -3.904   1.601  0.00  0.00     0.035 H 
ATOM     41  H13 62G d   1      11.823  -2.728   0.914  0.00  0.00     0.035 H 
ATOM     42  H14 62G d   1      12.256  -3.677   2.377  0.00  0.00     0.035 H 
ENDBRANCH  12  39
TORSDOF 4
