REMARK  9 active torsions:
REMARK  status: ('A' for Active; 'I' for Inactive)
REMARK    1  A    between atoms: N21_32  and  C8_4 
REMARK    2  A    between atoms: S10_38  and  C11_5 
REMARK    3  A    between atoms: C1_12  and  S10_38 
REMARK    4  A    between atoms: C18_16  and  C20_13 
REMARK       I    between atoms: C22_17  and  N21_32 
REMARK       I    between atoms: N23_33  and  C22_17 
REMARK    5  A    between atoms: C31_22  and  C30_24 
REMARK    6  A    between atoms: C37_26  and  C38_23 
REMARK    7  A    between atoms: C30_24  and  C29_25 
REMARK    8  A    between atoms: C29_25  and  N23_33 
REMARK    9  A    between atoms: C37_26  and  N34_34 
ROOT
ATOM      1  C22 62E d   1      20.201 -15.024  62.794  0.00  0.00     0.322 C 
ATOM      2  N21 62E d   1      21.156 -14.114  62.226  0.00  0.00    -0.287 N 
ATOM      3  N23 62E d   1      20.623 -15.567  64.031  0.00  0.00    -0.343 N 
ATOM      4  O24 62E d   1      19.129 -15.295  62.276  0.00  0.00    -0.247 OA
ATOM      5  H27 62E d   1      21.994 -13.993  62.757  0.00  0.00     0.172 HD
ATOM      6  H28 62E d   1      21.505 -15.288  64.410  0.00  0.00     0.164 HD
ENDROOT
BRANCH   2   7
ATOM      7  C8  62E d   1      21.092 -13.376  61.050  0.00  0.00     0.175 A 
ATOM      8  N7  62E d   1      22.032 -12.561  60.624  0.00  0.00    -0.223 NA
ATOM      9  C6  62E d   1      21.623 -11.951  59.421  0.00  0.00     0.077 A 
ATOM     10  C5  62E d   1      20.340 -12.355  58.950  0.00  0.00     0.038 A 
ATOM     11  C3  62E d   1      22.386 -10.982  58.742  0.00  0.00    -0.052 A 
ATOM     12  C4  62E d   1      19.779 -11.804  57.794  0.00  0.00    -0.047 A 
ATOM     13  S9  62E d   1      19.632 -13.496  60.020  0.00  0.00    -0.050 SA
ATOM     14  C1  62E d   1      20.520 -10.817  57.122  0.00  0.00     0.010 A 
ATOM     15  H1  62E d   1      18.810 -12.126  57.430  0.00  0.00     0.087 H 
ATOM     16  C2  62E d   1      21.820 -10.411  57.575  0.00  0.00    -0.064 A 
ATOM     17  H4  62E d   1      22.373  -9.662  57.020  0.00  0.00     0.085 H 
ATOM     18  H3  62E d   1      23.366 -10.685  59.097  0.00  0.00     0.087 H 
BRANCH  14  19
ATOM     19  S10 62E d   1      19.794 -10.023  55.727  0.00  0.00    -0.049 SA
BRANCH  19  20
ATOM     20  C11 62E d   1      19.003  -8.713  56.518  0.00  0.00     0.217 A 
ATOM     21  N12 62E d   1      19.361  -7.398  56.542  0.00  0.00    -0.120 NA
ATOM     22  N13 62E d   1      18.494  -6.678  57.242  0.00  0.00    -0.128 NA
ATOM     23  C15 62E d   1      17.517  -7.502  57.719  0.00  0.00     0.175 A 
ATOM     24  C16 62E d   1      16.318  -7.346  58.536  0.00  0.00    -0.033 A 
ATOM     25  N14 62E d   1      17.835  -8.830  57.251  0.00  0.00    -0.187 N 
ATOM     26  C17 62E d   1      15.559  -8.482  58.788  0.00  0.00    -0.048 A 
ATOM     27  H7  62E d   1      16.029  -6.374  58.934  0.00  0.00     0.089 H 
ATOM     28  C18 62E d   1      15.983  -9.787  58.219  0.00  0.00     0.095 A 
ATOM     29  H8  62E d   1      14.659  -8.416  59.398  0.00  0.00     0.087 H 
ATOM     30  N19 62E d   1      17.109  -9.933  57.480  0.00  0.00    -0.163 NA
BRANCH  28  31
ATOM     31  C20 62E d   1      15.187 -11.032  58.327  0.00  0.00     0.035 A 
ATOM     32  C25 62E d   1      13.946 -11.184  58.915  0.00  0.00    -0.064 A 
ATOM     33  C26 62E d   1      13.435 -12.528  58.786  0.00  0.00    -0.075 A 
ATOM     34  H5  62E d   1      13.413 -10.380  59.419  0.00  0.00     0.085 H 
ATOM     35  C27 62E d   1      14.305 -13.347  58.123  0.00  0.00    -0.044 A 
ATOM     36  H2  62E d   1      12.469 -12.851  59.172  0.00  0.00     0.084 H 
ATOM     37  S28 62E d   1      15.738 -12.542  57.637  0.00  0.00    -0.100 SA
ATOM     38  H6  62E d   1      14.109 -14.400  57.925  0.00  0.00     0.095 H 
ENDBRANCH  28  31
ENDBRANCH  19  20
ENDBRANCH  14  19
ENDBRANCH   2   7
BRANCH   3  39
ATOM     39  C29 62E d   1      19.783 -16.547  64.785  0.00  0.00    -0.003 C 
ATOM     40  H23 62E d   1      19.246 -17.191  64.073  0.00  0.00     0.064 H 
ATOM     41  H24 62E d   1      20.430 -17.167  65.423  0.00  0.00     0.064 H 
BRANCH  39  42
ATOM     42  C30 62E d   1      18.762 -15.797  65.667  0.00  0.00    -0.047 C 
ATOM     43  H21 62E d   1      19.318 -15.076  66.284  0.00  0.00     0.035 H 
ATOM     44  H22 62E d   1      18.076 -15.256  64.999  0.00  0.00     0.035 H 
BRANCH  42  45
ATOM     45  C31 62E d   1      17.907 -16.669  66.616  0.00  0.00    -0.050 C 
ATOM     46  C32 62E d   1      18.640 -17.081  67.907  0.00  0.00    -0.039 C 
ATOM     47  C33 62E d   1      17.596 -17.487  68.991  0.00  0.00     0.084 C 
ATOM     48  H9  62E d   1      19.301 -17.935  67.697  0.00  0.00     0.035 H 
ATOM     49  H10 62E d   1      19.239 -16.235  68.274  0.00  0.00     0.035 H 
ATOM     50  N34 62E d   1      16.305 -18.049  68.396  0.00  0.00    -0.071 N 
ATOM     51  H13 62E d   1      17.348 -16.598  69.589  0.00  0.00     0.076 H 
ATOM     52  H14 62E d   1      18.045 -18.253  69.641  0.00  0.00     0.076 H 
ATOM     53  C35 62E d   1      16.454 -18.781  67.064  0.00  0.00     0.084 C 
ATOM     54  H29 62E d   1      15.783 -17.223  68.147  0.00  0.00     0.279 HD
ATOM     55  C36 62E d   1      17.152 -17.886  65.979  0.00  0.00    -0.039 C 
ATOM     56  H15 62E d   1      17.059 -19.686  67.221  0.00  0.00     0.076 H 
ATOM     57  H16 62E d   1      15.455 -19.066  66.701  0.00  0.00     0.076 H 
ATOM     58  H11 62E d   1      16.386 -17.506  65.287  0.00  0.00     0.035 H 
ATOM     59  H12 62E d   1      17.875 -18.501  65.424  0.00  0.00     0.035 H 
ATOM     60  H17 62E d   1      17.105 -15.992  66.946  0.00  0.00     0.040 H 
BRANCH  50  61
ATOM     61  C37 62E d   1      15.407 -18.746  69.421  0.00  0.00     0.080 C 
ATOM     62  H25 62E d   1      15.067 -17.987  70.141  0.00  0.00     0.075 H 
ATOM     63  H26 62E d   1      14.540 -19.157  68.883  0.00  0.00     0.075 H 
BRANCH  61  64
ATOM     64  C38 62E d   1      16.059 -19.905  70.226  0.00  0.00    -0.053 C 
ATOM     65  H18 62E d   1      15.322 -20.325  70.926  0.00  0.00     0.029 H 
ATOM     66  H19 62E d   1      16.922 -19.520  70.789  0.00  0.00     0.029 H 
ATOM     67  H20 62E d   1      16.395 -20.690  69.532  0.00  0.00     0.029 H 
ENDBRANCH  61  64
ENDBRANCH  50  61
ENDBRANCH  42  45
ENDBRANCH  39  42
ENDBRANCH   3  39
TORSDOF 9
