REMARK  2 active torsions:
REMARK  status: ('A' for Active; 'I' for Inactive)
REMARK    1  A    between atoms: CAP_7  and  CAG_8 
REMARK    2  A    between atoms: CAN_14  and  CAO_15 
ROOT
ATOM      1  CAG 62V d   1     -10.530   6.991  -2.434  0.00  0.00     0.072 C 
ATOM      2  NAH 62V d   1     -11.869   7.135  -2.558  0.00  0.00    -0.281 NA
ATOM      3  CAI 62V d   1     -12.800   7.408  -1.453  0.00  0.00     0.062 C 
ATOM      4  CAJ 62V d   1     -12.693   6.330  -0.534  0.00  0.00     0.111 A 
ATOM      5  OAL 62V d   1     -13.802   5.579  -0.225  0.00  0.00    -0.215 OA
ATOM      6  NAM 62V d   1     -13.438   4.570   0.611  0.00  0.00    -0.132 NA
ATOM      7  CAN 62V d   1     -12.115   4.749   0.814  0.00  0.00     0.072 A 
ATOM      8  CAK 62V d   1     -11.643   5.798   0.061  0.00  0.00     0.035 A 
ATOM      9  CAF 62V d   1     -10.379   6.336  -0.008  0.00  0.00    -0.009 C 
ATOM     10  CAE 62V d   1      -9.869   6.959  -1.173  0.00  0.00     0.004 C 
ATOM     11  CAD 62V d   1      -8.570   7.497  -1.142  0.00  0.00    -0.070 C 
ATOM     12  CAC 62V d   1      -7.808   7.488   0.036  0.00  0.00    -0.082 C 
ATOM     13  CAB 62V d   1      -8.272   6.835   1.169  0.00  0.00    -0.082 C 
ATOM     14  CAA 62V d   1      -9.594   6.332   1.163  0.00  0.00    -0.071 C 
ATOM     15  H5  62V d   1     -13.829   7.476  -1.836  0.00  0.00     0.077 H 
ATOM     16  H6  62V d   1     -12.530   8.353  -0.958  0.00  0.00     0.077 H 
ATOM     17  H10 62V d   1      -8.150   7.926  -2.044  0.00  0.00     0.084 H 
ATOM     18  H11 62V d   1      -6.850   7.995   0.061  0.00  0.00     0.083 H 
ATOM     19  H12 62V d   1      -7.636   6.713   2.038  0.00  0.00     0.083 H 
ATOM     20  H13 62V d   1     -10.013   5.934   2.080  0.00  0.00     0.084 H 
ENDROOT
BRANCH   1  21
ATOM     21  CAP 62V d   1      -9.860   6.560  -3.603  0.00  0.00    -0.007 A 
ATOM     22  CAQ 62V d   1     -10.338   6.922  -4.871  0.00  0.00    -0.069 A 
ATOM     23  CAR 62V d   1      -9.679   6.458  -6.032  0.00  0.00    -0.061 A 
ATOM     24  H1  62V d   1     -11.212   7.557  -4.960  0.00  0.00     0.085 H 
ATOM     25  CAS 62V d   1      -8.578   5.628  -5.846  0.00  0.00     0.034 A 
ATOM     26  H2  62V d   1     -10.017   6.737  -7.024  0.00  0.00     0.086 H 
ATOM     27 CLAV 62V d   1      -7.603   5.009  -7.220  0.00  0.00    -0.084 Cl
ATOM     28  CAT 62V d   1      -8.088   5.297  -4.613  0.00  0.00    -0.061 A 
ATOM     29  CAU 62V d   1      -8.707   5.801  -3.485  0.00  0.00    -0.069 A 
ATOM     30  H3  62V d   1      -7.225   4.647  -4.522  0.00  0.00     0.086 H 
ATOM     31  H4  62V d   1      -8.289   5.602  -2.505  0.00  0.00     0.085 H 
ENDBRANCH   1  21
BRANCH   7  32
ATOM     32  CAO 62V d   1     -11.369   3.748   1.692  0.00  0.00    -0.033 C 
ATOM     33  H7  62V d   1     -10.309   4.035   1.755  0.00  0.00     0.035 H 
ATOM     34  H8  62V d   1     -11.451   2.743   1.253  0.00  0.00     0.035 H 
ATOM     35  H9  62V d   1     -11.809   3.745   2.700  0.00  0.00     0.035 H 
ENDBRANCH   7  32
TORSDOF 2
