REMARK  19 active torsions:
REMARK  status: ('A' for Active; 'I' for Inactive)
REMARK    1  A    between atoms: C15_1  and  C16_2 
REMARK    2  A    between atoms: C14_14  and  C15_1 
REMARK    3  A    between atoms: C16_2  and  C17_4 
REMARK    4  A    between atoms: C13_3  and  C14_14 
REMARK    5  A    between atoms: C12_15  and  C13_3 
REMARK       I    between atoms: C17_4  and  N6_20 
REMARK    6  A    between atoms: C10_6  and  C11_5 
REMARK    7  A    between atoms: C11_5  and  C12_15 
REMARK    8  A    between atoms: C9_16  and  C10_6 
REMARK    9  A    between atoms: O1_19  and  C5_10 
REMARK   10  A    between atoms: C8_17  and  C9_16 
REMARK   11  A    between atoms: C7_18  and  C8_17 
REMARK   12  A    between atoms: C7_18  and  O1_19 
REMARK   13  A    between atoms: N6_20  and  S_21 
REMARK   14  A    between atoms: S_21  and  O5_24 
REMARK   15  A    between atoms: O5_24  and  C18_25 
REMARK   16  A    between atoms: C18_25  and  C19_26 
REMARK   17  A    between atoms: C22_28  and  N1_33 
REMARK   18  A    between atoms: C21_29  and  O7_30 
REMARK   19  A    between atoms: C20_31  and  O8_32 
ROOT
ATOM      1  C16 649 d   1       9.639  -0.008 -13.111  0.00  0.00     0.010 C 
ATOM      2  H3  649 d   1       9.432  -0.509 -12.154  0.00  0.00     0.047 H 
ATOM      3  H4  649 d   1       9.177   0.991 -13.110  0.00  0.00     0.047 H 
ENDROOT
BRANCH   1   4
ATOM      4  C15 649 d   1       9.008  -0.829 -14.230  0.00  0.00    -0.057 C 
ATOM      5  H1  649 d   1       9.439  -1.841 -14.232  0.00  0.00     0.033 H 
ATOM      6  H2  649 d   1       9.204  -0.345 -15.198  0.00  0.00     0.033 H 
BRANCH   4   7
ATOM      7  C14 649 d   1       7.495  -0.915 -13.996  0.00  0.00    -0.065 C 
ATOM      8  H16 649 d   1       7.086   0.106 -13.971  0.00  0.00     0.033 H 
ATOM      9  H17 649 d   1       7.318  -1.405 -13.027  0.00  0.00     0.033 H 
BRANCH   7  10
ATOM     10  C13 649 d   1       6.768  -1.701 -15.075  0.00  0.00    -0.065 C 
ATOM     11  H5  649 d   1       7.144  -2.735 -15.067  0.00  0.00     0.033 H 
ATOM     12  H6  649 d   1       6.985  -1.239 -16.049  0.00  0.00     0.033 H 
BRANCH  10  13
ATOM     13  C12 649 d   1       5.254  -1.735 -14.882  0.00  0.00    -0.065 C 
ATOM     14  H18 649 d   1       4.788  -2.137 -15.794  0.00  0.00     0.033 H 
ATOM     15  H19 649 d   1       4.894  -0.710 -14.707  0.00  0.00     0.033 H 
BRANCH  13  16
ATOM     16  C11 649 d   1       4.857  -2.598 -13.710  0.00  0.00    -0.065 C 
ATOM     17  H7  649 d   1       4.948  -3.654 -14.003  0.00  0.00     0.033 H 
ATOM     18  H8  649 d   1       5.539  -2.390 -12.872  0.00  0.00     0.033 H 
BRANCH  16  19
ATOM     19  C10 649 d   1       3.430  -2.340 -13.253  0.00  0.00    -0.065 C 
ATOM     20  H9  649 d   1       2.734  -2.535 -14.082  0.00  0.00     0.033 H 
ATOM     21  H10 649 d   1       3.328  -1.294 -12.928  0.00  0.00     0.033 H 
BRANCH  19  22
ATOM     22  C9  649 d   1       3.114  -3.279 -12.081  0.00  0.00    -0.063 C 
ATOM     23  H20 649 d   1       3.877  -3.155 -11.298  0.00  0.00     0.033 H 
ATOM     24  H21 649 d   1       3.119  -4.320 -12.436  0.00  0.00     0.033 H 
BRANCH  22  25
ATOM     25  C8  649 d   1       1.748  -2.949 -11.509  0.00  0.00    -0.045 C 
ATOM     26  H22 649 d   1       1.033  -2.827 -12.336  0.00  0.00     0.036 H 
ATOM     27  H23 649 d   1       1.815  -2.009 -10.941  0.00  0.00     0.036 H 
BRANCH  25  28
ATOM     28  C7  649 d   1       1.257  -4.041 -10.594  0.00  0.00     0.026 C 
ATOM     29  H24 649 d   1       1.725  -3.885  -9.611  0.00  0.00     0.075 H 
ATOM     30  H25 649 d   1       1.594  -5.001 -11.012  0.00  0.00     0.075 H 
BRANCH  28  31
ATOM     31  O1  649 d   1      -0.180  -4.134 -10.386  0.00  0.00    -0.351 OA
BRANCH  31  32
ATOM     32  C5  649 d   1      -0.771  -4.686  -9.289  0.00  0.00     0.068 A 
ATOM     33  C6  649 d   1      -0.102  -5.582  -8.455  0.00  0.00    -0.051 A 
ATOM     34  C1  649 d   1      -0.752  -6.096  -7.347  0.00  0.00    -0.080 A 
ATOM     35  H13 649 d   1       0.919  -5.873  -8.673  0.00  0.00     0.087 H 
ATOM     36  C2  649 d   1      -2.069  -5.730  -7.074  0.00  0.00    -0.083 A 
ATOM     37  H12 649 d   1      -0.235  -6.785  -6.689  0.00  0.00     0.083 H 
ATOM     38  C3  649 d   1      -2.745  -4.836  -7.907  0.00  0.00    -0.080 A 
ATOM     39  H11 649 d   1      -2.573  -6.143  -6.208  0.00  0.00     0.083 H 
ATOM     40  C4  649 d   1      -2.086  -4.314  -9.017  0.00  0.00    -0.051 A 
ATOM     41  H15 649 d   1      -3.769  -4.552  -7.692  0.00  0.00     0.083 H 
ATOM     42  H14 649 d   1      -2.597  -3.617  -9.671  0.00  0.00     0.087 H 
ENDBRANCH  31  32
ENDBRANCH  28  31
ENDBRANCH  25  28
ENDBRANCH  22  25
ENDBRANCH  19  22
ENDBRANCH  16  19
ENDBRANCH  13  16
ENDBRANCH  10  13
ENDBRANCH   7  10
ENDBRANCH   4   7
ENDBRANCH   1   4
BRANCH   1  43
ATOM     43  C17 649 d   1      11.137   0.158 -13.250  0.00  0.00     0.232 C 
ATOM     44  O2  649 d   1      11.827  -0.726 -13.713  0.00  0.00    -0.273 OA
ATOM     45  N6  649 d   1      11.641   1.306 -12.793  0.00  0.00    -0.231 N 
ATOM     46  H26 649 d   1      11.045   1.940 -12.301  0.00  0.00     0.183 HD
BRANCH  45  47
ATOM     47  S   649 d   1      13.107   1.672 -13.005  0.00  0.00     0.364 S 
ATOM     48  O4  649 d   1      13.967   0.892 -12.124  0.00  0.00    -0.175 OA
ATOM     49  O3  649 d   1      13.212   3.100 -12.692  0.00  0.00    -0.175 OA
BRANCH  47  50
ATOM     50  O5  649 d   1      13.575   1.357 -14.415  0.00  0.00    -0.257 OA
BRANCH  50  51
ATOM     51  C18 649 d   1      12.938   1.935 -15.547  0.00  0.00     0.066 C 
ATOM     52  H27 649 d   1      13.003   3.031 -15.483  0.00  0.00     0.080 H 
ATOM     53  H28 649 d   1      11.881   1.631 -15.567  0.00  0.00     0.080 H 
BRANCH  51  54
ATOM     54  C19 649 d   1      13.622   1.462 -16.815  0.00  0.00     0.090 C 
ATOM     55  O6  649 d   1      13.516   0.071 -16.969  0.00  0.00    -0.353 OA
ATOM     56  C22 649 d   1      13.373  -0.282 -18.348  0.00  0.00     0.139 C 
ATOM     57  C21 649 d   1      13.375   1.025 -19.123  0.00  0.00     0.105 C 
ATOM     58  H30 649 d   1      14.217  -0.915 -18.659  0.00  0.00     0.122 H 
ATOM     59  C20 649 d   1      12.980   2.027 -18.067  0.00  0.00     0.091 C 
ATOM     60  H31 649 d   1      12.651   1.008 -19.951  0.00  0.00     0.093 H 
ATOM     61  H33 649 d   1      11.885   2.061 -17.965  0.00  0.00     0.091 H 
ATOM     62  H29 649 d   1      14.681   1.758 -16.771  0.00  0.00     0.090 H 
BRANCH  56  63
ATOM     63  N1  649 d   1      12.111  -0.989 -18.617  0.00  0.00    -0.294 N 
ATOM     64  C25 649 d   1      11.919  -1.788 -19.657  0.00  0.00     0.167 A 
ATOM     65  N3  649 d   1      12.730  -2.169 -20.667  0.00  0.00    -0.222 NA
ATOM     66  C24 649 d   1      10.635  -2.270 -19.598  0.00  0.00     0.149 A 
ATOM     67  C26 649 d   1      12.307  -3.003 -21.632  0.00  0.00     0.091 A 
ATOM     68  N4  649 d   1      11.068  -3.516 -21.648  0.00  0.00    -0.222 NA
ATOM     69  H35 649 d   1      12.993  -3.271 -22.427  0.00  0.00     0.146 H 
ATOM     70  C27 649 d   1      10.195  -3.193 -20.674  0.00  0.00     0.155 A 
ATOM     71  N5  649 d   1       8.954  -3.697 -20.693  0.00  0.00    -0.382 N 
ATOM     72  H36 649 d   1       8.287  -3.450 -19.948  0.00  0.00     0.157 HD
ATOM     73  H37 649 d   1       8.667  -4.331 -21.452  0.00  0.00     0.157 HD
ATOM     74  N2  649 d   1      10.063  -1.751 -18.502  0.00  0.00    -0.236 NA
ATOM     75  C23 649 d   1      10.986  -0.956 -17.905  0.00  0.00     0.071 A 
ATOM     76  H38 649 d   1      10.832  -0.384 -16.991  0.00  0.00     0.144 H 
ENDBRANCH  56  63
BRANCH  57  77
ATOM     77  O7  649 d   1      14.687   1.294 -19.629  0.00  0.00    -0.388 OA
ATOM     78  H32 649 d   1      14.678   2.112 -20.111  0.00  0.00     0.210 HD
ENDBRANCH  57  77
BRANCH  59  79
ATOM     79  O8  649 d   1      13.451   3.331 -18.319  0.00  0.00    -0.390 OA
ATOM     80  H34 649 d   1      13.101   3.639 -19.147  0.00  0.00     0.210 HD
ENDBRANCH  59  79
ENDBRANCH  51  54
ENDBRANCH  50  51
ENDBRANCH  47  50
ENDBRANCH  45  47
ENDBRANCH   1  43
TORSDOF 19
