REMARK  15 active torsions:
REMARK  status: ('A' for Active; 'I' for Inactive)
REMARK    1  A    between atoms: O_48  and  C1_1 
REMARK    2  A    between atoms: C6_6  and  O_48 
REMARK    3  A    between atoms: C7_49  and  C6_6 
REMARK    4  A    between atoms: C8_50  and  C9_7 
REMARK    5  A    between atoms: C12_10  and  C13_11 
REMARK       I    between atoms: N1_43  and  C12_10 
REMARK    6  A    between atoms: C13_11  and  O5_25 
REMARK       I    between atoms: N2_28  and  C18_13 
REMARK    7  A    between atoms: C18_13  and  C19_29 
REMARK    8  A    between atoms: C25_40  and  C26_15 
REMARK    9  A    between atoms: C26_15  and  C27_41 
REMARK   10  A    between atoms: C30_20  and  C32_17 
REMARK   11  A    between atoms: O5_25  and  C28_24 
REMARK   12  A    between atoms: C23_30  and  C24_31 
REMARK   13  A    between atoms: C14_39  and  C25_40 
REMARK   14  A    between atoms: C_47  and  N_46 
REMARK   15  A    between atoms: C7_49  and  C8_50 
ROOT
ATOM      1  C13 62R d   1     -12.944   0.221  17.083  0.00  0.00     0.168 C 
ATOM      2  C15 62R d   1     -12.461  -1.979  15.110  0.00  0.00    -0.001 C 
ATOM      3  C18 62R d   1     -14.682  -1.061  14.191  0.00  0.00     0.256 C 
ATOM      4  C17 62R d   1     -11.776  -0.811  17.257  0.00  0.00    -0.024 C 
ATOM      5  C16 62R d   1     -12.086  -2.161  16.601  0.00  0.00    -0.047 C 
ATOM      6  N2  62R d   1     -13.474  -0.875  14.891  0.00  0.00    -0.340 N 
ATOM      7  O4  62R d   1     -15.594  -0.240  14.224  0.00  0.00    -0.267 OA
ATOM      8  C14 62R d   1     -13.202   0.437  15.529  0.00  0.00     0.054 C 
ATOM      9  H11 62R d   1     -12.884  -2.923  14.736  0.00  0.00     0.064 H 
ATOM     10  H12 62R d   1     -11.549  -1.736  14.545  0.00  0.00     0.064 H 
ATOM     11  H18 62R d   1     -11.604  -0.972  18.331  0.00  0.00     0.038 H 
ATOM     12  H19 62R d   1     -10.867  -0.396  16.798  0.00  0.00     0.038 H 
ATOM     13  H20 62R d   1     -11.199  -2.808  16.673  0.00  0.00     0.035 H 
ATOM     14  H21 62R d   1     -12.928  -2.633  17.129  0.00  0.00     0.035 H 
ATOM     15  H24 62R d   1     -14.109   1.052  15.435  0.00  0.00     0.078 H 
ENDROOT
BRANCH   1  16
ATOM     16  C12 62R d   1     -12.630   1.575  17.774  0.00  0.00     0.257 C 
ATOM     17  O3  62R d   1     -11.493   1.788  18.200  0.00  0.00    -0.270 OA
ATOM     18  N1  62R d   1     -13.629   2.581  17.944  0.00  0.00    -0.347 N 
ATOM     19  C11 62R d   1     -13.248   3.791  18.729  0.00  0.00     0.009 C 
ATOM     20  C33 62R d   1     -15.037   2.633  17.391  0.00  0.00     0.009 C 
ATOM     21  C10 62R d   1     -14.190   3.886  19.935  0.00  0.00    -0.001 C 
ATOM     22  H9  62R d   1     -12.207   3.700  19.074  0.00  0.00     0.066 H 
ATOM     23  H10 62R d   1     -13.350   4.690  18.103  0.00  0.00     0.066 H 
ATOM     24  N   62R d   1     -15.652   3.974  19.463  0.00  0.00    -0.278 NA
ATOM     25  H7  62R d   1     -13.942   4.784  20.519  0.00  0.00     0.058 H 
ATOM     26  H8  62R d   1     -14.065   2.993  20.565  0.00  0.00     0.058 H 
ATOM     27  C34 62R d   1     -16.037   2.867  18.552  0.00  0.00    -0.001 C 
ATOM     28  H32 62R d   1     -16.106   1.941  19.142  0.00  0.00     0.058 H 
ATOM     29  H33 62R d   1     -17.021   3.100  18.120  0.00  0.00     0.058 H 
ATOM     30  H30 62R d   1     -15.271   1.681  16.892  0.00  0.00     0.066 H 
ATOM     31  H31 62R d   1     -15.117   3.457  16.666  0.00  0.00     0.066 H 
BRANCH  24  32
ATOM     32  C   62R d   1     -16.558   4.219  20.562  0.00  0.00     0.044 A 
ATOM     33  C1  62R d   1     -16.573   5.542  21.074  0.00  0.00     0.090 A 
ATOM     34  C2  62R d   1     -17.374   5.859  22.219  0.00  0.00    -0.049 A 
ATOM     35  C3  62R d   1     -18.171   4.870  22.796  0.00  0.00    -0.080 A 
ATOM     36  H1  62R d   1     -17.361   6.860  22.634  0.00  0.00     0.087 H 
ATOM     37  C4  62R d   1     -18.202   3.562  22.281  0.00  0.00    -0.081 A 
ATOM     38  H2  62R d   1     -18.779   5.115  23.659  0.00  0.00     0.083 H 
ATOM     39  C5  62R d   1     -17.389   3.234  21.174  0.00  0.00    -0.060 A 
ATOM     40  H3  62R d   1     -18.844   2.812  22.730  0.00  0.00     0.083 H 
ATOM     41  H4  62R d   1     -17.396   2.222  20.785  0.00  0.00     0.086 H 
BRANCH  33  42
ATOM     42  O   62R d   1     -15.835   6.469  20.364  0.00  0.00    -0.349 OA
BRANCH  42  43
ATOM     43  C6  62R d   1     -15.723   7.830  20.751  0.00  0.00     0.027 C 
ATOM     44  H5  62R d   1     -15.386   7.882  21.797  0.00  0.00     0.075 H 
ATOM     45  H6  62R d   1     -16.706   8.314  20.658  0.00  0.00     0.075 H 
BRANCH  43  46
ATOM     46  C7  62R d   1     -14.705   8.570  19.851  0.00  0.00    -0.036 C 
ATOM     47  H34 62R d   1     -14.552   9.579  20.262  0.00  0.00     0.036 H 
ATOM     48  H35 62R d   1     -15.132   8.647  18.840  0.00  0.00     0.036 H 
BRANCH  46  49
ATOM     49  C8  62R d   1     -13.318   7.873  19.742  0.00  0.00     0.018 C 
ATOM     50  H36 62R d   1     -13.474   6.822  19.459  0.00  0.00     0.049 H 
ATOM     51  H37 62R d   1     -12.730   8.379  18.962  0.00  0.00     0.049 H 
BRANCH  49  52
ATOM     52  C9  62R d   1     -12.537   7.915  21.044  0.00  0.00     0.172 C 
ATOM     53  O1  62R d   1     -12.701   7.162  21.992  0.00  0.00    -0.648 OA
ATOM     54  O2  62R d   1     -11.553   8.826  21.217  0.00  0.00    -0.648 OA
ENDBRANCH  49  52
ENDBRANCH  46  49
ENDBRANCH  43  46
ENDBRANCH  42  43
ENDBRANCH  33  42
ENDBRANCH  24  32
ENDBRANCH   1  16
BRANCH   1  55
ATOM     55  O5  62R d   1     -14.220  -0.298  17.559  0.00  0.00    -0.328 OA
BRANCH  55  56
ATOM     56  C28 62R d   1     -14.534  -0.478  18.890  0.00  0.00     0.078 A 
ATOM     57  C29 62R d   1     -13.686  -0.206  19.967  0.00  0.00    -0.012 A 
ATOM     58  S   62R d   1     -14.394  -0.541  21.465  0.00  0.00    -0.095 SA
ATOM     59  H16 62R d   1     -12.675   0.181  19.853  0.00  0.00     0.099 H 
ATOM     60  C30 62R d   1     -15.812  -1.035  20.687  0.00  0.00     0.091 A 
ATOM     61  C31 62R d   1     -15.797  -0.965  19.323  0.00  0.00    -0.029 A 
ATOM     62  H17 62R d   1     -16.624  -1.240  18.669  0.00  0.00     0.089 H 
BRANCH  60  63
ATOM     63  C32 62R d   1     -17.005  -1.527  21.418  0.00  0.00     0.423 C 
ATOM     64  F5  62R d   1     -17.815  -0.561  21.764  0.00  0.00    -0.166 F 
ATOM     65  F3  62R d   1     -17.755  -2.356  20.744  0.00  0.00    -0.166 F 
ATOM     66  F4  62R d   1     -16.729  -2.199  22.517  0.00  0.00    -0.166 F 
ENDBRANCH  60  63
ENDBRANCH  55  56
ENDBRANCH   1  55
BRANCH   8  67
ATOM     67  C25 62R d   1     -12.047   1.209  14.765  0.00  0.00    -0.043 C 
ATOM     68  H25 62R d   1     -11.789   2.097  15.360  0.00  0.00     0.036 H 
ATOM     69  H26 62R d   1     -11.177   0.538  14.711  0.00  0.00     0.036 H 
BRANCH  67  70
ATOM     70  C26 62R d   1     -12.365   1.685  13.322  0.00  0.00    -0.067 C 
ATOM     71  H14 62R d   1     -12.494   0.800  12.681  0.00  0.00     0.032 H 
ATOM     72  H15 62R d   1     -11.518   2.283  12.955  0.00  0.00     0.032 H 
BRANCH  70  73
ATOM     73  C27 62R d   1     -13.649   2.546  13.238  0.00  0.00    -0.076 C 
ATOM     74  H27 62R d   1     -13.819   2.850  12.195  0.00  0.00     0.027 H 
ATOM     75  H28 62R d   1     -13.532   3.441  13.867  0.00  0.00     0.027 H 
ATOM     76  H29 62R d   1     -14.508   1.958  13.593  0.00  0.00     0.027 H 
ENDBRANCH  70  73
ENDBRANCH  67  70
ENDBRANCH   8  67
BRANCH   3  77
ATOM     77  C19 62R d   1     -14.821  -2.324  13.394  0.00  0.00     0.064 A 
ATOM     78  C23 62R d   1     -15.639  -3.424  13.740  0.00  0.00     0.066 A 
ATOM     79  C22 62R d   1     -15.697  -4.552  12.896  0.00  0.00    -0.050 A 
ATOM     80  C21 62R d   1     -14.919  -4.520  11.723  0.00  0.00     0.003 A 
ATOM     81  H13 62R d   1     -16.315  -5.408  13.140  0.00  0.00     0.086 H 
ATOM     82  N3  62R d   1     -14.114  -3.473  11.354  0.00  0.00    -0.272 NA
ATOM     83  H22 62R d   1     -14.959  -5.382  11.067  0.00  0.00     0.114 H 
ATOM     84  C20 62R d   1     -14.069  -2.396  12.178  0.00  0.00     0.018 A 
ATOM     85  H23 62R d   1     -13.439  -1.557  11.905  0.00  0.00     0.116 H 
BRANCH  78  86
ATOM     86  C24 62R d   1     -16.451  -3.391  15.035  0.00  0.00     0.418 C 
ATOM     87  F2  62R d   1     -15.681  -3.153  16.078  0.00  0.00    -0.166 F 
ATOM     88  F1  62R d   1     -17.383  -2.436  15.088  0.00  0.00    -0.166 F 
ATOM     89  F   62R d   1     -17.087  -4.523  15.349  0.00  0.00    -0.166 F 
ENDBRANCH  78  86
ENDBRANCH   3  77
TORSDOF 15
