REMARK  14 active torsions:
REMARK  status: ('A' for Active; 'I' for Inactive)
REMARK    1  A    between atoms: C2_2  and  C1_1 
REMARK    2  A    between atoms: C1_1  and  O3_37 
REMARK       I    between atoms: N_43  and  C2_2 
REMARK    3  A    between atoms: C11_8  and  C12_9 
REMARK    4  A    between atoms: O1_47  and  C11_8 
REMARK    5  A    between atoms: C12_9  and  O2_48 
REMARK    6  A    between atoms: O3_37  and  C15_12 
REMARK    7  A    between atoms: C17_14  and  C18_15 
REMARK    8  A    between atoms: C20_17  and  C21_36 
REMARK    9  A    between atoms: C22_18  and  C23_19 
REMARK   10  A    between atoms: C21_36  and  C22_18 
REMARK   11  A    between atoms: C24_20  and  C25_21 
REMARK       I    between atoms: N2_33  and  C24_20 
REMARK   12  A    between atoms: C26_22  and  C27_27 
REMARK   13  A    between atoms: C5_45  and  N1_44 
REMARK   14  A    between atoms: C10_46  and  O1_47 
ROOT
ATOM      1  C1  62T d   1     -12.860   0.454  17.171  0.00  0.00     0.168 C 
ATOM      2  C20 62T d   1     -13.100   0.672  15.623  0.00  0.00     0.054 C 
ATOM      3  C24 62T d   1     -14.534  -0.826  14.280  0.00  0.00     0.256 C 
ATOM      4  C32 62T d   1     -11.946  -1.914  16.677  0.00  0.00    -0.047 C 
ATOM      5  O4  62T d   1     -15.496  -0.070  14.303  0.00  0.00    -0.267 OA
ATOM      6  N2  62T d   1     -13.308  -0.632  14.931  0.00  0.00    -0.340 N 
ATOM      7  C31 62T d   1     -12.327  -1.756  15.188  0.00  0.00    -0.001 C 
ATOM      8  C   62T d   1     -11.661  -0.548  17.319  0.00  0.00    -0.024 C 
ATOM      9  H18 62T d   1     -14.026   1.258  15.528  0.00  0.00     0.078 H 
ATOM     10  H26 62T d   1     -11.046  -2.542  16.754  0.00  0.00     0.035 H 
ATOM     11  H27 62T d   1     -12.777  -2.397  17.212  0.00  0.00     0.035 H 
ATOM     12  H29 62T d   1     -12.778  -2.698  14.842  0.00  0.00     0.064 H 
ATOM     13  H30 62T d   1     -11.411  -1.556  14.614  0.00  0.00     0.064 H 
ATOM     14  H31 62T d   1     -11.458  -0.698  18.390  0.00  0.00     0.038 H 
ATOM     15  H32 62T d   1     -10.775  -0.110  16.836  0.00  0.00     0.038 H 
ENDROOT
BRANCH   1  16
ATOM     16  C2  62T d   1     -12.600   1.829  17.855  0.00  0.00     0.257 C 
ATOM     17  O   62T d   1     -11.457   2.037  18.310  0.00  0.00    -0.270 OA
ATOM     18  N   62T d   1     -13.567   2.836  18.001  0.00  0.00    -0.347 N 
ATOM     19  C3  62T d   1     -13.163   4.056  18.767  0.00  0.00     0.009 C 
ATOM     20  C14 62T d   1     -15.001   2.854  17.524  0.00  0.00     0.009 C 
ATOM     21  C4  62T d   1     -14.110   4.148  19.997  0.00  0.00    -0.001 C 
ATOM     22  H1  62T d   1     -12.118   3.966  19.099  0.00  0.00     0.066 H 
ATOM     23  H2  62T d   1     -13.272   4.952  18.138  0.00  0.00     0.066 H 
ATOM     24  N1  62T d   1     -15.598   4.109  19.596  0.00  0.00    -0.278 NA
ATOM     25  H3  62T d   1     -13.911   5.092  20.526  0.00  0.00     0.058 H 
ATOM     26  H4  62T d   1     -13.902   3.301  20.667  0.00  0.00     0.058 H 
ATOM     27  C13 62T d   1     -15.934   2.902  18.773  0.00  0.00    -0.001 C 
ATOM     28  H12 62T d   1     -15.788   1.994  19.376  0.00  0.00     0.058 H 
ATOM     29  H13 62T d   1     -16.983   2.960  18.446  0.00  0.00     0.058 H 
ATOM     30  H14 62T d   1     -15.173   3.741  16.897  0.00  0.00     0.066 H 
ATOM     31  H15 62T d   1     -15.209   1.946  16.939  0.00  0.00     0.066 H 
BRANCH  24  32
ATOM     32  C5  62T d   1     -16.504   4.296  20.724  0.00  0.00     0.044 A 
ATOM     33  C10 62T d   1     -16.532   5.573  21.368  0.00  0.00     0.090 A 
ATOM     34  C9  62T d   1     -17.362   5.788  22.521  0.00  0.00    -0.049 A 
ATOM     35  C8  62T d   1     -18.173   4.753  22.998  0.00  0.00    -0.080 A 
ATOM     36  H7  62T d   1     -17.360   6.750  23.020  0.00  0.00     0.087 H 
ATOM     37  C7  62T d   1     -18.177   3.500  22.366  0.00  0.00    -0.081 A 
ATOM     38  H6  62T d   1     -18.804   4.920  23.863  0.00  0.00     0.083 H 
ATOM     39  C6  62T d   1     -17.350   3.280  21.248  0.00  0.00    -0.060 A 
ATOM     40  H5  62T d   1     -18.814   2.705  22.737  0.00  0.00     0.083 H 
ATOM     41  H36 62T d   1     -17.358   2.306  20.772  0.00  0.00     0.086 H 
BRANCH  33  42
ATOM     42  O1  62T d   1     -15.788   6.609  20.834  0.00  0.00    -0.347 OA
BRANCH  42  43
ATOM     43  C11 62T d   1     -15.886   7.915  21.401  0.00  0.00     0.045 C 
ATOM     44  H8  62T d   1     -16.640   8.518  20.874  0.00  0.00     0.078 H 
ATOM     45  H9  62T d   1     -16.140   7.862  22.470  0.00  0.00     0.078 H 
BRANCH  43  46
ATOM     46  C12 62T d   1     -14.463   8.501  21.196  0.00  0.00     0.037 C 
ATOM     47  H10 62T d   1     -14.422   9.520  21.609  0.00  0.00     0.077 H 
ATOM     48  H11 62T d   1     -14.230   8.532  20.122  0.00  0.00     0.077 H 
BRANCH  46  49
ATOM     49  O2  62T d   1     -13.525   7.688  21.857  0.00  0.00    -0.399 OA
ATOM     50  H35 62T d   1     -13.728   7.662  22.785  0.00  0.00     0.209 HD
ENDBRANCH  46  49
ENDBRANCH  43  46
ENDBRANCH  42  43
ENDBRANCH  33  42
ENDBRANCH  24  32
ENDBRANCH   1  16
BRANCH   1  51
ATOM     51  O3  62T d   1     -14.110  -0.159  17.633  0.00  0.00    -0.328 OA
BRANCH  51  52
ATOM     52  C15 62T d   1     -14.448  -0.321  18.950  0.00  0.00     0.078 A 
ATOM     53  C16 62T d   1     -13.576  -0.032  20.021  0.00  0.00    -0.012 A 
ATOM     54  S   62T d   1     -14.263  -0.357  21.519  0.00  0.00    -0.095 SA
ATOM     55  H16 62T d   1     -12.568   0.359  19.891  0.00  0.00     0.099 H 
ATOM     56  C17 62T d   1     -15.686  -0.854  20.767  0.00  0.00     0.091 A 
ATOM     57  C19 62T d   1     -15.705  -0.808  19.407  0.00  0.00    -0.029 A 
ATOM     58  H17 62T d   1     -16.543  -1.096  18.774  0.00  0.00     0.089 H 
BRANCH  56  59
ATOM     59  C18 62T d   1     -16.901  -1.345  21.504  0.00  0.00     0.423 C 
ATOM     60  F2  62T d   1     -16.579  -1.961  22.604  0.00  0.00    -0.166 F 
ATOM     61  F1  62T d   1     -17.727  -0.394  21.850  0.00  0.00    -0.166 F 
ATOM     62  F   62T d   1     -17.650  -2.201  20.854  0.00  0.00    -0.166 F 
ENDBRANCH  56  59
ENDBRANCH  51  52
ENDBRANCH   1  51
BRANCH   2  63
ATOM     63  C21 62T d   1     -11.969   1.468  14.861  0.00  0.00    -0.043 C 
ATOM     64  H33 62T d   1     -11.079   0.824  14.816  0.00  0.00     0.036 H 
ATOM     65  H34 62T d   1     -11.740   2.369  15.449  0.00  0.00     0.036 H 
BRANCH  63  66
ATOM     66  C22 62T d   1     -12.299   1.921  13.409  0.00  0.00    -0.067 C 
ATOM     67  H19 62T d   1     -11.510   2.604  13.063  0.00  0.00     0.032 H 
ATOM     68  H20 62T d   1     -12.328   1.034  12.759  0.00  0.00     0.032 H 
BRANCH  66  69
ATOM     69  C23 62T d   1     -13.653   2.643  13.323  0.00  0.00    -0.076 C 
ATOM     70  H21 62T d   1     -13.843   2.943  12.282  0.00  0.00     0.027 H 
ATOM     71  H22 62T d   1     -13.634   3.536  13.965  0.00  0.00     0.027 H 
ATOM     72  H23 62T d   1     -14.452   1.966  13.661  0.00  0.00     0.027 H 
ENDBRANCH  66  69
ENDBRANCH  63  66
ENDBRANCH   2  63
BRANCH   3  73
ATOM     73  C25 62T d   1     -14.644  -2.103  13.461  0.00  0.00     0.064 A 
ATOM     74  C26 62T d   1     -15.513  -3.174  13.779  0.00  0.00     0.066 A 
ATOM     75  C28 62T d   1     -15.605  -4.275  12.893  0.00  0.00    -0.050 A 
ATOM     76  C29 62T d   1     -14.824  -4.282  11.709  0.00  0.00     0.003 A 
ATOM     77  H28 62T d   1     -16.266  -5.104  13.117  0.00  0.00     0.086 H 
ATOM     78  N3  62T d   1     -13.970  -3.231  11.420  0.00  0.00    -0.272 NA
ATOM     79  H24 62T d   1     -14.896  -5.119  11.023  0.00  0.00     0.114 H 
ATOM     80  C30 62T d   1     -13.861  -2.150  12.265  0.00  0.00     0.018 A 
ATOM     81  H25 62T d   1     -13.184  -1.338  12.025  0.00  0.00     0.116 H 
BRANCH  74  82
ATOM     82  C27 62T d   1     -16.388  -3.116  15.067  0.00  0.00     0.418 C 
ATOM     83  F5  62T d   1     -16.892  -4.286  15.419  0.00  0.00    -0.166 F 
ATOM     84  F3  62T d   1     -17.429  -2.293  14.962  0.00  0.00    -0.166 F 
ATOM     85  F4  62T d   1     -15.697  -2.698  16.111  0.00  0.00    -0.166 F 
ENDBRANCH  74  82
ENDBRANCH   3  73
TORSDOF 14
