REMARK  14 active torsions:
REMARK  status: ('A' for Active; 'I' for Inactive)
REMARK       I    between atoms: C13_23  and  N1_10 
REMARK    1  A    between atoms: C4_11  and  C37_48 
REMARK    2  A    between atoms: C5_12  and  C6_13 
REMARK    3  A    between atoms: C5_12  and  O2_16 
REMARK       I    between atoms: C6_13  and  N2_14 
REMARK    4  A    between atoms: O2_16  and  C7_17 
REMARK    5  A    between atoms: C10_20  and  C35_46 
REMARK    6  A    between atoms: C14_25  and  C13_23 
REMARK    7  A    between atoms: C18_30  and  C36_47 
REMARK    8  A    between atoms: N4_33  and  C23_36 
REMARK    9  A    between atoms: C28_41  and  O4_42 
REMARK   10  A    between atoms: O4_42  and  C32_43 
REMARK   11  A    between atoms: C32_43  and  C33_44 
REMARK   12  A    between atoms: C33_44  and  O5_45 
REMARK   13  A    between atoms: C37_48  and  C38_49 
REMARK   14  A    between atoms: C38_49  and  C39_50 
ROOT
ATOM      1  C1  62Q d   1      14.265   2.717  16.769  0.00  0.00    -0.024 C 
ATOM      2  C2  62Q d   1      14.571   4.102  16.213  0.00  0.00    -0.047 C 
ATOM      3  C3  62Q d   1      15.130   4.048  14.779  0.00  0.00    -0.001 C 
ATOM      4  N1  62Q d   1      16.206   3.009  14.633  0.00  0.00    -0.340 N 
ATOM      5  C4  62Q d   1      15.907   1.608  15.169  0.00  0.00     0.054 C 
ATOM      6  C5  62Q d   1      15.481   1.705  16.686  0.00  0.00     0.168 C 
ATOM      7  C13 62Q d   1      17.426   3.282  14.042  0.00  0.00     0.256 C 
ATOM      8  O3  62Q d   1      18.443   2.525  14.072  0.00  0.00    -0.267 OA
ATOM      9  H1  62Q d   1      13.424   2.294  16.200  0.00  0.00     0.038 H 
ATOM     10  H2  62Q d   1      13.976   2.824  17.825  0.00  0.00     0.038 H 
ATOM     11  H3  62Q d   1      15.313   4.588  16.863  0.00  0.00     0.035 H 
ATOM     12  H4  62Q d   1      13.644   4.694  16.209  0.00  0.00     0.035 H 
ATOM     13  H5  62Q d   1      15.550   5.032  14.524  0.00  0.00     0.064 H 
ATOM     14  H6  62Q d   1      14.309   3.809  14.087  0.00  0.00     0.064 H 
ATOM     15  H7  62Q d   1      16.869   1.074  15.172  0.00  0.00     0.078 H 
ENDROOT
BRANCH   6  16
ATOM     16  C6  62Q d   1      15.171   0.261  17.213  0.00  0.00     0.257 C 
ATOM     17  N2  62Q d   1      16.162  -0.724  17.313  0.00  0.00    -0.347 N 
ATOM     18  C19 62Q d   1      15.788  -2.092  17.815  0.00  0.00     0.009 C 
ATOM     19  C22 62Q d   1      17.630  -0.636  17.076  0.00  0.00     0.009 C 
ATOM     20  C20 62Q d   1      16.365  -2.192  19.267  0.00  0.00    -0.001 C 
ATOM     21  H15 62Q d   1      16.230  -2.869  17.174  0.00  0.00     0.066 H 
ATOM     22  H16 62Q d   1      14.694  -2.208  17.830  0.00  0.00     0.066 H 
ATOM     23  N4  62Q d   1      17.844  -2.094  19.216  0.00  0.00    -0.278 NA
ATOM     24  H17 62Q d   1      16.076  -3.156  19.711  0.00  0.00     0.058 H 
ATOM     25  H18 62Q d   1      15.963  -1.371  19.879  0.00  0.00     0.058 H 
ATOM     26  C21 62Q d   1      18.241  -0.790  18.536  0.00  0.00    -0.001 C 
ATOM     27  H19 62Q d   1      19.338  -0.754  18.462  0.00  0.00     0.058 H 
ATOM     28  H20 62Q d   1      17.887   0.049  19.154  0.00  0.00     0.058 H 
ATOM     29  H21 62Q d   1      17.901   0.334  16.635  0.00  0.00     0.066 H 
ATOM     30  H22 62Q d   1      17.973  -1.447  16.417  0.00  0.00     0.066 H 
ATOM     31  O1  62Q d   1      13.990   0.001  17.508  0.00  0.00    -0.270 OA
BRANCH  23  32
ATOM     32  C23 62Q d   1      18.439  -2.499  20.504  0.00  0.00     0.044 A 
ATOM     33  C24 62Q d   1      19.118  -1.505  21.297  0.00  0.00    -0.060 A 
ATOM     34  C25 62Q d   1      19.676  -1.817  22.534  0.00  0.00    -0.081 A 
ATOM     35  H23 62Q d   1      19.196  -0.491  20.922  0.00  0.00     0.086 H 
ATOM     36  C26 62Q d   1      19.546  -3.087  23.071  0.00  0.00    -0.080 A 
ATOM     37  H24 62Q d   1      20.219  -1.056  23.084  0.00  0.00     0.083 H 
ATOM     38  C27 62Q d   1      18.882  -4.090  22.303  0.00  0.00    -0.049 A 
ATOM     39  H25 62Q d   1      19.941  -3.314  24.055  0.00  0.00     0.083 H 
ATOM     40  C28 62Q d   1      18.307  -3.817  21.010  0.00  0.00     0.090 A 
ATOM     41  H26 62Q d   1      18.808  -5.093  22.707  0.00  0.00     0.087 H 
BRANCH  40  42
ATOM     42  O4  62Q d   1      17.600  -4.837  20.336  0.00  0.00    -0.347 OA
BRANCH  42  43
ATOM     43  C32 62Q d   1      17.979  -5.753  19.296  0.00  0.00     0.045 C 
ATOM     44  H27 62Q d   1      18.604  -6.541  19.743  0.00  0.00     0.078 H 
ATOM     45  H28 62Q d   1      18.566  -5.200  18.548  0.00  0.00     0.078 H 
BRANCH  43  46
ATOM     46  C33 62Q d   1      16.769  -6.443  18.560  0.00  0.00     0.037 C 
ATOM     47  H29 62Q d   1      15.885  -6.327  19.204  0.00  0.00     0.077 H 
ATOM     48  H30 62Q d   1      17.013  -7.511  18.460  0.00  0.00     0.077 H 
BRANCH  46  49
ATOM     49  O5  62Q d   1      16.406  -5.954  17.232  0.00  0.00    -0.399 OA
ATOM     50  H31 62Q d   1      15.667  -6.452  16.904  0.00  0.00     0.209 HD
ENDBRANCH  46  49
ENDBRANCH  43  46
ENDBRANCH  42  43
ENDBRANCH  40  42
ENDBRANCH  23  32
ENDBRANCH   6  16
BRANCH   6  51
ATOM     51  O2  62Q d   1      16.596   2.382  17.340  0.00  0.00    -0.328 OA
BRANCH  51  52
ATOM     52  C7  62Q d   1      16.754   2.579  18.622  0.00  0.00     0.070 A 
ATOM     53  C8  62Q d   1      17.896   3.352  18.896  0.00  0.00    -0.050 A 
ATOM     54  C9  62Q d   1      18.214   3.615  20.260  0.00  0.00    -0.066 A 
ATOM     55  H8  62Q d   1      18.516   3.736  18.094  0.00  0.00     0.087 H 
ATOM     56  C10 62Q d   1      17.372   3.181  21.306  0.00  0.00     0.048 A 
ATOM     57  H9  62Q d   1      19.121   4.159  20.499  0.00  0.00     0.084 H 
ATOM     58  C11 62Q d   1      16.235   2.423  20.991  0.00  0.00    -0.066 A 
ATOM     59  C12 62Q d   1      15.906   2.126  19.651  0.00  0.00    -0.050 A 
ATOM     60  H10 62Q d   1      15.598   2.059  21.790  0.00  0.00     0.084 H 
ATOM     61  H11 62Q d   1      15.013   1.557  19.417  0.00  0.00     0.087 H 
BRANCH  56  62
ATOM     62  C35 62Q d   1      17.740   3.487  22.742  0.00  0.00     0.417 C 
ATOM     63  F1  62Q d   1      17.452   4.733  23.145  0.00  0.00    -0.166 F 
ATOM     64  F2  62Q d   1      19.089   3.231  22.900  0.00  0.00    -0.166 F 
ATOM     65  F3  62Q d   1      17.002   2.733  23.599  0.00  0.00    -0.166 F 
ENDBRANCH  56  62
ENDBRANCH  51  52
ENDBRANCH   6  51
BRANCH   5  66
ATOM     66  C37 62Q d   1      15.007   0.775  14.243  0.00  0.00    -0.043 C 
ATOM     67  H32 62Q d   1      14.003   1.224  14.241  0.00  0.00     0.036 H 
ATOM     68  H33 62Q d   1      14.951  -0.248  14.643  0.00  0.00     0.036 H 
BRANCH  66  69
ATOM     69  C38 62Q d   1      15.507   0.700  12.789  0.00  0.00    -0.067 C 
ATOM     70  H34 62Q d   1      16.593   0.524  12.812  0.00  0.00     0.032 H 
ATOM     71  H35 62Q d   1      15.302   1.668  12.309  0.00  0.00     0.032 H 
BRANCH  69  72
ATOM     72  C39 62Q d   1      14.861  -0.410  11.922  0.00  0.00    -0.076 C 
ATOM     73  H36 62Q d   1      15.286  -0.377  10.908  0.00  0.00     0.027 H 
ATOM     74  H37 62Q d   1      13.774  -0.249  11.870  0.00  0.00     0.027 H 
ATOM     75  H38 62Q d   1      15.065  -1.393  12.373  0.00  0.00     0.027 H 
ENDBRANCH  69  72
ENDBRANCH  66  69
ENDBRANCH   5  66
BRANCH   7  76
ATOM     76  C14 62Q d   1      17.617   4.578  13.301  0.00  0.00     0.064 A 
ATOM     77  C15 62Q d   1      17.077   4.721  12.016  0.00  0.00     0.018 A 
ATOM     78  N3  62Q d   1      17.251   5.810  11.237  0.00  0.00    -0.272 NA
ATOM     79  H12 62Q d   1      16.482   3.905  11.622  0.00  0.00     0.116 H 
ATOM     80  C16 62Q d   1      17.986   6.812  11.659  0.00  0.00     0.003 A 
ATOM     81  C17 62Q d   1      18.543   6.798  12.954  0.00  0.00    -0.050 A 
ATOM     82  H13 62Q d   1      18.166   7.658  11.006  0.00  0.00     0.114 H 
ATOM     83  C18 62Q d   1      18.388   5.670  13.789  0.00  0.00     0.066 A 
ATOM     84  H14 62Q d   1      19.095   7.660  13.312  0.00  0.00     0.086 H 
BRANCH  83  85
ATOM     85  C36 62Q d   1      19.011   5.686  15.184  0.00  0.00     0.418 C 
ATOM     86  F4  62Q d   1      20.120   4.916  15.368  0.00  0.00    -0.166 F 
ATOM     87  F5  62Q d   1      18.116   5.323  16.175  0.00  0.00    -0.166 F 
ATOM     88  F6  62Q d   1      19.372   6.965  15.447  0.00  0.00    -0.166 F 
ENDBRANCH  83  85
ENDBRANCH   7  76
TORSDOF 14
