REMARK  8 active torsions:
REMARK  status: ('A' for Active; 'I' for Inactive)
REMARK    1  A    between atoms: C2_2  and  C1_1 
REMARK    2  A    between atoms: C1_1  and  C_14 
REMARK    3  A    between atoms: C12_8  and  C13_9 
REMARK    4  A    between atoms: C14_10  and  C15_11 
REMARK    5  A    between atoms: C15_11  and  O4_23 
REMARK    6  A    between atoms: C9_20  and  C8_15 
REMARK    7  A    between atoms: C4_17  and  C5_18 
REMARK    8  A    between atoms: C5_18  and  C6_19 
ROOT
ATOM      1  C2  LNY d   1      18.070  61.518  12.404  0.00  0.00    -0.047 A 
ATOM      2  C3  LNY d   1      17.817  62.798  12.892  0.00  0.00    -0.070 A 
ATOM      3  C16 LNY d   1      18.239  61.311  11.022  0.00  0.00    -0.065 A 
ATOM      4  C8  LNY d   1      18.240  62.408  10.136  0.00  0.00    -0.018 A 
ATOM      5  C7  LNY d   1      17.961  63.686  10.643  0.00  0.00    -0.065 A 
ATOM      6  C4  LNY d   1      17.788  63.888  12.020  0.00  0.00    -0.047 A 
ATOM      7  H3  LNY d   1      17.642  62.948  13.951  0.00  0.00     0.085 H 
ATOM      8  H7  LNY d   1      18.369  60.306  10.638  0.00  0.00     0.085 H 
ATOM      9  H8  LNY d   1      17.878  64.526   9.963  0.00  0.00     0.085 H 
ENDROOT
BRANCH   4  10
ATOM     10  C9  LNY d   1      18.363  62.231   8.652  0.00  0.00     0.016 A 
ATOM     11  C10 LNY d   1      17.760  62.913   7.581  0.00  0.00    -0.064 A 
ATOM     12  C11 LNY d   1      18.069  62.381   6.316  0.00  0.00    -0.057 A 
ATOM     13  H11 LNY d   1      17.111  63.777   7.718  0.00  0.00     0.085 H 
ATOM     14  C12 LNY d   1      18.955  61.322   6.419  0.00  0.00     0.059 A 
ATOM     15  H4  LNY d   1      17.664  62.754   5.377  0.00  0.00     0.086 H 
ATOM     16  S   LNY d   1      19.289  60.889   8.042  0.00  0.00    -0.081 SA
BRANCH  14  17
ATOM     17  C13 LNY d   1      19.340  60.545   5.404  0.00  0.00    -0.057 C 
ATOM     18  C14 LNY d   1      19.652  59.758   4.582  0.00  0.00    -0.075 C 
BRANCH  18  19
ATOM     19  C15 LNY d   1      20.010  58.684   3.647  0.00  0.00     0.071 C 
ATOM     20  H5  LNY d   1      19.251  58.623   2.853  0.00  0.00     0.093 H 
ATOM     21  H6  LNY d   1      20.052  57.727   4.188  0.00  0.00     0.093 H 
BRANCH  19  22
ATOM     22  O4  LNY d   1      21.278  58.955   3.068  0.00  0.00    -0.389 OA
ATOM     23  H12 LNY d   1      21.505  58.258   2.464  0.00  0.00     0.210 HD
ENDBRANCH  19  22
ENDBRANCH  18  19
ENDBRANCH  14  17
ENDBRANCH   4  10
BRANCH   1  24
ATOM     24  C1  LNY d   1      18.091  60.360  13.373  0.00  0.00     0.039 C 
ATOM     25  H1  LNY d   1      17.913  59.433  12.808  0.00  0.00     0.056 H 
ATOM     26  H2  LNY d   1      17.282  60.506  14.104  0.00  0.00     0.056 H 
BRANCH  24  27
ATOM     27  C   LNY d   1      19.395  60.214  14.129  0.00  0.00     0.176 C 
ATOM     28  O1  LNY d   1      20.462  60.036  13.521  0.00  0.00    -0.648 OA
ATOM     29  O   LNY d   1      19.362  60.245  15.365  0.00  0.00    -0.648 OA
ENDBRANCH  24  27
ENDBRANCH   1  24
BRANCH   6  30
ATOM     30  C5  LNY d   1      17.434  65.265  12.558  0.00  0.00     0.039 C 
ATOM     31  H9  LNY d   1      16.880  65.137  13.500  0.00  0.00     0.056 H 
ATOM     32  H10 LNY d   1      16.793  65.771  11.821  0.00  0.00     0.056 H 
BRANCH  30  33
ATOM     33  C6  LNY d   1      18.638  66.146  12.828  0.00  0.00     0.176 C 
ATOM     34  O2  LNY d   1      18.437  67.299  13.244  0.00  0.00    -0.648 OA
ATOM     35  O3  LNY d   1      19.795  65.733  12.648  0.00  0.00    -0.648 OA
ENDBRANCH  30  33
ENDBRANCH   6  30
TORSDOF 8
