REMARK  4 active torsions:
REMARK  status: ('A' for Active; 'I' for Inactive)
REMARK    1  A    between atoms: C1_1  and  O_15 
REMARK    2  A    between atoms: C5_11  and  C6_10 
REMARK    3  A    between atoms: C4_12  and  C5_11 
REMARK    4  A    between atoms: C8_14  and  C9_16 
ROOT
ATOM      1  C1  LNN d   1      18.006  64.009  10.481  0.00  0.00     0.076 A 
ATOM      2  C2  LNN d   1      17.899  64.204  11.864  0.00  0.00    -0.050 A 
ATOM      3  C3  LNN d   1      17.871  63.099  12.723  0.00  0.00    -0.074 A 
ATOM      4  C4  LNN d   1      17.985  61.791  12.227  0.00  0.00    -0.047 A 
ATOM      5  C7  LNN d   1      18.053  61.544  10.847  0.00  0.00    -0.063 A 
ATOM      6  C8  LNN d   1      18.089  62.614   9.938  0.00  0.00     0.008 A 
ATOM      7  H1  LNN d   1      17.838  65.208  12.268  0.00  0.00     0.087 H 
ATOM      8  H2  LNN d   1      17.759  63.256  13.790  0.00  0.00     0.084 H 
ATOM      9  H9  LNN d   1      18.078  60.524  10.482  0.00  0.00     0.085 H 
ENDROOT
BRANCH   6  10
ATOM     10  C9  LNN d   1      18.241  62.384   8.466  0.00  0.00    -0.023 A 
ATOM     11  C14 LNN d   1      19.184  61.462   7.994  0.00  0.00    -0.072 A 
ATOM     12  C13 LNN d   1      19.315  61.256   6.619  0.00  0.00    -0.082 A 
ATOM     13  H6  LNN d   1      19.807  60.913   8.691  0.00  0.00     0.084 H 
ATOM     14  C12 LNN d   1      18.553  61.986   5.700  0.00  0.00    -0.083 A 
ATOM     15  H5  LNN d   1      20.020  60.517   6.257  0.00  0.00     0.083 H 
ATOM     16  C11 LNN d   1      17.620  62.918   6.165  0.00  0.00    -0.082 A 
ATOM     17  H4  LNN d   1      18.685  61.830   4.635  0.00  0.00     0.083 H 
ATOM     18  C10 LNN d   1      17.466  63.113   7.542  0.00  0.00    -0.072 A 
ATOM     19  H3  LNN d   1      17.020  63.486   5.463  0.00  0.00     0.083 H 
ATOM     20  H11 LNN d   1      16.741  63.834   7.903  0.00  0.00     0.084 H 
ENDBRANCH   6  10
BRANCH   1  21
ATOM     21  O   LNN d   1      18.012  65.079   9.628  0.00  0.00    -0.360 OA
ATOM     22  H10 LNN d   1      17.954  65.883  10.130  0.00  0.00     0.217 HD
ENDBRANCH   1  21
BRANCH   4  23
ATOM     23  C5  LNN d   1      17.920  60.625  13.182  0.00  0.00     0.039 C 
ATOM     24  H7  LNN d   1      17.139  60.852  13.923  0.00  0.00     0.056 H 
ATOM     25  H8  LNN d   1      17.626  59.740  12.599  0.00  0.00     0.056 H 
BRANCH  23  26
ATOM     26  C6  LNN d   1      19.182  60.263  13.950  0.00  0.00     0.176 C 
ATOM     27  O1  LNN d   1      19.024  59.692  15.058  0.00  0.00    -0.648 OA
ATOM     28  O2  LNN d   1      20.317  60.491  13.464  0.00  0.00    -0.648 OA
ENDBRANCH  23  26
ENDBRANCH   4  23
TORSDOF 4
