REMARK  15 active torsions:
REMARK  status: ('A' for Active; 'I' for Inactive)
REMARK    1  A    between atoms: CAM_13  and  CAA_1 
REMARK    2  A    between atoms: CAN_14  and  CAM_13 
REMARK    3  A    between atoms: CAO_15  and  CAN_14 
REMARK    4  A    between atoms: CAP_16  and  CAO_15 
REMARK    5  A    between atoms: CAQ_17  and  CAP_16 
REMARK    6  A    between atoms: CAR_18  and  CAQ_17 
REMARK    7  A    between atoms: CAS_19  and  CAR_18 
REMARK    8  A    between atoms: OAZ_26  and  CAS_19 
REMARK    9  A    between atoms: OBA_27  and  CAV_22 
REMARK   10  A    between atoms: CAV_22  and  CBC_29 
REMARK   11  A    between atoms: CBD_30  and  OAZ_26 
REMARK   12  A    between atoms: CBF_32  and  OBA_27 
REMARK   13  A    between atoms: CBG_33  and  CBB_28 
REMARK   14  A    between atoms: SBI_35  and  CBE_31 
REMARK   15  A    between atoms: NBH_34  and  SBI_35 
ROOT
ATOM      1  CAF 04M d   1     -16.702  14.193 -17.499  0.00  0.00    -0.080 A 
ATOM      2  CAG 04M d   1     -16.951  12.970 -16.891  0.00  0.00    -0.075 A 
ATOM      3  CAH 04M d   1     -17.409  14.541 -18.645  0.00  0.00    -0.051 A 
ATOM      4  CAK 04M d   1     -18.595  12.448 -18.570  0.00  0.00    -0.043 A 
ATOM      5  CBC 04M d   1     -17.885  12.097 -17.435  0.00  0.00    -0.031 A 
ATOM      6  CBD 04M d   1     -18.340  13.664 -19.187  0.00  0.00     0.069 A 
ATOM      7  H4  04M d   1     -15.964  14.870 -17.085  0.00  0.00     0.083 H 
ATOM      8  H5  04M d   1     -16.415  12.695 -15.989  0.00  0.00     0.084 H 
ATOM      9  H6  04M d   1     -17.233  15.501 -19.117  0.00  0.00     0.087 H 
ATOM     10  H9  04M d   1     -19.345  11.777 -18.974  0.00  0.00     0.088 H 
ENDROOT
BRANCH   5  11
ATOM     11  CAV 04M d   1     -18.139  10.909 -16.778  0.00  0.00     0.050 C 
ATOM     12  H29 04M d   1     -19.219  10.859 -16.575  0.00  0.00     0.082 H 
ATOM     13  H30 04M d   1     -17.853  10.085 -17.448  0.00  0.00     0.082 H 
BRANCH  11  14
ATOM     14  OBA 04M d   1     -17.451  10.727 -15.539  0.00  0.00    -0.346 OA
BRANCH  14  15
ATOM     15  CBF 04M d   1     -18.237  10.253 -14.534  0.00  0.00     0.086 A 
ATOM     16  CAJ 04M d   1     -17.926   8.999 -14.024  0.00  0.00    -0.048 A 
ATOM     17  CAI 04M d   1     -18.629   8.485 -12.948  0.00  0.00    -0.058 A 
ATOM     18  H8  04M d   1     -17.127   8.419 -14.472  0.00  0.00     0.087 H 
ATOM     19  CBE 04M d   1     -19.670   9.214 -12.393  0.00  0.00     0.075 A 
ATOM     20  H7  04M d   1     -18.366   7.515 -12.540  0.00  0.00     0.086 H 
ATOM     21  CAL 04M d   1     -19.919  10.507 -12.829  0.00  0.00    -0.042 A 
ATOM     22  CBG 04M d   1     -19.201  11.044 -13.895  0.00  0.00     0.075 A 
ATOM     23  H10 04M d   1     -20.678  11.104 -12.336  0.00  0.00     0.087 H 
BRANCH  19  24
ATOM     24  SBI 04M d   1     -20.498   8.597 -11.000  0.00  0.00     0.243 S 
ATOM     25  OAC 04M d   1     -21.925   9.063 -11.006  0.00  0.00    -0.206 OA
ATOM     26  OAD 04M d   1     -19.788   9.095  -9.776  0.00  0.00    -0.206 OA
BRANCH  24  27
ATOM     27  NBH 04M d   1     -20.410   6.979 -10.936  0.00  0.00    -0.202 NA
ATOM     28  CAW 04M d   1     -20.277   6.317 -12.227  0.00  0.00     0.013 C 
ATOM     29  CAT 04M d   1     -21.313   5.231 -12.280  0.00  0.00     0.031 C 
ATOM     30  H31 04M d   1     -20.446   7.039 -13.040  0.00  0.00     0.060 H 
ATOM     31  H32 04M d   1     -19.271   5.883 -12.326  0.00  0.00     0.060 H 
ATOM     32  OAY 04M d   1     -22.301   6.180 -12.118  0.00  0.00    -0.389 OA
ATOM     33  H25 04M d   1     -21.247   4.504 -11.457  0.00  0.00     0.076 H 
ATOM     34  H26 04M d   1     -21.356   4.695 -13.240  0.00  0.00     0.076 H 
ATOM     35  CAU 04M d   1     -22.673   6.035 -10.767  0.00  0.00     0.031 C 
ATOM     36  CAX 04M d   1     -21.399   6.368 -10.028  0.00  0.00     0.013 C 
ATOM     37  H27 04M d   1     -23.479   6.735 -10.501  0.00  0.00     0.076 H 
ATOM     38  H28 04M d   1     -22.996   5.005 -10.554  0.00  0.00     0.076 H 
ATOM     39  H33 04M d   1     -20.977   5.445  -9.604  0.00  0.00     0.060 H 
ATOM     40  H34 04M d   1     -21.627   7.074  -9.216  0.00  0.00     0.060 H 
ENDBRANCH  24  27
ENDBRANCH  19  24
BRANCH  22  41
ATOM     41  CBB 04M d   1     -19.541  12.480 -14.365  0.00  0.00     0.212 C 
ATOM     42  OAB 04M d   1     -19.970  13.288 -13.506  0.00  0.00    -0.644 OA
ATOM     43  OAE 04M d   1     -19.426  12.752 -15.584  0.00  0.00    -0.644 OA
ENDBRANCH  22  41
ENDBRANCH  14  15
ENDBRANCH  11  14
ENDBRANCH   5  11
BRANCH   6  44
ATOM     44  OAZ 04M d   1     -18.973  13.983 -20.343  0.00  0.00    -0.351 OA
BRANCH  44  45
ATOM     45  CAS 04M d   1     -18.233  13.451 -21.446  0.00  0.00     0.026 C 
ATOM     46  H23 04M d   1     -17.331  14.056 -21.621  0.00  0.00     0.075 H 
ATOM     47  H24 04M d   1     -17.942  12.411 -21.238  0.00  0.00     0.075 H 
BRANCH  45  48
ATOM     48  CAR 04M d   1     -19.144  13.504 -22.669  0.00  0.00    -0.045 C 
ATOM     49  H21 04M d   1     -18.984  12.601 -23.276  0.00  0.00     0.036 H 
ATOM     50  H22 04M d   1     -20.192  13.540 -22.335  0.00  0.00     0.036 H 
BRANCH  48  51
ATOM     51  CAQ 04M d   1     -18.850  14.733 -23.520  0.00  0.00    -0.063 C 
ATOM     52  H19 04M d   1     -19.735  14.978 -24.125  0.00  0.00     0.033 H 
ATOM     53  H20 04M d   1     -18.609  15.582 -22.863  0.00  0.00     0.033 H 
BRANCH  51  54
ATOM     54  CAP 04M d   1     -17.665  14.455 -24.445  0.00  0.00    -0.065 C 
ATOM     55  H17 04M d   1     -17.819  13.488 -24.945  0.00  0.00     0.033 H 
ATOM     56  H18 04M d   1     -17.604  15.253 -25.200  0.00  0.00     0.033 H 
BRANCH  54  57
ATOM     57  CAO 04M d   1     -16.346  14.408 -23.655  0.00  0.00    -0.065 C 
ATOM     58  H15 04M d   1     -16.551  14.664 -22.605  0.00  0.00     0.033 H 
ATOM     59  H16 04M d   1     -15.934  13.390 -23.711  0.00  0.00     0.033 H 
BRANCH  57  60
ATOM     60  CAN 04M d   1     -15.309  15.396 -24.215  0.00  0.00    -0.065 C 
ATOM     61  H13 04M d   1     -15.383  15.404 -25.312  0.00  0.00     0.033 H 
ATOM     62  H14 04M d   1     -15.530  16.401 -23.826  0.00  0.00     0.033 H 
BRANCH  60  63
ATOM     63  CAM 04M d   1     -13.876  15.015 -23.818  0.00  0.00    -0.069 C 
ATOM     64  H11 04M d   1     -13.572  15.617 -22.949  0.00  0.00     0.032 H 
ATOM     65  H12 04M d   1     -13.848  13.948 -23.553  0.00  0.00     0.032 H 
BRANCH  63  66
ATOM     66  CAA 04M d   1     -12.900  15.270 -24.970  0.00  0.00    -0.077 C 
ATOM     67  H1  04M d   1     -11.883  14.989 -24.658  0.00  0.00     0.027 H 
ATOM     68  H2  04M d   1     -12.919  16.337 -25.238  0.00  0.00     0.027 H 
ATOM     69  H3  04M d   1     -13.196  14.668 -25.841  0.00  0.00     0.027 H 
ENDBRANCH  63  66
ENDBRANCH  60  63
ENDBRANCH  57  60
ENDBRANCH  54  57
ENDBRANCH  51  54
ENDBRANCH  48  51
ENDBRANCH  45  48
ENDBRANCH  44  45
ENDBRANCH   6  44
TORSDOF 15
