REMARK  14 active torsions:
REMARK  status: ('A' for Active; 'I' for Inactive)
REMARK    1  A    between atoms: CAL_12  and  CAA_1 
REMARK    2  A    between atoms: CAW_23  and  OAD_4 
REMARK    3  A    between atoms: CAM_13  and  CAL_12 
REMARK    4  A    between atoms: CAN_14  and  CAM_13 
REMARK    5  A    between atoms: CAO_15  and  CAN_14 
REMARK    6  A    between atoms: CAP_16  and  CAO_15 
REMARK    7  A    between atoms: CAQ_17  and  CAP_16 
REMARK    8  A    between atoms: CAR_18  and  CAQ_17 
REMARK    9  A    between atoms: OAT_20  and  CAR_18 
REMARK   10  A    between atoms: SAU_21  and  CAS_19 
REMARK   11  A    between atoms: CAS_19  and  CAX_24 
REMARK   12  A    between atoms: CAY_25  and  OAT_20 
REMARK   13  A    between atoms: CAZ_26  and  SAU_21 
REMARK   14  A    between atoms: CAV_22  and  CBA_27 
ROOT
ATOM      1  CAI HXK d   1       3.545 -58.958 -74.564  0.00  0.00    -0.044 A 
ATOM      2  CAJ HXK d   1       2.249 -60.510 -75.912  0.00  0.00    -0.019 A 
ATOM      3  CAK HXK d   1       1.142 -59.067 -74.307  0.00  0.00    -0.044 A 
ATOM      4  CAW HXK d   1       3.482 -59.954 -75.550  0.00  0.00     0.068 A 
ATOM      5  CAX HXK d   1       2.368 -58.513 -73.944  0.00  0.00    -0.043 A 
ATOM      6  CAY HXK d   1       1.065 -60.068 -75.292  0.00  0.00     0.071 A 
ATOM      7  H9  HXK d   1       4.502 -58.533 -74.282  0.00  0.00     0.088 H 
ATOM      8  H10 HXK d   1       2.206 -61.282 -76.671  0.00  0.00     0.092 H 
ATOM      9  H11 HXK d   1       0.235 -58.722 -73.824  0.00  0.00     0.088 H 
ENDROOT
BRANCH   6  10
ATOM     10  OAT HXK d   1      -0.167 -60.605 -75.624  0.00  0.00    -0.351 OA
BRANCH  10  11
ATOM     11  CAR HXK d   1      -0.427 -60.746 -77.069  0.00  0.00     0.026 C 
ATOM     12  H24 HXK d   1      -1.411 -60.305 -77.288  0.00  0.00     0.075 H 
ATOM     13  H25 HXK d   1       0.352 -60.195 -77.616  0.00  0.00     0.075 H 
BRANCH  11  14
ATOM     14  CAQ HXK d   1      -0.428 -62.204 -77.564  0.00  0.00    -0.045 C 
ATOM     15  H22 HXK d   1       0.597 -62.601 -77.511  0.00  0.00     0.036 H 
ATOM     16  H23 HXK d   1      -1.086 -62.801 -76.916  0.00  0.00     0.036 H 
BRANCH  14  17
ATOM     17  CAP HXK d   1      -0.924 -62.302 -79.000  0.00  0.00    -0.063 C 
ATOM     18  H20 HXK d   1      -1.068 -61.288 -79.401  0.00  0.00     0.033 H 
ATOM     19  H21 HXK d   1      -0.173 -62.832 -79.605  0.00  0.00     0.033 H 
BRANCH  17  20
ATOM     20  CAO HXK d   1      -2.252 -63.062 -79.070  0.00  0.00    -0.065 C 
ATOM     21  H18 HXK d   1      -2.056 -64.139 -78.963  0.00  0.00     0.033 H 
ATOM     22  H19 HXK d   1      -2.903 -62.724 -78.251  0.00  0.00     0.033 H 
BRANCH  20  23
ATOM     23  CAN HXK d   1      -2.965 -62.809 -80.421  0.00  0.00    -0.065 C 
ATOM     24  H16 HXK d   1      -3.176 -61.733 -80.503  0.00  0.00     0.033 H 
ATOM     25  H17 HXK d   1      -2.285 -63.112 -81.231  0.00  0.00     0.033 H 
BRANCH  23  26
ATOM     26  CAM HXK d   1      -4.302 -63.581 -80.594  0.00  0.00    -0.065 C 
ATOM     27  H14 HXK d   1      -4.236 -64.539 -80.057  0.00  0.00     0.033 H 
ATOM     28  H15 HXK d   1      -5.121 -62.980 -80.173  0.00  0.00     0.033 H 
BRANCH  26  29
ATOM     29  CAL HXK d   1      -4.591 -63.855 -82.075  0.00  0.00    -0.069 C 
ATOM     30  H12 HXK d   1      -3.695 -63.628 -82.671  0.00  0.00     0.032 H 
ATOM     31  H13 HXK d   1      -4.860 -64.914 -82.206  0.00  0.00     0.032 H 
BRANCH  29  32
ATOM     32  CAA HXK d   1      -5.750 -62.974 -82.544  0.00  0.00    -0.077 C 
ATOM     33  H1  HXK d   1      -5.955 -63.173 -83.606  0.00  0.00     0.027 H 
ATOM     34  H2  HXK d   1      -5.482 -61.915 -82.414  0.00  0.00     0.027 H 
ATOM     35  H3  HXK d   1      -6.647 -63.201 -81.949  0.00  0.00     0.027 H 
ENDBRANCH  29  32
ENDBRANCH  26  29
ENDBRANCH  23  26
ENDBRANCH  20  23
ENDBRANCH  17  20
ENDBRANCH  14  17
ENDBRANCH  11  14
ENDBRANCH  10  11
ENDBRANCH   6  10
BRANCH   4  36
ATOM     36  OAD HXK d   1       4.624 -60.381 -76.160  0.00  0.00    -0.361 OA
ATOM     37  H4  HXK d   1       4.409 -61.052 -76.797  0.00  0.00     0.217 HD
ENDBRANCH   4  36
BRANCH   5  38
ATOM     38  CAS HXK d   1       2.430 -57.438 -72.867  0.00  0.00     0.005 C 
ATOM     39  H26 HXK d   1       1.406 -57.130 -72.609  0.00  0.00     0.056 H 
ATOM     40  H27 HXK d   1       2.923 -57.853 -71.976  0.00  0.00     0.056 H 
BRANCH  38  41
ATOM     41  SAU HXK d   1       3.372 -55.963 -73.441  0.00  0.00    -0.124 SA
BRANCH  41  42
ATOM     42  CAZ HXK d   1       2.304 -54.743 -72.815  0.00  0.00     0.017 A 
ATOM     43  CAG HXK d   1       1.342 -55.178 -71.921  0.00  0.00    -0.066 A 
ATOM     44  CAE HXK d   1       0.453 -54.285 -71.369  0.00  0.00    -0.082 A 
ATOM     45  H7  HXK d   1       1.288 -56.227 -71.654  0.00  0.00     0.085 H 
ATOM     46  CAF HXK d   1       0.556 -52.958 -71.737  0.00  0.00    -0.082 A 
ATOM     47  H5  HXK d   1      -0.305 -54.613 -70.667  0.00  0.00     0.083 H 
ATOM     48  CAH HXK d   1       1.511 -52.532 -72.616  0.00  0.00    -0.065 A 
ATOM     49  H6  HXK d   1      -0.137 -52.237 -71.319  0.00  0.00     0.083 H 
ATOM     50  CBA HXK d   1       2.397 -53.404 -73.178  0.00  0.00     0.057 A 
ATOM     51  H8  HXK d   1       1.566 -51.480 -72.872  0.00  0.00     0.085 H 
BRANCH  50  52
ATOM     52  CAV HXK d   1       3.491 -52.810 -74.177  0.00  0.00     0.210 C 
ATOM     53  OAB HXK d   1       3.196 -51.753 -74.809  0.00  0.00    -0.644 OA
ATOM     54  OAC HXK d   1       4.642 -53.347 -74.273  0.00  0.00    -0.644 OA
ENDBRANCH  50  52
ENDBRANCH  41  42
ENDBRANCH  38  41
ENDBRANCH   5  38
TORSDOF 14
