REMARK  16 active torsions:
REMARK  status: ('A' for Active; 'I' for Inactive)
REMARK    1  A    between atoms: CAM_13  and  CAA_1 
REMARK    2  A    between atoms: CAN_14  and  CAM_13 
REMARK    3  A    between atoms: CAO_15  and  CAN_14 
REMARK    4  A    between atoms: CAP_16  and  CAO_15 
REMARK    5  A    between atoms: CAQ_17  and  CAP_16 
REMARK    6  A    between atoms: CAR_18  and  CAQ_17 
REMARK    7  A    between atoms: CAS_19  and  CAR_18 
REMARK    8  A    between atoms: CAT_20  and  CAS_19 
REMARK    9  A    between atoms: CAU_21  and  CAT_20 
REMARK   10  A    between atoms: OAW_23  and  CAU_21 
REMARK   11  A    between atoms: OAX_24  and  CAV_22 
REMARK   12  A    between atoms: CAV_22  and  CAZ_26 
REMARK   13  A    between atoms: CBA_27  and  OAW_23 
REMARK   14  A    between atoms: CBC_29  and  OAX_24 
REMARK   15  A    between atoms: CBD_30  and  CAY_25 
REMARK   16  A    between atoms: CBB_28  and  NBE_31 
ROOT
ATOM      1  CAU 04W d   1      34.259  11.481  17.661  0.00  0.00     0.026 C 
ATOM      2  H27 04W d   1      33.468  10.946  17.115  0.00  0.00     0.075 H 
ATOM      3  H28 04W d   1      33.882  11.784  18.649  0.00  0.00     0.075 H 
ENDROOT
BRANCH   1   4
ATOM      4  CAT 04W d   1      34.655  12.725  16.875  0.00  0.00    -0.045 C 
ATOM      5  H25 04W d   1      33.750  13.284  16.595  0.00  0.00     0.036 H 
ATOM      6  H26 04W d   1      35.301  13.361  17.498  0.00  0.00     0.036 H 
BRANCH   4   7
ATOM      7  CAS 04W d   1      35.409  12.318  15.614  0.00  0.00    -0.063 C 
ATOM      8  H23 04W d   1      36.385  12.826  15.595  0.00  0.00     0.033 H 
ATOM      9  H24 04W d   1      35.563  11.229  15.619  0.00  0.00     0.033 H 
BRANCH   7  10
ATOM     10  CAR 04W d   1      34.615  12.708  14.372  0.00  0.00    -0.065 C 
ATOM     11  H21 04W d   1      33.542  12.570  14.574  0.00  0.00     0.033 H 
ATOM     12  H22 04W d   1      34.811  13.765  14.138  0.00  0.00     0.033 H 
BRANCH  10  13
ATOM     13  CAQ 04W d   1      35.010  11.853  13.176  0.00  0.00    -0.065 C 
ATOM     14  H19 04W d   1      36.003  11.416  13.359  0.00  0.00     0.033 H 
ATOM     15  H20 04W d   1      34.272  11.047  13.052  0.00  0.00     0.033 H 
BRANCH  13  16
ATOM     16  CAP 04W d   1      35.060  12.691  11.887  0.00  0.00    -0.065 C 
ATOM     17  H17 04W d   1      36.045  13.175  11.815  0.00  0.00     0.033 H 
ATOM     18  H18 04W d   1      34.915  12.025  11.024  0.00  0.00     0.033 H 
BRANCH  16  19
ATOM     19  CAO 04W d   1      33.974  13.772  11.867  0.00  0.00    -0.065 C 
ATOM     20  H15 04W d   1      33.373  13.695  12.785  0.00  0.00     0.033 H 
ATOM     21  H16 04W d   1      34.452  14.762  11.825  0.00  0.00     0.033 H 
BRANCH  19  22
ATOM     22  CAN 04W d   1      33.053  13.606  10.647  0.00  0.00    -0.065 C 
ATOM     23  H13 04W d   1      32.008  13.619  10.989  0.00  0.00     0.033 H 
ATOM     24  H14 04W d   1      33.224  14.446   9.957  0.00  0.00     0.033 H 
BRANCH  22  25
ATOM     25  CAM 04W d   1      33.313  12.281   9.892  0.00  0.00    -0.069 C 
ATOM     26  H11 04W d   1      33.545  11.491  10.621  0.00  0.00     0.032 H 
ATOM     27  H12 04W d   1      32.410  12.005   9.328  0.00  0.00     0.032 H 
BRANCH  25  28
ATOM     28  CAA 04W d   1      34.483  12.424   8.922  0.00  0.00    -0.077 C 
ATOM     29  H1  04W d   1      34.645  11.469   8.400  0.00  0.00     0.027 H 
ATOM     30  H2  04W d   1      35.391  12.696   9.480  0.00  0.00     0.027 H 
ATOM     31  H3  04W d   1      34.256  13.210   8.187  0.00  0.00     0.027 H 
ENDBRANCH  25  28
ENDBRANCH  22  25
ENDBRANCH  19  22
ENDBRANCH  16  19
ENDBRANCH  13  16
ENDBRANCH  10  13
ENDBRANCH   7  10
ENDBRANCH   4   7
ENDBRANCH   1   4
BRANCH   1  32
ATOM     32  OAW 04W d   1      35.403  10.593  17.838  0.00  0.00    -0.351 OA
BRANCH  32  33
ATOM     33  CBA 04W d   1      35.049   9.619  18.738  0.00  0.00     0.069 A 
ATOM     34  CAH 04W d   1      34.494   8.419  18.303  0.00  0.00    -0.051 A 
ATOM     35  CAF 04W d   1      34.081   7.468  19.241  0.00  0.00    -0.080 A 
ATOM     36  H6  04W d   1      34.383   8.223  17.243  0.00  0.00     0.087 H 
ATOM     37  CAG 04W d   1      34.204   7.718  20.619  0.00  0.00    -0.075 A 
ATOM     38  H4  04W d   1      33.661   6.528  18.902  0.00  0.00     0.083 H 
ATOM     39  CAZ 04W d   1      34.775   8.909  21.057  0.00  0.00    -0.031 A 
ATOM     40  H5  04W d   1      33.855   6.985  21.338  0.00  0.00     0.084 H 
ATOM     41  CAK 04W d   1      35.166   9.860  20.108  0.00  0.00    -0.043 A 
ATOM     42  H9  04W d   1      35.570  10.808  20.445  0.00  0.00     0.088 H 
BRANCH  39  43
ATOM     43  CAV 04W d   1      34.866   9.275  22.431  0.00  0.00     0.050 C 
ATOM     44  H29 04W d   1      35.864   9.727  22.532  0.00  0.00     0.082 H 
ATOM     45  H30 04W d   1      34.097  10.050  22.563  0.00  0.00     0.082 H 
BRANCH  43  46
ATOM     46  OAX 04W d   1      34.727   8.401  23.624  0.00  0.00    -0.346 OA
BRANCH  46  47
ATOM     47  CBC 04W d   1      33.672   7.546  23.606  0.00  0.00     0.086 A 
ATOM     48  CAJ 04W d   1      32.375   7.982  23.874  0.00  0.00    -0.048 A 
ATOM     49  CAI 04W d   1      31.345   7.052  23.879  0.00  0.00    -0.055 A 
ATOM     50  H8  04W d   1      32.175   9.028  24.075  0.00  0.00     0.087 H 
ATOM     51  CBB 04W d   1      31.688   5.710  23.648  0.00  0.00     0.073 A 
ATOM     52  H7  04W d   1      30.317   7.349  24.054  0.00  0.00     0.086 H 
ATOM     53  CAL 04W d   1      32.925   5.320  23.447  0.00  0.00    -0.038 A 
ATOM     54  CBD 04W d   1      33.927   6.186  23.473  0.00  0.00     0.075 A 
ATOM     55  H10 04W d   1      33.130   4.273  23.257  0.00  0.00     0.088 H 
BRANCH  51  56
ATOM     56  NBE 04W d   1      30.937   4.735  23.560  0.00  0.00     0.035 NA
ATOM     57  OAC 04W d   1      30.296   4.330  24.710  0.00  0.00    -0.084 OA
ATOM     58  OAE 04W d   1      31.562   3.775  22.800  0.00  0.00    -0.084 OA
ENDBRANCH  51  56
BRANCH  54  59
ATOM     59  CAY 04W d   1      35.303   5.562  23.279  0.00  0.00     0.212 C 
ATOM     60  OAB 04W d   1      35.341   4.567  22.486  0.00  0.00    -0.644 OA
ATOM     61  OAD 04W d   1      36.151   5.789  24.178  0.00  0.00    -0.644 OA
ENDBRANCH  54  59
ENDBRANCH  46  47
ENDBRANCH  43  46
ENDBRANCH  39  43
ENDBRANCH  32  33
ENDBRANCH   1  32
TORSDOF 16
