REMARK  18 active torsions:
REMARK  status: ('A' for Active; 'I' for Inactive)
REMARK    1  A    between atoms: CAZ_2  and  CBF_4 
REMARK    2  A    between atoms: CBG_6  and  SBH_7 
REMARK    3  A    between atoms: SBH_7  and  NAB_10 
REMARK    4  A    between atoms: CBE_14  and  OAY_15 
REMARK    5  A    between atoms: OAY_15  and  CAW_16 
REMARK    6  A    between atoms: CAW_16  and  CBB_17 
REMARK    7  A    between atoms: CBA_20  and  OAG_21 
REMARK    8  A    between atoms: CBC_23  and  OAX_24 
REMARK    9  A    between atoms: OAX_24  and  CAV_25 
REMARK   10  A    between atoms: CAV_25  and  CAU_26 
REMARK   11  A    between atoms: CAU_26  and  CAT_27 
REMARK   12  A    between atoms: CAT_27  and  CAS_28 
REMARK   13  A    between atoms: CAS_28  and  CAR_29 
REMARK   14  A    between atoms: CAR_29  and  CAQ_30 
REMARK   15  A    between atoms: CAQ_30  and  CAP_31 
REMARK   16  A    between atoms: CAP_31  and  CAO_32 
REMARK   17  A    between atoms: CAO_32  and  CAN_33 
REMARK   18  A    between atoms: CAN_33  and  CAA_34 
ROOT
ATOM      1  CBB 63D d   1     -35.492 -10.379  19.423  0.00  0.00    -0.029 C 
ATOM      2  CAK 63D d   1     -35.074 -10.784  18.135  0.00  0.00    -0.043 C 
ATOM      3  CAI 63D d   1     -36.366 -11.165  20.164  0.00  0.00    -0.043 C 
ATOM      4  CBA 63D d   1     -36.818 -12.381  19.680  0.00  0.00     0.069 C 
ATOM      5  CAJ 63D d   1     -36.374 -12.792  18.428  0.00  0.00    -0.019 C 
ATOM      6  CBC 63D d   1     -35.457 -12.054  17.684  0.00  0.00     0.071 C 
ATOM      7  H7  63D d   1     -34.474 -10.130  17.513  0.00  0.00     0.088 H 
ATOM      8  H8  63D d   1     -36.699 -10.821  21.136  0.00  0.00     0.088 H 
ATOM      9  H10 63D d   1     -36.755 -13.720  18.017  0.00  0.00     0.092 H 
ENDROOT
BRANCH   6  10
ATOM     10  OAX 63D d   1     -35.219 -12.593  16.463  0.00  0.00    -0.351 OA
BRANCH  10  11
ATOM     11  CAV 63D d   1     -34.551 -11.921  15.415  0.00  0.00     0.026 C 
ATOM     12  H11 63D d   1     -33.462 -12.061  15.472  0.00  0.00     0.075 H 
ATOM     13  H12 63D d   1     -34.782 -10.846  15.410  0.00  0.00     0.075 H 
BRANCH  11  14
ATOM     14  CAU 63D d   1     -35.150 -12.634  14.200  0.00  0.00    -0.045 C 
ATOM     15  H13 63D d   1     -36.243 -12.524  14.248  0.00  0.00     0.036 H 
ATOM     16  H14 63D d   1     -34.885 -13.700  14.268  0.00  0.00     0.036 H 
BRANCH  14  17
ATOM     17  CAT 63D d   1     -34.689 -12.124  12.854  0.00  0.00    -0.063 C 
ATOM     18  H15 63D d   1     -33.596 -12.204  12.764  0.00  0.00     0.033 H 
ATOM     19  H16 63D d   1     -34.993 -11.076  12.713  0.00  0.00     0.033 H 
BRANCH  17  20
ATOM     20  CAS 63D d   1     -35.379 -13.026  11.832  0.00  0.00    -0.065 C 
ATOM     21  H17 63D d   1     -36.467 -12.964  11.983  0.00  0.00     0.033 H 
ATOM     22  H18 63D d   1     -35.045 -14.062  11.992  0.00  0.00     0.033 H 
BRANCH  20  23
ATOM     23  CAR 63D d   1     -35.060 -12.624  10.399  0.00  0.00    -0.065 C 
ATOM     24  H19 63D d   1     -35.420 -11.604  10.197  0.00  0.00     0.033 H 
ATOM     25  H20 63D d   1     -35.526 -13.325   9.691  0.00  0.00     0.033 H 
BRANCH  23  26
ATOM     26  CAQ 63D d   1     -33.562 -12.684  10.287  0.00  0.00    -0.065 C 
ATOM     27  H21 63D d   1     -33.218 -13.699  10.535  0.00  0.00     0.033 H 
ATOM     28  H22 63D d   1     -33.115 -11.964  10.988  0.00  0.00     0.033 H 
BRANCH  26  29
ATOM     29  CAP 63D d   1     -33.139 -12.343   8.887  0.00  0.00    -0.065 C 
ATOM     30  H23 63D d   1     -33.501 -11.343   8.607  0.00  0.00     0.033 H 
ATOM     31  H24 63D d   1     -33.528 -13.086   8.175  0.00  0.00     0.033 H 
BRANCH  29  32
ATOM     32  CAO 63D d   1     -31.608 -12.372   8.911  0.00  0.00    -0.065 C 
ATOM     33  H25 63D d   1     -31.220 -12.193   7.897  0.00  0.00     0.033 H 
ATOM     34  H26 63D d   1     -31.264 -13.354   9.267  0.00  0.00     0.033 H 
BRANCH  32  35
ATOM     35  CAN 63D d   1     -31.103 -11.283   9.851  0.00  0.00    -0.069 C 
ATOM     36  H27 63D d   1     -31.471 -11.476  10.869  0.00  0.00     0.032 H 
ATOM     37  H28 63D d   1     -31.468 -10.303   9.509  0.00  0.00     0.032 H 
BRANCH  35  38
ATOM     38  CAA 63D d   1     -29.569 -11.287   9.851  0.00  0.00    -0.077 C 
ATOM     39  H29 63D d   1     -29.200 -10.502  10.528  0.00  0.00     0.027 H 
ATOM     40  H30 63D d   1     -29.202 -11.094   8.832  0.00  0.00     0.027 H 
ATOM     41  H31 63D d   1     -29.205 -12.267  10.193  0.00  0.00     0.027 H 
ENDBRANCH  35  38
ENDBRANCH  32  35
ENDBRANCH  29  32
ENDBRANCH  26  29
ENDBRANCH  23  26
ENDBRANCH  20  23
ENDBRANCH  17  20
ENDBRANCH  14  17
ENDBRANCH  11  14
ENDBRANCH  10  11
ENDBRANCH   6  10
BRANCH   1  42
ATOM     42  CAW 63D d   1     -35.092  -9.177  20.016  0.00  0.00     0.050 C 
ATOM     43  H5  63D d   1     -34.169  -8.855  19.512  0.00  0.00     0.082 H 
ATOM     44  H6  63D d   1     -35.887  -8.440  19.830  0.00  0.00     0.082 H 
BRANCH  42  45
ATOM     45  OAY 63D d   1     -34.819  -9.174  21.488  0.00  0.00    -0.346 OA
BRANCH  45  46
ATOM     46  CBE 63D d   1     -34.088  -8.152  22.129  0.00  0.00     0.087 C 
ATOM     47  CBF 63D d   1     -33.596  -7.081  21.392  0.00  0.00     0.075 C 
ATOM     48  CAM 63D d   1     -32.866  -6.119  22.015  0.00  0.00    -0.039 C 
ATOM     49  CBG 63D d   1     -32.390  -6.155  23.255  0.00  0.00     0.102 C 
ATOM     50  H1  63D d   1     -32.649  -5.227  21.439  0.00  0.00     0.087 H 
ATOM     51  CBD 63D d   1     -32.708  -7.276  24.009  0.00  0.00     0.060 C 
ATOM     52 CL1  63D d   1     -32.123  -7.410  25.561  0.00  0.00    -0.083 Cl
ATOM     53  CAL 63D d   1     -33.529  -8.275  23.427  0.00  0.00    -0.027 C 
ATOM     54  H4  63D d   1     -33.739  -9.172  23.999  0.00  0.00     0.090 H 
BRANCH  47  55
ATOM     55  CAZ 63D d   1     -33.926  -6.462  20.216  0.00  0.00     0.212 C 
ATOM     56  OAC 63D d   1     -33.111  -5.603  19.794  0.00  0.00    -0.644 OA
ATOM     57  OAF 63D d   1     -35.139  -6.408  19.869  0.00  0.00    -0.644 OA
ENDBRANCH  47  55
BRANCH  49  58
ATOM     58  SBH 63D d   1     -31.431  -4.674  23.403  0.00  0.00     0.258 S 
ATOM     59  OAD 63D d   1     -32.320  -3.511  22.969  0.00  0.00    -0.201 OA
ATOM     60  OAE 63D d   1     -30.806  -4.412  24.789  0.00  0.00    -0.201 OA
BRANCH  58  61
ATOM     61  NAB 63D d   1     -30.274  -4.742  22.364  0.00  0.00    -0.324 N 
ATOM     62  H2  63D d   1     -29.619  -3.990  22.295  0.00  0.00     0.169 HD
ATOM     63  H3  63D d   1     -30.186  -5.538  21.765  0.00  0.00     0.169 HD
ENDBRANCH  58  61
ENDBRANCH  49  58
ENDBRANCH  45  46
ENDBRANCH  42  45
ENDBRANCH   1  42
BRANCH   4  64
ATOM     64  OAG 63D d   1     -37.673 -13.148  20.425  0.00  0.00    -0.361 OA
ATOM     65  H9  63D d   1     -37.258 -13.372  21.250  0.00  0.00     0.217 HD
ENDBRANCH   4  64
TORSDOF 18
