REMARK  3 active torsions:
REMARK  status: ('A' for Active; 'I' for Inactive)
REMARK    1  A    between atoms: C7_3  and  C10_6 
REMARK    2  A    between atoms: C8_4  and  O11_14 
REMARK    3  A    between atoms: O11_14  and  C14_8 
ROOT
ATOM      1  C1  62O d   1      31.429  24.490   5.915  0.00  0.00     0.065 A 
ATOM      2  C2  62O d   1      32.834  24.357   5.983  0.00  0.00     0.086 A 
ATOM      3  C7  62O d   1      32.384  26.325   5.160  0.00  0.00     0.157 A 
ATOM      4  C8  62O d   1      31.165  22.279   6.837  0.00  0.00     0.070 A 
ATOM      5  C9  62O d   1      32.566  22.137   6.895  0.00  0.00    -0.048 A 
ATOM      6  N3  62O d   1      31.177  25.743   5.403  0.00  0.00    -0.337 N 
ATOM      7  C4  62O d   1      30.605  23.455   6.354  0.00  0.00    -0.023 A 
ATOM      8  N5  62O d   1      33.358  25.514   5.499  0.00  0.00    -0.227 NA
ATOM      9  C6  62O d   1      33.392  23.159   6.475  0.00  0.00    -0.050 A 
ATOM     10  H1  62O d   1      32.998  21.217   7.273  0.00  0.00     0.087 H 
ATOM     11  H7  62O d   1      30.251  26.161   5.235  0.00  0.00     0.167 HD
ATOM     12  H8  62O d   1      29.527  23.568   6.319  0.00  0.00     0.091 H 
ATOM     13  H9  62O d   1      34.468  23.041   6.523  0.00  0.00     0.087 H 
ENDROOT
BRANCH   3  14
ATOM     14  C10 62O d   1      32.532  27.677   4.600  0.00  0.00     0.097 A 
ATOM     15  C12 62O d   1      33.737  28.390   4.446  0.00  0.00    -0.034 A 
ATOM     16  C15 62O d   1      33.445  29.593   3.907  0.00  0.00     0.024 A 
ATOM     17  H2  62O d   1      34.730  28.033   4.715  0.00  0.00     0.089 H 
ATOM     18  N16 62O d   1      32.112  29.634   3.711  0.00  0.00    -0.187 NA
ATOM     19  H6  62O d   1      34.156  30.384   3.674  0.00  0.00     0.117 H 
ATOM     20  N13 62O d   1      31.549  28.428   4.157  0.00  0.00    -0.275 N 
ATOM     21  H10 62O d   1      30.550  28.178   4.140  0.00  0.00     0.189 HD
ENDBRANCH   3  14
BRANCH   4  22
ATOM     22  O11 62O d   1      30.335  21.300   7.301  0.00  0.00    -0.356 OA
BRANCH  22  23
ATOM     23  C14 62O d   1      29.785  20.328   6.395  0.00  0.00     0.010 C 
ATOM     24  H3  62O d   1      29.146  19.628   6.952  0.00  0.00     0.066 H 
ATOM     25  H4  62O d   1      30.603  19.773   5.912  0.00  0.00     0.066 H 
ATOM     26  H5  62O d   1      29.186  20.840   5.628  0.00  0.00     0.066 H 
ENDBRANCH  22  23
ENDBRANCH   4  22
TORSDOF 3
