REMARK  7 active torsions:
REMARK  status: ('A' for Active; 'I' for Inactive)
REMARK    1  A    between atoms: C3_15  and  C5_10 
REMARK    2  A    between atoms: C18_14  and  S16_38 
REMARK    3  A    between atoms: S16_38  and  C13_17 
REMARK    4  A    between atoms: N27_31  and  C25_18 
REMARK       I    between atoms: C28_19  and  N27_31 
REMARK       I    between atoms: N29_32  and  C28_19 
REMARK    5  A    between atoms: C32_25  and  C31_24 
REMARK    6  A    between atoms: C31_24  and  N29_32 
REMARK    7  A    between atoms: C32_25  and  N33_33 
ROOT
ATOM      1  C20 63K d   1      21.919 -11.373  59.231  0.00  0.00    -0.052 A 
ATOM      2  C19 63K d   1      21.350 -10.932  58.062  0.00  0.00    -0.064 A 
ATOM      3  C21 63K d   1      19.412 -12.325  58.372  0.00  0.00    -0.047 A 
ATOM      4  C23 63K d   1      21.221 -12.305  59.979  0.00  0.00     0.077 A 
ATOM      5  C22 63K d   1      19.986 -12.765  59.547  0.00  0.00     0.038 A 
ATOM      6  C18 63K d   1      20.123 -11.392  57.633  0.00  0.00     0.010 A 
ATOM      7  C25 63K d   1      20.776 -13.671  61.651  0.00  0.00     0.175 A 
ATOM      8  N24 63K d   1      21.656 -12.830  61.170  0.00  0.00    -0.223 NA
ATOM      9  S26 63K d   1      19.374 -13.894  60.704  0.00  0.00    -0.050 SA
ATOM     10  H3  63K d   1      22.884 -11.003  59.558  0.00  0.00     0.087 H 
ATOM     11  H6  63K d   1      21.880 -10.203  57.460  0.00  0.00     0.085 H 
ATOM     12  H9  63K d   1      18.447 -12.693  58.041  0.00  0.00     0.087 H 
ENDROOT
BRANCH   7  13
ATOM     13  N27 63K d   1      20.883 -14.374  62.825  0.00  0.00    -0.287 N 
ATOM     14  C28 63K d   1      19.860 -15.113  63.350  0.00  0.00     0.322 C 
ATOM     15  N29 63K d   1      20.226 -15.560  64.572  0.00  0.00    -0.341 N 
ATOM     16  O30 63K d   1      18.791 -15.382  62.830  0.00  0.00    -0.247 OA
ATOM     17  H23 63K d   1      21.030 -15.181  65.031  0.00  0.00     0.164 HD
ATOM     18  H22 63K d   1      21.751 -14.344  63.320  0.00  0.00     0.172 HD
BRANCH  15  19
ATOM     19  C31 63K d   1      19.447 -16.583  65.200  0.00  0.00     0.019 C 
ATOM     20  H18 63K d   1      18.637 -16.906  64.529  0.00  0.00     0.066 H 
ATOM     21  H19 63K d   1      20.084 -17.445  65.447  0.00  0.00     0.066 H 
BRANCH  19  22
ATOM     22  C32 63K d   1      18.872 -15.989  66.455  0.00  0.00     0.098 C 
ATOM     23  H20 63K d   1      18.229 -15.133  66.205  0.00  0.00     0.078 H 
ATOM     24  H21 63K d   1      19.683 -15.657  67.120  0.00  0.00     0.078 H 
BRANCH  22  25
ATOM     25  N33 63K d   1      18.078 -17.039  67.116  0.00  0.00    -0.066 N 
ATOM     26  C34 63K d   1      16.678 -16.591  67.338  0.00  0.00     0.103 C 
ATOM     27  C35 63K d   1      15.905 -17.817  67.764  0.00  0.00     0.042 C 
ATOM     28  H10 63K d   1      16.643 -15.825  68.127  0.00  0.00     0.079 H 
ATOM     29  H11 63K d   1      16.258 -16.179  66.409  0.00  0.00     0.079 H 
ATOM     30  O36 63K d   1      16.502 -18.229  68.982  0.00  0.00    -0.388 OA
ATOM     31  H14 63K d   1      15.990 -18.609  67.006  0.00  0.00     0.076 H 
ATOM     32  H15 63K d   1      14.844 -17.570  67.919  0.00  0.00     0.076 H 
ATOM     33  C37 63K d   1      17.790 -18.797  68.709  0.00  0.00     0.042 C 
ATOM     34  C38 63K d   1      18.734 -17.673  68.307  0.00  0.00     0.103 C 
ATOM     35  H16 63K d   1      18.173 -19.300  69.609  0.00  0.00     0.076 H 
ATOM     36  H17 63K d   1      17.709 -19.525  67.889  0.00  0.00     0.076 H 
ATOM     37  H12 63K d   1      19.723 -18.073  68.039  0.00  0.00     0.079 H 
ATOM     38  H13 63K d   1      18.842 -16.945  69.124  0.00  0.00     0.079 H 
ATOM     39  H24 63K d   1      18.012 -17.784  66.440  0.00  0.00     0.280 HD
ENDBRANCH  22  25
ENDBRANCH  19  22
ENDBRANCH  15  19
ENDBRANCH   7  13
BRANCH   6  40
ATOM     40  S16 63K d   1      19.461 -10.733  56.119  0.00  0.00    -0.049 SA
BRANCH  40  41
ATOM     41  C13 63K d   1      18.979  -9.156  56.831  0.00  0.00     0.217 A 
ATOM     42  N14 63K d   1      19.491  -7.985  56.501  0.00  0.00    -0.120 NA
ATOM     43  N15 63K d   1      18.916  -6.973  57.237  0.00  0.00    -0.128 NA
ATOM     44  C11 63K d   1      18.040  -7.524  58.037  0.00  0.00     0.175 A 
ATOM     45  C1  63K d   1      17.173  -6.967  59.002  0.00  0.00    -0.033 A 
ATOM     46  N12 63K d   1      18.038  -8.881  57.817  0.00  0.00    -0.187 N 
ATOM     47  C2  63K d   1      16.356  -7.736  59.726  0.00  0.00    -0.049 A 
ATOM     48  H8  63K d   1      17.171  -5.889  59.159  0.00  0.00     0.089 H 
ATOM     49  C3  63K d   1      16.480  -9.177  59.400  0.00  0.00     0.088 A 
ATOM     50  H7  63K d   1      15.671  -7.346  60.477  0.00  0.00     0.087 H 
ATOM     51  N4  63K d   1      17.261  -9.733  58.518  0.00  0.00    -0.163 NA
BRANCH  49  52
ATOM     52  C5  63K d   1      15.668 -10.065  60.232  0.00  0.00    -0.005 A 
ATOM     53  C6  63K d   1      14.469  -9.660  60.788  0.00  0.00    -0.068 A 
ATOM     54  C7  63K d   1      13.797 -10.562  61.587  0.00  0.00    -0.045 A 
ATOM     55  H1  63K d   1      14.071  -8.669  60.603  0.00  0.00     0.085 H 
ATOM     56  C8  63K d   1      14.332 -11.819  61.823  0.00  0.00     0.116 A 
ATOM     57  H4  63K d   1      12.848 -10.287  62.032  0.00  0.00     0.088 H 
ATOM     58  C9  63K d   1      15.533 -12.207  61.262  0.00  0.00    -0.045 A 
ATOM     59  F17 63K d   1      13.682 -12.706  62.616  0.00  0.00    -0.206 F 
ATOM     60  C10 63K d   1      16.202 -11.317  60.457  0.00  0.00    -0.068 A 
ATOM     61  H5  63K d   1      15.940 -13.194  61.453  0.00  0.00     0.088 H 
ATOM     62  H2  63K d   1      17.145 -11.597  60.001  0.00  0.00     0.085 H 
ENDBRANCH  49  52
ENDBRANCH  40  41
ENDBRANCH   6  40
TORSDOF 7
