REMARK  6 active torsions:
REMARK  status: ('A' for Active; 'I' for Inactive)
REMARK    1  A    between atoms: C10_5  and  C9_4 
REMARK    2  A    between atoms: C17_19  and  C12_7 
REMARK    3  A    between atoms: C14_8  and  N16_18 
REMARK    4  A    between atoms: C19_9  and  C20_10 
REMARK    5  A    between atoms: C18_20  and  C19_9 
REMARK    6  A    between atoms: C17_19  and  C18_20 
ROOT
ATOM      1  C10 63E d   1      42.535  16.434   3.968  0.00  0.00     0.090 A 
ATOM      2  C11 63E d   1      42.138  17.695   3.456  0.00  0.00    -0.029 A 
ATOM      3  C12 63E d   1      43.060  18.752   3.547  0.00  0.00     0.056 A 
ATOM      4  C14 63E d   1      44.617  17.327   4.564  0.00  0.00     0.721 A 
ATOM      5  N13 63E d   1      44.263  18.531   4.098  0.00  0.00    -0.068 NA
ATOM      6  N15 63E d   1      43.777  16.298   4.485  0.00  0.00    -0.062 NA
ATOM      7  H4  63E d   1      41.160  17.839   3.011  0.00  0.00     0.090 H 
ENDROOT
BRANCH   1   8
ATOM      8  C9  63E d   1      41.692  15.213   3.866  0.00  0.00     0.023 A 
ATOM      9  C8  63E d   1      42.110  13.949   4.159  0.00  0.00    -0.008 A 
ATOM     10  N7  63E d   1      41.112  13.061   3.935  0.00  0.00    -0.349 N 
ATOM     11  H3  63E d   1      43.104  13.690   4.521  0.00  0.00     0.112 H 
ATOM     12  C6  63E d   1      40.000  13.703   3.457  0.00  0.00     0.138 A 
ATOM     13  H11 63E d   1      41.179  12.047   4.101  0.00  0.00     0.167 HD
ATOM     14  N3  63E d   1      38.788  13.270   3.106  0.00  0.00    -0.242 NA
ATOM     15  C5  63E d   1      40.302  15.082   3.392  0.00  0.00     0.024 A 
ATOM     16  C2  63E d   1      37.843  14.094   2.681  0.00  0.00     0.004 A 
ATOM     17  C1  63E d   1      38.077  15.461   2.574  0.00  0.00    -0.065 A 
ATOM     18  H2  63E d   1      36.871  13.697   2.412  0.00  0.00     0.114 H 
ATOM     19  C4  63E d   1      39.317  15.972   2.946  0.00  0.00    -0.067 A 
ATOM     20  H1  63E d   1      37.301  16.122   2.204  0.00  0.00     0.085 H 
ATOM     21  H10 63E d   1      39.516  17.036   2.892  0.00  0.00     0.085 H 
ENDBRANCH   1   8
BRANCH   3  22
ATOM     22  C17 63E d   1      42.706  20.155   3.102  0.00  0.00    -0.024 C 
ATOM     23  H14 63E d   1      41.839  20.123   2.425  0.00  0.00     0.042 H 
ATOM     24  H15 63E d   1      43.562  20.607   2.580  0.00  0.00     0.042 H 
BRANCH  22  25
ATOM     25  C18 63E d   1      42.360  20.986   4.355  0.00  0.00    -0.060 C 
ATOM     26  H16 63E d   1      41.342  20.734   4.687  0.00  0.00     0.033 H 
ATOM     27  H17 63E d   1      43.076  20.749   5.156  0.00  0.00     0.033 H 
BRANCH  25  28
ATOM     28  C19 63E d   1      42.432  22.491   4.041  0.00  0.00    -0.068 C 
ATOM     29  H5  63E d   1      42.861  22.620   3.037  0.00  0.00     0.032 H 
ATOM     30  H6  63E d   1      41.412  22.903   4.060  0.00  0.00     0.032 H 
BRANCH  28  31
ATOM     31  C20 63E d   1      43.296  23.268   5.049  0.00  0.00    -0.077 C 
ATOM     32  H7  63E d   1      43.310  24.333   4.775  0.00  0.00     0.027 H 
ATOM     33  H8  63E d   1      44.322  22.872   5.035  0.00  0.00     0.027 H 
ATOM     34  H9  63E d   1      42.873  23.155   6.058  0.00  0.00     0.027 H 
ENDBRANCH  28  31
ENDBRANCH  25  28
ENDBRANCH  22  25
ENDBRANCH   3  22
BRANCH   4  35
ATOM     35  N16 63E d   1      45.886  17.126   5.083  0.00  0.00    -0.231 N 
ATOM     36  H12 63E d   1      46.546  17.914   5.150  0.00  0.00     0.174 HD
ATOM     37  H13 63E d   1      46.169  16.189   5.402  0.00  0.00     0.174 HD
ENDBRANCH   4  35
TORSDOF 6
