REMARK  7 active torsions:
REMARK  status: ('A' for Active; 'I' for Inactive)
REMARK    1  A    between atoms: C3_15  and  C5_10 
REMARK    2  A    between atoms: C18_14  and  S16_38 
REMARK    3  A    between atoms: S16_38  and  C13_17 
REMARK    4  A    between atoms: N27_31  and  C25_18 
REMARK       I    between atoms: C28_19  and  N27_31 
REMARK       I    between atoms: N29_32  and  C28_19 
REMARK    5  A    between atoms: C32_25  and  C31_24 
REMARK    6  A    between atoms: C31_24  and  N29_32 
REMARK    7  A    between atoms: C32_25  and  N33_33 
ROOT
ATOM      1  C20 63K d   1      21.691 -11.379  57.456  0.00  0.00    -0.052 A 
ATOM      2  C19 63K d   1      20.966 -10.808  56.433  0.00  0.00    -0.064 A 
ATOM      3  C21 63K d   1      18.979 -12.041  56.966  0.00  0.00    -0.047 A 
ATOM      4  C23 63K d   1      21.034 -12.304  58.251  0.00  0.00     0.077 A 
ATOM      5  C22 63K d   1      19.705 -12.609  57.988  0.00  0.00     0.038 A 
ATOM      6  C18 63K d   1      19.646 -11.124  56.188  0.00  0.00     0.010 A 
ATOM      7  C25 63K d   1      20.684 -13.780  59.851  0.00  0.00     0.175 A 
ATOM      8  N24 63K d   1      21.581 -12.980  59.314  0.00  0.00    -0.223 NA
ATOM      9  S26 63K d   1      19.135 -13.776  59.110  0.00  0.00    -0.050 SA
ATOM     10  H3  63K d   1      22.728 -11.117  57.631  0.00  0.00     0.087 H 
ATOM     11  H6  63K d   1      21.453 -10.080  55.794  0.00  0.00     0.085 H 
ATOM     12  H9  63K d   1      17.942 -12.301  56.785  0.00  0.00     0.087 H 
ENDROOT
BRANCH   7  13
ATOM     13  N27 63K d   1      20.886 -14.608  60.938  0.00  0.00    -0.287 N 
ATOM     14  C28 63K d   1      19.855 -15.315  61.523  0.00  0.00     0.322 C 
ATOM     15  N29 63K d   1      20.195 -15.759  62.777  0.00  0.00    -0.341 N 
ATOM     16  O30 63K d   1      18.762 -15.547  61.019  0.00  0.00    -0.247 OA
ATOM     17  H23 63K d   1      20.971 -15.352  63.260  0.00  0.00     0.164 HD
ATOM     18  H22 63K d   1      21.809 -14.698  61.313  0.00  0.00     0.172 HD
BRANCH  15  19
ATOM     19  C31 63K d   1      19.431 -16.812  63.394  0.00  0.00     0.022 C 
ATOM     20  H18 63K d   1      19.183 -17.572  62.639  0.00  0.00     0.066 H 
ATOM     21  H19 63K d   1      20.027 -17.273  64.195  0.00  0.00     0.066 H 
BRANCH  19  22
ATOM     22  C32 63K d   1      18.159 -16.254  63.977  0.00  0.00     0.128 C 
ATOM     23  H20 63K d   1      17.402 -16.137  63.188  0.00  0.00     0.082 H 
ATOM     24  H21 63K d   1      18.355 -15.278  64.445  0.00  0.00     0.082 H 
BRANCH  22  25
ATOM     25  N33 63K d   1      17.687 -17.216  64.992  0.00  0.00     0.094 N 
ATOM     26  C34 63K d   1      16.195 -17.216  65.056  0.00  0.00     0.133 C 
ATOM     27  C35 63K d   1      15.739 -18.138  66.167  0.00  0.00     0.044 C 
ATOM     28  H10 63K d   1      15.836 -16.195  65.256  0.00  0.00     0.083 H 
ATOM     29  H11 63K d   1      15.787 -17.567  64.097  0.00  0.00     0.083 H 
ATOM     30  O36 63K d   1      16.414 -17.763  67.365  0.00  0.00    -0.388 OA
ATOM     31  H14 63K d   1      15.986 -19.179  65.911  0.00  0.00     0.077 H 
ATOM     32  H15 63K d   1      14.652 -18.043  66.307  0.00  0.00     0.077 H 
ATOM     33  C37 63K d   1      17.798 -18.072  67.225  0.00  0.00     0.044 C 
ATOM     34  C38 63K d   1      18.370 -17.025  66.302  0.00  0.00     0.133 C 
ATOM     35  H16 63K d   1      18.299 -18.033  68.204  0.00  0.00     0.077 H 
ATOM     36  H17 63K d   1      17.923 -19.074  66.789  0.00  0.00     0.077 H 
ATOM     37  H12 63K d   1      19.455 -17.165  66.191  0.00  0.00     0.083 H 
ATOM     38  H13 63K d   1      18.168 -16.018  66.695  0.00  0.00     0.083 H 
ENDBRANCH  22  25
ENDBRANCH  19  22
ENDBRANCH  15  19
ENDBRANCH   7  13
BRANCH   6  39
ATOM     39  S16 63K d   1      18.742 -10.372  54.861  0.00  0.00    -0.049 SA
BRANCH  39  40
ATOM     40  C13 63K d   1      18.429  -8.770  55.502  0.00  0.00     0.217 A 
ATOM     41  N14 63K d   1      19.072  -7.656  55.116  0.00  0.00    -0.120 NA
ATOM     42  N15 63K d   1      18.504  -6.684  55.864  0.00  0.00    -0.128 NA
ATOM     43  C11 63K d   1      17.542  -7.209  56.678  0.00  0.00     0.175 A 
ATOM     44  C1  63K d   1      16.715  -6.595  57.591  0.00  0.00    -0.033 A 
ATOM     45  N12 63K d   1      17.486  -8.501  56.467  0.00  0.00    -0.187 N 
ATOM     46  C2  63K d   1      15.866  -7.467  58.242  0.00  0.00    -0.049 A 
ATOM     47  H8  63K d   1      16.729  -5.523  57.782  0.00  0.00     0.089 H 
ATOM     48  C3  63K d   1      15.875  -8.817  57.959  0.00  0.00     0.088 A 
ATOM     49  H7  63K d   1      15.177  -7.082  58.992  0.00  0.00     0.087 H 
ATOM     50  N4  63K d   1      16.692  -9.360  57.051  0.00  0.00    -0.163 NA
BRANCH  48  51
ATOM     51  C5  63K d   1      15.020  -9.748  58.670  0.00  0.00    -0.005 A 
ATOM     52  C6  63K d   1      13.763  -9.378  59.109  0.00  0.00    -0.068 A 
ATOM     53  C7  63K d   1      12.969 -10.267  59.799  0.00  0.00    -0.045 A 
ATOM     54  H1  63K d   1      13.398  -8.377  58.908  0.00  0.00     0.085 H 
ATOM     55  C8  63K d   1      13.435 -11.538  60.048  0.00  0.00     0.116 A 
ATOM     56  H4  63K d   1      11.985  -9.968  60.143  0.00  0.00     0.088 H 
ATOM     57  C9  63K d   1      14.686 -11.929  59.620  0.00  0.00    -0.045 A 
ATOM     58  F17 63K d   1      12.656 -12.407  60.714  0.00  0.00    -0.206 F 
ATOM     59  C10 63K d   1      15.472 -11.028  58.936  0.00  0.00    -0.068 A 
ATOM     60  H5  63K d   1      15.046 -12.932  59.819  0.00  0.00     0.088 H 
ATOM     61  H2  63K d   1      16.459 -11.326  58.601  0.00  0.00     0.085 H 
ENDBRANCH  48  51
ENDBRANCH  39  40
ENDBRANCH   6  39
TORSDOF 7
