REMARK WARNING: 32 MAX_TORS EXCEEDED!!!
REMARK  65 active torsions:
REMARK  status: ('A' for Active; 'I' for Inactive)
REMARK    1  A    between atoms: N_1  and  CA_2 
REMARK    2  A    between atoms: CA_2  and  C_3 
REMARK    3  A    between atoms: CA_2  and  CB_5 
REMARK       I    between atoms: C_3  and  N_7 
REMARK    4  A    between atoms: CB_5  and  OG_6 
REMARK    5  A    between atoms: N_7  and  CA_8 
REMARK    6  A    between atoms: CA_8  and  C_9 
REMARK    7  A    between atoms: CA_8  and  CB_11 
REMARK       I    between atoms: C_9  and  N_15 
REMARK    8  A    between atoms: CB_11  and  CG_12 
REMARK    9  A    between atoms: CG_12  and  CD1_13 
REMARK   10  A    between atoms: CG_12  and  CD2_14 
REMARK   11  A    between atoms: N_15  and  CA_16 
REMARK   12  A    between atoms: CA_16  and  C_17 
REMARK   13  A    between atoms: CA_16  and  CB_19 
REMARK       I    between atoms: C_17  and  N_26 
REMARK   14  A    between atoms: CB_19  and  CG_20 
REMARK   15  A    between atoms: CG_20  and  CD_21 
REMARK   16  A    between atoms: CD_21  and  NE_22 
REMARK       I    between atoms: NE_22  and  CZ_23 
REMARK       I    between atoms: CZ_23  and  NH1_24 
REMARK   17  A    between atoms: N_26  and  CA_27 
REMARK   18  A    between atoms: CA_27  and  C_28 
REMARK   19  A    between atoms: CA_27  and  CB_30 
REMARK       I    between atoms: C_28  and  N_34 
REMARK   20  A    between atoms: CB_30  and  CG_31 
REMARK       I    between atoms: CG_31  and  ND2_33 
REMARK   21  A    between atoms: N_34  and  CA_35 
REMARK   22  A    between atoms: CA_35  and  C_36 
REMARK   23  A    between atoms: CA_35  and  CB_38 
REMARK       I    between atoms: C_36  and  N_42 
REMARK   24  A    between atoms: CB_38  and  CG1_39 
REMARK   25  A    between atoms: CB_38  and  CG2_40 
REMARK   26  A    between atoms: CG1_39  and  CD1_41 
REMARK   27  A    between atoms: N_42  and  CA_43 
REMARK   28  A    between atoms: CA_43  and  C_44 
REMARK   29  A    between atoms: CA_43  and  CB_46 
REMARK       I    between atoms: C_44  and  N_50 
REMARK   30  A    between atoms: CB_46  and  CG_47 
REMARK   31  A    between atoms: N_50  and  CA_51 
REMARK   32  A    between atoms: CA_51  and  C_52 
REMARK   33  A    between atoms: CA_51  and  CB_54 
REMARK       I    between atoms: C_52  and  N_58 
REMARK   34  A    between atoms: CB_54  and  CG_55 
REMARK   35  A    between atoms: N_58  and  CA_59 
REMARK   36  A    between atoms: CA_59  and  C_60 
REMARK   37  A    between atoms: CA_59  and  CB_62 
REMARK       I    between atoms: C_60  and  N_66 
REMARK   38  A    between atoms: CB_62  and  CG1_63 
REMARK   39  A    between atoms: CB_62  and  CG2_64 
REMARK   40  A    between atoms: CG1_63  and  CD1_65 
REMARK   41  A    between atoms: N_66  and  CA_67 
REMARK   42  A    between atoms: CA_67  and  C_68 
REMARK   43  A    between atoms: CA_67  and  CB_70 
REMARK       I    between atoms: C_68  and  N_74 
REMARK   44  A    between atoms: CB_70  and  CG_71 
REMARK   45  A    between atoms: CG_71  and  CD1_72 
REMARK   46  A    between atoms: CG_71  and  CD2_73 
REMARK   47  A    between atoms: N_74  and  CA_75 
REMARK   48  A    between atoms: CA_75  and  C_76 
REMARK   49  A    between atoms: CA_75  and  CB_78 
REMARK       I    between atoms: C_76  and  N_82 
REMARK   50  A    between atoms: CB_78  and  CG_79 
REMARK   51  A    between atoms: N_82  and  CA_83 
REMARK   52  A    between atoms: CA_83  and  C_84 
REMARK   53  A    between atoms: CA_83  and  CB_86 
REMARK       I    between atoms: C_84  and  N_90 
REMARK   54  A    between atoms: CB_86  and  CG_87 
REMARK   55  A    between atoms: N_90  and  CA_91 
REMARK   56  A    between atoms: CA_91  and  C_92 
REMARK   57  A    between atoms: CA_91  and  CB_94 
REMARK       I    between atoms: C_92  and  N_98 
REMARK   58  A    between atoms: CB_94  and  CG1_95 
REMARK   59  A    between atoms: CB_94  and  CG2_96 
REMARK   60  A    between atoms: CG1_95  and  CD1_97 
REMARK   61  A    between atoms: N_98  and  CA_99 
REMARK   62  A    between atoms: CA_99  and  C_100 
REMARK   63  A    between atoms: CA_99  and  CB_102 
REMARK   64  A    between atoms: CB_102  and  CG_103 
REMARK   65  A    between atoms: CG_103  and  CD_104 
ROOT
ATOM      1  CA  ASP d   1       0.609  45.566 -10.656  0.00  0.00     0.098 C 
ATOM      2  H54 ASP d   1       0.657  46.550 -11.145  0.00  0.00     0.088 H 
ENDROOT
BRANCH   1   3
ATOM      3  N   ASP d   1      -0.756  45.067 -10.769  0.00  0.00    -0.345 N 
ATOM      4  C   ASP d   1      -1.338  44.975 -11.966  0.00  0.00     0.241 C 
ATOM      5  O   ASP d   1      -0.809  45.415 -12.993  0.00  0.00    -0.271 OA
ATOM      6  H53 ASP d   1      -1.257  44.793  -9.948  0.00  0.00     0.163 HD
BRANCH   4   7
ATOM      7  CA  ASP d   1      -2.705  44.308 -12.037  0.00  0.00     0.098 C 
ATOM      8  H50 ASP d   1      -2.770  43.764 -12.991  0.00  0.00     0.088 H 
BRANCH   7   9
ATOM      9  N   ASP d   1      -2.890  43.346 -10.954  0.00  0.00    -0.345 N 
ATOM     10  C   ILE d   1      -2.072  42.295 -10.831  0.00  0.00     0.241 C 
ATOM     11  O   ILE d   1      -1.165  42.069 -11.639  0.00  0.00    -0.271 OA
ATOM     12  H49 ASP d   1      -3.635  43.474 -10.299  0.00  0.00     0.163 HD
BRANCH  10  13
ATOM     13  CA  ILE d   1      -2.285  41.360  -9.650  0.00  0.00     0.092 C 
ATOM     14  H39 ILE d   1      -1.495  41.569  -8.914  0.00  0.00     0.088 H 
BRANCH  13  15
ATOM     15  N   ILE d   1      -3.565  41.599  -8.998  0.00  0.00    -0.346 N 
ATOM     16  C   ASN d   1      -3.668  42.099  -7.768  0.00  0.00     0.241 C 
ATOM     17  O   ASN d   1      -2.690  42.365  -7.064  0.00  0.00    -0.271 OA
ATOM     18  H38 ILE d   1      -4.404  41.378  -9.496  0.00  0.00     0.163 HD
BRANCH  16  19
ATOM     19  CA  ASN d   1      -5.086  42.336  -7.259  0.00  0.00     0.097 C 
ATOM     20  H33 ASN d   1      -5.774  42.350  -8.117  0.00  0.00     0.088 H 
BRANCH  19  21
ATOM     21  N   ASN d   1      -5.444  41.219  -6.386  0.00  0.00    -0.346 N 
ATOM     22  C   ARG d   1      -6.327  40.287  -6.735  0.00  0.00     0.241 C 
ATOM     23  O   ARG d   1      -6.955  40.344  -7.798  0.00  0.00    -0.271 OA
ATOM     24  H32 ASN d   1      -5.007  41.153  -5.489  0.00  0.00     0.163 HD
BRANCH  22  25
ATOM     25  CA  ARG d   1      -6.546  39.125  -5.771  0.00  0.00     0.089 C 
ATOM     26  H20 ARG d   1      -6.933  38.274  -6.351  0.00  0.00     0.087 H 
BRANCH  25  27
ATOM     27  N   ARG d   1      -5.298  38.713  -5.135  0.00  0.00    -0.346 N 
ATOM     28  C   LEU d   1      -4.344  38.103  -5.844  0.00  0.00     0.241 C 
ATOM     29  O   LEU d   1      -4.441  37.910  -7.061  0.00  0.00    -0.271 OA
ATOM     30  H19 ARG d   1      -5.156  38.889  -4.161  0.00  0.00     0.163 HD
BRANCH  28  31
ATOM     31  CA  LEU d   1      -3.102  37.616  -5.110  0.00  0.00     0.089 C 
ATOM     32  H9  LEU d   1      -2.227  37.840  -5.738  0.00  0.00     0.087 H 
BRANCH  31  33
ATOM     33  N   LEU d   1      -2.906  38.274  -3.824  0.00  0.00    -0.346 N 
ATOM     34  C   SER d   1      -2.395  39.505  -3.741  0.00  0.00     0.251 C 
ATOM     35  O   SER d   1      -2.078  40.171  -4.729  0.00  0.00    -0.271 OA
ATOM     36  H8  LEU d   1      -3.160  37.793  -2.985  0.00  0.00     0.163 HD
BRANCH  34  37
ATOM     37  CA  SER d   1      -2.218  40.064  -2.332  0.00  0.00     0.195 C 
ATOM     38  H4  SER d   1      -2.127  41.158  -2.402  0.00  0.00     0.102 H 
BRANCH  37  39
ATOM     39  N   SER d   1      -3.371  39.754  -1.497  0.00  0.00    -0.064 N 
ATOM     40  H1  SER d   1      -3.229  40.133  -0.574  0.00  0.00     0.275 HD
ATOM     41  H2  SER d   1      -3.482  38.754  -1.436  0.00  0.00     0.275 HD
ATOM     42  H3  SER d   1      -4.199  40.160  -1.903  0.00  0.00     0.275 HD
ENDBRANCH  37  39
BRANCH  37  43
ATOM     43  CB  SER d   1      -0.937  39.510  -1.701  0.00  0.00     0.051 C 
ATOM     44  H5  SER d   1      -1.044  38.424  -1.565  0.00  0.00     0.077 H 
ATOM     45  H6  SER d   1      -0.783  39.988  -0.723  0.00  0.00     0.077 H 
BRANCH  43  46
ATOM     46  OG  SER d   1       0.190  39.764  -2.522  0.00  0.00    -0.398 OA
ATOM     47  H7  SER d   1       0.968  39.411  -2.108  0.00  0.00     0.209 HD
ENDBRANCH  43  46
ENDBRANCH  37  43
ENDBRANCH  34  37
ENDBRANCH  31  33
BRANCH  31  48
ATOM     48  CB  LEU d   1      -3.189  36.099  -4.921  0.00  0.00    -0.035 C 
ATOM     49  H10 LEU d   1      -3.542  35.668  -5.870  0.00  0.00     0.037 H 
ATOM     50  H11 LEU d   1      -3.932  35.907  -4.132  0.00  0.00     0.037 H 
BRANCH  48  51
ATOM     51  CG  LEU d   1      -1.906  35.362  -4.532  0.00  0.00    -0.059 C 
ATOM     52  H12 LEU d   1      -1.593  35.718  -3.540  0.00  0.00     0.038 H 
BRANCH  51  53
ATOM     53  CD1 LEU d   1      -2.165  33.866  -4.441  0.00  0.00    -0.073 C 
ATOM     54  H13 LEU d   1      -1.235  33.349  -4.161  0.00  0.00     0.028 H 
ATOM     55  H14 LEU d   1      -2.512  33.494  -5.416  0.00  0.00     0.028 H 
ATOM     56  H15 LEU d   1      -2.935  33.673  -3.680  0.00  0.00     0.028 H 
ENDBRANCH  51  53
BRANCH  51  57
ATOM     57  CD2 LEU d   1      -0.784  35.657  -5.516  0.00  0.00    -0.073 C 
ATOM     58  H16 LEU d   1      -0.615  36.743  -5.565  0.00  0.00     0.028 H 
ATOM     59  H17 LEU d   1      -1.063  35.284  -6.513  0.00  0.00     0.028 H 
ATOM     60  H18 LEU d   1       0.137  35.157  -5.182  0.00  0.00     0.028 H 
ENDBRANCH  51  57
ENDBRANCH  48  51
ENDBRANCH  31  48
ENDBRANCH  28  31
ENDBRANCH  25  27
BRANCH  25  61
ATOM     61  CB  ARG d   1      -7.577  39.483  -4.702  0.00  0.00    -0.036 C 
ATOM     62  H21 ARG d   1      -8.460  39.915  -5.196  0.00  0.00     0.036 H 
ATOM     63  H22 ARG d   1      -7.135  40.227  -4.023  0.00  0.00     0.036 H 
BRANCH  61  64
ATOM     64  CG  ARG d   1      -8.019  38.281  -3.883  0.00  0.00    -0.048 C 
ATOM     65  H23 ARG d   1      -7.143  37.863  -3.366  0.00  0.00     0.035 H 
ATOM     66  H24 ARG d   1      -8.440  37.525  -4.562  0.00  0.00     0.035 H 
BRANCH  64  67
ATOM     67  CD  ARG d   1      -9.067  38.648  -2.851  0.00  0.00     0.009 C 
ATOM     68  H25 ARG d   1      -9.952  39.050  -3.366  0.00  0.00     0.064 H 
ATOM     69  H26 ARG d   1      -8.655  39.415  -2.179  0.00  0.00     0.064 H 
BRANCH  67  70
ATOM     70  NE  ARG d   1      -9.463  37.486  -2.061  0.00  0.00    -0.227 N 
ATOM     71  CZ  ARG d   1     -10.298  37.532  -1.029  0.00  0.00     0.665 C 
ATOM     72  NH1 ARG d   1     -10.830  38.687  -0.654  0.00  0.00    -0.235 N 
ATOM     73  NH2 ARG d   1     -10.600  36.421  -0.369  0.00  0.00    -0.235 N 
ATOM     74  H28 ARG d   1     -11.477  38.720   0.147  0.00  0.00     0.174 HD
ATOM     75  H29 ARG d   1     -10.596  39.551  -1.163  0.00  0.00     0.174 HD
ATOM     76  H30 ARG d   1     -10.188  35.522  -0.658  0.00  0.00     0.174 HD
ATOM     77  H31 ARG d   1     -11.246  36.458   0.432  0.00  0.00     0.174 HD
ATOM     78  H27 ARG d   1      -9.069  36.571  -2.321  0.00  0.00     0.177 HD
ENDBRANCH  67  70
ENDBRANCH  64  67
ENDBRANCH  61  64
ENDBRANCH  25  61
ENDBRANCH  22  25
ENDBRANCH  19  21
BRANCH  19  79
ATOM     79  CB  ASN d   1      -5.205  43.673  -6.533  0.00  0.00     0.036 C 
ATOM     80  H34 ASN d   1      -4.740  44.453  -7.153  0.00  0.00     0.051 H 
ATOM     81  H35 ASN d   1      -4.672  43.601  -5.573  0.00  0.00     0.051 H 
BRANCH  79  82
ATOM     82  CG  ASN d   1      -6.646  44.063  -6.261  0.00  0.00     0.217 C 
ATOM     83  OD1 ASN d   1      -7.575  43.477  -6.817  0.00  0.00    -0.274 OA
ATOM     84  ND2 ASN d   1      -6.837  45.066  -5.413  0.00  0.00    -0.370 N 
ATOM     85  H36 ASN d   1      -7.766  45.367  -5.195  0.00  0.00     0.159 HD
ATOM     86  H37 ASN d   1      -6.052  45.521  -4.992  0.00  0.00     0.159 HD
ENDBRANCH  79  82
ENDBRANCH  19  79
ENDBRANCH  16  19
ENDBRANCH  13  15
BRANCH  13  87
ATOM     87  CB  ILE d   1      -2.141  39.892 -10.085  0.00  0.00    -0.030 C 
ATOM     88  H40 ILE d   1      -1.246  39.808 -10.720  0.00  0.00     0.043 H 
BRANCH  87  89
ATOM     89  CG1 ILE d   1      -3.354  39.460 -10.914  0.00  0.00    -0.063 C 
ATOM     90  H41 ILE d   1      -3.490  40.183 -11.732  0.00  0.00     0.033 H 
ATOM     91  H42 ILE d   1      -4.240  39.471 -10.263  0.00  0.00     0.033 H 
BRANCH  89  92
ATOM     92  CD1 ILE d   1      -3.223  38.078 -11.517  0.00  0.00    -0.076 C 
ATOM     93  H46 ILE d   1      -4.129  37.842 -12.094  0.00  0.00     0.027 H 
ATOM     94  H47 ILE d   1      -3.097  37.338 -10.713  0.00  0.00     0.027 H 
ATOM     95  H48 ILE d   1      -2.347  38.050 -12.182  0.00  0.00     0.027 H 
ENDBRANCH  89  92
ENDBRANCH  87  89
BRANCH  87  96
ATOM     96  CG2 ILE d   1      -1.946  38.987  -8.874  0.00  0.00    -0.071 C 
ATOM     97  H43 ILE d   1      -1.069  39.324  -8.302  0.00  0.00     0.028 H 
ATOM     98  H44 ILE d   1      -1.788  37.952  -9.211  0.00  0.00     0.028 H 
ATOM     99  H45 ILE d   1      -2.840  39.032  -8.235  0.00  0.00     0.028 H 
ENDBRANCH  87  96
ENDBRANCH  13  87
ENDBRANCH  10  13
ENDBRANCH   7   9
BRANCH   7 100
ATOM    100  CB  ASP d   1      -3.813  45.361 -12.008  0.00  0.00     0.043 C 
ATOM    101  H51 ASP d   1      -3.556  46.162 -12.716  0.00  0.00     0.052 H 
ATOM    102  H52 ASP d   1      -3.877  45.776 -10.992  0.00  0.00     0.052 H 
BRANCH 100 103
ATOM    103  CG  ASP d   1      -5.166  44.795 -12.387  0.00  0.00     0.175 C 
ATOM    104  OD1 ASP d   1      -5.210  43.700 -12.989  0.00  0.00    -0.648 OA
ATOM    105  OD2 ASP d   1      -6.186  45.449 -12.088  0.00  0.00    -0.648 OA
ENDBRANCH 100 103
ENDBRANCH   7 100
ENDBRANCH   4   7
ENDBRANCH   1   3
BRANCH   1 106
ATOM    106  C   ASP d   1       1.595  44.640 -11.357  0.00  0.00     0.241 C 
ATOM    107  O   ASP d   1       2.618  45.101 -11.874  0.00  0.00    -0.271 OA
ATOM    108  N   ILE d   1       1.310  43.339 -11.382  0.00  0.00    -0.346 N 
ATOM    109  H57 ILE d   1       0.498  43.008 -10.901  0.00  0.00     0.163 HD
BRANCH 108 110
ATOM    110  CA  ILE d   1       2.154  42.384 -12.094  0.00  0.00     0.092 C 
ATOM    111  H58 ILE d   1       3.189  42.756 -12.066  0.00  0.00     0.088 H 
BRANCH 110 112
ATOM    112  C   ILE d   1       1.741  42.260 -13.556  0.00  0.00     0.241 C 
ATOM    113  O   ILE d   1       2.594  42.175 -14.443  0.00  0.00    -0.271 OA
ATOM    114  N   LEU d   1       0.432  42.250 -13.823  0.00  0.00    -0.346 N 
ATOM    115  H68 LEU d   1      -0.224  42.392 -13.082  0.00  0.00     0.163 HD
BRANCH 114 116
ATOM    116  CA  LEU d   1      -0.052  42.034 -15.183  0.00  0.00     0.089 C 
ATOM    117  H69 LEU d   1       0.422  41.122 -15.573  0.00  0.00     0.087 H 
BRANCH 116 118
ATOM    118  C   LEU d   1       0.319  43.190 -16.106  0.00  0.00     0.241 C 
ATOM    119  O   LEU d   1       0.608  42.976 -17.289  0.00  0.00    -0.271 OA
ATOM    120  N   ASP d   1       0.324  44.419 -15.587  0.00  0.00    -0.346 N 
ATOM    121  H79 ASP d   1       0.124  44.546 -14.615  0.00  0.00     0.163 HD
BRANCH 120 122
ATOM    122  CA  ASP d   1       0.617  45.578 -16.419  0.00  0.00     0.098 C 
ATOM    123  H80 ASP d   1       0.132  45.423 -17.394  0.00  0.00     0.088 H 
BRANCH 122 124
ATOM    124  C   ASP d   1       2.108  45.770 -16.664  0.00  0.00     0.241 C 
ATOM    125  O   ASP d   1       2.479  46.567 -17.533  0.00  0.00    -0.271 OA
ATOM    126  N   ASP d   1       2.964  45.058 -15.926  0.00  0.00    -0.345 N 
ATOM    127  H83 ASP d   1       2.604  44.470 -15.202  0.00  0.00     0.163 HD
BRANCH 126 128
ATOM    128  CA  ASP d   1       4.406  45.108 -16.140  0.00  0.00     0.098 C 
ATOM    129  H84 ASP d   1       4.687  46.161 -16.291  0.00  0.00     0.088 H 
BRANCH 128 130
ATOM    130  C   ASP d   1       4.854  44.322 -17.366  0.00  0.00     0.241 C 
ATOM    131  O   ASP d   1       5.992  44.498 -17.813  0.00  0.00    -0.271 OA
ATOM    132  N   ILE d   1       3.998  43.446 -17.901  0.00  0.00    -0.346 N 
ATOM    133  H87 ILE d   1       3.073  43.370 -17.528  0.00  0.00     0.163 HD
BRANCH 132 134
ATOM    134  CA  ILE d   1       4.394  42.597 -19.024  0.00  0.00     0.092 C 
ATOM    135  H88 ILE d   1       5.316  42.066 -18.743  0.00  0.00     0.088 H 
BRANCH 134 136
ATOM    136  C   ILE d   1       4.697  43.435 -20.261  0.00  0.00     0.241 C 
ATOM    137  O   ILE d   1       5.606  43.113 -21.036  0.00  0.00    -0.271 OA
ATOM    138  N   GLU d   1       3.945  44.514 -20.465  0.00  0.00    -0.345 N 
ATOM    139  H98 GLU d   1       3.270  44.767 -19.772  0.00  0.00     0.163 HD
BRANCH 138 140
ATOM    140  CA  GLU d   1       4.067  45.345 -21.664  0.00  0.00     0.097 C 
ATOM    141  H99 GLU d   1       3.747  44.742 -22.526  0.00  0.00     0.089 H 
BRANCH 140 142
ATOM    142  C   GLU d   1       5.502  45.806 -21.918  0.00  0.00     0.196 C 
ATOM    143  O   GLU d   1       6.175  45.308 -22.823  0.00  0.00    -0.646 OA
ATOM    144  OXT GLU d   1       6.016  46.685 -21.223  0.00  0.00    -0.646 OA
ENDBRANCH 140 142
BRANCH 140 145
ATOM    145  CB  GLU d   1       3.148  46.565 -21.558  0.00  0.00    -0.028 C 
ATOM    146 0H10 GLU d   1       3.274  47.170 -22.468  0.00  0.00     0.037 H 
ATOM    147 1H10 GLU d   1       3.456  47.152 -20.681  0.00  0.00     0.037 H 
BRANCH 145 148
ATOM    148  CG  GLU d   1       1.672  46.231 -21.411  0.00  0.00     0.018 C 
ATOM    149 2H10 GLU d   1       1.542  45.586 -20.530  0.00  0.00     0.049 H 
ATOM    150 3H10 GLU d   1       1.341  45.693 -22.311  0.00  0.00     0.049 H 
BRANCH 148 151
ATOM    151  CD  GLU d   1       0.810  47.469 -21.239  0.00  0.00     0.172 C 
ATOM    152  OE1 GLU d   1       1.371  48.583 -21.163  0.00  0.00    -0.648 OA
ATOM    153  OE2 GLU d   1      -0.429  47.327 -21.179  0.00  0.00    -0.648 OA
ENDBRANCH 148 151
ENDBRANCH 145 148
ENDBRANCH 140 145
ENDBRANCH 138 140
ENDBRANCH 134 136
BRANCH 134 154
ATOM    154  CB  ILE d   1       3.306  41.544 -19.305  0.00  0.00    -0.030 C 
ATOM    155  H89 ILE d   1       2.388  42.065 -19.613  0.00  0.00     0.043 H 
BRANCH 154 156
ATOM    156  CG1 ILE d   1       3.008  40.737 -18.042  0.00  0.00    -0.063 C 
ATOM    157  H90 ILE d   1       2.640  41.427 -17.268  0.00  0.00     0.033 H 
ATOM    158  H91 ILE d   1       3.943  40.269 -17.701  0.00  0.00     0.033 H 
BRANCH 156 159
ATOM    159  CD1 ILE d   1       1.978  39.653 -18.243  0.00  0.00    -0.076 C 
ATOM    160  H95 ILE d   1       1.818  39.119 -17.295  0.00  0.00     0.027 H 
ATOM    161  H96 ILE d   1       2.334  38.946 -19.007  0.00  0.00     0.027 H 
ATOM    162  H97 ILE d   1       1.031  40.104 -18.574  0.00  0.00     0.027 H 
ENDBRANCH 156 159
ENDBRANCH 154 156
BRANCH 154 163
ATOM    163  CG2 ILE d   1       3.735  40.615 -20.432  0.00  0.00    -0.071 C 
ATOM    164  H92 ILE d   1       3.946  41.207 -21.335  0.00  0.00     0.028 H 
ATOM    165  H93 ILE d   1       2.928  39.899 -20.644  0.00  0.00     0.028 H 
ATOM    166  H94 ILE d   1       4.641  40.068 -20.132  0.00  0.00     0.028 H 
ENDBRANCH 154 163
ENDBRANCH 134 154
ENDBRANCH 132 134
ENDBRANCH 128 130
BRANCH 128 167
ATOM    167  CB  ASP d   1       5.138  44.582 -14.902  0.00  0.00     0.043 C 
ATOM    168  H85 ASP d   1       6.199  44.440 -15.154  0.00  0.00     0.052 H 
ATOM    169  H86 ASP d   1       4.697  43.616 -14.616  0.00  0.00     0.052 H 
BRANCH 167 170
ATOM    170  CG  ASP d   1       5.042  45.529 -13.718  0.00  0.00     0.175 C 
ATOM    171  OD1 ASP d   1       4.214  46.463 -13.767  0.00  0.00    -0.648 OA
ATOM    172  OD2 ASP d   1       5.790  45.334 -12.735  0.00  0.00    -0.648 OA
ENDBRANCH 167 170
ENDBRANCH 128 167
ENDBRANCH 126 128
ENDBRANCH 122 124
BRANCH 122 173
ATOM    173  CB  ASP d   1       0.031  46.843 -15.781  0.00  0.00     0.043 C 
ATOM    174  H81 ASP d   1       0.324  47.712 -16.389  0.00  0.00     0.052 H 
ATOM    175  H82 ASP d   1       0.444  46.949 -14.767  0.00  0.00     0.052 H 
BRANCH 173 176
ATOM    176  CG  ASP d   1      -1.489  46.805 -15.687  0.00  0.00     0.175 C 
ATOM    177  OD1 ASP d   1      -2.113  45.965 -16.369  0.00  0.00    -0.648 OA
ATOM    178  OD2 ASP d   1      -2.059  47.617 -14.927  0.00  0.00    -0.648 OA
ENDBRANCH 173 176
ENDBRANCH 122 173
ENDBRANCH 120 122
ENDBRANCH 116 118
BRANCH 116 179
ATOM    179  CB  LEU d   1      -1.567  41.822 -15.173  0.00  0.00    -0.035 C 
ATOM    180  H70 LEU d   1      -1.890  41.689 -16.216  0.00  0.00     0.037 H 
ATOM    181  H71 LEU d   1      -2.026  42.732 -14.760  0.00  0.00     0.037 H 
BRANCH 179 182
ATOM    182  CG  LEU d   1      -2.099  40.631 -14.369  0.00  0.00    -0.059 C 
ATOM    183  H72 LEU d   1      -1.796  40.769 -13.320  0.00  0.00     0.038 H 
BRANCH 182 184
ATOM    184  CD1 LEU d   1      -3.622  40.580 -14.415  0.00  0.00    -0.073 C 
ATOM    185  H73 LEU d   1      -3.978  39.718 -13.832  0.00  0.00     0.028 H 
ATOM    186  H74 LEU d   1      -3.954  40.478 -15.459  0.00  0.00     0.028 H 
ATOM    187  H75 LEU d   1      -4.033  41.507 -13.988  0.00  0.00     0.028 H 
ENDBRANCH 182 184
BRANCH 182 188
ATOM    188  CD2 LEU d   1      -1.496  39.322 -14.861  0.00  0.00    -0.073 C 
ATOM    189  H76 LEU d   1      -0.399  39.385 -14.818  0.00  0.00     0.028 H 
ATOM    190  H77 LEU d   1      -1.812  39.140 -15.899  0.00  0.00     0.028 H 
ATOM    191  H78 LEU d   1      -1.841  38.496 -14.222  0.00  0.00     0.028 H 
ENDBRANCH 182 188
ENDBRANCH 179 182
ENDBRANCH 116 179
ENDBRANCH 114 116
ENDBRANCH 110 112
BRANCH 110 192
ATOM    192  CB  ILE d   1       2.117  41.014 -11.386  0.00  0.00    -0.030 C 
ATOM    193  H59 ILE d   1       1.075  40.663 -11.369  0.00  0.00     0.043 H 
BRANCH 192 194
ATOM    194  CG1 ILE d   1       2.608  41.134  -9.944  0.00  0.00    -0.063 C 
ATOM    195  H60 ILE d   1       1.968  41.856  -9.417  0.00  0.00     0.033 H 
ATOM    196  H61 ILE d   1       3.644  41.504  -9.958  0.00  0.00     0.033 H 
BRANCH 194 197
ATOM    197  CD1 ILE d   1       2.578  39.824  -9.185  0.00  0.00    -0.076 C 
ATOM    198  H65 ILE d   1       2.943  39.986  -8.160  0.00  0.00     0.027 H 
ATOM    199  H66 ILE d   1       3.223  39.091  -9.693  0.00  0.00     0.027 H 
ATOM    200  H67 ILE d   1       1.546  39.443  -9.151  0.00  0.00     0.027 H 
ENDBRANCH 194 197
ENDBRANCH 192 194
BRANCH 192 201
ATOM    201  CG2 ILE d   1       2.955  39.994 -12.142  0.00  0.00    -0.071 C 
ATOM    202  H62 ILE d   1       2.592  39.917 -13.178  0.00  0.00     0.028 H 
ATOM    203  H63 ILE d   1       2.871  39.014 -11.650  0.00  0.00     0.028 H 
ATOM    204  H64 ILE d   1       4.007  40.314 -12.145  0.00  0.00     0.028 H 
ENDBRANCH 192 201
ENDBRANCH 110 192
ENDBRANCH 108 110
ENDBRANCH   1 106
BRANCH   1 205
ATOM    205  CB  ASP d   1       0.985  45.740  -9.184  0.00  0.00     0.043 C 
ATOM    206  H55 ASP d   1       0.353  46.529  -8.750  0.00  0.00     0.052 H 
ATOM    207  H56 ASP d   1       2.041  46.042  -9.124  0.00  0.00     0.052 H 
BRANCH 205 208
ATOM    208  CG  ASP d   1       0.797  44.467  -8.377  0.00  0.00     0.175 C 
ATOM    209  OD1 ASP d   1       0.176  43.516  -8.895  0.00  0.00    -0.648 OA
ATOM    210  OD2 ASP d   1       1.270  44.419  -7.223  0.00  0.00    -0.648 OA
ENDBRANCH 205 208
ENDBRANCH   1 205
TORSDOF 65
