REMARK  7 active torsions:
REMARK  status: ('A' for Active; 'I' for Inactive)
REMARK    1  A    between atoms: C3_15  and  C5_10 
REMARK    2  A    between atoms: C18_14  and  S16_38 
REMARK    3  A    between atoms: S16_38  and  C13_17 
REMARK    4  A    between atoms: N27_31  and  C25_18 
REMARK       I    between atoms: C28_19  and  N27_31 
REMARK       I    between atoms: N29_32  and  C28_19 
REMARK    5  A    between atoms: C32_25  and  C31_24 
REMARK    6  A    between atoms: C31_24  and  N29_32 
REMARK    7  A    between atoms: C32_25  and  N33_33 
ROOT
ATOM      1  C20 63K d   1      21.855 -11.252  58.675  0.00  0.00    -0.052 A 
ATOM      2  C19 63K d   1      21.155 -10.697  57.627  0.00  0.00    -0.064 A 
ATOM      3  C21 63K d   1      19.204 -12.027  58.059  0.00  0.00    -0.047 A 
ATOM      4  C23 63K d   1      21.208 -12.221  59.428  0.00  0.00     0.077 A 
ATOM      5  C22 63K d   1      19.906 -12.579  59.102  0.00  0.00     0.038 A 
ATOM      6  C18 63K d   1      19.861 -11.071  57.326  0.00  0.00     0.010 A 
ATOM      7  C25 63K d   1      20.840 -13.739  60.994  0.00  0.00     0.175 A 
ATOM      8  N24 63K d   1      21.726 -12.896  60.509  0.00  0.00    -0.223 NA
ATOM      9  S26 63K d   1      19.333 -13.787  60.178  0.00  0.00    -0.050 SA
ATOM     10  H3  63K d   1      22.869 -10.944  58.902  0.00  0.00     0.087 H 
ATOM     11  H6  63K d   1      21.637  -9.941  57.018  0.00  0.00     0.085 H 
ATOM     12  H9  63K d   1      18.189 -12.329  57.828  0.00  0.00     0.087 H 
ENDROOT
BRANCH   7  13
ATOM     13  N27 63K d   1      20.994 -14.584  62.074  0.00  0.00    -0.287 N 
ATOM     14  C28 63K d   1      19.912 -15.122  62.752  0.00  0.00     0.322 C 
ATOM     15  N29 63K d   1      20.309 -15.739  63.912  0.00  0.00    -0.341 N 
ATOM     16  O30 63K d   1      18.742 -15.086  62.395  0.00  0.00    -0.247 OA
ATOM     17  H23 63K d   1      21.209 -15.535  64.298  0.00  0.00     0.164 HD
ATOM     18  H22 63K d   1      21.918 -14.816  62.378  0.00  0.00     0.172 HD
BRANCH  15  19
ATOM     19  C31 63K d   1      19.448 -16.673  64.577  0.00  0.00     0.019 C 
ATOM     20  H18 63K d   1      18.754 -17.116  63.848  0.00  0.00     0.066 H 
ATOM     21  H19 63K d   1      20.054 -17.468  65.036  0.00  0.00     0.066 H 
BRANCH  19  22
ATOM     22  C32 63K d   1      18.667 -15.958  65.643  0.00  0.00     0.098 C 
ATOM     23  H20 63K d   1      17.974 -15.235  65.188  0.00  0.00     0.078 H 
ATOM     24  H21 63K d   1      19.349 -15.432  66.327  0.00  0.00     0.078 H 
BRANCH  22  25
ATOM     25  N33 63K d   1      17.918 -16.997  66.368  0.00  0.00    -0.066 N 
ATOM     26  C34 63K d   1      16.496 -17.051  65.932  0.00  0.00     0.103 C 
ATOM     27  C35 63K d   1      15.814 -18.133  66.741  0.00  0.00     0.042 C 
ATOM     28  H10 63K d   1      16.010 -16.082  66.116  0.00  0.00     0.079 H 
ATOM     29  H11 63K d   1      16.441 -17.292  64.860  0.00  0.00     0.079 H 
ATOM     30  O36 63K d   1      15.950 -17.790  68.116  0.00  0.00    -0.388 OA
ATOM     31  H14 63K d   1      16.292 -19.104  66.547  0.00  0.00     0.076 H 
ATOM     32  H15 63K d   1      14.749 -18.188  66.472  0.00  0.00     0.076 H 
ATOM     33  C37 63K d   1      17.310 -17.990  68.487  0.00  0.00     0.042 C 
ATOM     34  C38 63K d   1      18.128 -16.897  67.837  0.00  0.00     0.103 C 
ATOM     35  H16 63K d   1      17.412 -17.935  69.581  0.00  0.00     0.076 H 
ATOM     36  H17 63K d   1      17.653 -18.974  68.136  0.00  0.00     0.076 H 
ATOM     37  H12 63K d   1      19.193 -17.033  68.074  0.00  0.00     0.079 H 
ATOM     38  H13 63K d   1      17.795 -15.913  68.198  0.00  0.00     0.079 H 
ATOM     39  H24 63K d   1      18.320 -17.880  66.095  0.00  0.00     0.280 HD
ENDBRANCH  22  25
ENDBRANCH  19  22
ENDBRANCH  15  19
ENDBRANCH   7  13
BRANCH   6  40
ATOM     40  S16 63K d   1      18.949 -10.366  55.983  0.00  0.00    -0.049 SA
BRANCH  40  41
ATOM     41  C13 63K d   1      18.578  -8.781  56.609  0.00  0.00     0.217 A 
ATOM     42  N14 63K d   1      19.140  -7.642  56.268  0.00  0.00    -0.120 NA
ATOM     43  N15 63K d   1      18.536  -6.652  56.998  0.00  0.00    -0.128 NA
ATOM     44  C11 63K d   1      17.625  -7.216  57.758  0.00  0.00     0.175 A 
ATOM     45  C1  63K d   1      16.719  -6.695  58.692  0.00  0.00    -0.033 A 
ATOM     46  N12 63K d   1      17.608  -8.563  57.541  0.00  0.00    -0.187 N 
ATOM     47  C2  63K d   1      15.887  -7.513  59.343  0.00  0.00    -0.049 A 
ATOM     48  H8  63K d   1      16.693  -5.624  58.887  0.00  0.00     0.089 H 
ATOM     49  C3  63K d   1      16.012  -8.951  59.006  0.00  0.00     0.088 A 
ATOM     50  H7  63K d   1      15.165  -7.148  60.072  0.00  0.00     0.087 H 
ATOM     51  N4  63K d   1      16.833  -9.476  58.146  0.00  0.00    -0.163 NA
BRANCH  49  52
ATOM     52  C5  63K d   1      15.134  -9.827  59.792  0.00  0.00    -0.005 A 
ATOM     53  C6  63K d   1      13.881  -9.402  60.190  0.00  0.00    -0.068 A 
ATOM     54  C7  63K d   1      13.112 -10.265  60.942  0.00  0.00    -0.045 A 
ATOM     55  H1  63K d   1      13.513  -8.419  59.919  0.00  0.00     0.085 H 
ATOM     56  C8  63K d   1      13.605 -11.512  61.281  0.00  0.00     0.116 A 
ATOM     57  H4  63K d   1      12.122  -9.966  61.267  0.00  0.00     0.088 H 
ATOM     58  C9  63K d   1      14.859 -11.925  60.882  0.00  0.00    -0.045 A 
ATOM     59  F17 63K d   1      12.854 -12.354  62.019  0.00  0.00    -0.206 F 
ATOM     60  C10 63K d   1      15.632 -11.072  60.127  0.00  0.00    -0.068 A 
ATOM     61  H5  63K d   1      15.230 -12.905  61.158  0.00  0.00     0.088 H 
ATOM     62  H2  63K d   1      16.620 -11.373  59.799  0.00  0.00     0.085 H 
ENDBRANCH  49  52
ENDBRANCH  40  41
ENDBRANCH   6  40
TORSDOF 7
