REMARK WARNING: 32 MAX_TORS EXCEEDED!!!
REMARK  58 active torsions:
REMARK  status: ('A' for Active; 'I' for Inactive)
REMARK    1  A    between atoms: CA_4  and  C_1 
REMARK       I    between atoms: C_1  and  N_10 
REMARK    2  A    between atoms: CA_4  and  CB_2 
REMARK    3  A    between atoms: CB_2  and  SG_9 
REMARK       I    between atoms: N_5  and  CT_3 
REMARK    4  A    between atoms: CT_3  and  CM_8 
REMARK    5  A    between atoms: CA_4  and  N_5 
REMARK    6  A    between atoms: N_10  and  CA_11 
REMARK    7  A    between atoms: CA_11  and  C_12 
REMARK    8  A    between atoms: CA_11  and  CB_14 
REMARK       I    between atoms: C_12  and  N_19 
REMARK    9  A    between atoms: CB_14  and  CG_15 
REMARK   10  A    between atoms: CG_15  and  CD_16 
REMARK       I    between atoms: CD_16  and  NE2_18 
REMARK   11  A    between atoms: N_19  and  CA_20 
REMARK   12  A    between atoms: CA_20  and  C_21 
REMARK   13  A    between atoms: CA_20  and  CB_23 
REMARK       I    between atoms: C_21  and  N_30 
REMARK   14  A    between atoms: CB_23  and  CG_24 
REMARK   15  A    between atoms: N_30  and  CA_31 
REMARK   16  A    between atoms: CA_31  and  C_32 
REMARK   17  A    between atoms: CA_31  and  CB_34 
REMARK       I    between atoms: C_32  and  N_38 
REMARK   18  A    between atoms: CB_34  and  CG_35 
REMARK   19  A    between atoms: N_38  and  CA_39 
REMARK   20  A    between atoms: CA_39  and  C_40 
REMARK   21  A    between atoms: CA_39  and  CB_42 
REMARK       I    between atoms: C_40  and  N_46 
REMARK   22  A    between atoms: CB_42  and  CG_43 
REMARK   23  A    between atoms: CG_43  and  CD1_44 
REMARK   24  A    between atoms: CG_43  and  CD2_45 
REMARK   25  A    between atoms: N_46  and  CA_47 
REMARK   26  A    between atoms: CA_47  and  C_48 
REMARK   27  A    between atoms: CA_47  and  CB_50 
REMARK       I    between atoms: C_48  and  N_52 
REMARK   28  A    between atoms: CB_50  and  OG_51 
REMARK   29  A    between atoms: N_52  and  CA_53 
REMARK   30  A    between atoms: CA_53  and  C_54 
REMARK   31  A    between atoms: CA_53  and  CB_56 
REMARK       I    between atoms: C_54  and  N_59 
REMARK   32  A    between atoms: CB_56  and  OG1_57 
REMARK   33  A    between atoms: CB_56  and  CG2_58 
REMARK   34  A    between atoms: N_59  and  CA_60 
REMARK   35  A    between atoms: CA_60  and  C_61 
REMARK   36  A    between atoms: CA_60  and  CB_63 
REMARK       I    between atoms: C_61  and  N_70 
REMARK   37  A    between atoms: CB_63  and  CG_64 
REMARK   38  A    between atoms: CG_64  and  CD_65 
REMARK   39  A    between atoms: CD_65  and  NE_66 
REMARK       I    between atoms: NE_66  and  CZ_67 
REMARK       I    between atoms: CZ_67  and  NH1_68 
REMARK       I    between atoms: CZ_67  and  NH2_69 
REMARK   40  A    between atoms: N_70  and  CA_71 
REMARK   41  A    between atoms: CA_71  and  C_72 
REMARK   42  A    between atoms: CA_71  and  CB_74 
REMARK       I    between atoms: C_72  and  N_81 
REMARK   43  A    between atoms: CB_74  and  CG_75 
REMARK   44  A    between atoms: CG_75  and  CD_76 
REMARK   45  A    between atoms: CD_76  and  NE_77 
REMARK       I    between atoms: NE_77  and  CZ_78 
REMARK       I    between atoms: CZ_78  and  NH1_79 
REMARK   46  A    between atoms: N_81  and  CA_82 
REMARK   47  A    between atoms: CA_82  and  C_83 
REMARK   48  A    between atoms: CA_82  and  CB_85 
REMARK       I    between atoms: C_83  and  N_89 
REMARK   49  A    between atoms: CB_85  and  CG_86 
REMARK   50  A    between atoms: CG_86  and  CD1_87 
REMARK   51  A    between atoms: CG_86  and  CD2_88 
REMARK   52  A    between atoms: N_89  and  CA_90 
REMARK   53  A    between atoms: CA_90  and  C_91 
REMARK   54  A    between atoms: CA_90  and  CB_93 
REMARK   55  A    between atoms: CB_93  and  CG_94 
REMARK   56  A    between atoms: CG_94  and  CD_95 
REMARK   57  A    between atoms: CD_95  and  CE_96 
REMARK   58  A    between atoms: CE_96  and  NZ_97 
ROOT
ATOM      1  CA  THR d   1      -3.250  35.035  33.607  0.00  0.00     0.113 C 
ATOM      2  H47 THR d   1      -2.252  34.973  34.066  0.00  0.00     0.091 H 
ENDROOT
BRANCH   1   3
ATOM      3  N   THR d   1      -3.828  36.322  33.977  0.00  0.00    -0.344 N 
ATOM      4  C   SER d   1      -3.092  37.321  34.463  0.00  0.00     0.243 C 
ATOM      5  O   SER d   1      -1.861  37.238  34.568  0.00  0.00    -0.271 OA
ATOM      6  H46 THR d   1      -4.812  36.460  33.862  0.00  0.00     0.163 HD
BRANCH   4   7
ATOM      7  CA  SER d   1      -3.820  38.596  34.883  0.00  0.00     0.109 C 
ATOM      8  H42 SER d   1      -3.077  39.404  34.953  0.00  0.00     0.090 H 
BRANCH   7   9
ATOM      9  N   SER d   1      -4.833  38.996  33.911  0.00  0.00    -0.344 N 
ATOM     10  C   LEU d   1      -4.475  39.553  32.753  0.00  0.00     0.241 C 
ATOM     11  O   LEU d   1      -3.289  39.701  32.430  0.00  0.00    -0.271 OA
ATOM     12  H41 SER d   1      -5.801  38.852  34.114  0.00  0.00     0.163 HD
BRANCH  10  13
ATOM     13  CA  LEU d   1      -5.586  39.994  31.809  0.00  0.00     0.089 C 
ATOM     14  H31 LEU d   1      -5.253  39.809  30.777  0.00  0.00     0.087 H 
BRANCH  13  15
ATOM     15  N   LEU d   1      -6.820  39.243  32.031  0.00  0.00    -0.346 N 
ATOM     16  C   ASP d   1      -6.890  37.938  31.743  0.00  0.00     0.241 C 
ATOM     17  O   ASP d   1      -5.927  37.280  31.336  0.00  0.00    -0.271 OA
ATOM     18  H30 LEU d   1      -7.622  39.710  32.403  0.00  0.00     0.163 HD
BRANCH  16  19
ATOM     19  CA  ASP d   1      -8.239  37.266  31.962  0.00  0.00     0.098 C 
ATOM     20  H27 ASP d   1      -8.953  38.016  32.332  0.00  0.00     0.088 H 
BRANCH  19  21
ATOM     21  N   ASP d   1      -8.717  36.746  30.687  0.00  0.00    -0.345 N 
ATOM     22  C   PHE d   1      -9.756  37.265  30.034  0.00  0.00     0.241 C 
ATOM     23  O   PHE d   1     -10.363  38.267  30.425  0.00  0.00    -0.271 OA
ATOM     24  H26 ASP d   1      -8.243  35.963  30.284  0.00  0.00     0.163 HD
BRANCH  22  25
ATOM     25  CA  PHE d   1     -10.167  36.547  28.754  0.00  0.00     0.093 C 
ATOM     26  H18 PHE d   1      -9.774  35.520  28.787  0.00  0.00     0.088 H 
BRANCH  25  27
ATOM     27  N   PHE d   1     -11.617  36.489  28.643  0.00  0.00    -0.346 N 
ATOM     28  C   GLN d   1     -12.344  35.730  29.457  0.00  0.00     0.241 C 
ATOM     29  O   GLN d   1     -11.856  35.003  30.328  0.00  0.00    -0.271 OA
ATOM     30  H17 PHE d   1     -12.076  37.032  27.939  0.00  0.00     0.163 HD
BRANCH  28  31
ATOM     31  CA  GLN d   1     -13.852  35.799  29.248  0.00  0.00     0.090 C 
ATOM     32  H10 GLN d   1     -14.042  36.117  28.212  0.00  0.00     0.087 H 
BRANCH  31  33
ATOM     33  N   GLN d   1     -14.475  34.497  29.440  0.00  0.00    -0.346 N 
ATOM     34  C   SC2 d   1     -15.167  33.913  28.467  0.00  0.00     0.241 C 
ATOM     35  O   SC2 d   1     -15.420  34.453  27.368  0.00  0.00    -0.271 OA
ATOM     36  H9  GLN d   1     -14.380  34.033  30.321  0.00  0.00     0.163 HD
BRANCH  34  37
ATOM     37  CA  SC2 d   1     -15.668  32.494  28.721  0.00  0.00     0.097 C 
ATOM     38  H3  SC2 d   1     -15.677  32.295  29.803  0.00  0.00     0.088 H 
BRANCH  37  39
ATOM     39  CB  SC2 d   1     -14.703  31.532  28.030  0.00  0.00     0.001 C 
ATOM     40  H1  SC2 d   1     -13.676  31.804  28.316  0.00  0.00     0.052 H 
ATOM     41  H2  SC2 d   1     -14.822  31.642  26.942  0.00  0.00     0.052 H 
BRANCH  39  42
ATOM     42  SG  SC2 d   1     -14.979  29.778  28.468  0.00  0.00    -0.180 SA
ATOM     43  H8  SC2 d   1     -14.312  29.202  27.980  0.00  0.00     0.101 HD
ENDBRANCH  39  42
ENDBRANCH  37  39
BRANCH  37  44
ATOM     44  N   SC2 d   1     -17.026  32.321  28.192  0.00  0.00    -0.347 N 
ATOM     45  CT  SC2 d   1     -18.091  32.198  29.009  0.00  0.00     0.214 C 
ATOM     46  OT  SC2 d   1     -18.031  32.280  30.237  0.00  0.00    -0.274 OA
ATOM     47  H4  SC2 d   1     -17.165  32.294  27.202  0.00  0.00     0.163 HD
BRANCH  45  48
ATOM     48  CM  SC2 d   1     -19.427  31.944  28.314  0.00  0.00    -0.003 C 
ATOM     49  H5  SC2 d   1     -20.223  31.860  29.069  0.00  0.00     0.040 H 
ATOM     50  H6  SC2 d   1     -19.369  31.009  27.738  0.00  0.00     0.040 H 
ATOM     51  H7  SC2 d   1     -19.652  32.780  27.635  0.00  0.00     0.040 H 
ENDBRANCH  45  48
ENDBRANCH  37  44
ENDBRANCH  34  37
ENDBRANCH  31  33
BRANCH  31  52
ATOM     52  CB  GLN d   1     -14.454  36.842  30.188  0.00  0.00    -0.030 C 
ATOM     53  H11 GLN d   1     -13.691  37.608  30.391  0.00  0.00     0.037 H 
ATOM     54  H12 GLN d   1     -14.732  36.343  31.128  0.00  0.00     0.037 H 
BRANCH  52  55
ATOM     55  CG  GLN d   1     -15.684  37.528  29.629  0.00  0.00     0.011 C 
ATOM     56  H13 GLN d   1     -16.574  36.954  29.927  0.00  0.00     0.047 H 
ATOM     57  H14 GLN d   1     -15.610  37.547  28.532  0.00  0.00     0.047 H 
BRANCH  55  58
ATOM     58  CD  GLN d   1     -15.833  38.950  30.130  0.00  0.00     0.215 C 
ATOM     59  OE1 GLN d   1     -16.510  39.773  29.507  0.00  0.00    -0.274 OA
ATOM     60  NE2 GLN d   1     -15.193  39.252  31.258  0.00  0.00    -0.370 N 
ATOM     61  H15 GLN d   1     -15.255  40.176  31.636  0.00  0.00     0.159 HD
ATOM     62  H16 GLN d   1     -14.650  38.555  31.727  0.00  0.00     0.159 HD
ENDBRANCH  55  58
ENDBRANCH  52  55
ENDBRANCH  31  52
ENDBRANCH  28  31
ENDBRANCH  25  27
BRANCH  25  63
ATOM     63  CB  PHE d   1      -9.586  37.255  27.534  0.00  0.00    -0.014 C 
ATOM     64  H19 PHE d   1     -10.019  38.265  27.482  0.00  0.00     0.043 H 
ATOM     65  H20 PHE d   1      -9.871  36.687  26.636  0.00  0.00     0.043 H 
BRANCH  63  66
ATOM     66  CG  PHE d   1      -8.091  37.383  27.556  0.00  0.00    -0.056 A 
ATOM     67  CD1 PHE d   1      -7.286  36.287  27.312  0.00  0.00    -0.077 A 
ATOM     68  CE1 PHE d   1      -5.914  36.405  27.321  0.00  0.00    -0.082 A 
ATOM     69  H21 PHE d   1      -7.740  35.323  27.111  0.00  0.00     0.084 H 
ATOM     70  CZ  PHE d   1      -5.327  37.626  27.569  0.00  0.00    -0.083 A 
ATOM     71  H23 PHE d   1      -5.295  35.535  27.133  0.00  0.00     0.083 H 
ATOM     72  CE2 PHE d   1      -6.114  38.729  27.809  0.00  0.00    -0.082 A 
ATOM     73  H25 PHE d   1      -4.247  37.718  27.575  0.00  0.00     0.083 H 
ATOM     74  CD2 PHE d   1      -7.490  38.607  27.799  0.00  0.00    -0.077 A 
ATOM     75  H24 PHE d   1      -5.655  39.691  28.005  0.00  0.00     0.083 H 
ATOM     76  H22 PHE d   1      -8.107  39.479  27.983  0.00  0.00     0.084 H 
ENDBRANCH  63  66
ENDBRANCH  25  63
ENDBRANCH  22  25
ENDBRANCH  19  21
BRANCH  19  77
ATOM     77  CB  ASP d   1      -8.135  36.144  32.996  0.00  0.00     0.043 C 
ATOM     78  H28 ASP d   1      -7.384  35.418  32.651  0.00  0.00     0.052 H 
ATOM     79  H29 ASP d   1      -9.114  35.649  33.076  0.00  0.00     0.052 H 
BRANCH  77  80
ATOM     80  CG  ASP d   1      -7.732  36.641  34.369  0.00  0.00     0.175 C 
ATOM     81  OD1 ASP d   1      -7.736  37.868  34.586  0.00  0.00    -0.648 OA
ATOM     82  OD2 ASP d   1      -7.426  35.798  35.238  0.00  0.00    -0.648 OA
ENDBRANCH  77  80
ENDBRANCH  19  77
ENDBRANCH  16  19
ENDBRANCH  13  15
BRANCH  13  83
ATOM     83  CB  LEU d   1      -5.845  41.490  31.975  0.00  0.00    -0.035 C 
ATOM     84  H32 LEU d   1      -4.886  42.014  31.850  0.00  0.00     0.037 H 
ATOM     85  H33 LEU d   1      -6.223  41.655  32.995  0.00  0.00     0.037 H 
BRANCH  83  86
ATOM     86  CG  LEU d   1      -6.844  42.108  31.002  0.00  0.00    -0.059 C 
ATOM     87  H34 LEU d   1      -7.757  41.494  30.996  0.00  0.00     0.038 H 
BRANCH  86  88
ATOM     88  CD1 LEU d   1      -7.205  43.513  31.446  0.00  0.00    -0.073 C 
ATOM     89  H35 LEU d   1      -7.925  43.948  30.737  0.00  0.00     0.028 H 
ATOM     90  H36 LEU d   1      -6.297  44.134  31.473  0.00  0.00     0.028 H 
ATOM     91  H37 LEU d   1      -7.654  43.476  32.449  0.00  0.00     0.028 H 
ENDBRANCH  86  88
BRANCH  86  92
ATOM     92  CD2 LEU d   1      -6.266  42.132  29.605  0.00  0.00    -0.073 C 
ATOM     93  H38 LEU d   1      -6.009  41.108  29.297  0.00  0.00     0.028 H 
ATOM     94  H39 LEU d   1      -5.360  42.756  29.593  0.00  0.00     0.028 H 
ATOM     95  H40 LEU d   1      -7.008  42.549  28.908  0.00  0.00     0.028 H 
ENDBRANCH  86  92
ENDBRANCH  83  86
ENDBRANCH  13  83
ENDBRANCH  10  13
ENDBRANCH   7   9
BRANCH   7  96
ATOM     96  CB  SER d   1      -4.462  38.409  36.258  0.00  0.00     0.044 C 
ATOM     97  H43 SER d   1      -3.693  38.079  36.972  0.00  0.00     0.077 H 
ATOM     98  H44 SER d   1      -5.248  37.643  36.186  0.00  0.00     0.077 H 
BRANCH  96  99
ATOM     99  OG  SER d   1      -5.036  39.618  36.723  0.00  0.00    -0.398 OA
ATOM    100  H45 SER d   1      -4.360  40.282  36.791  0.00  0.00     0.209 HD
ENDBRANCH  96  99
ENDBRANCH   7  96
ENDBRANCH   4   7
ENDBRANCH   1   3
BRANCH   1 101
ATOM    101  C   THR d   1      -3.088  34.847  32.104  0.00  0.00     0.243 C 
ATOM    102  O   THR d   1      -2.490  33.849  31.684  0.00  0.00    -0.271 OA
ATOM    103  N   ARG d   1      -3.606  35.767  31.293  0.00  0.00    -0.346 N 
ATOM    104  H53 ARG d   1      -3.996  36.594  31.698  0.00  0.00     0.163 HD
BRANCH 103 105
ATOM    105  CA  ARG d   1      -3.631  35.625  29.836  0.00  0.00     0.089 C 
ATOM    106  H54 ARG d   1      -4.210  36.470  29.434  0.00  0.00     0.087 H 
BRANCH 105 107
ATOM    107  C   ARG d   1      -4.329  34.339  29.400  0.00  0.00     0.241 C 
ATOM    108  O   ARG d   1      -4.055  33.806  28.323  0.00  0.00    -0.271 OA
ATOM    109  N   ARG d   1      -5.240  33.837  30.226  0.00  0.00    -0.346 N 
ATOM    110  H66 ARG d   1      -5.413  34.309  31.091  0.00  0.00     0.163 HD
BRANCH 109 111
ATOM    111  CA  ARG d   1      -5.996  32.634  29.929  0.00  0.00     0.089 C 
ATOM    112  H67 ARG d   1      -5.724  32.288  28.921  0.00  0.00     0.087 H 
BRANCH 111 113
ATOM    113  C   ARG d   1      -7.482  32.951  29.958  0.00  0.00     0.241 C 
ATOM    114  O   ARG d   1      -7.916  33.958  30.527  0.00  0.00    -0.271 OA
ATOM    115  N   LEU d   1      -8.263  32.079  29.332  0.00  0.00    -0.346 N 
ATOM    116  H79 LEU d   1      -7.849  31.304  28.854  0.00  0.00     0.163 HD
BRANCH 115 117
ATOM    117  CA  LEU d   1      -9.710  32.231  29.329  0.00  0.00     0.089 C 
ATOM    118  H80 LEU d   1      -9.951  33.297  29.202  0.00  0.00     0.087 H 
BRANCH 117 119
ATOM    119  C   LEU d   1     -10.277  31.758  30.659  0.00  0.00     0.241 C 
ATOM    120  O   LEU d   1      -9.890  30.707  31.174  0.00  0.00    -0.271 OA
ATOM    121  N   LYS d   1     -11.182  32.542  31.219  0.00  0.00    -0.345 N 
ATOM    122  H90 LYS d   1     -11.435  33.394  30.760  0.00  0.00     0.163 HD
BRANCH 121 123
ATOM    123  CA  LYS d   1     -11.822  32.206  32.482  0.00  0.00     0.096 C 
ATOM    124  H91 LYS d   1     -11.378  31.276  32.865  0.00  0.00     0.089 H 
BRANCH 123 125
ATOM    125  C   LYS d   1     -13.304  31.983  32.264  0.00  0.00     0.196 C 
ATOM    126  O   LYS d   1     -14.004  32.858  31.757  0.00  0.00    -0.646 OA
ATOM    127  OXT LYS d   1     -13.835  30.923  32.590  0.00  0.00    -0.646 OA
ENDBRANCH 123 125
BRANCH 123 128
ATOM    128  CB  LYS d   1     -11.594  33.317  33.514  0.00  0.00    -0.037 C 
ATOM    129  H92 LYS d   1     -12.436  34.022  33.454  0.00  0.00     0.036 H 
ATOM    130  H93 LYS d   1     -10.660  33.839  33.259  0.00  0.00     0.036 H 
BRANCH 128 131
ATOM    131  CG  LYS d   1     -11.488  32.821  34.944  0.00  0.00    -0.061 C 
ATOM    132  H94 LYS d   1     -10.613  32.160  35.032  0.00  0.00     0.033 H 
ATOM    133  H95 LYS d   1     -12.399  32.259  35.199  0.00  0.00     0.033 H 
BRANCH 131 134
ATOM    134  CD  LYS d   1     -11.333  33.986  35.915  0.00  0.00    -0.043 C 
ATOM    135  H96 LYS d   1     -12.330  34.353  36.201  0.00  0.00     0.035 H 
ATOM    136  H97 LYS d   1     -10.772  34.794  35.423  0.00  0.00     0.035 H 
BRANCH 134 137
ATOM    137  CE  LYS d   1     -10.583  33.548  37.168  0.00  0.00     0.080 C 
ATOM    138  H98 LYS d   1     -11.081  32.664  37.593  0.00  0.00     0.075 H 
ATOM    139  H99 LYS d   1     -10.602  34.367  37.902  0.00  0.00     0.075 H 
BRANCH 137 140
ATOM    140  NZ  LYS d   1      -9.163  33.205  36.859  0.00  0.00    -0.079 N 
ATOM    141 0H10 LYS d   1      -8.694  32.920  37.705  0.00  0.00     0.274 HD
ATOM    142 1H10 LYS d   1      -8.699  34.012  36.473  0.00  0.00     0.274 HD
ATOM    143 2H10 LYS d   1      -9.137  32.451  36.190  0.00  0.00     0.274 HD
ENDBRANCH 137 140
ENDBRANCH 134 137
ENDBRANCH 131 134
ENDBRANCH 128 131
ENDBRANCH 123 128
ENDBRANCH 121 123
ENDBRANCH 117 119
BRANCH 117 144
ATOM    144  CB  LEU d   1     -10.336  31.452  28.173  0.00  0.00    -0.035 C 
ATOM    145  H81 LEU d   1     -11.415  31.364  28.370  0.00  0.00     0.037 H 
ATOM    146  H82 LEU d   1      -9.883  30.450  28.157  0.00  0.00     0.037 H 
BRANCH 144 147
ATOM    147  CG  LEU d   1     -10.161  32.068  26.783  0.00  0.00    -0.059 C 
ATOM    148  H83 LEU d   1      -9.098  32.311  26.639  0.00  0.00     0.038 H 
BRANCH 147 149
ATOM    149  CD1 LEU d   1     -10.581  31.087  25.701  0.00  0.00    -0.073 C 
ATOM    150  H84 LEU d   1     -10.447  31.551  24.713  0.00  0.00     0.028 H 
ATOM    151  H85 LEU d   1     -11.639  30.819  25.839  0.00  0.00     0.028 H 
ATOM    152  H86 LEU d   1      -9.962  30.180  25.767  0.00  0.00     0.028 H 
ENDBRANCH 147 149
BRANCH 147 153
ATOM    153  CD2 LEU d   1     -10.965  33.344  26.683  0.00  0.00    -0.073 C 
ATOM    154  H87 LEU d   1     -10.647  34.040  27.473  0.00  0.00     0.028 H 
ATOM    155  H88 LEU d   1     -12.034  33.114  26.805  0.00  0.00     0.028 H 
ATOM    156  H89 LEU d   1     -10.799  33.806  25.699  0.00  0.00     0.028 H 
ENDBRANCH 147 153
ENDBRANCH 144 147
ENDBRANCH 117 144
ENDBRANCH 115 117
ENDBRANCH 111 113
BRANCH 111 157
ATOM    157  CB  ARG d   1      -5.685  31.515  30.930  0.00  0.00    -0.036 C 
ATOM    158  H68 ARG d   1      -6.380  30.683  30.743  0.00  0.00     0.036 H 
ATOM    159  H69 ARG d   1      -5.846  31.907  31.945  0.00  0.00     0.036 H 
BRANCH 157 160
ATOM    160  CG  ARG d   1      -4.271  30.978  30.848  0.00  0.00    -0.048 C 
ATOM    161  H70 ARG d   1      -4.098  30.294  31.692  0.00  0.00     0.035 H 
ATOM    162  H71 ARG d   1      -3.564  31.819  30.906  0.00  0.00     0.035 H 
BRANCH 160 163
ATOM    163  CD  ARG d   1      -4.041  30.228  29.549  0.00  0.00     0.009 C 
ATOM    164  H72 ARG d   1      -3.057  29.737  29.588  0.00  0.00     0.064 H 
ATOM    165  H73 ARG d   1      -4.061  30.943  28.713  0.00  0.00     0.064 H 
BRANCH 163 166
ATOM    166  NE  ARG d   1      -5.067  29.218  29.334  0.00  0.00    -0.227 N 
ATOM    167  CZ  ARG d   1      -5.090  28.041  29.945  0.00  0.00     0.665 C 
ATOM    168  NH1 ARG d   1      -4.140  27.723  30.817  0.00  0.00    -0.235 N 
ATOM    169  NH2 ARG d   1      -6.066  27.184  29.685  0.00  0.00    -0.235 N 
ATOM    170  H75 ARG d   1      -4.160  26.808  31.290  0.00  0.00     0.174 HD
ATOM    171  H76 ARG d   1      -3.383  28.391  31.020  0.00  0.00     0.174 HD
ATOM    172  H77 ARG d   1      -6.802  27.432  29.009  0.00  0.00     0.174 HD
ATOM    173  H78 ARG d   1      -6.089  26.270  30.159  0.00  0.00     0.174 HD
ATOM    174  H74 ARG d   1      -5.822  29.430  28.666  0.00  0.00     0.177 HD
ENDBRANCH 163 166
ENDBRANCH 160 163
ENDBRANCH 157 160
ENDBRANCH 111 157
ENDBRANCH 109 111
ENDBRANCH 105 107
BRANCH 105 175
ATOM    175  CB  ARG d   1      -2.223  35.700  29.237  0.00  0.00    -0.036 C 
ATOM    176  H55 ARG d   1      -2.303  35.579  28.147  0.00  0.00     0.036 H 
ATOM    177  H56 ARG d   1      -1.625  34.877  29.654  0.00  0.00     0.036 H 
BRANCH 175 178
ATOM    178  CG  ARG d   1      -1.501  37.010  29.522  0.00  0.00    -0.048 C 
ATOM    179  H57 ARG d   1      -1.134  36.995  30.559  0.00  0.00     0.035 H 
ATOM    180  H58 ARG d   1      -2.211  37.841  29.396  0.00  0.00     0.035 H 
BRANCH 178 181
ATOM    181  CD  ARG d   1      -0.318  37.228  28.585  0.00  0.00     0.009 C 
ATOM    182  H59 ARG d   1      -0.688  37.287  27.551  0.00  0.00     0.064 H 
ATOM    183  H60 ARG d   1       0.373  36.378  28.679  0.00  0.00     0.064 H 
BRANCH 181 184
ATOM    184  NE  ARG d   1       0.400  38.460  28.903  0.00  0.00    -0.227 N 
ATOM    185  CZ  ARG d   1       1.391  38.961  28.171  0.00  0.00     0.665 C 
ATOM    186  NH1 ARG d   1       1.782  38.335  27.070  0.00  0.00    -0.235 N 
ATOM    187  NH2 ARG d   1       1.987  40.092  28.537  0.00  0.00    -0.235 N 
ATOM    188  H62 ARG d   1       2.549  38.722  26.502  0.00  0.00     0.174 HD
ATOM    189  H63 ARG d   1       1.319  37.461  26.782  0.00  0.00     0.174 HD
ATOM    190  H64 ARG d   1       1.685  40.580  29.392  0.00  0.00     0.174 HD
ATOM    191  H65 ARG d   1       2.751  40.480  27.965  0.00  0.00     0.174 HD
ATOM    192  H61 ARG d   1       0.120  38.975  29.750  0.00  0.00     0.177 HD
ENDBRANCH 181 184
ENDBRANCH 178 181
ENDBRANCH 175 178
ENDBRANCH 105 175
ENDBRANCH 103 105
ENDBRANCH   1 101
BRANCH   1 193
ATOM    193  CB  THR d   1      -4.113  33.892  34.152  0.00  0.00     0.060 C 
ATOM    194  H48 THR d   1      -3.623  32.931  33.936  0.00  0.00     0.086 H 
BRANCH 193 195
ATOM    195  OG1 THR d   1      -5.397  33.927  33.516  0.00  0.00    -0.393 OA
ATOM    196  H49 THR d   1      -5.817  34.759  33.698  0.00  0.00     0.210 HD
ENDBRANCH 193 195
BRANCH 193 197
ATOM    197  CG2 THR d   1      -4.293  34.037  35.658  0.00  0.00    -0.050 C 
ATOM    198  H50 THR d   1      -4.914  33.211  36.034  0.00  0.00     0.031 H 
ATOM    199  H51 THR d   1      -4.786  34.995  35.878  0.00  0.00     0.031 H 
ATOM    200  H52 THR d   1      -3.309  34.010  36.149  0.00  0.00     0.031 H 
ENDBRANCH 193 197
ENDBRANCH   1 193
TORSDOF 58
