REMARK  15 active torsions:
REMARK  status: ('A' for Active; 'I' for Inactive)
REMARK    1  A    between atoms: C2_2  and  N2_16 
REMARK    2  A    between atoms: N3_3  and  C5_5 
REMARK    3  A    between atoms: C6_6  and  O16_26 
REMARK    4  A    between atoms: C8_7  and  C9_17 
REMARK    5  A    between atoms: C11_8  and  C12_9 
REMARK    6  A    between atoms: C10_18  and  C11_8 
REMARK    7  A    between atoms: C12_9  and  C13_19 
REMARK    8  A    between atoms: C14_10  and  C15_11 
REMARK    9  A    between atoms: C13_19  and  C14_10 
REMARK       I    between atoms: C15_11  and  N6_31 
REMARK   10  A    between atoms: C16_12  and  C17_13 
REMARK   11  A    between atoms: N6_31  and  C16_12 
REMARK   12  A    between atoms: C16_12  and  C52_32 
REMARK   13  A    between atoms: C17_13  and  C18_14 
REMARK   14  A    between atoms: C7_15  and  O15_25 
REMARK       I    between atoms: C9_17  and  N5_22 
REMARK   15  A    between atoms: N5_22  and  C10_18 
ROOT
ATOM      1  C9  66M d   1      26.693  33.534   9.591  0.00  0.00     0.249 C 
ATOM      2  N5  66M d   1      25.900  34.300  10.345  0.00  0.00    -0.359 N 
ATOM      3  O1  66M d   1      27.215  32.510  10.015  0.00  0.00    -0.271 OA
ATOM      4  H22 66M d   1      25.546  35.154   9.964  0.00  0.00     0.162 HD
ENDROOT
BRANCH   2   5
ATOM      5  C10 66M d   1      25.537  33.931  11.697  0.00  0.00    -0.005 C 
ATOM      6  H18 66M d   1      24.637  34.496  11.979  0.00  0.00     0.064 H 
ATOM      7  H19 66M d   1      25.314  32.854  11.713  0.00  0.00     0.064 H 
BRANCH   5   8
ATOM      8  C11 66M d   1      26.610  34.207  12.723  0.00  0.00    -0.050 C 
ATOM      9  H5  66M d   1      27.560  33.765  12.388  0.00  0.00     0.035 H 
ATOM     10  H6  66M d   1      26.733  35.294  12.842  0.00  0.00     0.035 H 
BRANCH   8  11
ATOM     11  C12 66M d   1      26.208  33.595  14.050  0.00  0.00    -0.063 C 
ATOM     12  H7  66M d   1      26.337  32.505  13.976  0.00  0.00     0.033 H 
ATOM     13  H8  66M d   1      25.147  33.827  14.225  0.00  0.00     0.033 H 
BRANCH  11  14
ATOM     14  C13 66M d   1      27.003  34.084  15.253  0.00  0.00    -0.057 C 
ATOM     15  H20 66M d   1      26.754  35.142  15.424  0.00  0.00     0.033 H 
ATOM     16  H21 66M d   1      28.074  33.993  15.019  0.00  0.00     0.033 H 
BRANCH  14  17
ATOM     17  C14 66M d   1      26.728  33.315  16.538  0.00  0.00     0.009 C 
ATOM     18  H9  66M d   1      27.144  32.302  16.436  0.00  0.00     0.047 H 
ATOM     19  H10 66M d   1      27.226  33.834  17.370  0.00  0.00     0.047 H 
BRANCH  17  20
ATOM     20  C15 66M d   1      25.258  33.202  16.853  0.00  0.00     0.218 C 
ATOM     21  O14 66M d   1      24.602  34.175  17.238  0.00  0.00    -0.274 OA
ATOM     22  N6  66M d   1      24.707  32.010  16.617  0.00  0.00    -0.346 N 
ATOM     23  H26 66M d   1      25.321  31.255  16.387  0.00  0.00     0.163 HD
BRANCH  22  24
ATOM     24  C16 66M d   1      23.283  31.724  16.668  0.00  0.00     0.102 C 
ATOM     25  H11 66M d   1      22.792  32.468  17.312  0.00  0.00     0.090 H 
BRANCH  24  26
ATOM     26  C17 66M d   1      23.122  30.338  17.284  0.00  0.00     0.011 C 
ATOM     27  H12 66M d   1      23.784  30.273  18.160  0.00  0.00     0.047 H 
ATOM     28  H13 66M d   1      23.429  29.592  16.536  0.00  0.00     0.047 H 
BRANCH  26  29
ATOM     29  C18 66M d   1      21.737  30.014  17.722  0.00  0.00     0.090 C 
ATOM     30  O11 66M d   1      21.136  30.735  18.523  0.00  0.00    -0.307 OA
ATOM     31  H14 66M d   1      21.245  29.125  17.329  0.00  0.00     0.143 H 
ENDBRANCH  26  29
ENDBRANCH  24  26
BRANCH  24  32
ATOM     32  C52 66M d   1      22.627  31.777  15.287  0.00  0.00     0.197 C 
ATOM     33  O13 66M d   1      22.392  32.979  14.828  0.00  0.00    -0.646 OA
ATOM     34  O12 66M d   1      22.370  30.750  14.652  0.00  0.00    -0.646 OA
ENDBRANCH  24  32
ENDBRANCH  22  24
ENDBRANCH  17  20
ENDBRANCH  14  17
ENDBRANCH  11  14
ENDBRANCH   8  11
ENDBRANCH   5   8
ENDBRANCH   2   5
BRANCH   1  35
ATOM     35  C8  66M d   1      27.024  34.041   8.207  0.00  0.00     0.144 C 
ATOM     36  C7  66M d   1      26.788  32.945   7.155  0.00  0.00     0.098 C 
ATOM     37  C6  66M d   1      27.811  33.328   6.091  0.00  0.00     0.105 C 
ATOM     38  H15 66M d   1      27.015  31.952   7.570  0.00  0.00     0.091 H 
ATOM     39  C5  66M d   1      28.993  33.739   6.954  0.00  0.00     0.140 C 
ATOM     40  H3  66M d   1      28.049  32.479   5.434  0.00  0.00     0.093 H 
ATOM     41  O   66M d   1      28.431  34.300   8.133  0.00  0.00    -0.346 OA
ATOM     42  H2  66M d   1      29.573  34.504   6.417  0.00  0.00     0.123 H 
ATOM     43  H4  66M d   1      26.435  34.942   7.981  0.00  0.00     0.102 H 
BRANCH  36  44
ATOM     44  O15 66M d   1      25.441  32.931   6.664  0.00  0.00    -0.390 OA
ATOM     45  H23 66M d   1      25.243  33.769   6.262  0.00  0.00     0.210 HD
ENDBRANCH  36  44
BRANCH  37  46
ATOM     46  O16 66M d   1      27.392  34.450   5.310  0.00  0.00    -0.388 OA
ATOM     47  H24 66M d   1      26.576  34.242   4.871  0.00  0.00     0.210 HD
ENDBRANCH  37  46
BRANCH  39  48
ATOM     48  N3  66M d   1      29.917  32.640   7.320  0.00  0.00    -0.294 N 
ATOM     49  C4  66M d   1      29.975  31.946   8.500  0.00  0.00     0.071 A 
ATOM     50  N4  66M d   1      30.913  31.026   8.539  0.00  0.00    -0.236 NA
ATOM     51  H1  66M d   1      29.302  32.140   9.334  0.00  0.00     0.144 H 
ATOM     52  C1  66M d   1      31.531  31.135   7.303  0.00  0.00     0.149 A 
ATOM     53  C2  66M d   1      32.608  30.438   6.712  0.00  0.00     0.155 A 
ATOM     54  C   66M d   1      30.930  32.126   6.539  0.00  0.00     0.167 A 
ATOM     55  N   66M d   1      32.977  30.792   5.461  0.00  0.00    -0.222 NA
ATOM     56  C3  66M d   1      32.310  31.776   4.851  0.00  0.00     0.091 A 
ATOM     57  N1  66M d   1      31.274  32.494   5.302  0.00  0.00    -0.222 NA
ATOM     58  H25 66M d   1      32.655  32.027   3.855  0.00  0.00     0.146 H 
BRANCH  53  59
ATOM     59  N2  66M d   1      33.244  29.415   7.301  0.00  0.00    -0.382 N 
ATOM     60  H16 66M d   1      34.024  28.947   6.818  0.00  0.00     0.157 HD
ATOM     61  H17 66M d   1      32.953  29.098   8.237  0.00  0.00     0.157 HD
ENDBRANCH  53  59
ENDBRANCH  39  48
ENDBRANCH   1  35
TORSDOF 15
