REMARK  6 active torsions:
REMARK  status: ('A' for Active; 'I' for Inactive)
REMARK    1  A    between atoms: C1_1  and  C9_7 
REMARK    2  A    between atoms: C1_1  and  C10_8 
REMARK    3  A    between atoms: N3_3  and  C7_6 
REMARK    4  A    between atoms: C4_4  and  N6_19 
REMARK    5  A    between atoms: C17_15  and  N21_21 
REMARK       I    between atoms: N21_21  and  C22_22 
REMARK    6  A    between atoms: C22_22  and  C24_24 
ROOT
ATOM      1  C1  66H d   1      21.520  10.485  21.893  0.00  0.00     0.184 A 
ATOM      2  C2  66H d   1      21.718  11.625  22.862  0.00  0.00     0.276 A 
ATOM      3  N3  66H d   1      22.194  11.088  24.047  0.00  0.00    -0.153 N 
ATOM      4  C4  66H d   1      22.196   9.714  23.994  0.00  0.00     0.677 A 
ATOM      5  N5  66H d   1      21.776   9.334  22.753  0.00  0.00    -0.199 N 
ATOM      6  O8  66H d   1      21.519  12.807  22.600  0.00  0.00    -0.269 OA
ATOM      7  H1  66H d   1      21.654   8.354  22.459  0.00  0.00     0.179 HD
ENDROOT
BRANCH   1   8
ATOM      8  C9  66H d   1      22.643  10.601  20.888  0.00  0.00    -0.013 A 
ATOM      9  C16 66H d   1      23.937  10.241  21.247  0.00  0.00    -0.048 A 
ATOM     10  C17 66H d   1      25.001  10.354  20.381  0.00  0.00     0.035 A 
ATOM     11  H10 66H d   1      24.114   9.857  22.245  0.00  0.00     0.087 H 
ATOM     12  C18 66H d   1      24.778  10.835  19.104  0.00  0.00    -0.057 A 
ATOM     13  C19 66H d   1      23.497  11.200  18.729  0.00  0.00    -0.080 A 
ATOM     14  H11 66H d   1      25.600  10.925  18.403  0.00  0.00     0.086 H 
ATOM     15  C20 66H d   1      22.439  11.087  19.610  0.00  0.00    -0.073 A 
ATOM     16  H12 66H d   1      23.321  11.580  17.729  0.00  0.00     0.083 H 
ATOM     17  H13 66H d   1      21.444  11.381  19.297  0.00  0.00     0.084 H 
BRANCH  10  18
ATOM     18  N21 66H d   1      26.256   9.956  20.870  0.00  0.00    -0.321 N 
ATOM     19  C22 66H d   1      27.515  10.372  20.459  0.00  0.00     0.279 C 
ATOM     20  O23 66H d   1      27.738  11.002  19.443  0.00  0.00    -0.265 OA
ATOM     21  H16 66H d   1      26.241   9.285  21.611  0.00  0.00     0.169 HD
BRANCH  19  22
ATOM     22  C24 66H d   1      28.579   9.962  21.340  0.00  0.00     0.142 A 
ATOM     23  O25 66H d   1      28.303   9.063  22.319  0.00  0.00    -0.317 OA
ATOM     24  C26 66H d   1      29.434   8.828  23.038  0.00  0.00     0.020 A 
ATOM     25  C27 66H d   1      30.463   9.568  22.510  0.00  0.00    -0.059 A 
ATOM     26  H17 66H d   1      29.511   8.160  23.895  0.00  0.00     0.123 H 
ATOM     27  C28 66H d   1      29.918  10.299  21.418  0.00  0.00    -0.043 A 
ATOM     28  H18 66H d   1      31.494   9.591  22.859  0.00  0.00     0.086 H 
ATOM     29  H19 66H d   1      30.452  10.991  20.768  0.00  0.00     0.088 H 
ENDBRANCH  19  22
ENDBRANCH  10  18
ENDBRANCH   1   8
BRANCH   1  30
ATOM     30  C10 66H d   1      20.112  10.386  21.318  0.00  0.00    -0.015 A 
ATOM     31  C11 66H d   1      19.686   9.201  20.736  0.00  0.00    -0.074 A 
ATOM     32  C12 66H d   1      18.422   9.064  20.196  0.00  0.00    -0.082 A 
ATOM     33  H5  66H d   1      20.366   8.357  20.704  0.00  0.00     0.084 H 
ATOM     34  C13 66H d   1      17.553  10.137  20.219  0.00  0.00    -0.083 A 
ATOM     35  H6  66H d   1      18.115   8.121  19.758  0.00  0.00     0.083 H 
ATOM     36  C14 66H d   1      17.945  11.338  20.789  0.00  0.00    -0.082 A 
ATOM     37  H7  66H d   1      16.562  10.040  19.790  0.00  0.00     0.083 H 
ATOM     38  C15 66H d   1      19.219  11.452  21.322  0.00  0.00    -0.074 A 
ATOM     39  H8  66H d   1      17.262  12.179  20.818  0.00  0.00     0.083 H 
ATOM     40  H9  66H d   1      19.528  12.397  21.753  0.00  0.00     0.084 H 
ENDBRANCH   1  30
BRANCH   3  41
ATOM     41  C7  66H d   1      22.510  11.904  25.212  0.00  0.00     0.005 C 
ATOM     42  H2  66H d   1      22.423  12.968  24.948  0.00  0.00     0.058 H 
ATOM     43  H3  66H d   1      23.538  11.691  25.541  0.00  0.00     0.058 H 
ATOM     44  H4  66H d   1      21.808  11.669  26.026  0.00  0.00     0.058 H 
ENDBRANCH   3  41
BRANCH   4  45
ATOM     45  N6  66H d   1      22.586   8.933  24.948  0.00  0.00    -0.234 N 
ATOM     46  H14 66H d   1      22.884   9.331  25.850  0.00  0.00     0.174 HD
ATOM     47  H15 66H d   1      22.599   7.913  24.806  0.00  0.00     0.174 HD
ENDBRANCH   4  45
TORSDOF 6
