REMARK  6 active torsions:
REMARK  status: ('A' for Active; 'I' for Inactive)
REMARK    1  A    between atoms: C1_1  and  C2_2 
REMARK    2  A    between atoms: C2_2  and  C3_3 
REMARK    3  A    between atoms: N6_6  and  C10_10 
REMARK    4  A    between atoms: C7_7  and  N9_9 
REMARK    5  A    between atoms: N19_19  and  C14_14 
REMARK       I    between atoms: C26_26  and  N19_19 
REMARK    6  A    between atoms: C24_24  and  C26_26 
ROOT
ATOM      1  C1  66F d   1      22.736  10.383  20.772  0.00  0.00     0.012 A 
ATOM      2  C13 66F d   1      24.031  10.045  21.162  0.00  0.00    -0.046 A 
ATOM      3  C14 66F d   1      25.138  10.398  20.424  0.00  0.00     0.035 A 
ATOM      4  C15 66F d   1      24.995  11.097  19.232  0.00  0.00    -0.054 A 
ATOM      5  C16 66F d   1      23.717  11.444  18.831  0.00  0.00    -0.043 A 
ATOM      6  C17 66F d   1      22.618  11.111  19.598  0.00  0.00     0.125 A 
ATOM      7  F18 66F d   1      21.377  11.489  19.197  0.00  0.00    -0.205 F 
ATOM      8  H12 66F d   1      24.171   9.484  22.079  0.00  0.00     0.088 H 
ATOM      9  H13 66F d   1      25.859  11.363  18.634  0.00  0.00     0.087 H 
ATOM     10  H14 66F d   1      23.576  11.985  17.902  0.00  0.00     0.088 H 
ENDROOT
BRANCH   1  11
ATOM     11  C2  66F d   1      21.533   9.981  21.611  0.00  0.00     0.088 C 
ATOM     12  C4  66F d   1      20.656  11.127  22.064  0.00  0.00     0.074 C 
ATOM     13  S5  66F d   1      21.552  12.213  23.145  0.00  0.00     0.248 S 
ATOM     14  H4  66F d   1      19.783  10.724  22.599  0.00  0.00     0.063 H 
ATOM     15  H5  66F d   1      20.317  11.693  21.183  0.00  0.00     0.063 H 
ATOM     16  N6  66F d   1      22.428  11.073  24.092  0.00  0.00    -0.113 N 
ATOM     17  O11 66F d   1      20.570  12.832  24.017  0.00  0.00    -0.205 OA
ATOM     18  O12 66F d   1      22.571  12.931  22.445  0.00  0.00    -0.205 OA
ATOM     19  C7  66F d   1      22.368   9.682  23.853  0.00  0.00     0.683 C 
ATOM     20  N8  66F d   1      21.914   9.157  22.757  0.00  0.00    -0.212 N 
ATOM     21  H6  66F d   1      21.820   8.133  22.692  0.00  0.00     0.179 HD
BRANCH  11  22
ATOM     22  C3  66F d   1      20.650   9.038  20.789  0.00  0.00    -0.047 C 
ATOM     23  H1  66F d   1      19.776   8.740  21.387  0.00  0.00     0.031 H 
ATOM     24  H2  66F d   1      21.227   8.143  20.513  0.00  0.00     0.031 H 
ATOM     25  H3  66F d   1      20.313   9.553  19.877  0.00  0.00     0.031 H 
ENDBRANCH  11  22
BRANCH  16  26
ATOM     26  C10 66F d   1      23.061  11.657  25.291  0.00  0.00     0.013 C 
ATOM     27  H9  66F d   1      23.599  10.871  25.841  0.00  0.00     0.059 H 
ATOM     28  H10 66F d   1      22.287  12.093  25.939  0.00  0.00     0.059 H 
ATOM     29  H11 66F d   1      23.769  12.442  24.986  0.00  0.00     0.059 H 
ENDBRANCH  16  26
BRANCH  19  30
ATOM     30  N9  66F d   1      22.811   8.919  24.900  0.00  0.00    -0.234 N 
ATOM     31  H7  66F d   1      23.165   9.373  25.754  0.00  0.00     0.174 HD
ATOM     32  H8  66F d   1      22.791   7.891  24.833  0.00  0.00     0.174 HD
ENDBRANCH  19  30
ENDBRANCH   1  11
BRANCH   3  33
ATOM     33  N19 66F d   1      26.382   9.994  20.926  0.00  0.00    -0.322 N 
ATOM     34  C26 66F d   1      27.642  10.391  20.515  0.00  0.00     0.274 C 
ATOM     35  O27 66F d   1      27.877  11.083  19.533  0.00  0.00    -0.266 OA
ATOM     36  H15 66F d   1      26.356   9.335  21.677  0.00  0.00     0.169 HD
BRANCH  34  37
ATOM     37  C24 66F d   1      28.760   9.948  21.383  0.00  0.00     0.124 A 
ATOM     38  N23 66F d   1      28.482   8.976  22.258  0.00  0.00    -0.252 NA
ATOM     39  C22 66F d   1      29.478   8.561  23.058  0.00  0.00     0.040 A 
ATOM     40  C21 66F d   1      30.751   9.082  23.007  0.00  0.00     0.133 A 
ATOM     41  H17 66F d   1      29.269   7.778  23.778  0.00  0.00     0.119 H 
ATOM     42  C20 66F d   1      31.016  10.077  22.086  0.00  0.00    -0.042 A 
ATOM     43  F28 66F d   1      31.699   8.604  23.831  0.00  0.00    -0.205 F 
ATOM     44  C25 66F d   1      30.009  10.530  21.252  0.00  0.00    -0.047 A 
ATOM     45  H16 66F d   1      32.011  10.502  22.017  0.00  0.00     0.088 H 
ATOM     46  H18 66F d   1      30.192  11.312  20.523  0.00  0.00     0.087 H 
ENDBRANCH  34  37
ENDBRANCH   3  33
TORSDOF 6
