REMARK WARNING: 32 MAX_TORS EXCEEDED!!!
REMARK  43 active torsions:
REMARK  status: ('A' for Active; 'I' for Inactive)
REMARK    1  A    between atoms: N_1  and  CA_2 
REMARK    2  A    between atoms: CA_2  and  C_3 
REMARK       I    between atoms: C_3  and  N_5 
REMARK    3  A    between atoms: CA_6  and  C_7 
REMARK       I    between atoms: C_7  and  N_12 
REMARK    4  A    between atoms: CA_13  and  C_14 
REMARK       I    between atoms: C_14  and  N_19 
REMARK    5  A    between atoms: N_19  and  CA_20 
REMARK    6  A    between atoms: CA_20  and  C_21 
REMARK    7  A    between atoms: CA_20  and  CB_23 
REMARK       I    between atoms: C_21  and  N_28 
REMARK    8  A    between atoms: CB_23  and  CG_24 
REMARK    9  A    between atoms: CG_24  and  CD_25 
REMARK   10  A    between atoms: CD_25  and  CE_26 
REMARK   11  A    between atoms: CE_26  and  NZ_27 
REMARK   12  A    between atoms: N_28  and  CA_29 
REMARK   13  A    between atoms: CA_29  and  C_30 
REMARK   14  A    between atoms: CA_29  and  CB_32 
REMARK       I    between atoms: C_30  and  N_37 
REMARK   15  A    between atoms: CB_32  and  CG_33 
REMARK   16  A    between atoms: CG_33  and  CD_34 
REMARK   17  A    between atoms: CD_34  and  CE_35 
REMARK   18  A    between atoms: CE_35  and  NZ_36 
REMARK   19  A    between atoms: N_37  and  CA_38 
REMARK   20  A    between atoms: CA_38  and  C_39 
REMARK   21  A    between atoms: CA_38  and  CB_41 
REMARK       I    between atoms: C_39  and  N_48 
REMARK   22  A    between atoms: CB_41  and  CG_42 
REMARK   23  A    between atoms: CG_42  and  CD_43 
REMARK   24  A    between atoms: CD_43  and  NE_44 
REMARK       I    between atoms: NE_44  and  CZ_45 
REMARK       I    between atoms: CZ_45  and  NH1_46 
REMARK   25  A    between atoms: N_48  and  CA_49 
REMARK   26  A    between atoms: CA_49  and  C_50 
REMARK   27  A    between atoms: CA_49  and  CB_52 
REMARK       I    between atoms: C_50  and  N_53 
REMARK   28  A    between atoms: N_53  and  CA_54 
REMARK   29  A    between atoms: CA_54  and  C_55 
REMARK   30  A    between atoms: CA_54  and  CB_57 
REMARK       I    between atoms: C_55  and  N_62 
REMARK   31  A    between atoms: CB_57  and  CG_58 
REMARK   32  A    between atoms: CG_58  and  CD_59 
REMARK   33  A    between atoms: CD_59  and  CE_60 
REMARK   34  A    between atoms: CE_60  and  NZ_61 
REMARK   35  A    between atoms: N_62  and  CA_63 
REMARK   36  A    between atoms: CA_63  and  C_64 
REMARK   37  A    between atoms: CA_63  and  CB_66 
REMARK       I    between atoms: C_64  and  N_69 
REMARK   38  A    between atoms: CB_66  and  CG1_67 
REMARK   39  A    between atoms: CB_66  and  CG2_68 
REMARK   40  A    between atoms: N_69  and  CA_70 
REMARK   41  A    between atoms: CA_70  and  C_71 
REMARK   42  A    between atoms: CA_70  and  CB_73 
REMARK   43  A    between atoms: CB_73  and  CG_74 
ROOT
ATOM      1  C   LYS d   1      -0.205   6.957  -6.375  0.00  0.00     0.241 C 
ATOM      2  O   LYS d   1      -1.125   7.068  -5.564  0.00  0.00    -0.271 OA
ATOM      3  N   ARG d   1      -0.330   6.309  -7.536  0.00  0.00    -0.346 N 
ATOM      4  H46 ARG d   1       0.461   6.260  -8.146  0.00  0.00     0.163 HD
ENDROOT
BRANCH   3   5
ATOM      5  CA  ARG d   1      -1.578   5.667  -7.953  0.00  0.00     0.089 C 
ATOM      6  H47 ARG d   1      -2.203   5.510  -7.061  0.00  0.00     0.087 H 
BRANCH   5   7
ATOM      7  C   ARG d   1      -1.280   4.325  -8.598  0.00  0.00     0.241 C 
ATOM      8  O   ARG d   1      -0.483   4.248  -9.540  0.00  0.00    -0.271 OA
ATOM      9  N   ALA d   1      -1.961   3.286  -8.126  0.00  0.00    -0.346 N 
ATOM     10  H59 ALA d   1      -2.500   3.402  -7.292  0.00  0.00     0.163 HD
BRANCH   9  11
ATOM     11  CA  ALA d   1      -1.951   1.985  -8.779  0.00  0.00     0.086 C 
ATOM     12  H60 ALA d   1      -0.983   1.848  -9.283  0.00  0.00     0.086 H 
BRANCH  11  13
ATOM     13  C   ALA d   1      -3.064   1.923  -9.819  0.00  0.00     0.240 C 
ATOM     14  O   ALA d   1      -4.141   2.484  -9.625  0.00  0.00    -0.271 OA
ATOM     15  N   LYS d   1      -2.795   1.246 -10.930  0.00  0.00    -0.346 N 
ATOM     16  H64 LYS d   1      -1.873   0.881 -11.063  0.00  0.00     0.163 HD
BRANCH  15  17
ATOM     17  CA  LYS d   1      -3.802   1.017 -11.964  0.00  0.00     0.089 C 
ATOM     18  H65 LYS d   1      -4.566   1.807 -11.909  0.00  0.00     0.087 H 
BRANCH  17  19
ATOM     19  C   LYS d   1      -4.461  -0.334 -11.696  0.00  0.00     0.241 C 
ATOM     20  O   LYS d   1      -3.818  -1.381 -11.830  0.00  0.00    -0.271 OA
ATOM     21  N   VAL d   1      -5.737  -0.319 -11.320  0.00  0.00    -0.346 N 
ATOM     22  H77 VAL d   1      -6.237   0.547 -11.328  0.00  0.00     0.163 HD
BRANCH  21  23
ATOM     23  CA  VAL d   1      -6.427  -1.533 -10.897  0.00  0.00     0.092 C 
ATOM     24  H78 VAL d   1      -5.677  -2.331 -10.795  0.00  0.00     0.088 H 
BRANCH  23  25
ATOM     25  C   VAL d   1      -7.440  -1.970 -11.948  0.00  0.00     0.241 C 
ATOM     26  O   VAL d   1      -7.991  -1.158 -12.699  0.00  0.00    -0.271 OA
ATOM     27  N   ASP d   1      -7.677  -3.281 -11.985  0.00  0.00    -0.344 N 
ATOM     28  H86 ASP d   1      -7.230  -3.852 -11.297  0.00  0.00     0.163 HD
BRANCH  27  29
ATOM     29  CA  ASP d   1      -8.546  -3.948 -12.961  0.00  0.00     0.105 C 
ATOM     30  H87 ASP d   1      -8.312  -5.022 -12.925  0.00  0.00     0.090 H 
BRANCH  29  31
ATOM     31  C   ASP d   1      -8.333  -3.485 -14.403  0.00  0.00     0.197 C 
ATOM     32  O   ASP d   1      -8.216  -4.309 -15.313  0.00  0.00    -0.646 OA
ATOM     33  OXT ASP d   1      -8.276  -2.283 -14.671  0.00  0.00    -0.646 OA
ENDBRANCH  29  31
BRANCH  29  34
ATOM     34  CB  ASP d   1     -10.011  -3.769 -12.566  0.00  0.00     0.044 C 
ATOM     35  H88 ASP d   1     -10.646  -4.120 -13.393  0.00  0.00     0.053 H 
ATOM     36  H89 ASP d   1     -10.201  -2.701 -12.385  0.00  0.00     0.053 H 
BRANCH  34  37
ATOM     37  CG  ASP d   1     -10.367  -4.545 -11.316  0.00  0.00     0.175 C 
ATOM     38  OD1 ASP d   1      -9.474  -5.249 -10.792  0.00  0.00    -0.648 OA
ATOM     39  OD2 ASP d   1     -11.531  -4.462 -10.865  0.00  0.00    -0.648 OA
ENDBRANCH  34  37
ENDBRANCH  29  34
ENDBRANCH  27  29
ENDBRANCH  23  25
BRANCH  23  40
ATOM     40  CB  VAL d   1      -7.102  -1.341  -9.527  0.00  0.00    -0.033 C 
ATOM     41  H79 VAL d   1      -7.709  -2.231  -9.303  0.00  0.00     0.042 H 
BRANCH  40  42
ATOM     42  CG1 VAL d   1      -6.035  -1.199  -8.456  0.00  0.00    -0.071 C 
ATOM     43  H80 VAL d   1      -6.515  -1.062  -7.476  0.00  0.00     0.028 H 
ATOM     44  H81 VAL d   1      -5.404  -0.327  -8.681  0.00  0.00     0.028 H 
ATOM     45  H82 VAL d   1      -5.413  -2.106  -8.436  0.00  0.00     0.028 H 
ENDBRANCH  40  42
BRANCH  40  46
ATOM     46  CG2 VAL d   1      -8.018  -0.128  -9.553  0.00  0.00    -0.071 C 
ATOM     47  H83 VAL d   1      -8.778  -0.260 -10.337  0.00  0.00     0.028 H 
ATOM     48  H84 VAL d   1      -7.426   0.774  -9.765  0.00  0.00     0.028 H 
ATOM     49  H85 VAL d   1      -8.513  -0.021  -8.576  0.00  0.00     0.028 H 
ENDBRANCH  40  46
ENDBRANCH  23  40
ENDBRANCH  21  23
ENDBRANCH  17  19
BRANCH  17  50
ATOM     50  CB  LYS d   1      -3.159   1.055 -13.345  0.00  0.00    -0.038 C 
ATOM     51  H66 LYS d   1      -2.387   0.272 -13.382  0.00  0.00     0.036 H 
ATOM     52  H67 LYS d   1      -2.688   2.041 -13.473  0.00  0.00     0.036 H 
BRANCH  50  53
ATOM     53  CG  LYS d   1      -4.117   0.831 -14.525  0.00  0.00    -0.061 C 
ATOM     54  H68 LYS d   1      -4.922   1.580 -14.491  0.00  0.00     0.033 H 
ATOM     55  H69 LYS d   1      -4.552  -0.177 -14.458  0.00  0.00     0.033 H 
BRANCH  53  56
ATOM     56  CD  LYS d   1      -3.344   0.969 -15.844  0.00  0.00    -0.043 C 
ATOM     57  H70 LYS d   1      -2.427   0.365 -15.779  0.00  0.00     0.035 H 
ATOM     58  H71 LYS d   1      -3.077   2.027 -15.986  0.00  0.00     0.035 H 
BRANCH  56  59
ATOM     59  CE  LYS d   1      -4.150   0.503 -17.054  0.00  0.00     0.080 C 
ATOM     60  H72 LYS d   1      -4.532  -0.511 -16.862  0.00  0.00     0.075 H 
ATOM     61  H73 LYS d   1      -3.495   0.487 -17.937  0.00  0.00     0.075 H 
BRANCH  59  62
ATOM     62  NZ  LYS d   1      -5.288   1.404 -17.315  0.00  0.00    -0.079 N 
ATOM     63  H74 LYS d   1      -5.801   1.073 -18.117  0.00  0.00     0.274 HD
ATOM     64  H75 LYS d   1      -4.945   2.334 -17.496  0.00  0.00     0.274 HD
ATOM     65  H76 LYS d   1      -5.895   1.420 -16.511  0.00  0.00     0.274 HD
ENDBRANCH  59  62
ENDBRANCH  56  59
ENDBRANCH  53  56
ENDBRANCH  50  53
ENDBRANCH  17  50
ENDBRANCH  15  17
ENDBRANCH  11  13
BRANCH  11  66
ATOM     66  CB  ALA d   1      -2.133   0.866  -7.749  0.00  0.00    -0.049 C 
ATOM     67  H61 ALA d   1      -2.123  -0.108  -8.260  0.00  0.00     0.030 H 
ATOM     68  H62 ALA d   1      -3.094   0.998  -7.230  0.00  0.00     0.030 H 
ATOM     69  H63 ALA d   1      -1.313   0.904  -7.017  0.00  0.00     0.030 H 
ENDBRANCH  11  66
ENDBRANCH   9  11
ENDBRANCH   5   7
BRANCH   5  70
ATOM     70  CB  ARG d   1      -2.361   6.514  -8.961  0.00  0.00    -0.036 C 
ATOM     71  H48 ARG d   1      -3.198   5.905  -9.334  0.00  0.00     0.036 H 
ATOM     72  H49 ARG d   1      -1.685   6.756  -9.794  0.00  0.00     0.036 H 
BRANCH  70  73
ATOM     73  CG  ARG d   1      -2.927   7.802  -8.440  0.00  0.00    -0.048 C 
ATOM     74  H50 ARG d   1      -2.206   8.261  -7.747  0.00  0.00     0.035 H 
ATOM     75  H51 ARG d   1      -3.867   7.596  -7.907  0.00  0.00     0.035 H 
BRANCH  73  76
ATOM     76  CD  ARG d   1      -3.203   8.769  -9.595  0.00  0.00     0.009 C 
ATOM     77  H52 ARG d   1      -2.251   8.989 -10.100  0.00  0.00     0.064 H 
ATOM     78  H53 ARG d   1      -3.621   9.698  -9.180  0.00  0.00     0.064 H 
BRANCH  76  79
ATOM     79  NE  ARG d   1      -4.146   8.238 -10.589  0.00  0.00    -0.227 N 
ATOM     80  CZ  ARG d   1      -3.960   8.257 -11.905  0.00  0.00     0.665 C 
ATOM     81  NH1 ARG d   1      -2.848   8.765 -12.403  0.00  0.00    -0.235 N 
ATOM     82  NH2 ARG d   1      -4.890   7.770 -12.713  0.00  0.00    -0.235 N 
ATOM     83  H55 ARG d   1      -2.701   8.781 -13.422  0.00  0.00     0.174 HD
ATOM     84  H56 ARG d   1      -2.128   9.145 -11.772  0.00  0.00     0.174 HD
ATOM     85  H57 ARG d   1      -5.757   7.374 -12.321  0.00  0.00     0.174 HD
ATOM     86  H58 ARG d   1      -4.747   7.787 -13.733  0.00  0.00     0.174 HD
ATOM     87  H54 ARG d   1      -5.019   7.818 -10.239  0.00  0.00     0.177 HD
ENDBRANCH  76  79
ENDBRANCH  73  76
ENDBRANCH  70  73
ENDBRANCH   5  70
ENDBRANCH   3   5
BRANCH   1  88
ATOM     88  CA  LYS d   1       1.153   7.587  -6.107  0.00  0.00     0.089 C 
ATOM     89  H34 LYS d   1       1.534   8.020  -7.043  0.00  0.00     0.087 H 
BRANCH  88  90
ATOM     90  N   LYS d   1       1.003   8.657  -5.125  0.00  0.00    -0.346 N 
ATOM     91  C   LYS d   1       1.602   9.843  -5.245  0.00  0.00     0.241 C 
ATOM     92  O   LYS d   1       2.212  10.176  -6.268  0.00  0.00    -0.271 OA
ATOM     93  H33 LYS d   1       0.425   8.493  -4.326  0.00  0.00     0.163 HD
BRANCH  91  94
ATOM     94  CA  LYS d   1       1.527  10.799  -4.058  0.00  0.00     0.089 C 
ATOM     95  H21 LYS d   1       1.573  11.829  -4.441  0.00  0.00     0.087 H 
BRANCH  94  96
ATOM     96  N   LYS d   1       0.279  10.641  -3.316  0.00  0.00    -0.346 N 
ATOM     97  C   PRO d   1      -0.873  11.056  -3.840  0.00  0.00     0.241 C 
ATOM     98  O   PRO d   1      -0.946  11.598  -4.944  0.00  0.00    -0.271 OA
ATOM     99  H20 LYS d   1       0.289  10.219  -2.409  0.00  0.00     0.163 HD
BRANCH  97 100
ATOM    100  CA  PRO d   1      -2.114  10.786  -2.991  0.00  0.00     0.091 C 
ATOM    101  N   PRO d   1      -3.061  11.919  -2.965  0.00  0.00    -0.337 N 
ATOM    102  C   PRO d   1      -2.691  13.088  -2.426  0.00  0.00     0.243 C 
ATOM    103  CD  PRO d   1      -4.447  11.488  -3.249  0.00  0.00    -0.001 C 
ATOM    104  O   PRO d   1      -1.556  13.250  -1.943  0.00  0.00    -0.271 OA
ATOM    105  CG  PRO d   1      -4.369   9.975  -3.182  0.00  0.00    -0.048 C 
ATOM    106  H18 PRO d   1      -4.765  11.821  -4.248  0.00  0.00     0.064 H 
ATOM    107  H19 PRO d   1      -5.143  11.880  -2.493  0.00  0.00     0.064 H 
ATOM    108  CB  PRO d   1      -2.948   9.640  -3.576  0.00  0.00    -0.036 C 
ATOM    109  H16 PRO d   1      -4.581   9.621  -2.162  0.00  0.00     0.035 H 
ATOM    110  H17 PRO d   1      -5.083   9.519  -3.884  0.00  0.00     0.035 H 
ATOM    111  H14 PRO d   1      -2.641   8.675  -3.146  0.00  0.00     0.036 H 
ATOM    112  H15 PRO d   1      -2.845   9.602  -4.671  0.00  0.00     0.036 H 
ATOM    113  H13 PRO d   1      -1.791  10.542  -1.968  0.00  0.00     0.087 H 
BRANCH 102 114
ATOM    114  CA  PRO d   1      -3.709  14.217  -2.376  0.00  0.00     0.092 C 
ATOM    115  N   PRO d   1      -3.151  15.392  -1.681  0.00  0.00    -0.337 N 
ATOM    116  C   GLY d   1      -3.049  15.416  -0.353  0.00  0.00     0.246 C 
ATOM    117  CD  PRO d   1      -2.748  16.463  -2.613  0.00  0.00    -0.001 C 
ATOM    118  O   GLY d   1      -3.389  14.474   0.368  0.00  0.00    -0.272 OA
ATOM    119  CG  PRO d   1      -3.015  15.878  -3.967  0.00  0.00    -0.048 C 
ATOM    120  H11 PRO d   1      -1.682  16.705  -2.494  0.00  0.00     0.064 H 
ATOM    121  H12 PRO d   1      -3.350  17.369  -2.452  0.00  0.00     0.064 H 
ATOM    122  CB  PRO d   1      -4.026  14.765  -3.776  0.00  0.00    -0.036 C 
ATOM    123  H9  PRO d   1      -3.423  16.648  -4.638  0.00  0.00     0.035 H 
ATOM    124  H10 PRO d   1      -2.085  15.475  -4.394  0.00  0.00     0.035 H 
ATOM    125  H7  PRO d   1      -5.053  15.157  -3.820  0.00  0.00     0.036 H 
ATOM    126  H8  PRO d   1      -3.898  13.984  -4.540  0.00  0.00     0.036 H 
ATOM    127  H6  PRO d   1      -4.623  13.861  -1.879  0.00  0.00     0.087 H 
BRANCH 116 128
ATOM    128  CA  GLY d   1      -2.482  16.686   0.263  0.00  0.00     0.152 C 
ATOM    129  H4  GLY d   1      -1.512  16.897  -0.212  0.00  0.00     0.090 H 
ATOM    130  H5  GLY d   1      -3.179  17.511   0.056  0.00  0.00     0.090 H 
BRANCH 128 131
ATOM    131  N   GLY d   1      -2.280  16.610   1.698  0.00  0.00    -0.071 N 
ATOM    132  H1  GLY d   1      -1.904  17.484   2.031  0.00  0.00     0.274 HD
ATOM    133  H2  GLY d   1      -1.634  15.865   1.907  0.00  0.00     0.274 HD
ATOM    134  H3  GLY d   1      -3.161  16.428   2.152  0.00  0.00     0.274 HD
ENDBRANCH 128 131
ENDBRANCH 116 128
ENDBRANCH 102 114
ENDBRANCH  97 100
ENDBRANCH  94  96
BRANCH  94 135
ATOM    135  CB  LYS d   1       2.719  10.571  -3.128  0.00  0.00    -0.038 C 
ATOM    136  H22 LYS d   1       3.641  10.685  -3.718  0.00  0.00     0.036 H 
ATOM    137  H23 LYS d   1       2.658   9.544  -2.737  0.00  0.00     0.036 H 
BRANCH 135 138
ATOM    138  CG  LYS d   1       2.793  11.531  -1.937  0.00  0.00    -0.061 C 
ATOM    139  H24 LYS d   1       2.843  10.949  -1.005  0.00  0.00     0.033 H 
ATOM    140  H25 LYS d   1       1.894  12.165  -1.926  0.00  0.00     0.033 H 
BRANCH 138 141
ATOM    141  CD  LYS d   1       4.031  12.416  -2.044  0.00  0.00    -0.043 C 
ATOM    142  H26 LYS d   1       4.925  11.778  -2.115  0.00  0.00     0.035 H 
ATOM    143  H27 LYS d   1       4.102  13.047  -1.146  0.00  0.00     0.035 H 
BRANCH 141 144
ATOM    144  CE  LYS d   1       3.955  13.310  -3.278  0.00  0.00     0.080 C 
ATOM    145  H28 LYS d   1       3.312  14.172  -3.045  0.00  0.00     0.075 H 
ATOM    146  H29 LYS d   1       3.509  12.732  -4.101  0.00  0.00     0.075 H 
BRANCH 144 147
ATOM    147  NZ  LYS d   1       5.283  13.818  -3.724  0.00  0.00    -0.079 N 
ATOM    148  H30 LYS d   1       5.164  14.399  -4.539  0.00  0.00     0.274 HD
ATOM    149  H31 LYS d   1       5.882  13.039  -3.951  0.00  0.00     0.274 HD
ATOM    150  H32 LYS d   1       5.702  14.359  -2.984  0.00  0.00     0.274 HD
ENDBRANCH 144 147
ENDBRANCH 141 144
ENDBRANCH 138 141
ENDBRANCH 135 138
ENDBRANCH  94 135
ENDBRANCH  91  94
ENDBRANCH  88  90
BRANCH  88 151
ATOM    151  CB  LYS d   1       2.152   6.519  -5.623  0.00  0.00    -0.038 C 
ATOM    152  H35 LYS d   1       2.194   5.717  -6.375  0.00  0.00     0.036 H 
ATOM    153  H36 LYS d   1       1.786   6.109  -4.670  0.00  0.00     0.036 H 
BRANCH 151 154
ATOM    154  CG  LYS d   1       3.580   7.055  -5.405  0.00  0.00    -0.061 C 
ATOM    155  H37 LYS d   1       3.526   7.978  -4.809  0.00  0.00     0.033 H 
ATOM    156  H38 LYS d   1       4.029   7.277  -6.384  0.00  0.00     0.033 H 
BRANCH 154 157
ATOM    157  CD  LYS d   1       4.472   6.038  -4.667  0.00  0.00    -0.043 C 
ATOM    158  H39 LYS d   1       4.610   5.151  -5.303  0.00  0.00     0.035 H 
ATOM    159  H40 LYS d   1       3.981   5.743  -3.728  0.00  0.00     0.035 H 
BRANCH 157 160
ATOM    160  CE  LYS d   1       5.839   6.643  -4.348  0.00  0.00     0.080 C 
ATOM    161  H41 LYS d   1       5.677   7.575  -3.786  0.00  0.00     0.075 H 
ATOM    162  H42 LYS d   1       6.342   6.871  -5.300  0.00  0.00     0.075 H 
BRANCH 160 163
ATOM    163  NZ  LYS d   1       6.752   5.761  -3.537  0.00  0.00    -0.079 N 
ATOM    164  H43 LYS d   1       7.625   6.239  -3.376  0.00  0.00     0.274 HD
ATOM    165  H44 LYS d   1       6.926   4.905  -4.040  0.00  0.00     0.274 HD
ATOM    166  H45 LYS d   1       6.317   5.549  -2.653  0.00  0.00     0.274 HD
ENDBRANCH 160 163
ENDBRANCH 157 160
ENDBRANCH 154 157
ENDBRANCH 151 154
ENDBRANCH  88 151
ENDBRANCH   1  88
TORSDOF 43
