REMARK WARNING: 32 MAX_TORS EXCEEDED!!!
REMARK  43 active torsions:
REMARK  status: ('A' for Active; 'I' for Inactive)
REMARK    1  A    between atoms: N_1  and  CA_2 
REMARK    2  A    between atoms: CA_2  and  C_3 
REMARK    3  A    between atoms: CA_2  and  CB_5 
REMARK       I    between atoms: C_3  and  N_6 
REMARK    4  A    between atoms: N_6  and  CA_7 
REMARK    5  A    between atoms: CA_7  and  C_8 
REMARK    6  A    between atoms: CA_7  and  CB_10 
REMARK       I    between atoms: C_8  and  N_13 
REMARK    7  A    between atoms: CB_10  and  OG1_11 
REMARK    8  A    between atoms: CB_10  and  CG2_12 
REMARK    9  A    between atoms: N_13  and  CA_14 
REMARK   10  A    between atoms: CA_14  and  C_15 
REMARK   11  A    between atoms: CA_14  and  CB_17 
REMARK       I    between atoms: C_15  and  N_24 
REMARK   12  A    between atoms: CB_17  and  CG_18 
REMARK   13  A    between atoms: CG_18  and  CD_19 
REMARK   14  A    between atoms: CD_19  and  NE_20 
REMARK       I    between atoms: NE_20  and  CZ_21 
REMARK       I    between atoms: CZ_21  and  NH1_22 
REMARK       I    between atoms: CZ_21  and  NH2_23 
REMARK   15  A    between atoms: N_24  and  CA_25 
REMARK   16  A    between atoms: CA_25  and  C_26 
REMARK   17  A    between atoms: CA_25  and  CB_28 
REMARK       I    between atoms: C_26  and  N_33 
REMARK   18  A    between atoms: CB_28  and  CG_29 
REMARK   19  A    between atoms: CG_29  and  CD_30 
REMARK   20  A    between atoms: CD_30  and  CE_31 
REMARK   21  A    between atoms: CE_31  and  NZ_32 
REMARK   22  A    between atoms: N_33  and  CA_34 
REMARK   23  A    between atoms: CA_34  and  C_35 
REMARK   24  A    between atoms: CA_34  and  CB_37 
REMARK       I    between atoms: C_35  and  N_44 
REMARK   25  A    between atoms: CB_37  and  CG_38 
REMARK   26  A    between atoms: CG_38  and  CD_39 
REMARK   27  A    between atoms: CD_39  and  NE_40 
REMARK       I    between atoms: NE_40  and  CZ_41 
REMARK       I    between atoms: CZ_41  and  NH1_42 
REMARK       I    between atoms: CZ_41  and  NH2_43 
REMARK   28  A    between atoms: CA_45  and  C_46 
REMARK       I    between atoms: C_46  and  N_51 
REMARK   29  A    between atoms: N_51  and  CA_52 
REMARK   30  A    between atoms: CA_52  and  C_53 
REMARK   31  A    between atoms: CA_52  and  CB_55 
REMARK       I    between atoms: C_53  and  N_62 
REMARK   32  A    between atoms: CB_55  and  CG_56 
REMARK   33  A    between atoms: CG_56  and  CD_57 
REMARK   34  A    between atoms: CD_57  and  NE_58 
REMARK       I    between atoms: NE_58  and  CZ_59 
REMARK       I    between atoms: CZ_59  and  NH1_60 
REMARK       I    between atoms: CZ_59  and  NH2_61 
REMARK   35  A    between atoms: N_62  and  CA_63 
REMARK   36  A    between atoms: CA_63  and  C_64 
REMARK   37  A    between atoms: CA_63  and  CB_66 
REMARK       I    between atoms: C_64  and  N_73 
REMARK   38  A    between atoms: CB_66  and  CG_67 
REMARK   39  A    between atoms: CG_67  and  CD_68 
REMARK   40  A    between atoms: CD_68  and  NE_69 
REMARK       I    between atoms: NE_69  and  CZ_70 
REMARK       I    between atoms: CZ_70  and  NH1_71 
REMARK   41  A    between atoms: N_73  and  CA_74 
REMARK   42  A    between atoms: CA_74  and  C_75 
REMARK   43  A    between atoms: CA_74  and  CB_77 
ROOT
ATOM      1  CA  ARG d   1      -1.376   5.709  -7.611  0.00  0.00     0.089 C 
ATOM      2  H42 ARG d   1      -1.894   5.500  -6.663  0.00  0.00     0.087 H 
ENDROOT
BRANCH   1   3
ATOM      3  N   ARG d   1      -0.144   6.453  -7.313  0.00  0.00    -0.346 N 
ATOM      4  C   LYS d   1       0.126   7.005  -6.136  0.00  0.00     0.241 C 
ATOM      5  O   LYS d   1      -0.664   7.026  -5.245  0.00  0.00    -0.271 OA
ATOM      6  H41 ARG d   1       0.533   6.550  -8.042  0.00  0.00     0.163 HD
BRANCH   4   7
ATOM      7  CA  LYS d   1       1.492   7.664  -5.936  0.00  0.00     0.089 C 
ATOM      8  H29 LYS d   1       1.829   8.066  -6.903  0.00  0.00     0.087 H 
BRANCH   7   9
ATOM      9  N   LYS d   1       1.449   8.764  -4.969  0.00  0.00    -0.346 N 
ATOM     10  C   ARG d   1       2.145   9.896  -5.073  0.00  0.00     0.241 C 
ATOM     11  O   ARG d   1       2.777  10.215  -6.083  0.00  0.00    -0.271 OA
ATOM     12  H28 LYS d   1       0.854   8.658  -4.173  0.00  0.00     0.163 HD
BRANCH  10  13
ATOM     13  CA  ARG d   1       2.086  10.849  -3.884  0.00  0.00     0.089 C 
ATOM     14  H16 ARG d   1       1.238  10.572  -3.241  0.00  0.00     0.087 H 
BRANCH  13  15
ATOM     15  N   ARG d   1       3.332  10.717  -3.133  0.00  0.00    -0.346 N 
ATOM     16  C   THR d   1       3.335  10.654  -1.801  0.00  0.00     0.243 C 
ATOM     17  O   THR d   1       2.302  10.743  -1.134  0.00  0.00    -0.271 OA
ATOM     18  H15 ARG d   1       4.200  10.673  -3.628  0.00  0.00     0.163 HD
BRANCH  16  19
ATOM     19  CA  THR d   1       4.704  10.436  -1.151  0.00  0.00     0.113 C 
ATOM     20  H9  THR d   1       5.391  11.213  -1.519  0.00  0.00     0.091 H 
BRANCH  19  21
ATOM     21  N   THR d   1       4.625  10.541   0.298  0.00  0.00    -0.344 N 
ATOM     22  C   ALA d   1       4.783  11.697   0.942  0.00  0.00     0.248 C 
ATOM     23  O   ALA d   1       4.889  12.789   0.368  0.00  0.00    -0.271 OA
ATOM     24  H8  THR d   1       4.445   9.714   0.831  0.00  0.00     0.163 HD
BRANCH  22  25
ATOM     25  CA  ALA d   1       4.810  11.610   2.469  0.00  0.00     0.172 C 
ATOM     26  H4  ALA d   1       4.312  10.676   2.768  0.00  0.00     0.098 H 
BRANCH  25  27
ATOM     27  N   ALA d   1       6.181  11.576   2.970  0.00  0.00    -0.067 N 
ATOM     28  H1  ALA d   1       6.170  11.519   3.976  0.00  0.00     0.275 HD
ATOM     29  H2  ALA d   1       6.663  12.415   2.687  0.00  0.00     0.275 HD
ATOM     30  H3  ALA d   1       6.657  10.771   2.593  0.00  0.00     0.275 HD
ENDBRANCH  25  27
BRANCH  25  31
ATOM     31  CB  ALA d   1       4.053  12.769   3.080  0.00  0.00    -0.042 C 
ATOM     32  H5  ALA d   1       3.024  12.780   2.692  0.00  0.00     0.030 H 
ATOM     33  H6  ALA d   1       4.553  13.713   2.818  0.00  0.00     0.030 H 
ATOM     34  H7  ALA d   1       4.032  12.657   4.174  0.00  0.00     0.030 H 
ENDBRANCH  25  31
ENDBRANCH  22  25
ENDBRANCH  19  21
BRANCH  19  35
ATOM     35  CB  THR d   1       5.258   9.068  -1.544  0.00  0.00     0.060 C 
ATOM     36  H10 THR d   1       5.379   9.026  -2.636  0.00  0.00     0.086 H 
BRANCH  35  37
ATOM     37  OG1 THR d   1       4.345   8.039  -1.122  0.00  0.00    -0.393 OA
ATOM     38  H11 THR d   1       4.692   7.189  -1.368  0.00  0.00     0.210 HD
ENDBRANCH  35  37
BRANCH  35  39
ATOM     39  CG2 THR d   1       6.616   8.831  -0.872  0.00  0.00    -0.050 C 
ATOM     40  H12 THR d   1       7.002   7.843  -1.164  0.00  0.00     0.031 H 
ATOM     41  H13 THR d   1       6.496   8.870   0.221  0.00  0.00     0.031 H 
ATOM     42  H14 THR d   1       7.324   9.610  -1.191  0.00  0.00     0.031 H 
ENDBRANCH  35  39
ENDBRANCH  19  35
ENDBRANCH  16  19
ENDBRANCH  13  15
BRANCH  13  43
ATOM     43  CB  ARG d   1       1.913  12.292  -4.331  0.00  0.00    -0.036 C 
ATOM     44  H17 ARG d   1       2.727  12.522  -5.034  0.00  0.00     0.036 H 
ATOM     45  H18 ARG d   1       2.007  12.930  -3.440  0.00  0.00     0.036 H 
BRANCH  43  46
ATOM     46  CG  ARG d   1       0.605  12.647  -5.013  0.00  0.00    -0.048 C 
ATOM     47  H19 ARG d   1      -0.236  12.186  -4.475  0.00  0.00     0.035 H 
ATOM     48  H20 ARG d   1       0.615  12.290  -6.053  0.00  0.00     0.035 H 
BRANCH  46  49
ATOM     49  CD  ARG d   1       0.472  14.169  -4.985  0.00  0.00     0.009 C 
ATOM     50  H21 ARG d   1       1.309  14.597  -5.556  0.00  0.00     0.064 H 
ATOM     51  H22 ARG d   1       0.535  14.499  -3.938  0.00  0.00     0.064 H 
BRANCH  49  52
ATOM     52  NE  ARG d   1      -0.776  14.684  -5.551  0.00  0.00    -0.227 N 
ATOM     53  CZ  ARG d   1      -0.881  15.290  -6.726  0.00  0.00     0.665 C 
ATOM     54  NH1 ARG d   1       0.206  15.468  -7.471  0.00  0.00    -0.235 N 
ATOM     55  NH2 ARG d   1      -2.066  15.744  -7.138  0.00  0.00    -0.235 N 
ATOM     56  H24 ARG d   1       0.133  15.938  -8.385  0.00  0.00     0.174 HD
ATOM     57  H25 ARG d   1       1.121  15.136  -7.134  0.00  0.00     0.174 HD
ATOM     58  H26 ARG d   1      -2.903  15.602  -6.555  0.00  0.00     0.174 HD
ATOM     59  H27 ARG d   1      -2.144  16.237  -8.039  0.00  0.00     0.174 HD
ATOM     60  H23 ARG d   1      -1.636  14.567  -4.996  0.00  0.00     0.177 HD
ENDBRANCH  49  52
ENDBRANCH  46  49
ENDBRANCH  43  46
ENDBRANCH  13  43
ENDBRANCH  10  13
ENDBRANCH   7   9
BRANCH   7  61
ATOM     61  CB  LYS d   1       2.477   6.615  -5.467  0.00  0.00    -0.038 C 
ATOM     62  H30 LYS d   1       2.519   5.824  -6.231  0.00  0.00     0.036 H 
ATOM     63  H31 LYS d   1       2.100   6.194  -4.523  0.00  0.00     0.036 H 
BRANCH  61  64
ATOM     64  CG  LYS d   1       3.876   7.104  -5.229  0.00  0.00    -0.061 C 
ATOM     65  H32 LYS d   1       3.837   8.041  -4.655  0.00  0.00     0.033 H 
ATOM     66  H33 LYS d   1       4.363   7.288  -6.198  0.00  0.00     0.033 H 
BRANCH  64  67
ATOM     67  CD  LYS d   1       4.675   6.091  -4.462  0.00  0.00    -0.043 C 
ATOM     68  H34 LYS d   1       4.611   5.123  -4.981  0.00  0.00     0.035 H 
ATOM     69  H35 LYS d   1       4.249   5.995  -3.452  0.00  0.00     0.035 H 
BRANCH  67  70
ATOM     70  CE  LYS d   1       6.125   6.480  -4.341  0.00  0.00     0.080 C 
ATOM     71  H36 LYS d   1       6.180   7.493  -3.916  0.00  0.00     0.075 H 
ATOM     72  H37 LYS d   1       6.571   6.480  -5.347  0.00  0.00     0.075 H 
BRANCH  70  73
ATOM     73  NZ  LYS d   1       6.904   5.575  -3.487  0.00  0.00    -0.079 N 
ATOM     74  H38 LYS d   1       7.861   5.890  -3.448  0.00  0.00     0.274 HD
ATOM     75  H39 LYS d   1       6.872   4.643  -3.869  0.00  0.00     0.274 HD
ATOM     76  H40 LYS d   1       6.514   5.571  -2.558  0.00  0.00     0.274 HD
ENDBRANCH  70  73
ENDBRANCH  67  70
ENDBRANCH  64  67
ENDBRANCH  61  64
ENDBRANCH   7  61
ENDBRANCH   4   7
ENDBRANCH   1   3
BRANCH   1  77
ATOM     77  C   ARG d   1      -1.121   4.417  -8.348  0.00  0.00     0.243 C 
ATOM     78  O   ARG d   1      -0.521   4.449  -9.374  0.00  0.00    -0.271 OA
ATOM     79  N   PRO d   1      -1.680   3.260  -7.829  0.00  0.00    -0.337 N 
ATOM     80  CA  PRO d   1      -1.662   2.105  -8.737  0.00  0.00     0.091 C 
ATOM     81  CD  PRO d   1      -2.386   2.808  -6.557  0.00  0.00    -0.001 C 
ATOM     82  CB  PRO d   1      -1.916   0.934  -7.822  0.00  0.00    -0.036 C 
ATOM     83  H54 PRO d   1      -0.677   2.017  -9.219  0.00  0.00     0.087 H 
ATOM     84  CG  PRO d   1      -2.881   1.453  -6.891  0.00  0.00    -0.048 C 
ATOM     85  H55 PRO d   1      -0.994   0.628  -7.306  0.00  0.00     0.036 H 
ATOM     86  H56 PRO d   1      -2.325   0.079  -8.379  0.00  0.00     0.036 H 
ATOM     87  H57 PRO d   1      -2.929   0.824  -5.990  0.00  0.00     0.035 H 
ATOM     88  H58 PRO d   1      -3.877   1.507  -7.354  0.00  0.00     0.035 H 
ATOM     89  H59 PRO d   1      -3.221   3.481  -6.312  0.00  0.00     0.064 H 
ATOM     90  H60 PRO d   1      -1.684   2.771  -5.711  0.00  0.00     0.064 H 
BRANCH  80  91
ATOM     91  C   PRO d   1      -2.727   2.174  -9.810  0.00  0.00     0.241 C 
ATOM     92  O   PRO d   1      -3.693   2.832  -9.623  0.00  0.00    -0.271 OA
ATOM     93  N   ARG d   1      -2.537   1.484 -10.914  0.00  0.00    -0.346 N 
ATOM     94  H61 ARG d   1      -1.632   1.107 -11.110  0.00  0.00     0.163 HD
BRANCH  93  95
ATOM     95  CA  ARG d   1      -3.614   1.263 -11.845  0.00  0.00     0.089 C 
ATOM     96  H62 ARG d   1      -4.339   2.083 -11.734  0.00  0.00     0.087 H 
BRANCH  95  97
ATOM     97  C   ARG d   1      -4.316  -0.042 -11.535  0.00  0.00     0.241 C 
ATOM     98  O   ARG d   1      -3.768  -1.097 -11.652  0.00  0.00    -0.271 OA
ATOM     99  N   ARG d   1      -5.563   0.064 -11.142  0.00  0.00    -0.346 N 
ATOM    100  H74 ARG d   1      -5.981   0.971 -11.088  0.00  0.00     0.163 HD
BRANCH  99 101
ATOM    101  CA  ARG d   1      -6.351  -1.102 -10.784  0.00  0.00     0.089 C 
ATOM    102  H75 ARG d   1      -5.669  -1.931 -10.544  0.00  0.00     0.087 H 
BRANCH 101 103
ATOM    103  C   ARG d   1      -7.227  -1.518 -11.962  0.00  0.00     0.241 C 
ATOM    104  O   ARG d   1      -7.298  -0.838 -12.988  0.00  0.00    -0.271 OA
ATOM    105  N   ALA d   1      -7.912  -2.645 -11.791  0.00  0.00    -0.345 N 
ATOM    106  H87 ALA d   1      -7.663  -3.222 -11.013  0.00  0.00     0.163 HD
BRANCH 105 107
ATOM    107  CA  ALA d   1      -9.004  -3.107 -12.655  0.00  0.00     0.093 C 
ATOM    108  H88 ALA d   1      -9.868  -2.436 -12.540  0.00  0.00     0.089 H 
BRANCH 107 109
ATOM    109  C   ALA d   1      -9.363  -4.489 -12.167  0.00  0.00     0.196 C 
ATOM    110  O   ALA d   1      -8.493  -5.198 -11.662  0.00  0.00    -0.646 OA
ATOM    111  OXT ALA d   1     -10.521  -4.889 -12.280  0.00  0.00    -0.646 OA
ENDBRANCH 107 109
BRANCH 107 112
ATOM    112  CB  ALA d   1      -8.617  -3.144 -14.130  0.00  0.00    -0.048 C 
ATOM    113  H89 ALA d   1      -9.473  -3.497 -14.725  0.00  0.00     0.030 H 
ATOM    114  H90 ALA d   1      -7.767  -3.828 -14.269  0.00  0.00     0.030 H 
ATOM    115  H91 ALA d   1      -8.333  -2.134 -14.460  0.00  0.00     0.030 H 
ENDBRANCH 107 112
ENDBRANCH 105 107
ENDBRANCH 101 103
BRANCH 101 116
ATOM    116  CB  ARG d   1      -7.203  -0.799  -9.549  0.00  0.00    -0.036 C 
ATOM    117  H76 ARG d   1      -7.832  -1.677  -9.342  0.00  0.00     0.036 H 
ATOM    118  H77 ARG d   1      -7.844   0.066  -9.778  0.00  0.00     0.036 H 
BRANCH 116 119
ATOM    119  CG  ARG d   1      -6.403  -0.479  -8.289  0.00  0.00    -0.048 C 
ATOM    120  H78 ARG d   1      -7.091  -0.122  -7.509  0.00  0.00     0.035 H 
ATOM    121  H79 ARG d   1      -5.670   0.308  -8.520  0.00  0.00     0.035 H 
BRANCH 119 122
ATOM    122  CD  ARG d   1      -5.663  -1.712  -7.773  0.00  0.00     0.009 C 
ATOM    123  H80 ARG d   1      -5.038  -2.115  -8.584  0.00  0.00     0.064 H 
ATOM    124  H81 ARG d   1      -6.403  -2.468  -7.470  0.00  0.00     0.064 H 
BRANCH 122 125
ATOM    125  NE  ARG d   1      -4.808  -1.405  -6.627  0.00  0.00    -0.227 N 
ATOM    126  CZ  ARG d   1      -3.862  -2.212  -6.151  0.00  0.00     0.665 C 
ATOM    127  NH1 ARG d   1      -3.134  -1.837  -5.105  0.00  0.00    -0.235 N 
ATOM    128  NH2 ARG d   1      -3.635  -3.388  -6.723  0.00  0.00    -0.235 N 
ATOM    129  H83 ARG d   1      -2.402  -2.461  -4.737  0.00  0.00     0.174 HD
ATOM    130  H84 ARG d   1      -3.301  -0.922  -4.662  0.00  0.00     0.174 HD
ATOM    131  H85 ARG d   1      -4.197  -3.683  -7.534  0.00  0.00     0.174 HD
ATOM    132  H86 ARG d   1      -2.897  -4.005  -6.356  0.00  0.00     0.174 HD
ATOM    133  H82 ARG d   1      -4.947  -0.500  -6.155  0.00  0.00     0.177 HD
ENDBRANCH 122 125
ENDBRANCH 119 122
ENDBRANCH 116 119
ENDBRANCH 101 116
ENDBRANCH  99 101
ENDBRANCH  95  97
BRANCH  95 134
ATOM    134  CB  ARG d   1      -3.111   1.265 -13.277  0.00  0.00    -0.036 C 
ATOM    135  H63 ARG d   1      -2.245   0.590 -13.338  0.00  0.00     0.036 H 
ATOM    136  H64 ARG d   1      -2.797   2.288 -13.530  0.00  0.00     0.036 H 
BRANCH 134 137
ATOM    137  CG  ARG d   1      -4.130   0.819 -14.296  0.00  0.00    -0.048 C 
ATOM    138  H65 ARG d   1      -5.054   1.393 -14.134  0.00  0.00     0.035 H 
ATOM    139  H66 ARG d   1      -4.331  -0.251 -14.138  0.00  0.00     0.035 H 
BRANCH 137 140
ATOM    140  CD  ARG d   1      -3.696   1.013 -15.730  0.00  0.00     0.009 C 
ATOM    141  H67 ARG d   1      -2.885   0.307 -15.960  0.00  0.00     0.064 H 
ATOM    142  H68 ARG d   1      -3.333   2.043 -15.861  0.00  0.00     0.064 H 
BRANCH 140 143
ATOM    143  NE  ARG d   1      -4.799   0.780 -16.636  0.00  0.00    -0.227 N 
ATOM    144  CZ  ARG d   1      -4.844   1.147 -17.900  0.00  0.00     0.665 C 
ATOM    145  NH1 ARG d   1      -3.841   1.754 -18.476  0.00  0.00    -0.235 N 
ATOM    146  NH2 ARG d   1      -5.909   0.879 -18.601  0.00  0.00    -0.235 N 
ATOM    147  H70 ARG d   1      -3.906   2.029 -19.466  0.00  0.00     0.174 HD
ATOM    148  H71 ARG d   1      -2.986   1.958 -17.940  0.00  0.00     0.174 HD
ATOM    149  H72 ARG d   1      -6.708   0.401 -18.161  0.00  0.00     0.174 HD
ATOM    150  H73 ARG d   1      -5.952   1.145 -19.595  0.00  0.00     0.174 HD
ATOM    151  H69 ARG d   1      -5.620   0.284 -16.260  0.00  0.00     0.177 HD
ENDBRANCH 140 143
ENDBRANCH 137 140
ENDBRANCH 134 137
ENDBRANCH  95 134
ENDBRANCH  93  95
ENDBRANCH  80  91
ENDBRANCH   1  77
BRANCH   1 152
ATOM    152  CB  ARG d   1      -2.283   6.500  -8.540  0.00  0.00    -0.036 C 
ATOM    153  H43 ARG d   1      -3.210   5.921  -8.669  0.00  0.00     0.036 H 
ATOM    154  H44 ARG d   1      -1.768   6.588  -9.508  0.00  0.00     0.036 H 
BRANCH 152 155
ATOM    155  CG  ARG d   1      -2.668   7.871  -8.112  0.00  0.00    -0.048 C 
ATOM    156  H45 ARG d   1      -1.896   8.264  -7.434  0.00  0.00     0.035 H 
ATOM    157  H46 ARG d   1      -3.631   7.823  -7.582  0.00  0.00     0.035 H 
BRANCH 155 158
ATOM    158  CD  ARG d   1      -2.804   8.801  -9.290  0.00  0.00     0.009 C 
ATOM    159  H47 ARG d   1      -1.837   8.851  -9.813  0.00  0.00     0.064 H 
ATOM    160  H48 ARG d   1      -3.073   9.801  -8.920  0.00  0.00     0.064 H 
BRANCH 158 161
ATOM    161  NE  ARG d   1      -3.809   8.369 -10.221  0.00  0.00    -0.227 N 
ATOM    162  CZ  ARG d   1      -3.636   8.340 -11.528  0.00  0.00     0.665 C 
ATOM    163  NH1 ARG d   1      -4.604   7.934 -12.312  0.00  0.00    -0.235 N 
ATOM    164  NH2 ARG d   1      -2.490   8.710 -12.051  0.00  0.00    -0.235 N 
ATOM    165  H50 ARG d   1      -4.466   7.913 -13.332  0.00  0.00     0.174 HD
ATOM    166  H51 ARG d   1      -5.503   7.636 -11.908  0.00  0.00     0.174 HD
ATOM    167  H52 ARG d   1      -1.725   9.030 -11.441  0.00  0.00     0.174 HD
ATOM    168  H53 ARG d   1      -2.356   8.680 -13.072  0.00  0.00     0.174 HD
ATOM    169  H49 ARG d   1      -4.718   8.064  -9.846  0.00  0.00     0.177 HD
ENDBRANCH 158 161
ENDBRANCH 155 158
ENDBRANCH 152 155
ENDBRANCH   1 152
TORSDOF 43
