REMARK  4 active torsions:
REMARK  status: ('A' for Active; 'I' for Inactive)
REMARK    1  A    between atoms: C1_1  and  C2_4 
REMARK    2  A    between atoms: C2_4  and  C3_6 
REMARK    3  A    between atoms: C3_6  and  C4_7 
REMARK    4  A    between atoms: C4_7  and  C5_8 
ROOT
ATOM      1  C3  AKG d   1     -18.886  74.556  -8.275  0.00  0.00     0.010 C 
ATOM      2  H1  AKG d   1     -18.573  75.586  -8.501  0.00  0.00     0.045 H 
ATOM      3  H2  AKG d   1     -19.915  74.562  -7.887  0.00  0.00     0.045 H 
ENDROOT
BRANCH   1   4
ATOM      4  C2  AKG d   1     -17.961  74.005  -7.172  0.00  0.00     0.225 C 
ATOM      5  O5  AKG d   1     -17.025  73.500  -7.522  0.00  0.00    -0.286 OA
BRANCH   4   6
ATOM      6  C1  AKG d   1     -18.406  74.210  -5.786  0.00  0.00     0.246 C 
ATOM      7  O1  AKG d   1     -19.478  74.848  -5.659  0.00  0.00    -0.642 OA
ATOM      8  O2  AKG d   1     -17.894  73.836  -4.828  0.00  0.00    -0.642 OA
ENDBRANCH   4   6
ENDBRANCH   1   4
BRANCH   1   9
ATOM      9  C4  AKG d   1     -18.874  73.756  -9.583  0.00  0.00     0.022 C 
ATOM     10  H3  AKG d   1     -19.244  72.745  -9.359  0.00  0.00     0.049 H 
ATOM     11  H4  AKG d   1     -17.831  73.697  -9.929  0.00  0.00     0.049 H 
BRANCH   9  12
ATOM     12  C5  AKG d   1     -19.707  74.309 -10.724  0.00  0.00     0.172 C 
ATOM     13  O3  AKG d   1     -19.899  75.485 -10.744  0.00  0.00    -0.648 OA
ATOM     14  O4  AKG d   1     -20.116  73.563 -11.563  0.00  0.00    -0.648 OA
ENDBRANCH   9  12
ENDBRANCH   1   9
TORSDOF 4
