REMARK  19 active torsions:
REMARK  status: ('A' for Active; 'I' for Inactive)
REMARK    1  A    between atoms: C1_1  and  O1_48 
REMARK    2  A    between atoms: C43_43  and  C3_3 
REMARK    3  A    between atoms: C7_7  and  C14_14 
REMARK    4  A    between atoms: C12_12  and  C13_13 
REMARK    5  A    between atoms: C16_16  and  C30_30 
REMARK    6  A    between atoms: C20_20  and  C31_31 
REMARK    7  A    between atoms: C21_21  and  O10_57 
REMARK    8  A    between atoms: C22_22  and  C32_32 
REMARK    9  A    between atoms: C23_23  and  O9_56 
REMARK   10  A    between atoms: C24_24  and  C33_33 
REMARK   11  A    between atoms: C25_25  and  O7_54 
REMARK   12  A    between atoms: C26_26  and  C34_34 
REMARK   13  A    between atoms: C27_27  and  O6_53 
REMARK   14  A    between atoms: C35_35  and  C36_36 
REMARK   15  A    between atoms: O7_54  and  C35_35 
REMARK   16  A    between atoms: O6_53  and  C37_37 
REMARK   17  A    between atoms: N4_47  and  C38_38 
REMARK   18  A    between atoms: N2_45  and  C43_43 
REMARK   19  A    between atoms: N2_45  and  N3_46 
ROOT
ATOM      1  C1  RFP d   1     -20.737  30.966 -10.718  0.00  0.00     0.102 A 
ATOM      2  C2  RFP d   1     -20.661  30.157 -11.931  0.00  0.00     0.059 A 
ATOM      3  C3  RFP d   1     -20.361  28.753 -11.853  0.00  0.00     0.064 A 
ATOM      4  C4  RFP d   1     -20.091  28.149 -10.581  0.00  0.00     0.108 A 
ATOM      5  C5  RFP d   1     -19.857  28.383  -8.139  0.00  0.00     0.059 A 
ATOM      6  C6  RFP d   1     -19.865  29.100  -6.924  0.00  0.00     0.076 A 
ATOM      7  C7  RFP d   1     -20.176  30.523  -6.923  0.00  0.00     0.040 A 
ATOM      8  C8  RFP d   1     -20.460  31.157  -8.203  0.00  0.00     0.108 A 
ATOM      9  C9  RFP d   1     -20.459  30.378  -9.434  0.00  0.00     0.046 A 
ATOM     10  C10 RFP d   1     -20.129  28.971  -9.405  0.00  0.00     0.029 A 
ATOM     11  C11 RFP d   1     -19.531  27.044  -7.812  0.00  0.00     0.225 C 
ATOM     12  C12 RFP d   1     -19.219  27.023  -6.398  0.00  0.00     0.236 C 
ATOM     13  C15 RFP d   1     -20.971  31.810 -13.487  0.00  0.00     0.251 C 
ATOM     14  C16 RFP d   1     -21.155  32.165 -14.844  0.00  0.00     0.006 C 
ATOM     15  C17 RFP d   1     -20.110  32.439 -15.583  0.00  0.00    -0.072 C 
ATOM     16  C18 RFP d   1     -18.731  32.358 -15.127  0.00  0.00    -0.085 C 
ATOM     17  C19 RFP d   1     -17.804  32.396 -16.034  0.00  0.00    -0.097 C 
ATOM     18  C20 RFP d   1     -16.344  32.315 -15.759  0.00  0.00    -0.016 C 
ATOM     19  C21 RFP d   1     -16.000  31.858 -14.346  0.00  0.00     0.047 C 
ATOM     20  C22 RFP d   1     -14.947  30.787 -14.253  0.00  0.00    -0.007 C 
ATOM     21  C23 RFP d   1     -14.461  30.534 -12.862  0.00  0.00     0.046 C 
ATOM     22  C24 RFP d   1     -15.490  29.992 -11.904  0.00  0.00    -0.006 C 
ATOM     23  C25 RFP d   1     -14.930  29.856 -10.512  0.00  0.00     0.059 C 
ATOM     24  C26 RFP d   1     -15.979  29.454  -9.511  0.00  0.00    -0.003 C 
ATOM     25  C27 RFP d   1     -15.398  28.867  -8.251  0.00  0.00     0.061 C 
ATOM     26  C28 RFP d   1     -16.511  28.500  -7.309  0.00  0.00    -0.054 C 
ATOM     27  C29 RFP d   1     -16.805  27.227  -7.043  0.00  0.00     0.015 C 
ATOM     28  N1  RFP d   1     -20.937  30.571 -13.153  0.00  0.00    -0.323 N 
ATOM     29  O2  RFP d   1     -20.747  32.441  -8.247  0.00  0.00    -0.195 OA
ATOM     30  O3  RFP d   1     -19.550  28.269  -5.924  0.00  0.00    -0.309 OA
ATOM     31  O4  RFP d   1     -19.563  26.136  -8.579  0.00  0.00    -0.286 OA
ATOM     32  O5  RFP d   1     -17.886  26.831  -6.144  0.00  0.00    -0.319 OA
ATOM     33  O11 RFP d   1     -20.793  32.722 -12.724  0.00  0.00    -0.268 OA
ATOM     34  O12 RFP d   1     -19.779  26.884 -10.486  0.00  0.00    -0.195 OA
ATOM     35  H1  RFP d   1     -21.433  28.531 -11.745  0.00  0.00     0.063 H 
ATOM     36  H2  RFP d   1     -21.243  30.295  -6.787  0.00  0.00     0.060 H 
ATOM     37  H9  RFP d   1     -20.285  32.750 -16.612  0.00  0.00     0.084 H 
ATOM     38  H10 RFP d   1     -18.487  32.269 -14.069  0.00  0.00     0.083 H 
ATOM     39  H11 RFP d   1     -18.117  32.494 -17.072  0.00  0.00     0.077 H 
ATOM     40  H12 RFP d   1     -15.868  33.295 -15.911  0.00  0.00     0.049 H 
ATOM     41  H13 RFP d   1     -16.919  31.537 -13.833  0.00  0.00     0.084 H 
ATOM     42  H14 RFP d   1     -15.350  29.853 -14.671  0.00  0.00     0.047 H 
ATOM     43  H15 RFP d   1     -13.599  29.851 -12.882  0.00  0.00     0.084 H 
ATOM     44  H16 RFP d   1     -16.354  30.673 -11.883  0.00  0.00     0.047 H 
ATOM     45  H17 RFP d   1     -14.528  30.835 -10.212  0.00  0.00     0.085 H 
ATOM     46  H18 RFP d   1     -16.637  28.704  -9.973  0.00  0.00     0.047 H 
ATOM     47  H19 RFP d   1     -14.777  27.984  -8.465  0.00  0.00     0.090 H 
ATOM     48  H20 RFP d   1     -17.089  29.291  -6.834  0.00  0.00     0.083 H 
ATOM     49  H21 RFP d   1     -16.212  26.447  -7.518  0.00  0.00     0.122 H 
ATOM     50  H56 RFP d   1     -21.129  29.885 -13.854  0.00  0.00     0.169 HD
ENDROOT
BRANCH   3  51
ATOM     51  C43 RFP d   1     -20.300  27.926 -13.027  0.00  0.00     0.123 C 
ATOM     52  H54 RFP d   1     -20.637  28.509 -13.896  0.00  0.00     0.080 H 
ATOM     53  H55 RFP d   1     -20.960  27.057 -12.890  0.00  0.00     0.080 H 
BRANCH  51  54
ATOM     54  N2  RFP d   1     -19.153  27.532 -13.227  0.00  0.00     0.081 N 
ATOM     55  H57 RFP d   1     -18.874  27.089 -12.365  0.00  0.00     0.312 HD
ATOM     56  H58 RFP d   1     -18.609  28.369 -13.366  0.00  0.00     0.312 HD
BRANCH  54  57
ATOM     57  N3  RFP d   1     -18.766  26.716 -14.168  0.00  0.00     0.085 N 
ATOM     58  C40 RFP d   1     -19.509  25.458 -14.178  0.00  0.00     0.133 C 
ATOM     59  C39 RFP d   1     -18.832  24.532 -15.154  0.00  0.00     0.107 C 
ATOM     60  H48 RFP d   1     -19.503  25.012 -13.173  0.00  0.00     0.082 H 
ATOM     61  H49 RFP d   1     -20.547  25.639 -14.492  0.00  0.00     0.082 H 
ATOM     62  N4  RFP d   1     -18.592  25.236 -16.405  0.00  0.00    -0.072 N 
ATOM     63  H46 RFP d   1     -19.478  23.661 -15.341  0.00  0.00     0.078 H 
ATOM     64  H47 RFP d   1     -17.873  24.194 -14.734  0.00  0.00     0.078 H 
ATOM     65  C42 RFP d   1     -17.875  26.472 -16.248  0.00  0.00     0.107 C 
ATOM     66  H60 RFP d   1     -19.465  25.394 -16.883  0.00  0.00     0.279 HD
ATOM     67  C41 RFP d   1     -18.791  27.354 -15.433  0.00  0.00     0.133 C 
ATOM     68  H52 RFP d   1     -16.927  26.304 -15.717  0.00  0.00     0.078 H 
ATOM     69  H53 RFP d   1     -17.671  26.928 -17.228  0.00  0.00     0.078 H 
ATOM     70  H50 RFP d   1     -19.808  27.370 -15.852  0.00  0.00     0.082 H 
ATOM     71  H51 RFP d   1     -18.404  28.382 -15.370  0.00  0.00     0.082 H 
ATOM     72  H59 RFP d   1     -17.805  26.482 -13.974  0.00  0.00     0.315 HD
BRANCH  62  73
ATOM     73  C38 RFP d   1     -17.699  24.416 -17.176  0.00  0.00     0.066 C 
ATOM     74  H43 RFP d   1     -18.163  23.434 -17.352  0.00  0.00     0.068 H 
ATOM     75  H44 RFP d   1     -16.756  24.282 -16.625  0.00  0.00     0.068 H 
ATOM     76  H45 RFP d   1     -17.494  24.903 -18.141  0.00  0.00     0.068 H 
ENDBRANCH  62  73
ENDBRANCH  54  57
ENDBRANCH  51  54
ENDBRANCH   3  51
BRANCH   1  77
ATOM     77  O1  RFP d   1     -21.030  32.258 -10.828  0.00  0.00    -0.358 OA
ATOM     78  H61 RFP d   1     -21.183  32.470 -11.741  0.00  0.00     0.217 HD
ENDBRANCH   1  77
BRANCH  14  79
ATOM     79  C30 RFP d   1     -22.505  32.289 -15.364  0.00  0.00    -0.046 C 
ATOM     80  H22 RFP d   1     -23.226  32.011 -14.581  0.00  0.00     0.033 H 
ATOM     81  H23 RFP d   1     -22.628  31.621 -16.229  0.00  0.00     0.033 H 
ATOM     82  H24 RFP d   1     -22.684  33.329 -15.675  0.00  0.00     0.033 H 
ENDBRANCH  14  79
BRANCH   7  83
ATOM     83  C14 RFP d   1     -20.194  31.316  -5.678  0.00  0.00    -0.061 C 
ATOM     84  H6  RFP d   1     -19.957  30.664  -4.824  0.00  0.00     0.029 H 
ATOM     85  H7  RFP d   1     -21.193  31.755  -5.537  0.00  0.00     0.029 H 
ATOM     86  H8  RFP d   1     -19.446  32.120  -5.744  0.00  0.00     0.029 H 
ENDBRANCH   7  83
BRANCH  12  87
ATOM     87  C13 RFP d   1     -20.112  26.038  -5.773  0.00  0.00    -0.017 C 
ATOM     88  H3  RFP d   1     -19.907  25.991  -4.693  0.00  0.00     0.035 H 
ATOM     89  H4  RFP d   1     -19.939  25.049  -6.223  0.00  0.00     0.035 H 
ATOM     90  H5  RFP d   1     -21.158  26.337  -5.935  0.00  0.00     0.035 H 
ENDBRANCH  12  87
BRANCH  18  91
ATOM     91  C31 RFP d   1     -15.952  31.371 -16.858  0.00  0.00    -0.067 C 
ATOM     92  H25 RFP d   1     -16.245  31.797 -17.829  0.00  0.00     0.028 H 
ATOM     93  H26 RFP d   1     -16.461  30.407 -16.712  0.00  0.00     0.028 H 
ATOM     94  H27 RFP d   1     -14.863  31.218 -16.839  0.00  0.00     0.028 H 
ENDBRANCH  18  91
BRANCH  19  95
ATOM     95  O10 RFP d   1     -15.387  32.927 -13.700  0.00  0.00    -0.394 OA
ATOM     96  H63 RFP d   1     -15.185  32.681 -12.805  0.00  0.00     0.210 HD
ENDBRANCH  19  95
BRANCH  25  97
ATOM     97  O6  RFP d   1     -14.633  29.909  -7.730  0.00  0.00    -0.386 OA
BRANCH  97  98
ATOM     98  C37 RFP d   1     -14.026  29.628  -6.495  0.00  0.00     0.005 C 
ATOM     99  H40 RFP d   1     -13.447  30.503  -6.164  0.00  0.00     0.066 H 
ATOM    100  H41 RFP d   1     -13.355  28.764  -6.605  0.00  0.00     0.066 H 
ATOM    101  H42 RFP d   1     -14.801  29.398  -5.749  0.00  0.00     0.066 H 
ENDBRANCH  97  98
ENDBRANCH  25  97
BRANCH  20 102
ATOM    102  C32 RFP d   1     -13.755  31.242 -15.040  0.00  0.00    -0.068 C 
ATOM    103  H28 RFP d   1     -14.057  31.444 -16.078  0.00  0.00     0.028 H 
ATOM    104  H29 RFP d   1     -12.986  30.456 -15.028  0.00  0.00     0.028 H 
ATOM    105  H30 RFP d   1     -13.348  32.160 -14.591  0.00  0.00     0.028 H 
ENDBRANCH  20 102
BRANCH  24 106
ATOM    106  C34 RFP d   1     -16.781  30.675  -9.161  0.00  0.00    -0.068 C 
ATOM    107  H34 RFP d   1     -17.208  31.108 -10.078  0.00  0.00     0.028 H 
ATOM    108  H35 RFP d   1     -16.129  31.415  -8.675  0.00  0.00     0.028 H 
ATOM    109  H36 RFP d   1     -17.594  30.395  -8.474  0.00  0.00     0.028 H 
ENDBRANCH  24 106
BRANCH  21 110
ATOM    110  O9  RFP d   1     -14.092  31.813 -12.438  0.00  0.00    -0.395 OA
ATOM    111  H62 RFP d   1     -14.857  32.376 -12.430  0.00  0.00     0.210 HD
ENDBRANCH  21 110
BRANCH  23 112
ATOM    112  O7  RFP d   1     -13.889  28.925 -10.493  0.00  0.00    -0.315 OA
BRANCH 112 113
ATOM    113  C35 RFP d   1     -12.597  29.447 -10.210  0.00  0.00     0.255 C 
ATOM    114  O8  RFP d   1     -12.446  30.526  -9.758  0.00  0.00    -0.266 OA
BRANCH 113 115
ATOM    115  C36 RFP d   1     -11.424  28.607 -10.485  0.00  0.00     0.004 C 
ATOM    116  H37 RFP d   1     -10.509  29.154 -10.213  0.00  0.00     0.041 H 
ATOM    117  H38 RFP d   1     -11.396  28.355 -11.556  0.00  0.00     0.041 H 
ATOM    118  H39 RFP d   1     -11.488  27.682  -9.893  0.00  0.00     0.041 H 
ENDBRANCH 113 115
ENDBRANCH 112 113
ENDBRANCH  23 112
BRANCH  22 119
ATOM    119  C33 RFP d   1     -15.922  28.651 -12.356  0.00  0.00    -0.068 C 
ATOM    120  H31 RFP d   1     -16.336  28.723 -13.373  0.00  0.00     0.028 H 
ATOM    121  H32 RFP d   1     -16.692  28.264 -11.673  0.00  0.00     0.028 H 
ATOM    122  H33 RFP d   1     -15.059  27.969 -12.359  0.00  0.00     0.028 H 
ENDBRANCH  22 119
TORSDOF 19
