REMARK  32 active torsions:
REMARK  status: ('A' for Active; 'I' for Inactive)
REMARK    1  A    between atoms: C_1  and  CH3_3 
REMARK       I    between atoms: C_1  and  N_4 
REMARK    2  A    between atoms: N_4  and  CA_5 
REMARK    3  A    between atoms: CA_5  and  C_6 
REMARK    4  A    between atoms: CA_5  and  CB_8 
REMARK       I    between atoms: C_6  and  N_11 
REMARK    5  A    between atoms: CB_8  and  CG1_9 
REMARK    6  A    between atoms: CB_8  and  CG2_10 
REMARK    7  A    between atoms: N_11  and  CA_12 
REMARK    8  A    between atoms: CA_12  and  C_13 
REMARK    9  A    between atoms: CA_12  and  CB_15 
REMARK       I    between atoms: C_13  and  N_18 
REMARK   10  A    between atoms: CB_15  and  CG1_16 
REMARK   11  A    between atoms: CB_15  and  CG2_17 
REMARK   12  A    between atoms: N_18  and  CA_19 
REMARK   13  A    between atoms: CA_19  and  CB_20 
REMARK   14  A    between atoms: CA_19  and  CH_24 
REMARK   15  A    between atoms: CB_20  and  CG_21 
REMARK   16  A    between atoms: CG_21  and  CD1_22 
REMARK   17  A    between atoms: CG_21  and  CD2_23 
REMARK   18  A    between atoms: CH_24  and  OH_25 
REMARK   19  A    between atoms: CH_24  and  CM_26 
REMARK   20  A    between atoms: CM_26  and  C_27 
REMARK       I    between atoms: C_27  and  N_29 
REMARK   21  A    between atoms: N_29  and  CA_30 
REMARK   22  A    between atoms: CA_30  and  C_31 
REMARK   23  A    between atoms: CA_30  and  CB_33 
REMARK       I    between atoms: C_31  and  N_34 
REMARK   24  A    between atoms: N_34  and  CA_35 
REMARK   25  A    between atoms: CA_35  and  CB_36 
REMARK   26  A    between atoms: CA_35  and  CH_40 
REMARK   27  A    between atoms: CB_36  and  CG_37 
REMARK   28  A    between atoms: CG_37  and  CD1_38 
REMARK   29  A    between atoms: CG_37  and  CD2_39 
REMARK   30  A    between atoms: CH_40  and  OH_41 
REMARK   31  A    between atoms: CH_40  and  CM_42 
REMARK   32  A    between atoms: CM_42  and  C_43 
ROOT
ATOM      1  CA  STA d   1      12.846  23.643   4.497  0.00  0.00     0.037 C 
ATOM      2  H23 STA d   1      12.560  22.781   5.117  0.00  0.00     0.076 H 
ENDROOT
BRANCH   1   3
ATOM      3  N   STA d   1      12.126  24.878   5.008  0.00  0.00    -0.352 N 
ATOM      4  C   VAL d   1      10.978  24.553   5.700  0.00  0.00     0.241 C 
ATOM      5  O   VAL d   1      10.569  23.386   5.717  0.00  0.00    -0.271 OA
ATOM      6  H22 STA d   1      12.445  25.814   4.861  0.00  0.00     0.163 HD
BRANCH   4   7
ATOM      7  CA  VAL d   1      10.301  25.689   6.434  0.00  0.00     0.092 C 
ATOM      8  H14 VAL d   1      10.737  26.637   6.088  0.00  0.00     0.088 H 
BRANCH   7   9
ATOM      9  N   VAL d   1       8.838  25.670   6.185  0.00  0.00    -0.346 N 
ATOM     10  C   VAL d   1       8.183  26.793   5.860  0.00  0.00     0.241 C 
ATOM     11  O   VAL d   1       8.690  27.910   5.675  0.00  0.00    -0.271 OA
ATOM     12  H13 VAL d   1       8.335  24.809   6.261  0.00  0.00     0.163 HD
BRANCH  10  13
ATOM     13  CA  VAL d   1       6.688  26.574   5.627  0.00  0.00     0.092 C 
ATOM     14  H5  VAL d   1       6.310  25.778   6.285  0.00  0.00     0.088 H 
BRANCH  13  15
ATOM     15  N   VAL d   1       5.930  27.841   5.869  0.00  0.00    -0.348 N 
ATOM     16  C   ACE d   1       4.949  27.758   6.793  0.00  0.00     0.214 C 
ATOM     17  O   ACE d   1       4.800  26.678   7.393  0.00  0.00    -0.274 OA
ATOM     18  H4  VAL d   1       6.135  28.689   5.381  0.00  0.00     0.163 HD
BRANCH  16  19
ATOM     19  CH3 ACE d   1       4.171  29.012   7.116  0.00  0.00    -0.003 C 
ATOM     20  H1  ACE d   1       4.489  29.824   6.445  0.00  0.00     0.040 H 
ATOM     21  H2  ACE d   1       4.362  29.303   8.159  0.00  0.00     0.040 H 
ATOM     22  H3  ACE d   1       3.096  28.822   6.979  0.00  0.00     0.040 H 
ENDBRANCH  16  19
ENDBRANCH  13  15
BRANCH  13  23
ATOM     23  CB  VAL d   1       6.529  26.178   4.139  0.00  0.00    -0.033 C 
ATOM     24  H6  VAL d   1       6.606  27.107   3.555  0.00  0.00     0.042 H 
BRANCH  23  25
ATOM     25  CG1 VAL d   1       7.686  25.256   3.685  0.00  0.00    -0.071 C 
ATOM     26  H7  VAL d   1       7.549  24.990   2.626  0.00  0.00     0.028 H 
ATOM     27  H8  VAL d   1       7.687  24.341   4.296  0.00  0.00     0.028 H 
ATOM     28  H9  VAL d   1       8.644  25.781   3.810  0.00  0.00     0.028 H 
ENDBRANCH  23  25
BRANCH  23  29
ATOM     29  CG2 VAL d   1       5.166  25.563   3.805  0.00  0.00    -0.071 C 
ATOM     30  H10 VAL d   1       4.366  26.240   4.139  0.00  0.00     0.028 H 
ATOM     31  H11 VAL d   1       5.065  24.595   4.318  0.00  0.00     0.028 H 
ATOM     32  H12 VAL d   1       5.088  25.412   2.718  0.00  0.00     0.028 H 
ENDBRANCH  23  29
ENDBRANCH  13  23
ENDBRANCH  10  13
ENDBRANCH   7   9
BRANCH   7  33
ATOM     33  CB  VAL d   1      10.418  25.590   7.983  0.00  0.00    -0.033 C 
ATOM     34  H15 VAL d   1       9.735  24.789   8.302  0.00  0.00     0.042 H 
BRANCH  33  35
ATOM     35  CG1 VAL d   1      11.799  25.185   8.480  0.00  0.00    -0.071 C 
ATOM     36  H16 VAL d   1      11.794  25.139   9.579  0.00  0.00     0.028 H 
ATOM     37  H17 VAL d   1      12.540  25.926   8.147  0.00  0.00     0.028 H 
ATOM     38  H18 VAL d   1      12.060  24.197   8.073  0.00  0.00     0.028 H 
ENDBRANCH  33  35
BRANCH  33  39
ATOM     39  CG2 VAL d   1       9.895  26.911   8.621  0.00  0.00    -0.071 C 
ATOM     40  H19 VAL d   1       8.898  27.143   8.219  0.00  0.00     0.028 H 
ATOM     41  H20 VAL d   1      10.586  27.733   8.382  0.00  0.00     0.028 H 
ATOM     42  H21 VAL d   1       9.832  26.791   9.713  0.00  0.00     0.028 H 
ENDBRANCH  33  39
ENDBRANCH   7  33
ENDBRANCH   4   7
ENDBRANCH   1   3
BRANCH   1  43
ATOM     43  CB  STA d   1      12.228  23.417   3.092  0.00  0.00    -0.041 C 
ATOM     44  H24 STA d   1      12.271  22.337   2.889  0.00  0.00     0.036 H 
ATOM     45  H25 STA d   1      12.862  23.952   2.369  0.00  0.00     0.036 H 
BRANCH  43  46
ATOM     46  CG  STA d   1      10.775  23.868   2.843  0.00  0.00    -0.059 C 
ATOM     47  H26 STA d   1      10.637  24.776   3.448  0.00  0.00     0.038 H 
BRANCH  46  48
ATOM     48  CD1 STA d   1      10.485  24.264   1.386  0.00  0.00    -0.073 C 
ATOM     49  H27 STA d   1       9.433  24.572   1.292  0.00  0.00     0.028 H 
ATOM     50  H28 STA d   1      10.675  23.404   0.727  0.00  0.00     0.028 H 
ATOM     51  H29 STA d   1      11.139  25.100   1.096  0.00  0.00     0.028 H 
ENDBRANCH  46  48
BRANCH  46  52
ATOM     52  CD2 STA d   1       9.706  22.846   3.326  0.00  0.00    -0.073 C 
ATOM     53  H30 STA d   1       9.914  22.563   4.368  0.00  0.00     0.028 H 
ATOM     54  H31 STA d   1       9.741  21.950   2.689  0.00  0.00     0.028 H 
ATOM     55  H32 STA d   1       8.707  23.302   3.262  0.00  0.00     0.028 H 
ENDBRANCH  46  52
ENDBRANCH  43  46
ENDBRANCH   1  43
BRANCH   1  56
ATOM     56  CH  STA d   1      14.377  23.783   4.659  0.00  0.00     0.063 C 
ATOM     57  H33 STA d   1      14.829  23.681   3.661  0.00  0.00     0.086 H 
BRANCH  56  58
ATOM     58  OH  STA d   1      14.690  25.086   5.214  0.00  0.00    -0.393 OA
ATOM     59  H34 STA d   1      15.631  25.169   5.312  0.00  0.00     0.210 HD
ENDBRANCH  56  58
BRANCH  56  60
ATOM     60  CM  STA d   1      15.073  22.755   5.634  0.00  0.00     0.035 C 
ATOM     61  H35 STA d   1      14.728  22.960   6.658  0.00  0.00     0.051 H 
ATOM     62  H36 STA d   1      16.161  22.904   5.577  0.00  0.00     0.051 H 
BRANCH  60  63
ATOM     63  C   STA d   1      14.767  21.286   5.304  0.00  0.00     0.220 C 
ATOM     64  O   STA d   1      13.666  20.739   5.524  0.00  0.00    -0.274 OA
ATOM     65  N   ALA d   1      15.827  20.674   4.766  0.00  0.00    -0.348 N 
ATOM     66  H37 ALA d   1      16.390  21.199   4.128  0.00  0.00     0.163 HD
BRANCH  65  67
ATOM     67  CA  ALA d   1      16.227  19.282   5.045  0.00  0.00     0.086 C 
ATOM     68  H38 ALA d   1      15.648  18.916   5.905  0.00  0.00     0.086 H 
BRANCH  67  69
ATOM     69  C   ALA d   1      17.704  19.162   5.397  0.00  0.00     0.240 C 
ATOM     70  O   ALA d   1      18.657  19.738   4.855  0.00  0.00    -0.271 OA
ATOM     71  N   STA d   1      17.913  18.389   6.465  0.00  0.00    -0.352 N 
ATOM     72  H42 STA d   1      17.107  18.094   6.978  0.00  0.00     0.163 HD
BRANCH  71  73
ATOM     73  CA  STA d   1      19.216  17.934   6.952  0.00  0.00     0.038 C 
ATOM     74  H43 STA d   1      20.013  18.384   6.342  0.00  0.00     0.076 H 
BRANCH  73  75
ATOM     75  CB  STA d   1      19.416  18.441   8.425  0.00  0.00    -0.041 C 
ATOM     76  H44 STA d   1      20.353  18.012   8.809  0.00  0.00     0.036 H 
ATOM     77  H45 STA d   1      18.572  18.077   9.029  0.00  0.00     0.036 H 
BRANCH  75  78
ATOM     78  CG  STA d   1      19.492  19.988   8.585  0.00  0.00    -0.059 C 
ATOM     79  H46 STA d   1      20.049  20.387   7.724  0.00  0.00     0.038 H 
BRANCH  78  80
ATOM     80  CD1 STA d   1      18.069  20.593   8.553  0.00  0.00    -0.073 C 
ATOM     81  H47 STA d   1      18.132  21.685   8.667  0.00  0.00     0.028 H 
ATOM     82  H48 STA d   1      17.473  20.173   9.377  0.00  0.00     0.028 H 
ATOM     83  H49 STA d   1      17.589  20.351   7.593  0.00  0.00     0.028 H 
ENDBRANCH  78  80
BRANCH  78  84
ATOM     84  CD2 STA d   1      20.246  20.404   9.854  0.00  0.00    -0.073 C 
ATOM     85  H50 STA d   1      21.252  19.958   9.846  0.00  0.00     0.028 H 
ATOM     86  H51 STA d   1      19.696  20.052  10.739  0.00  0.00     0.028 H 
ATOM     87  H52 STA d   1      20.331  21.500   9.887  0.00  0.00     0.028 H 
ENDBRANCH  78  84
ENDBRANCH  75  78
ENDBRANCH  73  75
BRANCH  73  88
ATOM     88  CH  STA d   1      19.248  16.400   6.717  0.00  0.00     0.064 C 
ATOM     89  H53 STA d   1      20.148  16.012   7.217  0.00  0.00     0.086 H 
BRANCH  88  90
ATOM     90  OH  STA d   1      18.083  15.745   7.288  0.00  0.00    -0.393 OA
ATOM     91  H54 STA d   1      17.296  16.094   6.886  0.00  0.00     0.210 HD
ENDBRANCH  88  90
BRANCH  88  92
ATOM     92  CM  STA d   1      19.317  15.994   5.211  0.00  0.00     0.041 C 
ATOM     93  H55 STA d   1      19.616  16.868   4.614  0.00  0.00     0.053 H 
ATOM     94  H56 STA d   1      18.325  15.648   4.884  0.00  0.00     0.053 H 
BRANCH  92  95
ATOM     95  C   STA d   1      20.347  14.858   5.001  0.00  0.00     0.175 C 
ATOM     96  O   STA d   1      20.936  14.302   5.936  0.00  0.00    -0.648 OA
ATOM     97  OXT STA d   1      20.573  14.552   3.703  0.00  0.00    -0.648 OA
ENDBRANCH  92  95
ENDBRANCH  88  92
ENDBRANCH  73  88
ENDBRANCH  71  73
ENDBRANCH  67  69
BRANCH  67  98
ATOM     98  CB  ALA d   1      15.855  18.433   3.797  0.00  0.00    -0.049 C 
ATOM     99  H39 ALA d   1      16.140  17.384   3.969  0.00  0.00     0.030 H 
ATOM    100  H40 ALA d   1      16.391  18.819   2.918  0.00  0.00     0.030 H 
ATOM    101  H41 ALA d   1      14.771  18.495   3.622  0.00  0.00     0.030 H 
ENDBRANCH  67  98
ENDBRANCH  65  67
ENDBRANCH  60  63
ENDBRANCH  56  60
ENDBRANCH   1  56
TORSDOF 32
