REMARK  9 active torsions:
REMARK  status: ('A' for Active; 'I' for Inactive)
REMARK    1  A    between atoms: C5_2  and  O7_16 
REMARK    2  A    between atoms: O7_16  and  C8_4 
REMARK    3  A    between atoms: C8_4  and  C9_17 
REMARK    4  A    between atoms: C9_17  and  C10_5 
REMARK    5  A    between atoms: C10_5  and  C11_18 
REMARK    6  A    between atoms: C17_8  and  C3_15 
REMARK    7  A    between atoms: C18_22  and  C17_8 
REMARK    8  A    between atoms: N20_24  and  C21_9 
REMARK    9  A    between atoms: C23_26  and  C26_11 
REMARK       I    between atoms: C18_22  and  N20_24 
ROOT
ATOM      1  C4  65R d   1      49.997 104.848  34.416  0.00  0.00    -0.044 A 
ATOM      2  C5  65R d   1      48.950 105.188  35.260  0.00  0.00     0.069 A 
ATOM      3  C6  65R d   1      48.092 104.203  35.730  0.00  0.00    -0.051 A 
ATOM      4  C1  65R d   1      48.283 102.888  35.356  0.00  0.00    -0.080 A 
ATOM      5  C2  65R d   1      49.327 102.551  34.514  0.00  0.00    -0.076 A 
ATOM      6  C3  65R d   1      50.183 103.530  34.045  0.00  0.00    -0.047 A 
ATOM      7  H1  65R d   1      50.668 105.615  34.048  0.00  0.00     0.088 H 
ATOM      8  H2  65R d   1      47.273 104.466  36.390  0.00  0.00     0.087 H 
ATOM      9  H15 65R d   1      47.614 102.118  35.723  0.00  0.00     0.083 H 
ATOM     10  H16 65R d   1      49.474 101.518  34.221  0.00  0.00     0.084 H 
ENDROOT
BRANCH   2  11
ATOM     11  O7  65R d   1      48.765 106.484  35.627  0.00  0.00    -0.351 OA
BRANCH  11  12
ATOM     12  C8  65R d   1      49.793 107.088  36.414  0.00  0.00     0.026 C 
ATOM     13  H3  65R d   1      50.712 106.488  36.339  0.00  0.00     0.075 H 
ATOM     14  H4  65R d   1      49.471 107.135  37.465  0.00  0.00     0.075 H 
BRANCH  12  15
ATOM     15  C9  65R d   1      50.064 108.504  35.899  0.00  0.00    -0.044 C 
ATOM     16  H17 65R d   1      49.589 108.634  34.915  0.00  0.00     0.036 H 
ATOM     17  H18 65R d   1      51.149 108.659  35.806  0.00  0.00     0.036 H 
BRANCH  15  18
ATOM     18  C10 65R d   1      49.486 109.523  36.883  0.00  0.00    -0.060 C 
ATOM     19  H5  65R d   1      49.204 109.013  37.816  0.00  0.00     0.033 H 
ATOM     20  H6  65R d   1      48.597 109.997  36.441  0.00  0.00     0.033 H 
BRANCH  18  21
ATOM     21  C11 65R d   1      50.537 110.593  37.185  0.00  0.00    -0.051 C 
ATOM     22  C12 65R d   1      50.163 111.894  36.469  0.00  0.00    -0.039 C 
ATOM     23  C13 65R d   1      51.184 112.977  36.823  0.00  0.00     0.082 C 
ATOM     24  H20 65R d   1      50.165 111.729  35.382  0.00  0.00     0.035 H 
ATOM     25  H21 65R d   1      49.161 112.215  36.789  0.00  0.00     0.035 H 
ATOM     26  N14 65R d   1      51.197 113.183  38.277  0.00  0.00    -0.075 N 
ATOM     27  H7  65R d   1      50.910 113.917  36.322  0.00  0.00     0.075 H 
ATOM     28  H8  65R d   1      52.183 112.662  36.489  0.00  0.00     0.075 H 
ATOM     29  C15 65R d   1      51.599 111.960  38.983  0.00  0.00     0.082 C 
ATOM     30  H22 65R d   1      50.273 113.449  38.580  0.00  0.00     0.277 HD
ATOM     31  H23 65R d   1      51.848 113.920  38.499  0.00  0.00     0.277 HD
ATOM     32  C16 65R d   1      50.590 110.847  38.694  0.00  0.00    -0.039 C 
ATOM     33  H9  65R d   1      51.629 112.155  40.065  0.00  0.00     0.075 H 
ATOM     34  H10 65R d   1      52.596 111.649  38.638  0.00  0.00     0.075 H 
ATOM     35  H24 65R d   1      49.595 111.151  39.051  0.00  0.00     0.035 H 
ATOM     36  H25 65R d   1      50.900 109.927  39.211  0.00  0.00     0.035 H 
ATOM     37  H19 65R d   1      51.522 110.250  36.835  0.00  0.00     0.040 H 
ENDBRANCH  18  21
ENDBRANCH  15  18
ENDBRANCH  12  15
ENDBRANCH  11  12
ENDBRANCH   2  11
BRANCH   6  38
ATOM     38  C17 65R d   1      51.320 103.159  33.128  0.00  0.00     0.033 C 
ATOM     39  H11 65R d   1      51.608 102.112  33.306  0.00  0.00     0.054 H 
ATOM     40  H12 65R d   1      52.181 103.814  33.327  0.00  0.00     0.054 H 
BRANCH  38  41
ATOM     41  C18 65R d   1      50.884 103.324  31.695  0.00  0.00     0.227 C 
ATOM     42  O19 65R d   1      50.187 104.269  31.385  0.00  0.00    -0.273 OA
ATOM     43  N20 65R d   1      51.273 102.419  30.771  0.00  0.00    -0.305 N 
ATOM     44  H26 65R d   1      51.847 101.650  31.051  0.00  0.00     0.171 HD
BRANCH  43  45
ATOM     45  C21 65R d   1      50.893 102.534  29.438  0.00  0.00     0.173 A 
ATOM     46  N22 65R d   1      50.748 101.546  28.612  0.00  0.00    -0.223 NA
ATOM     47  C23 65R d   1      50.378 101.844  27.374  0.00  0.00     0.076 A 
ATOM     48  C24 65R d   1      50.197 103.155  27.128  0.00  0.00    -0.013 A 
ATOM     49  S25 65R d   1      50.532 104.046  28.610  0.00  0.00    -0.061 SA
ATOM     50  H13 65R d   1      49.895 103.590  26.176  0.00  0.00     0.098 H 
BRANCH  47  51
ATOM     51  C26 65R d   1      50.179 100.807  26.335  0.00  0.00    -0.004 A 
ATOM     52  C27 65R d   1      49.712 101.147  25.061  0.00  0.00    -0.054 A 
ATOM     53  C28 65R d   1      49.540 100.150  24.124  0.00  0.00     0.003 A 
ATOM     54  H27 65R d   1      49.489 102.179  24.814  0.00  0.00     0.087 H 
ATOM     55  N29 65R d   1      49.810  98.891  24.416  0.00  0.00    -0.273 NA
ATOM     56  H14 65R d   1      49.178 100.403  23.134  0.00  0.00     0.114 H 
ATOM     57  C30 65R d   1      50.253  98.528  25.605  0.00  0.00     0.003 A 
ATOM     58  C31 65R d   1      50.452  99.461  26.601  0.00  0.00    -0.054 A 
ATOM     59  H28 65R d   1      50.463  97.483  25.801  0.00  0.00     0.114 H 
ATOM     60  H29 65R d   1      50.815  99.156  27.576  0.00  0.00     0.087 H 
ENDBRANCH  47  51
ENDBRANCH  43  45
ENDBRANCH  38  41
ENDBRANCH   6  38
TORSDOF 9
