REMARK  8 active torsions:
REMARK  status: ('A' for Active; 'I' for Inactive)
REMARK    1  A    between atoms: C7_5  and  N9_13 
REMARK    2  A    between atoms: C12_7  and  N15_14 
REMARK    3  A    between atoms: C3_9  and  N2_8 
REMARK    4  A    between atoms: N2_8  and  C1_10 
REMARK       I    between atoms: N15_14  and  C16_15 
REMARK       I    between atoms: C16_15  and  N18_17 
REMARK    5  A    between atoms: N18_17  and  C19_18 
REMARK    6  A    between atoms: C22_21  and  C23_22 
REMARK    7  A    between atoms: C23_22  and  N24_23 
REMARK    8  A    between atoms: C30_29  and  C32_31 
ROOT
ATOM      1  N15 66X d   1      -3.014 -23.941 153.401  0.00  0.00    -0.337 N 
ATOM      2  C16 66X d   1      -3.377 -23.078 154.349  0.00  0.00     0.321 C 
ATOM      3  O17 66X d   1      -4.261 -22.263 154.109  0.00  0.00    -0.247 OA
ATOM      4  N18 66X d   1      -2.809 -23.162 155.565  0.00  0.00    -0.309 N 
ATOM      5  H14 66X d   1      -2.340 -24.652 153.602  0.00  0.00     0.164 HD
ATOM      6  H15 66X d   1      -2.159 -23.898 155.753  0.00  0.00     0.170 HD
ENDROOT
BRANCH   4   7
ATOM      7  C19 66X d   1      -3.112 -22.234 156.578  0.00  0.00     0.037 A 
ATOM      8  C20 66X d   1      -1.990 -21.799 157.272  0.00  0.00    -0.057 A 
ATOM      9  C21 66X d   1      -2.076 -20.838 158.274  0.00  0.00    -0.072 A 
ATOM     10  H16 66X d   1      -1.022 -22.220 157.026  0.00  0.00     0.086 H 
ATOM     11  C22 66X d   1      -3.316 -20.274 158.594  0.00  0.00    -0.017 A 
ATOM     12  H17 66X d   1      -1.184 -20.527 158.806  0.00  0.00     0.084 H 
ATOM     13  C30 66X d   1      -4.443 -20.686 157.891  0.00  0.00     0.058 A 
ATOM     14  C31 66X d   1      -4.350 -21.647 156.872  0.00  0.00    -0.042 A 
ATOM     15  H29 66X d   1      -5.234 -21.934 156.314  0.00  0.00     0.088 H 
BRANCH  11  16
ATOM     16  C23 66X d   1      -3.437 -19.221 159.690  0.00  0.00     0.108 C 
ATOM     17  H18 66X d   1      -4.292 -19.479 160.332  0.00  0.00     0.083 H 
ATOM     18  H19 66X d   1      -3.614 -18.243 159.219  0.00  0.00     0.083 H 
BRANCH  16  19
ATOM     19  N24 66X d   1      -2.242 -19.129 160.520  0.00  0.00    -0.063 N 
ATOM     20  C25 66X d   1      -2.128 -17.788 161.128  0.00  0.00     0.103 C 
ATOM     21  C26 66X d   1      -0.935 -17.762 162.081  0.00  0.00     0.042 C 
ATOM     22  H21 66X d   1      -3.048 -17.559 161.686  0.00  0.00     0.079 H 
ATOM     23  H22 66X d   1      -1.982 -17.038 160.337  0.00  0.00     0.079 H 
ATOM     24  O27 66X d   1      -1.075 -18.800 163.053  0.00  0.00    -0.388 OA
ATOM     25  H23 66X d   1      -0.894 -16.788 162.590  0.00  0.00     0.076 H 
ATOM     26  H24 66X d   1      -0.007 -17.917 161.511  0.00  0.00     0.076 H 
ATOM     27  C28 66X d   1      -1.091 -20.062 162.388  0.00  0.00     0.042 C 
ATOM     28  C29 66X d   1      -2.357 -20.151 161.559  0.00  0.00     0.103 C 
ATOM     29  H25 66X d   1      -1.076 -20.873 163.131  0.00  0.00     0.076 H 
ATOM     30  H26 66X d   1      -0.211 -20.148 161.733  0.00  0.00     0.076 H 
ATOM     31  H27 66X d   1      -2.444 -21.148 161.104  0.00  0.00     0.079 H 
ATOM     32  H28 66X d   1      -3.238 -19.957 162.188  0.00  0.00     0.079 H 
ATOM     33  H20 66X d   1      -1.424 -19.306 159.958  0.00  0.00     0.280 HD
ENDBRANCH  16  19
ENDBRANCH  11  16
BRANCH  13  34
ATOM     34  C32 66X d   1      -5.754 -20.058 158.232  0.00  0.00     0.418 C 
ATOM     35  F33 66X d   1      -6.673 -20.528 157.423  0.00  0.00    -0.166 F 
ATOM     36  F34 66X d   1      -5.616 -18.750 158.058  0.00  0.00    -0.166 F 
ATOM     37  F35 66X d   1      -6.131 -20.332 159.469  0.00  0.00    -0.166 F 
ENDBRANCH  13  34
ENDBRANCH   4   7
BRANCH   1  38
ATOM     38  C12 66X d   1      -3.608 -23.846 152.056  0.00  0.00     0.030 C 
ATOM     39  C14 66X d   1      -4.961 -24.505 151.869  0.00  0.00     0.015 C 
ATOM     40  N9  66X d   1      -4.865 -24.886 150.466  0.00  0.00    -0.363 N 
ATOM     41  H1  66X d   1      -5.787 -23.800 152.045  0.00  0.00     0.067 H 
ATOM     42  H2  66X d   1      -5.082 -25.381 152.523  0.00  0.00     0.067 H 
ATOM     43  C10 66X d   1      -3.530 -24.855 149.875  0.00  0.00    -0.002 C 
ATOM     44  C11 66X d   1      -2.694 -24.618 151.120  0.00  0.00    -0.030 C 
ATOM     45  H7  66X d   1      -3.277 -25.809 149.389  0.00  0.00     0.064 H 
ATOM     46  H8  66X d   1      -3.424 -24.035 149.150  0.00  0.00     0.064 H 
ATOM     47  H5  66X d   1      -1.798 -24.028 150.879  0.00  0.00     0.038 H 
ATOM     48  H6  66X d   1      -2.393 -25.574 151.573  0.00  0.00     0.038 H 
ATOM     49  H9  66X d   1      -3.674 -22.786 151.770  0.00  0.00     0.075 H 
BRANCH  40  50
ATOM     50  C7  66X d   1      -6.011 -25.241 149.737  0.00  0.00     0.146 A 
ATOM     51  C6  66X d   1      -7.215 -25.541 150.375  0.00  0.00    -0.021 A 
ATOM     52  C5  66X d   1      -8.328 -25.854 149.601  0.00  0.00     0.025 A 
ATOM     53  H4  66X d   1      -7.282 -25.530 151.457  0.00  0.00     0.091 H 
ATOM     54  N4  66X d   1      -8.229 -25.867 148.262  0.00  0.00    -0.075 NA
ATOM     55  H3  66X d   1      -9.273 -26.087 150.078  0.00  0.00     0.115 H 
ATOM     56  C3  66X d   1      -7.059 -25.571 147.658  0.00  0.00     0.723 A 
ATOM     57  N8  66X d   1      -5.969 -25.264 148.394  0.00  0.00    -0.045 NA
BRANCH  56  58
ATOM     58  N2  66X d   1      -6.961 -25.580 146.304  0.00  0.00    -0.227 N 
ATOM     59  H10 66X d   1      -7.792 -25.816 145.743  0.00  0.00     0.177 HD
BRANCH  58  60
ATOM     60  C1  66X d   1      -5.704 -25.263 145.617  0.00  0.00    -0.005 C 
ATOM     61  H11 66X d   1      -5.853 -25.331 144.529  0.00  0.00     0.057 H 
ATOM     62  H12 66X d   1      -4.927 -25.978 145.926  0.00  0.00     0.057 H 
ATOM     63  H13 66X d   1      -5.389 -24.243 145.881  0.00  0.00     0.057 H 
ENDBRANCH  58  60
ENDBRANCH  56  58
ENDBRANCH  40  50
ENDBRANCH   1  38
TORSDOF 8
