REMARK  5 active torsions:
REMARK  status: ('A' for Active; 'I' for Inactive)
REMARK    1  A    between atoms: C30_11  and  C33_1 
REMARK    2  A    between atoms: N22_21  and  C20_10 
REMARK    3  A    between atoms: C29_12  and  C30_11 
REMARK    4  A    between atoms: C24_22  and  C26_14 
REMARK    5  A    between atoms: N05_16  and  C01_15 
REMARK       I    between atoms: N22_21  and  C24_22 
ROOT
ATOM      1  N22 65U d   1      19.658  -8.210  56.541  0.00  0.00    -0.340 N 
ATOM      2  C24 65U d   1      19.726  -6.875  56.389  0.00  0.00     0.273 C 
ATOM      3  O25 65U d   1      20.648  -6.191  56.846  0.00  0.00    -0.266 OA
ATOM      4  H18 65U d   1      18.887  -8.718  56.158  0.00  0.00     0.163 HD
ENDROOT
BRANCH   1   5
ATOM      5  C20 65U d   1      20.708  -8.915  57.263  0.00  0.00     0.111 C 
ATOM      6  C17 65U d   1      20.552  -8.750  58.784  0.00  0.00     0.053 C 
ATOM      7  O16 65U d   1      21.323  -9.592  59.655  0.00  0.00    -0.346 OA
ATOM      8  H7  65U d   1      19.492  -8.925  59.021  0.00  0.00     0.079 H 
ATOM      9  H8  65U d   1      20.815  -7.709  59.025  0.00  0.00     0.079 H 
ATOM     10  C15 65U d   1      22.614  -9.865  59.254  0.00  0.00     0.095 A 
ATOM     11  C13 65U d   1      23.627  -9.354  60.047  0.00  0.00    -0.049 A 
ATOM     12  C06 65U d   1      22.904 -10.597  58.097  0.00  0.00     0.070 A 
ATOM     13  C11 65U d   1      24.947  -9.615  59.714  0.00  0.00    -0.080 A 
ATOM     14  H5  65U d   1      23.390  -8.756  60.919  0.00  0.00     0.087 H 
ATOM     15  C09 65U d   1      25.249 -10.358  58.592  0.00  0.00    -0.081 A 
ATOM     16  H6  65U d   1      25.746  -9.233  60.339  0.00  0.00     0.083 H 
ATOM     17  C07 65U d   1      24.239 -10.842  57.771  0.00  0.00    -0.054 A 
ATOM     18  H17 65U d   1      26.285 -10.566  58.349  0.00  0.00     0.083 H 
ATOM     19  H16 65U d   1      24.486 -11.408  56.880  0.00  0.00     0.087 H 
ATOM     20  N05 65U d   1      21.873 -11.120  57.257  0.00  0.00    -0.318 N 
ATOM     21  C46 65U d   1      20.771 -10.396  56.876  0.00  0.00     0.249 C 
ATOM     22  O47 65U d   1      19.863 -10.900  56.239  0.00  0.00    -0.271 OA
ATOM     23  H9  65U d   1      21.667  -8.458  56.977  0.00  0.00     0.091 H 
BRANCH  20  24
ATOM     24  C01 65U d   1      21.887 -12.548  56.939  0.00  0.00    -0.011 C 
ATOM     25  H13 65U d   1      22.824 -12.995  57.301  0.00  0.00     0.057 H 
ATOM     26  H14 65U d   1      21.814 -12.682  55.850  0.00  0.00     0.057 H 
ATOM     27  H15 65U d   1      21.033 -13.041  57.427  0.00  0.00     0.057 H 
ENDBRANCH  20  24
ENDBRANCH   1   5
BRANCH   2  28
ATOM     28  C26 65U d   1      18.602  -6.236  55.660  0.00  0.00     0.154 A 
ATOM     29  C27 65U d   1      18.321  -4.873  55.594  0.00  0.00    -0.017 A 
ATOM     30  C29 65U d   1      17.239  -4.769  54.812  0.00  0.00     0.085 A 
ATOM     31  H12 65U d   1      18.866  -4.063  56.077  0.00  0.00     0.091 H 
ATOM     32  O44 65U d   1      16.847  -6.000  54.409  0.00  0.00    -0.217 OA
ATOM     33  N45 65U d   1      17.751  -6.957  54.954  0.00  0.00    -0.123 NA
BRANCH  30  34
ATOM     34  C30 65U d   1      16.405  -3.616  54.351  0.00  0.00     0.006 C 
ATOM     35  H10 65U d   1      16.599  -3.450  53.281  0.00  0.00     0.050 H 
ATOM     36  H11 65U d   1      15.345  -3.871  54.496  0.00  0.00     0.050 H 
BRANCH  34  37
ATOM     37  C33 65U d   1      16.696  -2.335  55.095  0.00  0.00    -0.052 A 
ATOM     38  C42 65U d   1      15.885  -1.931  56.148  0.00  0.00    -0.076 A 
ATOM     39  C40 65U d   1      16.202  -0.810  56.896  0.00  0.00    -0.082 A 
ATOM     40  H3  65U d   1      14.994  -2.500  56.387  0.00  0.00     0.084 H 
ATOM     41  C38 65U d   1      17.365  -0.110  56.640  0.00  0.00    -0.083 A 
ATOM     42  H2  65U d   1      15.536  -0.481  57.685  0.00  0.00     0.083 H 
ATOM     43  C36 65U d   1      18.207  -0.530  55.630  0.00  0.00    -0.082 A 
ATOM     44  H1  65U d   1      17.615   0.765  57.229  0.00  0.00     0.083 H 
ATOM     45  C34 65U d   1      17.888  -1.650  54.878  0.00  0.00    -0.076 A 
ATOM     46  H4  65U d   1      19.120   0.017  55.424  0.00  0.00     0.083 H 
ATOM     47  H19 65U d   1      18.574  -1.996  54.113  0.00  0.00     0.084 H 
ENDBRANCH  34  37
ENDBRANCH  30  34
ENDBRANCH   2  28
TORSDOF 5
