REMARK  4 active torsions:
REMARK  status: ('A' for Active; 'I' for Inactive)
REMARK    1  A    between atoms: C2_1  and  N1_15 
REMARK    2  A    between atoms: N1_15  and  C5_4 
REMARK    3  A    between atoms: C1_14  and  C11_8 
REMARK    4  A    between atoms: C8_16  and  N2_17 
ROOT
ATOM      1  C2  66P d   1       5.871  57.839   0.587  0.00  0.00     0.027 A 
ATOM      2  C3  66P d   1       4.634  58.002   1.259  0.00  0.00    -0.043 A 
ATOM      3  O   66P d   1       6.358  61.343  -0.311  0.00  0.00    -0.270 OA
ATOM      4  C   66P d   1       5.892  60.291   0.116  0.00  0.00     0.260 A 
ATOM      5  C1  66P d   1       6.518  58.988   0.001  0.00  0.00     0.122 A 
ATOM      6  C4  66P d   1       4.070  59.224   1.338  0.00  0.00     0.008 A 
ATOM      7  N   66P d   1       4.670  60.315   0.796  0.00  0.00    -0.226 NA
ATOM      8  H1  66P d   1       4.140  57.143   1.710  0.00  0.00     0.088 H 
ATOM      9  H11 66P d   1       7.076  59.151   0.935  0.00  0.00     0.076 H 
ATOM     10  H19 66P d   1       3.114  59.339   1.847  0.00  0.00     0.115 H 
ENDROOT
BRANCH   1  11
ATOM     11  N1  66P d   1       6.450  56.594   0.511  0.00  0.00    -0.387 N 
ATOM     12  H12 66P d   1       7.325  56.529  -0.028  0.00  0.00     0.159 HD
BRANCH  11  13
ATOM     13  C5  66P d   1       5.962  55.352   1.110  0.00  0.00     0.009 C 
ATOM     14  C10 66P d   1       6.410  54.152   0.285  0.00  0.00    -0.044 C 
ATOM     15  C9  66P d   1       7.935  53.957   0.333  0.00  0.00    -0.037 C 
ATOM     16  H8  66P d   1       6.104  54.306  -0.760  0.00  0.00     0.036 H 
ATOM     17  H9  66P d   1       5.924  53.248   0.680  0.00  0.00     0.036 H 
ATOM     18  C8  66P d   1       8.417  53.861   1.780  0.00  0.00     0.100 C 
ATOM     19  H6  66P d   1       8.425  54.812  -0.156  0.00  0.00     0.036 H 
ATOM     20  H7  66P d   1       8.198  53.031  -0.199  0.00  0.00     0.036 H 
ATOM     21  C7  66P d   1       7.973  55.064   2.615  0.00  0.00    -0.037 C 
ATOM     22  H13 66P d   1       7.981  52.955   2.227  0.00  0.00     0.083 H 
ATOM     23  C6  66P d   1       6.454  55.231   2.548  0.00  0.00    -0.044 C 
ATOM     24  H4  66P d   1       8.455  55.973   2.225  0.00  0.00     0.036 H 
ATOM     25  H5  66P d   1       8.274  54.909   3.662  0.00  0.00     0.036 H 
ATOM     26  H17 66P d   1       5.978  54.356   3.015  0.00  0.00     0.036 H 
ATOM     27  H18 66P d   1       6.171  56.140   3.099  0.00  0.00     0.036 H 
ATOM     28  H3  66P d   1       4.862  55.377   1.119  0.00  0.00     0.072 H 
BRANCH  18  29
ATOM     29  N2  66P d   1       9.906  53.738   1.812  0.00  0.00    -0.075 N 
ATOM     30  H14 66P d   1      10.217  53.675   2.769  0.00  0.00     0.274 HD
ATOM     31  H15 66P d   1      10.319  54.548   1.377  0.00  0.00     0.274 HD
ATOM     32  H16 66P d   1      10.185  52.908   1.312  0.00  0.00     0.274 HD
ENDBRANCH  18  29
ENDBRANCH  11  13
ENDBRANCH   1  11
BRANCH   5  33
ATOM     33  C11 66P d   1       7.826  58.897  -0.775  0.00  0.00     0.124 A 
ATOM     34  N4  66P d   1       8.497  57.773  -0.965  0.00  0.00    -0.342 N 
ATOM     35  C13 66P d   1       9.590  58.142  -1.754  0.00  0.00     0.062 A 
ATOM     36  H2  66P d   1       8.265  56.834  -0.610  0.00  0.00     0.167 HD
ATOM     37  C12 66P d   1       9.544  59.510  -2.012  0.00  0.00     0.085 A 
ATOM     38  C14 66P d   1      10.641  57.373  -2.257  0.00  0.00    -0.055 A 
ATOM     39  C17 66P d   1      10.529  60.156  -2.756  0.00  0.00    -0.053 A 
ATOM     40  N3  66P d   1       8.410  59.970  -1.374  0.00  0.00    -0.232 NA
ATOM     41  C16 66P d   1      11.587  59.389  -3.235  0.00  0.00    -0.081 A 
ATOM     42  H22 66P d   1      10.473  61.220  -2.955  0.00  0.00     0.087 H 
ATOM     43  C15 66P d   1      11.640  58.012  -2.993  0.00  0.00    -0.081 A 
ATOM     44  H21 66P d   1      12.379  59.864  -3.802  0.00  0.00     0.083 H 
ATOM     45  H10 66P d   1      12.469  57.433  -3.383  0.00  0.00     0.083 H 
ATOM     46  H20 66P d   1      10.680  56.304  -2.080  0.00  0.00     0.087 H 
ENDBRANCH   5  33
TORSDOF 4
