REMARK WARNING: 32 MAX_TORS EXCEEDED!!!
REMARK  35 active torsions:
REMARK  status: ('A' for Active; 'I' for Inactive)
REMARK    1  A    between atoms: N_1  and  CA_2 
REMARK    2  A    between atoms: CA_8  and  CB_11 
REMARK    3  A    between atoms: CB_11  and  CG_12 
REMARK    4  A    between atoms: CG_12  and  CD_13 
REMARK       I    between atoms: CD_13  and  NE2_15 
REMARK    5  A    between atoms: CA_17  and  CB_20 
REMARK    6  A    between atoms: CB_20  and  CG_21 
REMARK    7  A    between atoms: CA_28  and  CB_31 
REMARK    8  A    between atoms: CB_31  and  CG_32 
REMARK    9  A    between atoms: CA_36  and  CB_39 
REMARK   10  A    between atoms: CB_39  and  CG_40 
REMARK   11  A    between atoms: CG_40  and  CD1_41 
REMARK   12  A    between atoms: CG_40  and  CD2_42 
REMARK   13  A    between atoms: CA_44  and  CB_47 
REMARK   14  A    between atoms: CB_47  and  OG_48 
REMARK   15  A    between atoms: CA_50  and  CB_53 
REMARK   16  A    between atoms: CB_53  and  OG1_54 
REMARK   17  A    between atoms: CB_53  and  CG2_55 
REMARK   18  A    between atoms: CA_57  and  CB_60 
REMARK   19  A    between atoms: CB_60  and  CG_61 
REMARK   20  A    between atoms: CG_61  and  CD_62 
REMARK   21  A    between atoms: CD_62  and  NE_63 
REMARK       I    between atoms: NE_63  and  CZ_64 
REMARK       I    between atoms: CZ_64  and  NH1_65 
REMARK       I    between atoms: CZ_64  and  NH2_66 
REMARK   22  A    between atoms: CA_68  and  CB_71 
REMARK   23  A    between atoms: CB_71  and  CG_72 
REMARK   24  A    between atoms: CG_72  and  CD_73 
REMARK   25  A    between atoms: CD_73  and  NE_74 
REMARK       I    between atoms: NE_74  and  CZ_75 
REMARK       I    between atoms: CZ_75  and  NH1_76 
REMARK   26  A    between atoms: CA_79  and  CB_82 
REMARK   27  A    between atoms: CB_82  and  CG_83 
REMARK   28  A    between atoms: CG_83  and  CD1_84 
REMARK   29  A    between atoms: CG_83  and  CD2_85 
REMARK   30  A    between atoms: CA_87  and  CB_90 
REMARK   31  A    between atoms: CB_90  and  CG_91 
REMARK   32  A    between atoms: CG_91  and  CD_92 
REMARK   33  A    between atoms: CD_92  and  CE_93 
REMARK   34  A    between atoms: CE_93  and  NZ_94 
REMARK   35  A    between atoms: CA_96  and  C_97 
REMARK       I    between atoms: C_97  and  N1_101 
ROOT
ATOM      1  CA  CYS d   1      16.155  32.587  28.544  0.00  0.00     0.184 C 
ATOM      2  C   CYS d   1      16.635  34.024  28.388  0.00  0.00     0.249 C 
ATOM      3  O   CYS d   1      16.000  34.829  27.706  0.00  0.00    -0.271 OA
ATOM      4  CB  CYS d   1      17.312  31.618  28.303  0.00  0.00     0.021 C 
ATOM      5  SG  CYS d   1      16.846  29.864  28.380  0.00  0.00    -0.095 SA
ATOM      6  H4  CYS d   1      15.795  32.449  29.574  0.00  0.00     0.100 H 
ATOM      7  H5  CYS d   1      18.082  31.804  29.067  0.00  0.00     0.054 H 
ATOM      8  H6  CYS d   1      17.729  31.820  27.305  0.00  0.00     0.054 H 
ATOM      9  N   GLN d   1      17.758  34.350  29.021  0.00  0.00    -0.346 N 
ATOM     10  CA  GLN d   1      18.228  35.728  29.037  0.00  0.00     0.090 C 
ATOM     11  C   GLN d   1      19.722  35.745  29.315  0.00  0.00     0.241 C 
ATOM     12  O   GLN d   1      20.203  35.043  30.216  0.00  0.00    -0.271 OA
ATOM     13  H7  GLN d   1      18.285  33.642  29.491  0.00  0.00     0.163 HD
ATOM     14  H8  GLN d   1      18.046  36.177  28.049  0.00  0.00     0.087 H 
ATOM     15  N   PHE d   1      20.446  36.547  28.538  0.00  0.00    -0.346 N 
ATOM     16  CA  PHE d   1      21.893  36.645  28.658  0.00  0.00     0.093 C 
ATOM     17  C   PHE d   1      22.282  37.363  29.948  0.00  0.00     0.241 C 
ATOM     18  O   PHE d   1      21.725  38.419  30.276  0.00  0.00    -0.271 OA
ATOM     19  H15 PHE d   1      19.980  37.101  27.848  0.00  0.00     0.163 HD
ATOM     20  H16 PHE d   1      22.315  35.629  28.683  0.00  0.00     0.088 H 
ATOM     21  N   ASP d   1      23.256  36.796  30.666  0.00  0.00    -0.345 N 
ATOM     22  CA  ASP d   1      23.746  37.331  31.936  0.00  0.00     0.098 C 
ATOM     23  C   ASP d   1      25.111  37.966  31.699  0.00  0.00     0.241 C 
ATOM     24  O   ASP d   1      26.056  37.266  31.322  0.00  0.00    -0.271 OA
ATOM     25  H24 ASP d   1      23.674  35.958  30.315  0.00  0.00     0.163 HD
ATOM     26  H25 ASP d   1      23.049  38.103  32.295  0.00  0.00     0.088 H 
ATOM     27  N   LEU d   1      25.212  39.281  31.952  0.00  0.00    -0.346 N 
ATOM     28  CA  LEU d   1      26.456  40.009  31.703  0.00  0.00     0.089 C 
ATOM     29  C   LEU d   1      27.577  39.557  32.625  0.00  0.00     0.241 C 
ATOM     30  O   LEU d   1      28.759  39.668  32.267  0.00  0.00    -0.271 OA
ATOM     31  N   LEU d   1      23.641  32.079  29.292  0.00  0.00    -0.346 N 
ATOM     32  CA  LEU d   1      22.195  32.222  29.330  0.00  0.00     0.089 C 
ATOM     33  C   LEU d   1      21.681  31.793  30.694  0.00  0.00     0.241 C 
ATOM     34  O   LEU d   1      22.135  30.792  31.257  0.00  0.00    -0.271 OA
ATOM     35  H28 LEU d   1      24.421  39.772  32.318  0.00  0.00     0.163 HD
ATOM     36  H29 LEU d   1      26.764  39.814  30.665  0.00  0.00     0.087 H 
ATOM     37  H77 LEU d   1      24.057  31.343  28.758  0.00  0.00     0.163 HD
ATOM     38  H78 LEU d   1      21.941  33.280  29.170  0.00  0.00     0.087 H 
ATOM     39  N   SER d   1      27.231  39.058  33.817  0.00  0.00    -0.344 N 
ATOM     40  CA  SER d   1      28.255  38.633  34.769  0.00  0.00     0.109 C 
ATOM     41  C   SER d   1      28.977  37.372  34.301  0.00  0.00     0.243 C 
ATOM     42  O   SER d   1      30.211  37.318  34.303  0.00  0.00    -0.271 OA
ATOM     43  H39 SER d   1      26.264  38.975  34.059  0.00  0.00     0.163 HD
ATOM     44  H40 SER d   1      28.998  39.440  34.857  0.00  0.00     0.090 H 
ATOM     45  N   THR d   1      28.232  36.361  33.874  0.00  0.00    -0.344 N 
ATOM     46  CA  THR d   1      28.777  35.059  33.513  0.00  0.00     0.113 C 
ATOM     47  C   THR d   1      28.938  34.858  32.011  0.00  0.00     0.243 C 
ATOM     48  O   THR d   1      29.560  33.873  31.607  0.00  0.00    -0.271 OA
ATOM     49  H44 THR d   1      27.245  36.500  33.796  0.00  0.00     0.163 HD
ATOM     50  H45 THR d   1      29.771  34.971  33.976  0.00  0.00     0.091 H 
ATOM     51  N   ARG d   1      28.400  35.757  31.185  0.00  0.00    -0.346 N 
ATOM     52  CA  ARG d   1      28.333  35.566  29.737  0.00  0.00     0.089 C 
ATOM     53  C   ARG d   1      27.628  34.261  29.370  0.00  0.00     0.241 C 
ATOM     54  O   ARG d   1      27.961  33.617  28.376  0.00  0.00    -0.271 OA
ATOM     55  N   ARG d   1      26.633  33.869  30.158  0.00  0.00    -0.346 N 
ATOM     56  CA  ARG d   1      25.900  32.638  29.931  0.00  0.00     0.089 C 
ATOM     57  C   ARG d   1      24.409  32.927  29.968  0.00  0.00     0.241 C 
ATOM     58  O   ARG d   1      23.963  33.901  30.584  0.00  0.00    -0.271 OA
ATOM     59  H51 ARG d   1      28.026  36.599  31.574  0.00  0.00     0.163 HD
ATOM     60  H52 ARG d   1      27.737  36.392  29.322  0.00  0.00     0.087 H 
ATOM     61  H64 ARG d   1      26.380  34.444  30.936  0.00  0.00     0.163 HD
ATOM     62  H65 ARG d   1      26.163  32.248  28.937  0.00  0.00     0.087 H 
ATOM     63  N   LYS d   1      20.756  32.582  31.237  0.00  0.00    -0.346 N 
ATOM     64  CA  LYS d   1      20.123  32.252  32.506  0.00  0.00     0.089 C 
ATOM     65  C   LYS d   1      18.637  32.031  32.230  0.00  0.00     0.241 C 
ATOM     66  O   LYS d   1      17.934  32.921  31.732  0.00  0.00    -0.271 OA
ATOM     67  H88 LYS d   1      20.490  33.421  30.762  0.00  0.00     0.163 HD
ATOM     68  H89 LYS d   1      20.557  31.319  32.894  0.00  0.00     0.087 H 
ATOM     69  N   CY3 d   1      18.175  30.819  32.513  0.00  0.00    -0.345 N 
ATOM     70  CA  CY3 d   1      16.825  30.400  32.125  0.00  0.00     0.098 C 
ATOM     71  CB  CY3 d   1      16.875  29.089  31.339  0.00  0.00     0.013 C 
ATOM     72  SG  CY3 d   1      17.995  29.118  29.878  0.00  0.00    -0.095 SA
ATOM     73 1H10 CY3 d   1      18.763  30.176  33.003  0.00  0.00     0.163 HD
ATOM     74 2H10 CY3 d   1      16.370  31.180  31.496  0.00  0.00     0.088 H 
ATOM     75 3H10 CY3 d   1      15.858  28.860  30.988  0.00  0.00     0.053 H 
ATOM     76 4H10 CY3 d   1      17.216  28.294  32.018  0.00  0.00     0.053 H 
ENDROOT
BRANCH  52  77
ATOM     77  CB  ARG d   1      29.727  35.637  29.105  0.00  0.00    -0.036 C 
ATOM     78  H53 ARG d   1      29.630  35.465  28.023  0.00  0.00     0.036 H 
ATOM     79  H54 ARG d   1      30.353  34.848  29.547  0.00  0.00     0.036 H 
BRANCH  77  80
ATOM     80  CG  ARG d   1      30.405  36.966  29.322  0.00  0.00    -0.048 C 
ATOM     81  H55 ARG d   1      30.791  37.002  30.352  0.00  0.00     0.035 H 
ATOM     82  H56 ARG d   1      29.665  37.767  29.180  0.00  0.00     0.035 H 
BRANCH  80  83
ATOM     83  CD  ARG d   1      31.551  37.189  28.367  0.00  0.00     0.009 C 
ATOM     84  H57 ARG d   1      31.154  37.316  27.349  0.00  0.00     0.064 H 
ATOM     85  H58 ARG d   1      32.220  36.316  28.394  0.00  0.00     0.064 H 
BRANCH  83  86
ATOM     86  NE  ARG d   1      32.305  38.385  28.743  0.00  0.00    -0.227 N 
ATOM     87  CZ  ARG d   1      33.400  38.817  28.124  0.00  0.00     0.665 C 
ATOM     88  NH1 ARG d   1      33.891  38.157  27.088  0.00  0.00    -0.235 N 
ATOM     89  NH2 ARG d   1      34.009  39.911  28.548  0.00  0.00    -0.235 N 
ATOM     90  H60 ARG d   1      34.739  38.499  26.615  0.00  0.00     0.174 HD
ATOM     91  H61 ARG d   1      33.425  37.301  26.755  0.00  0.00     0.174 HD
ATOM     92  H62 ARG d   1      33.633  40.430  29.354  0.00  0.00     0.174 HD
ATOM     93  H63 ARG d   1      34.860  40.244  28.072  0.00  0.00     0.174 HD
ATOM     94  H59 ARG d   1      31.963  38.932  29.546  0.00  0.00     0.177 HD
ENDBRANCH  83  86
ENDBRANCH  80  83
ENDBRANCH  77  80
ENDBRANCH  52  77
BRANCH  46  95
ATOM     95  CB  THR d   1      27.873  33.942  34.067  0.00  0.00     0.060 C 
ATOM     96  H46 THR d   1      28.304  32.968  33.793  0.00  0.00     0.086 H 
BRANCH  95  97
ATOM     97  OG1 THR d   1      26.554  34.052  33.498  0.00  0.00    -0.393 OA
ATOM     98  H47 THR d   1      26.002  33.360  33.844  0.00  0.00     0.210 HD
ENDBRANCH  95  97
BRANCH  95  99
ATOM     99  CG2 THR d   1      27.775  34.031  35.602  0.00  0.00    -0.050 C 
ATOM    100  H48 THR d   1      27.126  33.225  35.975  0.00  0.00     0.031 H 
ATOM    101  H49 THR d   1      27.351  35.005  35.886  0.00  0.00     0.031 H 
ATOM    102  H50 THR d   1      28.779  33.926  36.040  0.00  0.00     0.031 H 
ENDBRANCH  95  99
ENDBRANCH  46  95
BRANCH  56 103
ATOM    103  CB  ARG d   1      26.258  31.584  30.977  0.00  0.00    -0.036 C 
ATOM    104  H66 ARG d   1      25.586  30.723  30.846  0.00  0.00     0.036 H 
ATOM    105  H67 ARG d   1      26.105  32.020  31.975  0.00  0.00     0.036 H 
BRANCH 103 106
ATOM    106  CG  ARG d   1      27.686  31.092  30.885  0.00  0.00    -0.048 C 
ATOM    107  H68 ARG d   1      27.880  30.418  31.733  0.00  0.00     0.035 H 
ATOM    108  H69 ARG d   1      28.360  31.959  30.944  0.00  0.00     0.035 H 
BRANCH 106 109
ATOM    109  CD  ARG d   1      27.977  30.335  29.583  0.00  0.00     0.009 C 
ATOM    110  H70 ARG d   1      28.944  29.820  29.682  0.00  0.00     0.064 H 
ATOM    111  H71 ARG d   1      28.030  31.059  28.757  0.00  0.00     0.064 H 
BRANCH 109 112
ATOM    112  NE  ARG d   1      26.948  29.346  29.275  0.00  0.00    -0.227 N 
ATOM    113  CZ  ARG d   1      26.798  28.183  29.906  0.00  0.00     0.665 C 
ATOM    114  NH1 ARG d   1      27.619  27.843  30.897  0.00  0.00    -0.235 N 
ATOM    115  NH2 ARG d   1      25.820  27.356  29.544  0.00  0.00    -0.235 N 
ATOM    116  H73 ARG d   1      27.497  26.942  31.381  0.00  0.00     0.174 HD
ATOM    117  H74 ARG d   1      28.376  28.481  31.180  0.00  0.00     0.174 HD
ATOM    118  H75 ARG d   1      25.183  27.616  28.778  0.00  0.00     0.174 HD
ATOM    119  H76 ARG d   1      25.700  26.456  30.030  0.00  0.00     0.174 HD
ATOM    120  H72 ARG d   1      26.290  29.564  28.514  0.00  0.00     0.177 HD
ENDBRANCH 109 112
ENDBRANCH 106 109
ENDBRANCH 103 106
ENDBRANCH  56 103
BRANCH  40 121
ATOM    121  CB  SER d   1      27.626  38.403  36.139  0.00  0.00     0.044 C 
ATOM    122  H41 SER d   1      28.322  37.822  36.761  0.00  0.00     0.077 H 
ATOM    123  H42 SER d   1      26.689  37.841  36.015  0.00  0.00     0.077 H 
BRANCH 121 124
ATOM    124  OG  SER d   1      27.347  39.629  36.780  0.00  0.00    -0.398 OA
ATOM    125  H43 SER d   1      28.154  40.117  36.893  0.00  0.00     0.209 HD
ENDBRANCH 121 124
ENDBRANCH  40 121
BRANCH  32 126
ATOM    126  CB  LEU d   1      21.534  31.393  28.233  0.00  0.00    -0.035 C 
ATOM    127  H79 LEU d   1      20.451  31.403  28.424  0.00  0.00     0.037 H 
ATOM    128  H80 LEU d   1      21.913  30.365  28.328  0.00  0.00     0.037 H 
BRANCH 126 129
ATOM    129  CG  LEU d   1      21.743  31.823  26.775  0.00  0.00    -0.059 C 
ATOM    130  H81 LEU d   1      22.824  31.827  26.572  0.00  0.00     0.038 H 
BRANCH 129 131
ATOM    131  CD1 LEU d   1      21.079  30.807  25.839  0.00  0.00    -0.073 C 
ATOM    132  H82 LEU d   1      21.230  31.117  24.795  0.00  0.00     0.028 H 
ATOM    133  H83 LEU d   1      20.002  30.759  26.055  0.00  0.00     0.028 H 
ATOM    134  H84 LEU d   1      21.529  29.816  25.996  0.00  0.00     0.028 H 
ENDBRANCH 129 131
BRANCH 129 135
ATOM    135  CD2 LEU d   1      21.212  33.222  26.506  0.00  0.00    -0.073 C 
ATOM    136  H85 LEU d   1      21.699  33.936  27.186  0.00  0.00     0.028 H 
ATOM    137  H86 LEU d   1      20.125  33.240  26.673  0.00  0.00     0.028 H 
ATOM    138  H87 LEU d   1      21.428  33.502  25.464  0.00  0.00     0.028 H 
ENDBRANCH 129 135
ENDBRANCH 126 129
ENDBRANCH  32 126
BRANCH  28 139
ATOM    139  CB  LEU d   1      26.231  41.508  31.870  0.00  0.00    -0.035 C 
ATOM    140  H30 LEU d   1      27.197  42.019  31.744  0.00  0.00     0.037 H 
ATOM    141  H31 LEU d   1      25.849  41.690  32.886  0.00  0.00     0.037 H 
BRANCH 139 142
ATOM    142  CG  LEU d   1      25.245  42.099  30.876  0.00  0.00    -0.059 C 
ATOM    143  H32 LEU d   1      24.335  41.480  30.878  0.00  0.00     0.038 H 
BRANCH 142 144
ATOM    144  CD1 LEU d   1      24.873  43.497  31.289  0.00  0.00    -0.073 C 
ATOM    145  H33 LEU d   1      24.160  43.916  30.564  0.00  0.00     0.028 H 
ATOM    146  H34 LEU d   1      25.777  44.123  31.318  0.00  0.00     0.028 H 
ATOM    147  H35 LEU d   1      24.411  43.474  32.287  0.00  0.00     0.028 H 
ENDBRANCH 142 144
BRANCH 142 148
ATOM    148  CD2 LEU d   1      25.819  42.093  29.482  0.00  0.00    -0.073 C 
ATOM    149  H36 LEU d   1      26.084  41.064  29.199  0.00  0.00     0.028 H 
ATOM    150  H37 LEU d   1      26.719  42.724  29.453  0.00  0.00     0.028 H 
ATOM    151  H38 LEU d   1      25.073  42.486  28.776  0.00  0.00     0.028 H 
ENDBRANCH 142 148
ENDBRANCH 139 142
ENDBRANCH  28 139
BRANCH  64 152
ATOM    152  CB  LYS d   1      20.356  33.357  33.543  0.00  0.00    -0.038 C 
ATOM    153  H90 LYS d   1      19.733  34.221  33.268  0.00  0.00     0.036 H 
ATOM    154  H91 LYS d   1      21.417  33.643  33.505  0.00  0.00     0.036 H 
BRANCH 152 155
ATOM    155  CG  LYS d   1      20.022  32.970  34.975  0.00  0.00    -0.061 C 
ATOM    156  H92 LYS d   1      20.588  32.064  35.238  0.00  0.00     0.033 H 
ATOM    157  H93 LYS d   1      18.944  32.762  35.044  0.00  0.00     0.033 H 
BRANCH 155 158
ATOM    158  CD  LYS d   1      20.374  34.077  35.969  0.00  0.00    -0.043 C 
ATOM    159  H94 LYS d   1      19.564  34.162  36.709  0.00  0.00     0.035 H 
ATOM    160  H95 LYS d   1      20.474  35.027  35.423  0.00  0.00     0.035 H 
BRANCH 158 161
ATOM    161  CE  LYS d   1      21.688  33.785  36.703  0.00  0.00     0.080 C 
ATOM    162  H96 LYS d   1      21.924  34.637  37.357  0.00  0.00     0.075 H 
ATOM    163  H97 LYS d   1      22.488  33.661  35.959  0.00  0.00     0.075 H 
BRANCH 161 164
ATOM    164  NZ  LYS d   1      21.612  32.547  37.537  0.00  0.00    -0.079 N 
ATOM    165  H98 LYS d   1      22.496  32.398  37.998  0.00  0.00     0.274 HD
ATOM    166  H99 LYS d   1      21.403  31.757  36.947  0.00  0.00     0.274 HD
ATOM    167 0H10 LYS d   1      20.886  32.652  38.228  0.00  0.00     0.274 HD
ENDBRANCH 161 164
ENDBRANCH 158 161
ENDBRANCH 155 158
ENDBRANCH 152 155
ENDBRANCH  64 152
BRANCH  22 168
ATOM    168  CB  ASP d   1      23.828  36.220  32.988  0.00  0.00     0.043 C 
ATOM    169  H26 ASP d   1      24.546  35.463  32.639  0.00  0.00     0.052 H 
ATOM    170  H27 ASP d   1      22.833  35.763  33.089  0.00  0.00     0.052 H 
BRANCH 168 171
ATOM    171  CG  ASP d   1      24.271  36.708  34.350  0.00  0.00     0.175 C 
ATOM    172  OD1 ASP d   1      24.775  37.842  34.480  0.00  0.00    -0.648 OA
ATOM    173  OD2 ASP d   1      24.131  35.928  35.310  0.00  0.00    -0.648 OA
ENDBRANCH 168 171
ENDBRANCH  22 168
BRANCH  70 174
ATOM    174  C   CY3 d   1      15.984  30.208  33.382  0.00  0.00     0.239 C 
ATOM    175  O   CY3 d   1      16.336  30.682  34.464  0.00  0.00    -0.271 OA
ATOM    176  N1  CY3 d   1      14.879  29.495  33.202  0.00  0.00    -0.368 N 
ATOM    177 5H10 CY3 d   1      14.267  29.319  33.973  0.00  0.00     0.159 HD
ATOM    178 6H10 CY3 d   1      14.659  29.134  32.296  0.00  0.00     0.159 HD
ENDBRANCH  70 174
BRANCH  16 179
ATOM    179  CB  PHE d   1      22.456  37.382  27.444  0.00  0.00    -0.014 C 
ATOM    180  H17 PHE d   1      22.051  38.405  27.441  0.00  0.00     0.043 H 
ATOM    181  H18 PHE d   1      22.128  36.855  26.536  0.00  0.00     0.043 H 
BRANCH 179 182
ATOM    182  CG  PHE d   1      23.946  37.466  27.426  0.00  0.00    -0.056 A 
ATOM    183  CD1 PHE d   1      24.712  36.323  27.256  0.00  0.00    -0.077 A 
ATOM    184  CE1 PHE d   1      26.098  36.395  27.228  0.00  0.00    -0.082 A 
ATOM    185  H19 PHE d   1      24.223  35.362  27.144  0.00  0.00     0.084 H 
ATOM    186  CZ  PHE d   1      26.730  37.624  27.377  0.00  0.00    -0.083 A 
ATOM    187  H21 PHE d   1      26.686  35.495  27.090  0.00  0.00     0.083 H 
ATOM    188  CE2 PHE d   1      25.978  38.769  27.540  0.00  0.00    -0.082 A 
ATOM    189  H23 PHE d   1      27.812  37.683  27.365  0.00  0.00     0.083 H 
ATOM    190  CD2 PHE d   1      24.589  38.688  27.564  0.00  0.00    -0.077 A 
ATOM    191  H22 PHE d   1      26.468  39.730  27.649  0.00  0.00     0.083 H 
ATOM    192  H20 PHE d   1      24.002  39.590  27.692  0.00  0.00     0.084 H 
ENDBRANCH 179 182
ENDBRANCH  16 179
BRANCH   1 193
ATOM    193  N   CYS d   1      15.049  32.316  27.631  0.00  0.00    -0.066 N 
ATOM    194  H1  CYS d   1      14.744  31.362  27.747  0.00  0.00     0.275 HD
ATOM    195  H2  CYS d   1      15.355  32.458  26.681  0.00  0.00     0.275 HD
ATOM    196  H3  CYS d   1      14.284  32.941  27.835  0.00  0.00     0.275 HD
ENDBRANCH   1 193
BRANCH  10 197
ATOM    197  CB  GLN d   1      17.475  36.543  30.088  0.00  0.00    -0.030 C 
ATOM    198  H9  GLN d   1      17.863  36.269  31.080  0.00  0.00     0.037 H 
ATOM    199  H10 GLN d   1      16.408  36.282  30.027  0.00  0.00     0.037 H 
BRANCH 197 200
ATOM    200  CG  GLN d   1      17.606  38.034  29.926  0.00  0.00     0.011 C 
ATOM    201  H11 GLN d   1      17.082  38.338  29.008  0.00  0.00     0.047 H 
ATOM    202  H12 GLN d   1      18.673  38.289  29.841  0.00  0.00     0.047 H 
BRANCH 200 203
ATOM    203  CD  GLN d   1      17.014  38.791  31.101  0.00  0.00     0.215 C 
ATOM    204  OE1 GLN d   1      17.358  39.950  31.352  0.00  0.00    -0.274 OA
ATOM    205  NE2 GLN d   1      16.123  38.133  31.835  0.00  0.00    -0.370 N 
ATOM    206  H13 GLN d   1      15.697  38.578  32.623  0.00  0.00     0.159 HD
ATOM    207  H14 GLN d   1      15.878  37.193  31.600  0.00  0.00     0.159 HD
ENDBRANCH 200 203
ENDBRANCH 197 200
ENDBRANCH  10 197
TORSDOF 35
