REMARK WARNING: 32 MAX_TORS EXCEEDED!!!
REMARK  46 active torsions:
REMARK  status: ('A' for Active; 'I' for Inactive)
REMARK    1  A    between atoms: C_1  and  CH3_3 
REMARK       I    between atoms: N_4  and  C_1 
REMARK    2  A    between atoms: CA_5  and  N_4 
REMARK    3  A    between atoms: C_6  and  CA_5 
REMARK    4  A    between atoms: CA_5  and  CB_8 
REMARK       I    between atoms: N_14  and  C_6 
REMARK    5  A    between atoms: CB_8  and  CG_9 
REMARK    6  A    between atoms: CA_15  and  N_14 
REMARK    7  A    between atoms: C_16  and  CA_15 
REMARK    8  A    between atoms: CA_15  and  CB_18 
REMARK       I    between atoms: N_23  and  C_16 
REMARK    9  A    between atoms: CB_18  and  CG_19 
REMARK   10  A    between atoms: CG_19  and  CD_20 
REMARK   11  A    between atoms: CD_20  and  CE_21 
REMARK   12  A    between atoms: CE_21  and  NZ_22 
REMARK   13  A    between atoms: CA_24  and  N_23 
REMARK   14  A    between atoms: CA_24  and  CB2_30 
REMARK   15  A    between atoms: CC_26  and  CD2_27 
REMARK   16  A    between atoms: CA_34  and  CB_37 
REMARK   17  A    between atoms: CB_37  and  CG_38 
REMARK   18  A    between atoms: CG_38  and  CD1_39 
REMARK   19  A    between atoms: CG_38  and  CD2_40 
REMARK   20  A    between atoms: CA_42  and  CB_45 
REMARK   21  A    between atoms: CB_45  and  CG_46 
REMARK   22  A    between atoms: CA_52  and  CB_55 
REMARK   23  A    between atoms: CB_55  and  CG_56 
REMARK   24  A    between atoms: CG_56  and  CD_57 
REMARK   25  A    between atoms: CD_57  and  NE_58 
REMARK       I    between atoms: NE_58  and  CZ_59 
REMARK       I    between atoms: CZ_59  and  NH1_60 
REMARK   26  A    between atoms: CA_65  and  C_62 
REMARK       I    between atoms: C_62  and  N_71 
REMARK   27  A    between atoms: CA_65  and  CB1_70 
REMARK   28  A    between atoms: N_71  and  CA_72 
REMARK   29  A    between atoms: CA_72  and  C_73 
REMARK   30  A    between atoms: CA_72  and  CB_75 
REMARK       I    between atoms: C_73  and  N_79 
REMARK   31  A    between atoms: CB_75  and  CG_76 
REMARK   32  A    between atoms: CG_76  and  CD1_77 
REMARK   33  A    between atoms: CG_76  and  CD2_78 
REMARK   34  A    between atoms: N_79  and  CA_80 
REMARK   35  A    between atoms: CA_80  and  C_81 
REMARK   36  A    between atoms: CA_80  and  CB_83 
REMARK       I    between atoms: C_81  and  N_88 
REMARK   37  A    between atoms: CB_83  and  CG_84 
REMARK   38  A    between atoms: CG_84  and  CD_85 
REMARK       I    between atoms: CD_85  and  NE2_87 
REMARK   39  A    between atoms: N_88  and  CA_89 
REMARK   40  A    between atoms: CA_89  and  C_90 
REMARK   41  A    between atoms: CA_89  and  CB_92 
REMARK       I    between atoms: C_90  and  N_96 
REMARK   42  A    between atoms: CB_92  and  CG_93 
REMARK   43  A    between atoms: N_96  and  CA_97 
REMARK   44  A    between atoms: CA_97  and  C_98 
REMARK   45  A    between atoms: CA_97  and  CB_100 
REMARK   46  A    between atoms: CB_100  and  OG_101 
ROOT
ATOM      1  N   HIS d   1      24.503  18.070   4.028  0.00  0.00    -0.346 N 
ATOM      2  CA  HIS d   1      23.787  19.329   3.739  0.00  0.00     0.094 C 
ATOM      3  C   HIS d   1      24.061  19.777   2.426  0.00  0.00     0.241 C 
ATOM      4  O   HIS d   1      23.187  20.268   1.712  0.00  0.00    -0.271 OA
ATOM      5  H48 HIS d   1      25.146  18.046   4.793  0.00  0.00     0.163 HD
ATOM      6  H49 HIS d   1      22.701  19.180   3.832  0.00  0.00     0.088 H 
ATOM      7  CA  66D d   1      28.515  16.604   3.821  0.00  0.00     0.110 C 
ATOM      8  CB  66D d   1      29.257  15.259   4.186  0.00  0.00    -0.030 C 
ATOM      9  CC  66D d   1      29.078  14.442   2.935  0.00  0.00    -0.052 C 
ATOM     10  CD  66D d   1      29.439  14.601   1.588  0.00  0.00    -0.047 C 
ATOM     11  CE  66D d   1      28.943  13.440   0.940  0.00  0.00    -0.106 C 
ATOM     12  C   66D d   1      27.307  16.384   3.210  0.00  0.00     0.246 C 
ATOM     13  O   66D d   1      27.091  16.781   2.056  0.00  0.00    -0.271 OA
ATOM     14  H25 66D d   1      28.789  14.768   5.052  0.00  0.00     0.037 H 
ATOM     15  H26 66D d   1      30.322  15.436   4.396  0.00  0.00     0.037 H 
ATOM     16  H27 66D d   1      28.055  14.037   2.944  0.00  0.00     0.040 H 
ATOM     17  H31 66D d   1      30.532  14.665   1.485  0.00  0.00     0.039 H 
ATOM     18  H32 66D d   1      28.977  15.507   1.167  0.00  0.00     0.039 H 
ATOM     19  H33 66D d   1      29.654  12.627   0.801  0.00  0.00     0.076 H 
ATOM     20  N   LEU d   1      26.322  16.002   4.048  0.00  0.00    -0.346 N 
ATOM     21  CA  LEU d   1      24.989  15.736   3.544  0.00  0.00     0.089 C 
ATOM     22  C   LEU d   1      24.314  16.915   3.272  0.00  0.00     0.241 C 
ATOM     23  O   LEU d   1      23.606  16.964   2.273  0.00  0.00    -0.271 OA
ATOM     24  H37 LEU d   1      26.512  15.901   5.024  0.00  0.00     0.163 HD
ATOM     25  H38 LEU d   1      25.044  15.142   2.620  0.00  0.00     0.087 H 
ATOM     26  N   ARG d   1      25.313  19.523   1.865  0.00  0.00    -0.346 N 
ATOM     27  CA  ARG d   1      25.715  19.939   0.513  0.00  0.00     0.089 C 
ATOM     28  C   ARG d   1      25.241  19.017  -0.464  0.00  0.00     0.241 C 
ATOM     29  O   ARG d   1      24.723  19.483  -1.465  0.00  0.00    -0.271 OA
ATOM     30  H55 ARG d   1      25.981  19.025   2.419  0.00  0.00     0.163 HD
ATOM     31  H56 ARG d   1      25.344  20.952   0.300  0.00  0.00     0.087 H 
ATOM     32  N   MK8 d   1      25.102  17.595  -0.322  0.00  0.00    -0.342 N 
ATOM     33  CA  MK8 d   1      24.590  16.571  -1.346  0.00  0.00     0.110 C 
ATOM     34  CB  MK8 d   1      24.819  15.298  -0.596  0.00  0.00    -0.033 C 
ATOM     35  CD  MK8 d   1      26.332  13.677   0.266  0.00  0.00    -0.050 C 
ATOM     36  CE  MK8 d   1      27.641  13.216   0.456  0.00  0.00    -0.107 C 
ATOM     37  CG  MK8 d   1      26.295  14.974  -0.480  0.00  0.00    -0.059 C 
ATOM     38  H68 MK8 d   1      25.376  17.220   0.564  0.00  0.00     0.163 HD
ATOM     39  H69 MK8 d   1      24.314  14.476  -1.125  0.00  0.00     0.037 H 
ATOM     40  H70 MK8 d   1      24.395  15.398   0.414  0.00  0.00     0.037 H 
ATOM     41  H71 MK8 d   1      25.860  13.820   1.249  0.00  0.00     0.038 H 
ATOM     42  H72 MK8 d   1      25.770  12.923  -0.305  0.00  0.00     0.038 H 
ATOM     43  H73 MK8 d   1      27.660  12.214   0.029  0.00  0.00     0.076 H 
ATOM     44  H74 MK8 d   1      26.824  15.760   0.079  0.00  0.00     0.033 H 
ATOM     45  H75 MK8 d   1      26.749  14.864  -1.476  0.00  0.00     0.033 H 
ENDROOT
BRANCH  33  46
ATOM     46  C   MK8 d   1      23.208  16.823  -1.423  0.00  0.00     0.246 C 
ATOM     47  O   MK8 d   1      22.652  16.497  -2.485  0.00  0.00    -0.271 OA
ATOM     48  N   LEU d   1      22.496  17.181  -0.381  0.00  0.00    -0.346 N 
ATOM     49  H79 LEU d   1      22.932  17.293   0.512  0.00  0.00     0.163 HD
BRANCH  48  50
ATOM     50  CA  LEU d   1      21.042  17.418  -0.535  0.00  0.00     0.089 C 
ATOM     51  H80 LEU d   1      20.597  16.498  -0.941  0.00  0.00     0.087 H 
BRANCH  50  52
ATOM     52  C   LEU d   1      20.711  18.529  -1.505  0.00  0.00     0.241 C 
ATOM     53  O   LEU d   1      19.585  18.585  -1.978  0.00  0.00    -0.271 OA
ATOM     54  N   GLN d   1      21.703  19.331  -1.868  0.00  0.00    -0.346 N 
ATOM     55  H90 GLN d   1      22.622  19.188  -1.501  0.00  0.00     0.163 HD
BRANCH  54  56
ATOM     56  CA  GLN d   1      21.450  20.428  -2.808  0.00  0.00     0.090 C 
ATOM     57  H91 GLN d   1      20.392  20.694  -2.669  0.00  0.00     0.087 H 
BRANCH  56  58
ATOM     58  C   GLN d   1      21.607  20.132  -4.297  0.00  0.00     0.241 C 
ATOM     59  O   GLN d   1      21.263  20.994  -5.098  0.00  0.00    -0.271 OA
ATOM     60  N   ASP d   1      22.191  18.986  -4.648  0.00  0.00    -0.346 N 
ATOM     61  H98 ASP d   1      22.504  18.363  -3.931  0.00  0.00     0.163 HD
BRANCH  60  62
ATOM     62  CA  ASP d   1      22.389  18.609  -6.053  0.00  0.00     0.098 C 
ATOM     63  H99 ASP d   1      23.062  19.331  -6.538  0.00  0.00     0.088 H 
BRANCH  62  64
ATOM     64  C   ASP d   1      21.081  18.533  -6.806  0.00  0.00     0.241 C 
ATOM     65  O   ASP d   1      20.464  17.474  -6.888  0.00  0.00    -0.271 OA
ATOM     66  N   SER d   1      20.691  19.660  -7.392  0.00  0.00    -0.345 N 
ATOM     67 2H10 SER d   1      21.250  20.486  -7.319  0.00  0.00     0.163 HD
BRANCH  66  68
ATOM     68  CA  SER d   1      19.432  19.682  -8.147  0.00  0.00     0.096 C 
ATOM     69 3H10 SER d   1      19.188  20.726  -8.393  0.00  0.00     0.089 H 
BRANCH  68  70
ATOM     70  C   SER d   1      18.298  19.132  -7.241  0.00  0.00     0.174 C 
ATOM     71  O   SER d   1      17.534  18.106  -7.683  0.00  0.00    -0.175 OA
ATOM     72  N   NH2 d   1      18.148  19.735  -6.059  0.00  0.00    -0.379 N 
ATOM     73 7H10 NH2 d   1      17.435  19.428  -5.428  0.00  0.00     0.158 HD
ATOM     74 8H10 NH2 d   1      18.748  20.493  -5.805  0.00  0.00     0.158 HD
ENDBRANCH  68  70
BRANCH  68  75
ATOM     75  CB  SER d   1      19.606  18.927  -9.463  0.00  0.00     0.043 C 
ATOM     76 4H10 SER d   1      18.663  18.935 -10.030  0.00  0.00     0.077 H 
ATOM     77 5H10 SER d   1      19.907  17.887  -9.265  0.00  0.00     0.077 H 
BRANCH  75  78
ATOM     78  OG  SER d   1      20.630  19.602 -10.203  0.00  0.00    -0.398 OA
ATOM     79 6H10 SER d   1      21.438  19.595  -9.703  0.00  0.00     0.209 HD
ENDBRANCH  75  78
ENDBRANCH  68  75
ENDBRANCH  66  68
ENDBRANCH  62  64
BRANCH  62  80
ATOM     80  CB  ASP d   1      22.975  17.222  -6.094  0.00  0.00     0.043 C 
ATOM     81 0H10 ASP d   1      22.499  16.652  -6.905  0.00  0.00     0.052 H 
ATOM     82 1H10 ASP d   1      22.785  16.721  -5.133  0.00  0.00     0.052 H 
BRANCH  80  83
ATOM     83  CG  ASP d   1      24.457  17.282  -6.336  0.00  0.00     0.175 C 
ATOM     84  OD1 ASP d   1      24.897  16.312  -6.992  0.00  0.00    -0.648 OA
ATOM     85  OD2 ASP d   1      25.079  18.317  -6.025  0.00  0.00    -0.648 OA
ENDBRANCH  80  83
ENDBRANCH  62  80
ENDBRANCH  60  62
ENDBRANCH  56  58
BRANCH  56  86
ATOM     86  CB  GLN d   1      22.260  21.644  -2.442  0.00  0.00    -0.030 C 
ATOM     87  H92 GLN d   1      22.081  22.445  -3.175  0.00  0.00     0.037 H 
ATOM     88  H93 GLN d   1      23.330  21.389  -2.432  0.00  0.00     0.037 H 
BRANCH  86  89
ATOM     89  CG  GLN d   1      21.829  22.106  -1.062  0.00  0.00     0.011 C 
ATOM     90  H94 GLN d   1      22.047  21.326  -0.317  0.00  0.00     0.047 H 
ATOM     91  H95 GLN d   1      20.752  22.327  -1.057  0.00  0.00     0.047 H 
BRANCH  89  92
ATOM     92  CD  GLN d   1      22.620  23.362  -0.748  0.00  0.00     0.215 C 
ATOM     93  OE1 GLN d   1      22.426  24.398  -1.375  0.00  0.00    -0.274 OA
ATOM     94  NE2 GLN d   1      23.516  23.244   0.211  0.00  0.00    -0.370 N 
ATOM     95  H96 GLN d   1      24.075  24.031   0.472  0.00  0.00     0.159 HD
ATOM     96  H97 GLN d   1      23.637  22.368   0.677  0.00  0.00     0.159 HD
ENDBRANCH  89  92
ENDBRANCH  86  89
ENDBRANCH  56  86
ENDBRANCH  54  56
ENDBRANCH  50  52
BRANCH  50  97
ATOM     97  CB  LEU d   1      20.440  17.656   0.851  0.00  0.00    -0.035 C 
ATOM     98  H81 LEU d   1      19.454  18.131   0.742  0.00  0.00     0.037 H 
ATOM     99  H82 LEU d   1      21.104  18.317   1.427  0.00  0.00     0.037 H 
BRANCH  97 100
ATOM    100  CG  LEU d   1      20.282  16.336   1.589  0.00  0.00    -0.059 C 
ATOM    101  H83 LEU d   1      21.108  15.637   1.391  0.00  0.00     0.038 H 
BRANCH 100 102
ATOM    102  CD1 LEU d   1      20.059  16.594   3.062  0.00  0.00    -0.073 C 
ATOM    103  H84 LEU d   1      19.946  15.635   3.589  0.00  0.00     0.028 H 
ATOM    104  H85 LEU d   1      19.148  17.195   3.195  0.00  0.00     0.028 H 
ATOM    105  H86 LEU d   1      20.921  17.139   3.474  0.00  0.00     0.028 H 
ENDBRANCH 100 102
BRANCH 100 106
ATOM    106  CD2 LEU d   1      18.877  15.818   1.144  0.00  0.00    -0.073 C 
ATOM    107  H87 LEU d   1      18.895  15.586   0.069  0.00  0.00     0.028 H 
ATOM    108  H88 LEU d   1      18.122  16.593   1.339  0.00  0.00     0.028 H 
ATOM    109  H89 LEU d   1      18.625  14.909   1.710  0.00  0.00     0.028 H 
ENDBRANCH 100 106
ENDBRANCH  97 100
ENDBRANCH  50  97
ENDBRANCH  48  50
ENDBRANCH  33  46
BRANCH  33 110
ATOM    110  CB1 MK8 d   1      25.356  16.704  -2.642  0.00  0.00    -0.044 C 
ATOM    111  H76 MK8 d   1      24.981  15.966  -3.367  0.00  0.00     0.031 H 
ATOM    112  H77 MK8 d   1      26.425  16.524  -2.456  0.00  0.00     0.031 H 
ATOM    113  H78 MK8 d   1      25.219  17.718  -3.046  0.00  0.00     0.031 H 
ENDBRANCH  33 110
BRANCH  27 114
ATOM    114  CB  ARG d   1      27.267  19.882   0.447  0.00  0.00    -0.036 C 
ATOM    115  H57 ARG d   1      27.599  18.887   0.778  0.00  0.00     0.036 H 
ATOM    116  H58 ARG d   1      27.678  20.649   1.120  0.00  0.00     0.036 H 
BRANCH 114 117
ATOM    117  CG  ARG d   1      27.800  20.134  -0.975  0.00  0.00    -0.048 C 
ATOM    118  H59 ARG d   1      27.325  19.415  -1.658  0.00  0.00     0.035 H 
ATOM    119  H60 ARG d   1      28.888  19.975  -0.973  0.00  0.00     0.035 H 
BRANCH 117 120
ATOM    120  CD  ARG d   1      27.521  21.529  -1.479  0.00  0.00     0.009 C 
ATOM    121  H61 ARG d   1      28.112  22.248  -0.893  0.00  0.00     0.064 H 
ATOM    122  H62 ARG d   1      26.450  21.748  -1.356  0.00  0.00     0.064 H 
BRANCH 120 123
ATOM    123  NE  ARG d   1      27.878  21.658  -2.898  0.00  0.00    -0.227 N 
ATOM    124  CZ  ARG d   1      29.082  21.913  -3.406  0.00  0.00     0.665 C 
ATOM    125  NH1 ARG d   1      30.139  22.047  -2.613  0.00  0.00    -0.235 N 
ATOM    126  NH2 ARG d   1      29.248  22.002  -4.724  0.00  0.00    -0.235 N 
ATOM    127  H64 ARG d   1      31.065  22.244  -3.018  0.00  0.00     0.174 HD
ATOM    128  H65 ARG d   1      30.032  21.954  -1.593  0.00  0.00     0.174 HD
ATOM    129  H66 ARG d   1      28.439  21.900  -5.353  0.00  0.00     0.174 HD
ATOM    130  H67 ARG d   1      30.186  22.172  -5.115  0.00  0.00     0.174 HD
ATOM    131  H63 ARG d   1      27.111  21.538  -3.575  0.00  0.00     0.177 HD
ENDBRANCH 120 123
ENDBRANCH 117 120
ENDBRANCH 114 117
ENDBRANCH  27 114
BRANCH   2 132
ATOM    132  CB  HIS d   1      24.265  20.271   4.824  0.00  0.00     0.002 C 
ATOM    133  H50 HIS d   1      25.363  20.332   4.783  0.00  0.00     0.046 H 
ATOM    134  H51 HIS d   1      23.956  19.872   5.801  0.00  0.00     0.046 H 
BRANCH 132 135
ATOM    135  CG  HIS d   1      23.698  21.651   4.664  0.00  0.00     0.030 A 
ATOM    136  ND1 HIS d   1      24.138  22.512   3.765  0.00  0.00    -0.353 N 
ATOM    137  CE1 HIS d   1      23.419  23.615   3.938  0.00  0.00     0.063 A 
ATOM    138  H52 HIS d   1      24.885  22.360   3.072  0.00  0.00     0.166 HD
ATOM    139  NE2 HIS d   1      22.565  23.414   4.943  0.00  0.00    -0.254 NA
ATOM    140  H54 HIS d   1      23.511  24.531   3.356  0.00  0.00     0.143 H 
ATOM    141  CD2 HIS d   1      22.740  22.180   5.405  0.00  0.00     0.025 A 
ATOM    142  H53 HIS d   1      22.205  21.703   6.225  0.00  0.00     0.117 H 
ENDBRANCH 132 135
ENDBRANCH   2 132
BRANCH   9 143
ATOM    143  CD2 66D d   1      30.263  13.410   3.361  0.00  0.00    -0.073 C 
ATOM    144  H28 66D d   1      30.376  12.640   2.583  0.00  0.00     0.028 H 
ATOM    145  H29 66D d   1      30.005  12.930   4.317  0.00  0.00     0.028 H 
ATOM    146  H30 66D d   1      31.208  13.962   3.471  0.00  0.00     0.028 H 
ENDBRANCH   9 143
BRANCH  21 147
ATOM    147  CB  LEU d   1      24.318  14.915   4.654  0.00  0.00    -0.035 C 
ATOM    148  H39 LEU d   1      24.323  15.511   5.578  0.00  0.00     0.037 H 
ATOM    149  H40 LEU d   1      24.902  13.995   4.807  0.00  0.00     0.037 H 
BRANCH 147 150
ATOM    150  CG  LEU d   1      22.881  14.525   4.342  0.00  0.00    -0.059 C 
ATOM    151  H41 LEU d   1      22.266  15.428   4.214  0.00  0.00     0.038 H 
BRANCH 150 152
ATOM    152  CD1 LEU d   1      22.850  13.694   3.067  0.00  0.00    -0.073 C 
ATOM    153  H42 LEU d   1      21.812  13.411   2.839  0.00  0.00     0.028 H 
ATOM    154  H43 LEU d   1      23.456  12.786   3.206  0.00  0.00     0.028 H 
ATOM    155  H44 LEU d   1      23.260  14.284   2.234  0.00  0.00     0.028 H 
ENDBRANCH 150 152
BRANCH 150 156
ATOM    156  CD2 LEU d   1      22.339  13.682   5.503  0.00  0.00    -0.073 C 
ATOM    157  H45 LEU d   1      22.358  14.277   6.428  0.00  0.00     0.028 H 
ATOM    158  H46 LEU d   1      22.965  12.787   5.630  0.00  0.00     0.028 H 
ATOM    159  H47 LEU d   1      21.305  13.378   5.284  0.00  0.00     0.028 H 
ENDBRANCH 150 156
ENDBRANCH 147 150
ENDBRANCH  21 147
BRANCH   7 160
ATOM    160  N   66D d   1      28.586  17.201   5.096  0.00  0.00    -0.342 N 
ATOM    161  C   LYS d   1      27.767  18.190   5.439  0.00  0.00     0.241 C 
ATOM    162  O   LYS d   1      27.275  19.013   4.671  0.00  0.00    -0.271 OA
ATOM    163  H24 66D d   1      29.265  16.875   5.754  0.00  0.00     0.163 HD
BRANCH 161 164
ATOM    164  CA  LYS d   1      28.054  18.622   6.819  0.00  0.00     0.089 C 
ATOM    165  H12 LYS d   1      29.045  18.318   7.187  0.00  0.00     0.087 H 
BRANCH 164 166
ATOM    166  N   LYS d   1      27.767  19.995   7.026  0.00  0.00    -0.346 N 
ATOM    167  C   HIS d   1      28.585  20.861   6.514  0.00  0.00     0.241 C 
ATOM    168  O   HIS d   1      29.621  20.551   5.937  0.00  0.00    -0.271 OA
ATOM    169  H11 LYS d   1      26.964  20.285   7.547  0.00  0.00     0.163 HD
BRANCH 167 170
ATOM    170  CA  HIS d   1      28.129  22.261   6.829  0.00  0.00     0.094 C 
ATOM    171  H5  HIS d   1      27.616  22.263   7.802  0.00  0.00     0.088 H 
BRANCH 170 172
ATOM    172  N   HIS d   1      29.256  23.184   6.846  0.00  0.00    -0.348 N 
ATOM    173  C   ACE d   1      30.161  23.206   7.814  0.00  0.00     0.214 C 
ATOM    174  O   ACE d   1      30.177  22.446   8.784  0.00  0.00    -0.274 OA
ATOM    175  H4  HIS d   1      29.351  23.832   6.091  0.00  0.00     0.163 HD
BRANCH 173 176
ATOM    176  CH3 ACE d   1      31.229  24.264   7.586  0.00  0.00    -0.003 C 
ATOM    177  H1  ACE d   1      31.006  24.817   6.662  0.00  0.00     0.040 H 
ATOM    178  H2  ACE d   1      32.212  23.779   7.494  0.00  0.00     0.040 H 
ATOM    179  H3  ACE d   1      31.242  24.961   8.437  0.00  0.00     0.040 H 
ENDBRANCH 173 176
ENDBRANCH 170 172
BRANCH 170 180
ATOM    180  CB  HIS d   1      27.213  22.797   5.749  0.00  0.00     0.002 C 
ATOM    181  H6  HIS d   1      26.380  22.105   5.560  0.00  0.00     0.046 H 
ATOM    182  H7  HIS d   1      27.765  22.970   4.814  0.00  0.00     0.046 H 
BRANCH 180 183
ATOM    183  CG  HIS d   1      26.711  24.106   6.335  0.00  0.00     0.030 A 
ATOM    184  ND1 HIS d   1      25.745  24.135   7.248  0.00  0.00    -0.353 N 
ATOM    185  CE1 HIS d   1      25.548  25.416   7.546  0.00  0.00     0.063 A 
ATOM    186  H8  HIS d   1      25.248  23.326   7.646  0.00  0.00     0.166 HD
ATOM    187  NE2 HIS d   1      26.396  26.147   6.818  0.00  0.00    -0.254 NA
ATOM    188  H10 HIS d   1      24.822  25.802   8.260  0.00  0.00     0.143 H 
ATOM    189  CD2 HIS d   1      27.131  25.330   6.065  0.00  0.00     0.025 A 
ATOM    190  H9  HIS d   1      27.918  25.613   5.368  0.00  0.00     0.117 H 
ENDBRANCH 180 183
ENDBRANCH 170 180
ENDBRANCH 167 170
ENDBRANCH 164 166
BRANCH 164 191
ATOM    191  CB  LYS d   1      26.828  17.978   7.509  0.00  0.00    -0.038 C 
ATOM    192  H13 LYS d   1      26.831  16.898   7.298  0.00  0.00     0.036 H 
ATOM    193  H14 LYS d   1      25.914  18.430   7.096  0.00  0.00     0.036 H 
BRANCH 191 194
ATOM    194  CG  LYS d   1      26.833  18.178   9.009  0.00  0.00    -0.061 C 
ATOM    195  H15 LYS d   1      26.985  19.247   9.222  0.00  0.00     0.033 H 
ATOM    196  H16 LYS d   1      27.662  17.597   9.439  0.00  0.00     0.033 H 
BRANCH 194 197
ATOM    197  CD  LYS d   1      25.530  17.730   9.664  0.00  0.00    -0.043 C 
ATOM    198  H17 LYS d   1      25.009  17.004   9.023  0.00  0.00     0.035 H 
ATOM    199  H18 LYS d   1      24.875  18.595   9.846  0.00  0.00     0.035 H 
BRANCH 197 200
ATOM    200  CE  LYS d   1      25.932  17.083  10.980  0.00  0.00     0.080 C 
ATOM    201  H19 LYS d   1      26.670  17.724  11.485  0.00  0.00     0.075 H 
ATOM    202  H20 LYS d   1      26.379  16.099  10.775  0.00  0.00     0.075 H 
BRANCH 200 203
ATOM    203  NZ  LYS d   1      24.773  16.908  11.856  0.00  0.00    -0.079 N 
ATOM    204  H21 LYS d   1      25.066  16.478  12.719  0.00  0.00     0.274 HD
ATOM    205  H22 LYS d   1      24.094  16.318  11.401  0.00  0.00     0.274 HD
ATOM    206  H23 LYS d   1      24.361  17.807  12.051  0.00  0.00     0.274 HD
ENDBRANCH 200 203
ENDBRANCH 197 200
ENDBRANCH 194 197
ENDBRANCH 191 194
ENDBRANCH 164 191
ENDBRANCH 161 164
ENDBRANCH   7 160
BRANCH   7 207
ATOM    207  CB2 66D d   1      29.407  17.537   2.962  0.00  0.00    -0.044 C 
ATOM    208  H34 66D d   1      29.432  17.169   1.926  0.00  0.00     0.031 H 
ATOM    209  H35 66D d   1      30.428  17.548   3.372  0.00  0.00     0.031 H 
ATOM    210  H36 66D d   1      28.994  18.556   2.979  0.00  0.00     0.031 H 
ENDBRANCH   7 207
TORSDOF 46
