REMARK WARNING: 32 MAX_TORS EXCEEDED!!!
REMARK  46 active torsions:
REMARK  status: ('A' for Active; 'I' for Inactive)
REMARK    1  A    between atoms: N_1  and  CA_2 
REMARK    2  A    between atoms: CA_2  and  C_3 
REMARK    3  A    between atoms: CA_2  and  CB_5 
REMARK       I    between atoms: C_3  and  N_9 
REMARK    4  A    between atoms: CB_5  and  CG_6 
REMARK    5  A    between atoms: N_9  and  CA_10 
REMARK    6  A    between atoms: CA_10  and  C_11 
REMARK    7  A    between atoms: CA_10  and  CB_13 
REMARK       I    between atoms: C_11  and  N_25 
REMARK    8  A    between atoms: CB_13  and  CG_14 
REMARK    9  A    between atoms: CZ_19  and  OH_20 
REMARK   10  A    between atoms: OH_20  and  P_21 
REMARK   11  A    between atoms: N_25  and  CA_26 
REMARK   12  A    between atoms: CA_26  and  C_27 
REMARK   13  A    between atoms: CA_26  and  CB_29 
REMARK       I    between atoms: C_27  and  N_31 
REMARK   14  A    between atoms: CB_29  and  OG_30 
REMARK   15  A    between atoms: N_31  and  CA_32 
REMARK   16  A    between atoms: CA_32  and  C_33 
REMARK   17  A    between atoms: CA_32  and  CB_35 
REMARK       I    between atoms: C_33  and  N_39 
REMARK   18  A    between atoms: CB_35  and  CG_36 
REMARK       I    between atoms: CG_36  and  ND2_38 
REMARK   19  A    between atoms: CA_40  and  C_41 
REMARK       I    between atoms: C_41  and  N_46 
REMARK   20  A    between atoms: N_46  and  CA_47 
REMARK   21  A    between atoms: CA_47  and  C_48 
REMARK       I    between atoms: C_48  and  N_50 
REMARK   22  A    between atoms: N_50  and  CA_51 
REMARK   23  A    between atoms: CA_51  and  C_52 
REMARK   24  A    between atoms: CA_51  and  CB_54 
REMARK       I    between atoms: C_52  and  N_60 
REMARK   25  A    between atoms: CB_54  and  CG_55 
REMARK   26  A    between atoms: N_60  and  CA_61 
REMARK   27  A    between atoms: CA_61  and  C_62 
REMARK   28  A    between atoms: CA_61  and  CB_64 
REMARK       I    between atoms: C_62  and  N_70 
REMARK   29  A    between atoms: CB_64  and  CG_65 
REMARK   30  A    between atoms: CA_71  and  C_72 
REMARK       I    between atoms: C_72  and  N_77 
REMARK   31  A    between atoms: CA_78  and  C_79 
REMARK       I    between atoms: C_79  and  N_85 
REMARK   32  A    between atoms: CG_82  and  OD1_84 
REMARK   33  A    between atoms: N_85  and  CA_86 
REMARK   34  A    between atoms: CA_86  and  C_87 
REMARK   35  A    between atoms: CA_86  and  CB_89 
REMARK       I    between atoms: C_87  and  N_96 
REMARK   36  A    between atoms: CB_89  and  CG_90 
REMARK   37  A    between atoms: CG_90  and  CD_91 
REMARK   38  A    between atoms: CD_91  and  NE_92 
REMARK       I    between atoms: NE_92  and  CZ_93 
REMARK       I    between atoms: CZ_93  and  NH1_94 
REMARK       I    between atoms: CZ_93  and  NH2_95 
REMARK   39  A    between atoms: N_96  and  CA_97 
REMARK   40  A    between atoms: CA_97  and  C_98 
REMARK   41  A    between atoms: CA_97  and  CB_100 
REMARK       I    between atoms: C_98  and  N_106 
REMARK   42  A    between atoms: CB_100  and  CG_101 
REMARK   43  A    between atoms: N_106  and  CA_107 
REMARK   44  A    between atoms: CA_107  and  C_108 
REMARK   45  A    between atoms: CA_107  and  CB_110 
REMARK   46  A    between atoms: CB_110  and  CG_111 
REMARK       I    between atoms: CG_111  and  ND2_113 
ROOT
ATOM      1  C   HIS d   1      33.577  96.688 -43.547  0.00  0.00     0.241 C 
ATOM      2  O   HIS d   1      34.728  97.043 -43.834  0.00  0.00    -0.271 OA
ATOM      3  N   HIS d   1      32.508  96.996 -44.278  0.00  0.00    -0.346 N 
ATOM      4  H43 HIS d   1      31.624  96.602 -44.027  0.00  0.00     0.163 HD
ENDROOT
BRANCH   3   5
ATOM      5  CA  HIS d   1      32.577  97.884 -45.428  0.00  0.00     0.095 C 
ATOM      6  H44 HIS d   1      33.272  97.477 -46.177  0.00  0.00     0.088 H 
BRANCH   5   7
ATOM      7  C   HIS d   1      33.051  99.250 -44.965  0.00  0.00     0.243 C 
ATOM      8  O   HIS d   1      32.440  99.846 -44.083  0.00  0.00    -0.271 OA
ATOM      9  N   PRO d   1      34.146  99.750 -45.549  0.00  0.00    -0.337 N 
ATOM     10  CA  PRO d   1      34.632 101.089 -45.206  0.00  0.00     0.092 C 
ATOM     11  CD  PRO d   1      34.919  99.150 -46.648  0.00  0.00    -0.001 C 
ATOM     12  CB  PRO d   1      35.831 101.274 -46.145  0.00  0.00    -0.036 C 
ATOM     13  H50 PRO d   1      34.927 101.156 -44.148  0.00  0.00     0.087 H 
ATOM     14  CG  PRO d   1      36.207  99.897 -46.578  0.00  0.00    -0.048 C 
ATOM     15  H51 PRO d   1      36.667 101.752 -45.613  0.00  0.00     0.036 H 
ATOM     16  H52 PRO d   1      35.549 101.888 -47.013  0.00  0.00     0.036 H 
ATOM     17  H53 PRO d   1      36.884  99.433 -45.846  0.00  0.00     0.035 H 
ATOM     18  H54 PRO d   1      36.694  99.921 -47.564  0.00  0.00     0.035 H 
ATOM     19  H55 PRO d   1      34.421  99.306 -47.616  0.00  0.00     0.064 H 
ATOM     20  H56 PRO d   1      35.074  98.073 -46.484  0.00  0.00     0.064 H 
BRANCH  10  21
ATOM     21  C   PRO d   1      33.563 102.131 -45.528  0.00  0.00     0.243 C 
ATOM     22  O   PRO d   1      33.017 102.129 -46.631  0.00  0.00    -0.271 OA
ATOM     23  N   HZP d   1      33.258 103.007 -44.581  0.00  0.00    -0.334 N 
ATOM     24  CA  HZP d   1      32.195 103.964 -44.810  0.00  0.00     0.094 C 
ATOM     25  CD  HZP d   1      33.598 102.896 -43.155  0.00  0.00     0.022 C 
ATOM     26  CB  HZP d   1      31.691 104.369 -43.441  0.00  0.00    -0.012 C 
ATOM     27  H57 HZP d   1      31.381 103.485 -45.374  0.00  0.00     0.088 H 
ATOM     28  CG  HZP d   1      32.308 103.368 -42.493  0.00  0.00     0.053 C 
ATOM     29  H58 HZP d   1      30.593 104.316 -43.401  0.00  0.00     0.040 H 
ATOM     30  H59 HZP d   1      32.018 105.390 -43.194  0.00  0.00     0.040 H 
ATOM     31  H60 HZP d   1      31.631 102.515 -42.339  0.00  0.00     0.085 H 
ATOM     32  H61 HZP d   1      34.445 103.547 -42.893  0.00  0.00     0.068 H 
ATOM     33  H62 HZP d   1      33.834 101.858 -42.879  0.00  0.00     0.068 H 
BRANCH  24  34
ATOM     34  C   HZP d   1      32.695 105.162 -45.604  0.00  0.00     0.241 C 
ATOM     35  O   HZP d   1      33.829 105.602 -45.458  0.00  0.00    -0.271 OA
ATOM     36  N   ARG d   1      31.831 105.662 -46.476  0.00  0.00    -0.346 N 
ATOM     37  H64 ARG d   1      30.917 105.261 -46.544  0.00  0.00     0.163 HD
BRANCH  36  38
ATOM     38  CA  ARG d   1      32.179 106.773 -47.331  0.00  0.00     0.089 C 
ATOM     39  H65 ARG d   1      33.197 107.110 -47.088  0.00  0.00     0.087 H 
BRANCH  38  40
ATOM     40  C   ARG d   1      31.209 107.922 -47.072  0.00  0.00     0.241 C 
ATOM     41  O   ARG d   1      30.016 107.711 -46.828  0.00  0.00    -0.271 OA
ATOM     42  N   HIS d   1      31.729 109.141 -47.104  0.00  0.00    -0.346 N 
ATOM     43  H77 HIS d   1      32.709 109.251 -47.271  0.00  0.00     0.163 HD
BRANCH  42  44
ATOM     44  CA  HIS d   1      30.905 110.322 -46.902  0.00  0.00     0.094 C 
ATOM     45  H78 HIS d   1      29.849 110.070 -47.080  0.00  0.00     0.088 H 
BRANCH  44  46
ATOM     46  C   HIS d   1      31.351 111.383 -47.897  0.00  0.00     0.241 C 
ATOM     47  O   HIS d   1      32.328 111.193 -48.609  0.00  0.00    -0.271 OA
ATOM     48  N   ASN d   1      30.666 112.518 -47.903  0.00  0.00    -0.344 N 
ATOM     49  H84 ASN d   1      29.953 112.661 -47.217  0.00  0.00     0.163 HD
BRANCH  48  50
ATOM     50  CA  ASN d   1      30.927 113.563 -48.885  0.00  0.00     0.104 C 
ATOM     51  H85 ASN d   1      31.332 113.069 -49.781  0.00  0.00     0.090 H 
BRANCH  50  52
ATOM     52  C   ASN d   1      31.959 114.600 -48.450  0.00  0.00     0.197 C 
ATOM     53  O   ASN d   1      32.587 114.483 -47.382  0.00  0.00    -0.646 OA
ATOM     54  OXT ASN d   1      32.182 115.573 -49.178  0.00  0.00    -0.646 OA
ENDBRANCH  50  52
BRANCH  50  55
ATOM     55  CB  ASN d   1      29.614 114.236 -49.278  0.00  0.00     0.037 C 
ATOM     56  H86 ASN d   1      29.834 115.088 -49.938  0.00  0.00     0.051 H 
ATOM     57  H87 ASN d   1      29.113 114.597 -48.368  0.00  0.00     0.051 H 
BRANCH  55  58
ATOM     58  CG  ASN d   1      28.688 113.283 -50.002  0.00  0.00     0.217 C 
ATOM     59  OD1 ASN d   1      28.749 113.161 -51.220  0.00  0.00    -0.274 OA
ATOM     60  ND2 ASN d   1      27.854 112.571 -49.251  0.00  0.00    -0.370 N 
ATOM     61  H88 ASN d   1      27.221 111.927 -49.680  0.00  0.00     0.159 HD
ATOM     62  H89 ASN d   1      27.859 112.680 -48.257  0.00  0.00     0.159 HD
ENDBRANCH  55  58
ENDBRANCH  50  55
ENDBRANCH  48  50
ENDBRANCH  44  46
BRANCH  44  63
ATOM     63  CB  HIS d   1      31.064 110.839 -45.469  0.00  0.00     0.004 C 
ATOM     64  H79 HIS d   1      30.739 110.049 -44.776  0.00  0.00     0.046 H 
ATOM     65  H80 HIS d   1      30.421 111.723 -45.345  0.00  0.00     0.046 H 
BRANCH  63  66
ATOM     66  CG  HIS d   1      32.469 111.223 -45.124  0.00  0.00     0.053 A 
ATOM     67  ND1 HIS d   1      33.090 112.342 -45.649  0.00  0.00    -0.247 NA
ATOM     68  CE1 HIS d   1      34.324 112.418 -45.183  0.00  0.00     0.064 A 
ATOM     69  NE2 HIS d   1      34.531 111.383 -44.380  0.00  0.00    -0.359 N 
ATOM     70  H82 HIS d   1      35.047 113.197 -45.418  0.00  0.00     0.143 H 
ATOM     71  CD2 HIS d   1      33.392 110.618 -44.336  0.00  0.00     0.002 A 
ATOM     72  H83 HIS d   1      35.405 111.185 -43.872  0.00  0.00     0.166 HD
ATOM     73  H81 HIS d   1      33.255 109.696 -43.773  0.00  0.00     0.114 H 
ENDBRANCH  63  66
ENDBRANCH  44  63
ENDBRANCH  42  44
ENDBRANCH  38  40
BRANCH  38  74
ATOM     74  CB  ARG d   1      32.151 106.324 -48.790  0.00  0.00    -0.036 C 
ATOM     75  H66 ARG d   1      32.611 107.112 -49.405  0.00  0.00     0.036 H 
ATOM     76  H67 ARG d   1      31.102 106.189 -49.092  0.00  0.00     0.036 H 
BRANCH  74  77
ATOM     77  CG  ARG d   1      32.900 105.013 -49.044  0.00  0.00    -0.048 C 
ATOM     78  H68 ARG d   1      32.528 104.252 -48.343  0.00  0.00     0.035 H 
ATOM     79  H69 ARG d   1      33.973 105.179 -48.869  0.00  0.00     0.035 H 
BRANCH  77  80
ATOM     80  CD  ARG d   1      32.708 104.498 -50.480  0.00  0.00     0.009 C 
ATOM     81  H70 ARG d   1      33.699 104.326 -50.926  0.00  0.00     0.064 H 
ATOM     82  H71 ARG d   1      32.174 105.266 -51.059  0.00  0.00     0.064 H 
BRANCH  80  83
ATOM     83  NE  ARG d   1      31.942 103.246 -50.544  0.00  0.00    -0.227 N 
ATOM     84  CZ  ARG d   1      31.808 102.493 -51.638  0.00  0.00     0.665 C 
ATOM     85  NH1 ARG d   1      32.392 102.851 -52.776  0.00  0.00    -0.235 N 
ATOM     86  NH2 ARG d   1      31.092 101.375 -51.599  0.00  0.00    -0.235 N 
ATOM     87  H73 ARG d   1      32.285 102.265 -53.617  0.00  0.00     0.174 HD
ATOM     88  H74 ARG d   1      32.952 103.714 -52.818  0.00  0.00     0.174 HD
ATOM     89  H75 ARG d   1      30.634 101.087 -50.722  0.00  0.00     0.174 HD
ATOM     90  H76 ARG d   1      30.994 100.796 -52.445  0.00  0.00     0.174 HD
ATOM     91  H72 ARG d   1      31.475 102.927 -49.683  0.00  0.00     0.177 HD
ENDBRANCH  80  83
ENDBRANCH  77  80
ENDBRANCH  74  77
ENDBRANCH  38  74
ENDBRANCH  36  38
ENDBRANCH  24  34
BRANCH  28  92
ATOM     92  OD1 HZP d   1      32.558 103.993 -41.260  0.00  0.00    -0.394 OA
ATOM     93  H63 HZP d   1      31.736 104.274 -40.876  0.00  0.00     0.210 HD
ENDBRANCH  28  92
ENDBRANCH  10  21
ENDBRANCH   5   7
BRANCH   5  94
ATOM     94  CB  HIS d   1      31.193  98.028 -46.029  0.00  0.00     0.004 C 
ATOM     95  H45 HIS d   1      30.493  98.306 -45.227  0.00  0.00     0.046 H 
ATOM     96  H46 HIS d   1      30.896  97.058 -46.455  0.00  0.00     0.046 H 
BRANCH  94  97
ATOM     97  CG  HIS d   1      31.111  99.059 -47.104  0.00  0.00     0.053 A 
ATOM     98  ND1 HIS d   1      30.585 100.316 -46.891  0.00  0.00    -0.247 NA
ATOM     99  CE1 HIS d   1      30.635 101.006 -48.016  0.00  0.00     0.064 A 
ATOM    100  NE2 HIS d   1      31.175 100.242 -48.949  0.00  0.00    -0.359 N 
ATOM    101  H48 HIS d   1      30.290 102.030 -48.151  0.00  0.00     0.143 H 
ATOM    102  CD2 HIS d   1      31.484  99.020 -48.407  0.00  0.00     0.002 A 
ATOM    103  H49 HIS d   1      31.338 100.520 -49.927  0.00  0.00     0.166 HD
ATOM    104  H47 HIS d   1      31.942  98.179 -48.925  0.00  0.00     0.114 H 
ENDBRANCH  94  97
ENDBRANCH   5  94
ENDBRANCH   3   5
BRANCH   1 105
ATOM    105  CA  HIS d   1      33.314  95.865 -42.290  0.00  0.00     0.094 C 
ATOM    106  H37 HIS d   1      32.780  94.943 -42.563  0.00  0.00     0.088 H 
BRANCH 105 107
ATOM    107  N   HIS d   1      34.600  95.523 -41.708  0.00  0.00    -0.346 N 
ATOM    108  C   GLY d   1      35.212  94.403 -42.056  0.00  0.00     0.236 C 
ATOM    109  O   GLY d   1      34.692  93.578 -42.806  0.00  0.00    -0.272 OA
ATOM    110  H36 HIS d   1      35.024  96.136 -41.042  0.00  0.00     0.163 HD
BRANCH 108 111
ATOM    111  CA  GLY d   1      36.588  94.171 -41.467  0.00  0.00     0.069 C 
ATOM    112  H34 GLY d   1      37.324  94.765 -42.029  0.00  0.00     0.078 H 
ATOM    113  H35 GLY d   1      36.587  94.490 -40.414  0.00  0.00     0.078 H 
BRANCH 111 114
ATOM    114  N   GLY d   1      36.957  92.769 -41.537  0.00  0.00    -0.351 N 
ATOM    115  C   PRO d   1      37.759  92.194 -40.645  0.00  0.00     0.241 C 
ATOM    116  O   PRO d   1      38.267  92.803 -39.703  0.00  0.00    -0.271 OA
ATOM    117  H33 GLY d   1      36.594  92.213 -42.285  0.00  0.00     0.163 HD
BRANCH 115 118
ATOM    118  CA  PRO d   1      38.056  90.706 -40.851  0.00  0.00     0.091 C 
ATOM    119  N   PRO d   1      39.410  90.353 -40.407  0.00  0.00    -0.337 N 
ATOM    120  C   ASN d   1      40.430  91.002 -40.964  0.00  0.00     0.243 C 
ATOM    121  CD  PRO d   1      39.414  89.315 -39.361  0.00  0.00    -0.001 C 
ATOM    122  O   ASN d   1      40.280  91.787 -41.897  0.00  0.00    -0.271 OA
ATOM    123  CG  PRO d   1      38.034  89.391 -38.812  0.00  0.00    -0.048 C 
ATOM    124  H31 PRO d   1      40.161  89.538 -38.585  0.00  0.00     0.064 H 
ATOM    125  H32 PRO d   1      39.615  88.322 -39.789  0.00  0.00     0.064 H 
ATOM    126  CB  PRO d   1      37.153  89.848 -39.955  0.00  0.00    -0.036 C 
ATOM    127  H29 PRO d   1      37.711  88.403 -38.452  0.00  0.00     0.035 H 
ATOM    128  H30 PRO d   1      37.992  90.114 -37.984  0.00  0.00     0.035 H 
ATOM    129  H27 PRO d   1      36.768  88.982 -40.514  0.00  0.00     0.036 H 
ATOM    130  H28 PRO d   1      36.310  90.444 -39.576  0.00  0.00     0.036 H 
ATOM    131  H26 PRO d   1      37.916  90.451 -41.912  0.00  0.00     0.087 H 
BRANCH 120 132
ATOM    132  CA  ASN d   1      41.812  90.732 -40.411  0.00  0.00     0.097 C 
ATOM    133  H21 ASN d   1      41.917  89.665 -40.165  0.00  0.00     0.088 H 
BRANCH 132 134
ATOM    134  N   ASN d   1      42.792  91.106 -41.418  0.00  0.00    -0.345 N 
ATOM    135  C   SER d   1      42.843  90.469 -42.584  0.00  0.00     0.243 C 
ATOM    136  O   SER d   1      42.300  89.381 -42.778  0.00  0.00    -0.271 OA
ATOM    137  H20 ASN d   1      43.434  91.850 -41.232  0.00  0.00     0.163 HD
BRANCH 135 138
ATOM    138  CA  SER d   1      43.637  91.131 -43.699  0.00  0.00     0.109 C 
ATOM    139  H16 SER d   1      44.525  91.614 -43.264  0.00  0.00     0.090 H 
BRANCH 138 140
ATOM    140  N   SER d   1      44.065  90.097 -44.592  0.00  0.00    -0.344 N 
ATOM    141  C   PTR d   1      45.038  89.315 -44.157  0.00  0.00     0.241 C 
ATOM    142  O   PTR d   1      45.423  89.385 -42.980  0.00  0.00    -0.271 OA
ATOM    143  H15 SER d   1      43.651  89.973 -45.494  0.00  0.00     0.163 HD
BRANCH 141 144
ATOM    144  CA  PTR d   1      45.694  88.407 -45.220  0.00  0.00     0.093 C 
ATOM    145  H8  PTR d   1      45.598  88.957 -46.168  0.00  0.00     0.088 H 
BRANCH 144 146
ATOM    146  N   PTR d   1      47.128  88.428 -44.895  0.00  0.00    -0.346 N 
ATOM    147  C   ASP d   1      47.555  87.842 -43.783  0.00  0.00     0.249 C 
ATOM    148  O   ASP d   1      46.912  86.962 -43.285  0.00  0.00    -0.271 OA
ATOM    149  H7  PTR d   1      47.777  88.880 -45.507  0.00  0.00     0.163 HD
BRANCH 147 150
ATOM    150  CA  ASP d   1      48.867  88.318 -43.148  0.00  0.00     0.185 C 
ATOM    151  H4  ASP d   1      49.678  87.591 -43.304  0.00  0.00     0.100 H 
BRANCH 150 152
ATOM    152  N   ASP d   1      49.136  89.551 -43.852  0.00  0.00    -0.066 N 
ATOM    153  H1  ASP d   1      49.992  89.955 -43.506  0.00  0.00     0.275 HD
ATOM    154  H2  ASP d   1      48.376  90.196 -43.703  0.00  0.00     0.275 HD
ATOM    155  H3  ASP d   1      49.228  89.362 -44.838  0.00  0.00     0.275 HD
ENDBRANCH 150 152
BRANCH 150 156
ATOM    156  CB  ASP d   1      48.657  88.546 -41.632  0.00  0.00     0.050 C 
ATOM    157  H5  ASP d   1      48.005  87.747 -41.248  0.00  0.00     0.052 H 
ATOM    158  H6  ASP d   1      48.165  89.520 -41.493  0.00  0.00     0.052 H 
BRANCH 156 159
ATOM    159  CG  ASP d   1      49.980  88.541 -40.805  0.00  0.00     0.175 C 
ATOM    160  OD1 ASP d   1      51.064  88.877 -41.357  0.00  0.00    -0.648 OA
ATOM    161  OD2 ASP d   1      49.959  88.204 -39.568  0.00  0.00    -0.648 OA
ENDBRANCH 156 159
ENDBRANCH 150 156
ENDBRANCH 147 150
ENDBRANCH 144 146
BRANCH 144 162
ATOM    162  CB  PTR d   1      45.049  87.026 -45.555  0.00  0.00    -0.014 C 
ATOM    163  H9  PTR d   1      45.823  86.431 -46.062  0.00  0.00     0.043 H 
ATOM    164  H10 PTR d   1      44.223  87.225 -46.253  0.00  0.00     0.043 H 
BRANCH 162 165
ATOM    165  CG  PTR d   1      44.474  86.137 -44.430  0.00  0.00    -0.056 A 
ATOM    166  CD1 PTR d   1      43.172  86.293 -43.966  0.00  0.00    -0.074 A 
ATOM    167  CE1 PTR d   1      42.662  85.457 -42.983  0.00  0.00    -0.050 A 
ATOM    168  H11 PTR d   1      42.548  87.078 -44.378  0.00  0.00     0.084 H 
ATOM    169  CZ  PTR d   1      43.444  84.440 -42.473  0.00  0.00     0.082 A 
ATOM    170  H13 PTR d   1      41.652  85.602 -42.617  0.00  0.00     0.087 H 
ATOM    171  CE2 PTR d   1      44.717  84.257 -42.937  0.00  0.00    -0.050 A 
ATOM    172  CD2 PTR d   1      45.204  85.074 -43.923  0.00  0.00    -0.074 A 
ATOM    173  H14 PTR d   1      45.338  83.469 -42.527  0.00  0.00     0.087 H 
ATOM    174  H12 PTR d   1      46.194  84.882 -44.320  0.00  0.00     0.084 H 
BRANCH 169 175
ATOM    175  OH  PTR d   1      42.998  83.649 -41.547  0.00  0.00    -0.240 OA
BRANCH 175 176
ATOM    176  P   PTR d   1      42.130  82.368 -41.932  0.00  0.00     0.427 P 
ATOM    177  O1P PTR d   1      41.228  82.626 -43.144  0.00  0.00    -0.617 OA
ATOM    178  O2P PTR d   1      43.088  81.289 -42.223  0.00  0.00    -0.617 OA
ATOM    179  O3P PTR d   1      41.261  81.995 -40.746  0.00  0.00    -0.617 OA
ENDBRANCH 175 176
ENDBRANCH 169 175
ENDBRANCH 162 165
ENDBRANCH 144 162
ENDBRANCH 141 144
ENDBRANCH 138 140
BRANCH 138 180
ATOM    180  CB  SER d   1      42.826  92.198 -44.413  0.00  0.00     0.044 C 
ATOM    181  H17 SER d   1      42.684  93.052 -43.734  0.00  0.00     0.077 H 
ATOM    182  H18 SER d   1      41.846  91.779 -44.686  0.00  0.00     0.077 H 
BRANCH 180 183
ATOM    183  OG  SER d   1      43.474  92.647 -45.584  0.00  0.00    -0.398 OA
ATOM    184  H19 SER d   1      43.596  91.915 -46.178  0.00  0.00     0.209 HD
ENDBRANCH 180 183
ENDBRANCH 138 180
ENDBRANCH 135 138
ENDBRANCH 132 134
BRANCH 132 185
ATOM    185  CB  ASN d   1      42.017  91.571 -39.157  0.00  0.00     0.036 C 
ATOM    186  H22 ASN d   1      41.104  91.518 -38.545  0.00  0.00     0.051 H 
ATOM    187  H23 ASN d   1      42.197  92.614 -39.457  0.00  0.00     0.051 H 
BRANCH 185 188
ATOM    188  CG  ASN d   1      43.188  91.098 -38.322  0.00  0.00     0.217 C 
ATOM    189  OD1 ASN d   1      43.659  89.968 -38.456  0.00  0.00    -0.274 OA
ATOM    190  ND2 ASN d   1      43.657  91.962 -37.445  0.00  0.00    -0.370 N 
ATOM    191  H24 ASN d   1      44.430  91.713 -36.861  0.00  0.00     0.159 HD
ATOM    192  H25 ASN d   1      43.240  92.867 -37.363  0.00  0.00     0.159 HD
ENDBRANCH 185 188
ENDBRANCH 132 185
ENDBRANCH 120 132
ENDBRANCH 115 118
ENDBRANCH 111 114
ENDBRANCH 108 111
ENDBRANCH 105 107
BRANCH 105 193
ATOM    193  CB  HIS d   1      32.454  96.657 -41.286  0.00  0.00     0.004 C 
ATOM    194  H38 HIS d   1      32.399  96.083 -40.349  0.00  0.00     0.046 H 
ATOM    195  H39 HIS d   1      31.444  96.768 -41.708  0.00  0.00     0.046 H 
BRANCH 193 196
ATOM    196  CG  HIS d   1      32.986  98.023 -40.971  0.00  0.00     0.053 A 
ATOM    197  ND1 HIS d   1      32.273  98.945 -40.235  0.00  0.00    -0.247 NA
ATOM    198  CE1 HIS d   1      32.974 100.060 -40.128  0.00  0.00     0.064 A 
ATOM    199  NE2 HIS d   1      34.121  99.894 -40.762  0.00  0.00    -0.359 N 
ATOM    200  H41 HIS d   1      32.660 100.963 -39.606  0.00  0.00     0.143 H 
ATOM    201  CD2 HIS d   1      34.154  98.630 -41.299  0.00  0.00     0.002 A 
ATOM    202  H42 HIS d   1      34.869 100.598 -40.841  0.00  0.00     0.166 HD
ATOM    203  H40 HIS d   1      34.967  98.196 -41.880  0.00  0.00     0.114 H 
ENDBRANCH 193 196
ENDBRANCH 105 193
ENDBRANCH   1 105
TORSDOF 46
