REMARK  8 active torsions:
REMARK  status: ('A' for Active; 'I' for Inactive)
REMARK    1  A    between atoms: C10_1  and  C08_28 
REMARK    2  A    between atoms: O16_30  and  C12_3 
REMARK    3  A    between atoms: C27_11  and  C29_16 
REMARK    4  A    between atoms: C06_21  and  N24_15 
REMARK    5  A    between atoms: C29_16  and  N30_20 
REMARK    6  A    between atoms: N01_27  and  C25_19 
REMARK    7  A    between atoms: C17_31  and  O16_30 
REMARK    8  A    between atoms: C17_31  and  C18_32 
ROOT
ATOM      1  C06 66A d   1      17.508  -1.076  13.043  0.00  0.00     0.137 A 
ATOM      2  N05 66A d   1      17.070  -2.189  13.645  0.00  0.00    -0.224 NA
ATOM      3  C04 66A d   1      17.794  -2.870  14.544  0.00  0.00     0.091 A 
ATOM      4  C07 66A d   1      18.786  -0.688  13.381  0.00  0.00     0.068 A 
ATOM      5  C02 66A d   1      19.532  -1.303  14.257  0.00  0.00     0.146 A 
ATOM      6  N03 66A d   1      19.021  -2.486  14.892  0.00  0.00    -0.223 NA
ATOM      7  N01 66A d   1      20.745  -0.775  14.474  0.00  0.00    -0.335 N 
ATOM      8  C08 66A d   1      19.675   0.446  12.996  0.00  0.00     0.008 A 
ATOM      9  C09 66A d   1      20.880   0.326  13.668  0.00  0.00    -0.006 A 
ATOM     10  H26 66A d   1      17.370  -3.757  15.000  0.00  0.00     0.146 H 
ATOM     11  H27 66A d   1      21.752   0.971  13.576  0.00  0.00     0.113 H 
ENDROOT
BRANCH   8  12
ATOM     12  C10 66A d   1      19.525   1.484  11.974  0.00  0.00    -0.021 A 
ATOM     13  C11 66A d   1      20.023   2.776  12.123  0.00  0.00    -0.040 A 
ATOM     14  C12 66A d   1      19.896   3.657  11.051  0.00  0.00     0.070 A 
ATOM     15  H1  66A d   1      20.496   3.088  13.047  0.00  0.00     0.089 H 
ATOM     16  C13 66A d   1      19.323   3.252   9.856  0.00  0.00    -0.051 A 
ATOM     17  C14 66A d   1      18.893   1.944   9.694  0.00  0.00    -0.080 A 
ATOM     18  H2  66A d   1      19.210   3.961   9.044  0.00  0.00     0.087 H 
ATOM     19  C15 66A d   1      19.030   1.056  10.750  0.00  0.00    -0.072 A 
ATOM     20  H3  66A d   1      18.456   1.621   8.756  0.00  0.00     0.083 H 
ATOM     21  H4  66A d   1      18.748   0.018  10.618  0.00  0.00     0.084 H 
BRANCH  14  22
ATOM     22  O16 66A d   1      20.297   4.961  11.143  0.00  0.00    -0.347 OA
BRANCH  22  23
ATOM     23  C17 66A d   1      19.427   5.903  10.462  0.00  0.00     0.050 C 
ATOM     24  H28 66A d   1      18.381   5.620  10.653  0.00  0.00     0.082 H 
ATOM     25  H29 66A d   1      19.629   5.852   9.382  0.00  0.00     0.082 H 
BRANCH  23  26
ATOM     26  C18 66A d   1      19.638   7.331  10.930  0.00  0.00    -0.034 A 
ATOM     27  C19 66A d   1      18.712   7.914  11.799  0.00  0.00    -0.075 A 
ATOM     28  C20 66A d   1      18.899   9.215  12.249  0.00  0.00    -0.082 A 
ATOM     29  H5  66A d   1      17.845   7.349  12.123  0.00  0.00     0.084 H 
ATOM     30  C21 66A d   1      20.023   9.918  11.820  0.00  0.00    -0.083 A 
ATOM     31  H6  66A d   1      18.184   9.675  12.921  0.00  0.00     0.083 H 
ATOM     32  C22 66A d   1      20.949   9.337  10.949  0.00  0.00    -0.082 A 
ATOM     33  H7  66A d   1      20.182  10.932  12.168  0.00  0.00     0.083 H 
ATOM     34  C23 66A d   1      20.753   8.035  10.496  0.00  0.00    -0.075 A 
ATOM     35  H8  66A d   1      21.818   9.899  10.627  0.00  0.00     0.083 H 
ATOM     36  H30 66A d   1      21.461   7.578   9.814  0.00  0.00     0.084 H 
ENDBRANCH  23  26
ENDBRANCH  22  23
ENDBRANCH  14  22
ENDBRANCH   8  12
BRANCH   1  37
ATOM     37  N24 66A d   1      16.667  -0.501  12.151  0.00  0.00    -0.383 N 
ATOM     38  H16 66A d   1      16.949   0.357  11.656  0.00  0.00     0.157 HD
ATOM     39  H17 66A d   1      15.745  -0.922  11.967  0.00  0.00     0.157 HD
ENDBRANCH   1  37
BRANCH   7  40
ATOM     40  C25 66A d   1      21.718  -1.358  15.441  0.00  0.00     0.019 A 
ATOM     41  C26 66A d   1      22.510  -0.432  16.366  0.00  0.00    -0.041 A 
ATOM     42  C27 66A d   1      23.800  -1.132  15.940  0.00  0.00    -0.027 A 
ATOM     43  H20 66A d   1      22.461   0.631  16.089  0.00  0.00     0.036 H 
ATOM     44  H21 66A d   1      22.267  -0.545  17.433  0.00  0.00     0.036 H 
ATOM     45  C28 66A d   1      23.017  -1.967  14.919  0.00  0.00    -0.041 A 
ATOM     46  H9  66A d   1      24.204  -1.763  16.745  0.00  0.00     0.042 H 
ATOM     47  H22 66A d   1      23.098  -3.054  15.068  0.00  0.00     0.036 H 
ATOM     48  H23 66A d   1      23.240  -1.723  13.870  0.00  0.00     0.036 H 
ATOM     49  H24 66A d   1      21.146  -2.095  16.023  0.00  0.00     0.073 H 
BRANCH  42  50
ATOM     50  C29 66A d   1      24.961  -0.253  15.463  0.00  0.00     0.087 C 
ATOM     51  H18 66A d   1      25.161   0.543  16.195  0.00  0.00     0.076 H 
ATOM     52  H19 66A d   1      24.721   0.197  14.488  0.00  0.00     0.076 H 
BRANCH  50  53
ATOM     53  N30 66A d   1      26.131  -1.137  15.341  0.00  0.00    -0.071 N 
ATOM     54  C31 66A d   1      26.277  -2.055  14.197  0.00  0.00     0.085 A 
ATOM     55  C32 66A d   1      27.677  -1.454  14.033  0.00  0.00    -0.020 A 
ATOM     56  H10 66A d   1      26.258  -3.124  14.454  0.00  0.00     0.076 H 
ATOM     57  H11 66A d   1      25.589  -1.867  13.359  0.00  0.00     0.076 H 
ATOM     58  C33 66A d   1      27.462  -0.533  15.237  0.00  0.00     0.085 A 
ATOM     59  H12 66A d   1      27.821  -0.917  13.084  0.00  0.00     0.037 H 
ATOM     60  H13 66A d   1      28.491  -2.181  14.170  0.00  0.00     0.037 H 
ATOM     61  H14 66A d   1      27.466   0.542  15.005  0.00  0.00     0.076 H 
ATOM     62  H15 66A d   1      28.126  -0.726  16.092  0.00  0.00     0.076 H 
ATOM     63  H25 66A d   1      26.099  -1.693  16.181  0.00  0.00     0.279 HD
ENDBRANCH  50  53
ENDBRANCH  42  50
ENDBRANCH   7  40
TORSDOF 8
