REMARK  4 active torsions:
REMARK  status: ('A' for Active; 'I' for Inactive)
REMARK    1  A    between atoms: C02_4  and  N01_3 
REMARK    2  A    between atoms: C04_6  and  C05_7 
REMARK    3  A    between atoms: N15_16  and  C14_15 
REMARK    4  A    between atoms: N15_16  and  C16_17 
ROOT
ATOM      1  C13 2GE d   1     -14.513   7.998 -24.108  0.00  0.00    -0.009 A 
ATOM      2  C02 2GE d   1     -16.920   6.760 -24.093  0.00  0.00     0.722 A 
ATOM      3  N03 2GE d   1     -16.713   7.785 -24.936  0.00  0.00    -0.062 NA
ATOM      4  C04 2GE d   1     -15.514   8.432 -24.962  0.00  0.00     0.091 A 
ATOM      5  C14 2GE d   1     -14.750   6.913 -23.232  0.00  0.00     0.145 A 
ATOM      6  N19 2GE d   1     -15.958   6.324 -23.245  0.00  0.00    -0.046 NA
ATOM      7  H1  2GE d   1     -13.547   8.490 -24.111  0.00  0.00     0.093 H 
ENDROOT
BRANCH   4   8
ATOM      8  C05 2GE d   1     -15.365   9.533 -25.867  0.00  0.00     0.017 A 
ATOM      9  C06 2GE d   1     -16.346  10.532 -25.859  0.00  0.00    -0.069 A 
ATOM     10  C07 2GE d   1     -16.290  11.624 -26.720  0.00  0.00    -0.080 A 
ATOM     11  H5  2GE d   1     -17.173  10.453 -25.162  0.00  0.00     0.085 H 
ATOM     12  C08 2GE d   1     -15.247  11.742 -27.629  0.00  0.00    -0.060 A 
ATOM     13  H6  2GE d   1     -17.062  12.384 -26.681  0.00  0.00     0.083 H 
ATOM     14  C09 2GE d   1     -14.259  10.766 -27.653  0.00  0.00     0.056 A 
ATOM     15  H7  2GE d   1     -15.204  12.584 -28.310  0.00  0.00     0.086 H 
ATOM     16 CL1  2GE d   1     -12.937  10.897 -28.797  0.00  0.00    -0.083 Cl
ATOM     17  C11 2GE d   1     -14.310   9.664 -26.773  0.00  0.00     0.068 A 
ATOM     18 CL2  2GE d   1     -13.059   8.503 -26.858  0.00  0.00    -0.082 Cl
ENDBRANCH   4   8
BRANCH   5  19
ATOM     19  N15 2GE d   1     -13.823   6.433 -22.391  0.00  0.00    -0.363 N 
ATOM     20  H8  2GE d   1     -14.089   5.640 -21.790  0.00  0.00     0.162 HD
BRANCH  19  21
ATOM     21  C16 2GE d   1     -12.425   6.967 -22.260  0.00  0.00     0.044 A 
ATOM     22  C17 2GE d   1     -11.386   5.921 -22.360  0.00  0.00    -0.079 A 
ATOM     23  C18 2GE d   1     -11.532   6.947 -23.362  0.00  0.00    -0.079 A 
ATOM     24  H2  2GE d   1     -10.885   5.037 -21.969  0.00  0.00     0.080 H 
ATOM     25  H10 2GE d   1     -11.196   7.391 -24.298  0.00  0.00     0.080 H 
ATOM     26  H9  2GE d   1     -12.378   7.782 -21.523  0.00  0.00     0.085 H 
ENDBRANCH  19  21
ENDBRANCH   5  19
BRANCH   2  27
ATOM     27  N01 2GE d   1     -18.110   6.166 -24.087  0.00  0.00    -0.231 N 
ATOM     28  H3  2GE d   1     -18.850   6.488 -24.727  0.00  0.00     0.174 HD
ATOM     29  H4  2GE d   1     -18.292   5.384 -23.442  0.00  0.00     0.174 HD
ENDBRANCH   2  27
TORSDOF 4
