REMARK  5 active torsions:
REMARK  status: ('A' for Active; 'I' for Inactive)
REMARK    1  A    between atoms: C1_1  and  C18_2 
REMARK    2  A    between atoms: C18_2  and  C2_3 
REMARK    3  A    between atoms: C18_2  and  C17_4 
REMARK    4  A    between atoms: N19_6  and  C3_7 
REMARK    5  A    between atoms: C13_9  and  C14_10 
ROOT
ATOM      1  C17 67U d   1      19.555   4.919  13.672  0.00  0.00     0.073 A 
ATOM      2  N10 67U d   1      19.796   6.225  13.521  0.00  0.00    -0.177 NA
ATOM      3  N19 67U d   1      20.804   6.523  14.216  0.00  0.00    -0.284 N 
ATOM      4  C7  67U d   1      21.256   5.449  14.865  0.00  0.00     0.014 A 
ATOM      5  C13 67U d   1      20.478   4.414  14.524  0.00  0.00     0.054 A 
ATOM      6  H11 67U d   1      22.104   5.419  15.548  0.00  0.00     0.115 H 
ENDROOT
BRANCH   5   7
ATOM      7  C14 67U d   1      20.651   3.153  15.029  0.00  0.00     0.144 A 
ATOM      8  N11 67U d   1      19.740   2.170  15.127  0.00  0.00    -0.337 N 
ATOM      9  C15 67U d   1      20.329   1.110  15.709  0.00  0.00     0.083 A 
ATOM     10  H12 67U d   1      18.761   2.220  14.811  0.00  0.00     0.167 HD
ATOM     11  C6  67U d   1      19.864  -0.114  16.019  0.00  0.00    -0.035 A 
ATOM     12  C16 67U d   1      21.600   1.458  15.983  0.00  0.00     0.178 A 
ATOM     13  C12 67U d   1      20.694  -1.052  16.637  0.00  0.00     0.030 A 
ATOM     14  H13 67U d   1      18.837  -0.374  15.787  0.00  0.00     0.089 H 
ATOM     15 BR4  67U d   1      20.092  -2.862  17.118  0.00  0.00    -0.050 Br
ATOM     16  C5  67U d   1      22.005  -0.676  16.913  0.00  0.00     0.021 A 
ATOM     17  N8  67U d   1      22.443   0.599  16.571  0.00  0.00    -0.238 NA
ATOM     18  H14 67U d   1      22.682  -1.374  17.392  0.00  0.00     0.117 H 
ATOM     19  N9  67U d   1      21.790   2.714  15.580  0.00  0.00    -0.208 NA
ENDBRANCH   5   7
BRANCH   1  20
ATOM     20  C18 67U d   1      18.397   4.194  12.964  0.00  0.00    -0.016 C 
ATOM     21  H4  67U d   1      18.217   3.232  13.466  0.00  0.00     0.048 H 
BRANCH  20  22
ATOM     22  C1  67U d   1      18.795   3.941  11.520  0.00  0.00    -0.068 C 
ATOM     23  H1  67U d   1      17.976   3.422  10.999  0.00  0.00     0.028 H 
ATOM     24  H2  67U d   1      19.700   3.317  11.493  0.00  0.00     0.028 H 
ATOM     25  H3  67U d   1      18.997   4.901  11.022  0.00  0.00     0.028 H 
ENDBRANCH  20  22
BRANCH  20  26
ATOM     26  C2  67U d   1      17.113   5.018  13.007  0.00  0.00    -0.068 C 
ATOM     27  H5  67U d   1      16.828   5.199  14.054  0.00  0.00     0.028 H 
ATOM     28  H6  67U d   1      16.308   4.469  12.498  0.00  0.00     0.028 H 
ATOM     29  H7  67U d   1      17.278   5.980  12.500  0.00  0.00     0.028 H 
ENDBRANCH  20  26
ENDBRANCH   1  20
BRANCH   3  30
ATOM     30  C3  67U d   1      21.379   7.862  14.310  0.00  0.00     0.002 C 
ATOM     31  H8  67U d   1      22.250   7.841  14.982  0.00  0.00     0.059 H 
ATOM     32  H9  67U d   1      20.625   8.558  14.708  0.00  0.00     0.059 H 
ATOM     33  H10 67U d   1      21.695   8.196  13.311  0.00  0.00     0.059 H 
ENDBRANCH   3  30
TORSDOF 5
