REMARK  25 active torsions:
REMARK  status: ('A' for Active; 'I' for Inactive)
REMARK    1  A    between atoms: C15_50  and  C18_4 
REMARK    2  A    between atoms: C24_9  and  C25_37 
REMARK    3  A    between atoms: NA_38  and  C24_9 
REMARK    4  A    between atoms: C37_11  and  C51_12 
REMARK    5  A    between atoms: O36_13  and  C37_11 
REMARK    6  A    between atoms: C35_14  and  O36_13 
REMARK    7  A    between atoms: C28_15  and  N43_16 
REMARK       I    between atoms: N43_16  and  C44_17 
REMARK    8  A    between atoms: C44_17  and  C45_19 
REMARK    9  A    between atoms: C34_20  and  O41_21 
REMARK   10  A    between atoms: O41_21  and  C42_22 
REMARK   11  A    between atoms: C42_22  and  C49_24 
REMARK   12  A    between atoms: C33_25  and  C38_26 
REMARK   13  A    between atoms: C38_26  and  O39_27 
REMARK   14  A    between atoms: O39_27  and  C40_28 
REMARK   15  A    between atoms: C40_28  and  C47_30 
REMARK   16  A    between atoms: N94_33  and  C27_32 
REMARK   17  A    between atoms: C95_34  and  N94_33 
REMARK   18  A    between atoms: C25_37  and  N93_36 
REMARK   19  A    between atoms: NA_38  and  CZA_39 
REMARK   20  A    between atoms: SA_46  and  NA_38 
REMARK   21  A    between atoms: CZA_39  and  CZ1_40 
REMARK   22  A    between atoms: CZA_39  and  C_43 
REMARK   23  A    between atoms: CZ1_40  and  CC1_41 
REMARK   24  A    between atoms: CZ1_40  and  CC2_42 
REMARK   25  A    between atoms: SA_46  and  C12_49 
ROOT
ATOM      1  C95 H27 d   1      11.242   6.600   9.284  0.00  0.00     0.169 C 
ATOM      2  SUR H27 d   1       9.835   6.761   9.918  0.00  0.00    -0.041 SA
ATOM      3  N93 H27 d   1      12.338   6.633  10.066  0.00  0.00    -0.366 N 
ATOM      4  H31 H27 d   1      12.904   7.456  10.029  0.00  0.00     0.161 HD
ENDROOT
BRANCH   3   5
ATOM      5  C25 H27 d   1      12.766   5.565  10.963  0.00  0.00     0.010 C 
ATOM      6  H32 H27 d   1      12.431   4.603  10.549  0.00  0.00     0.066 H 
ATOM      7  H33 H27 d   1      13.864   5.576  11.024  0.00  0.00     0.066 H 
BRANCH   5   8
ATOM      8  C24 H27 d   1      12.200   5.713  12.368  0.00  0.00     0.021 C 
ATOM      9  H8  H27 d   1      11.102   5.719  12.306  0.00  0.00     0.067 H 
ATOM     10  H9  H27 d   1      12.549   6.668  12.789  0.00  0.00     0.067 H 
BRANCH   8  11
ATOM     11  NA  H27 d   1      12.612   4.630  13.260  0.00  0.00    -0.290 N 
BRANCH  11  12
ATOM     12  CZA H27 d   1      11.607   3.568  13.487  0.00  0.00     0.109 C 
ATOM     13  H34 H27 d   1      12.146   2.780  14.033  0.00  0.00     0.091 H 
BRANCH  12  14
ATOM     14  CZ1 H27 d   1      11.189   2.913  12.194  0.00  0.00    -0.031 C 
ATOM     15  H35 H27 d   1      10.788   3.674  11.508  0.00  0.00     0.042 H 
BRANCH  14  16
ATOM     16  CC1 H27 d   1      12.391   2.247  11.571  0.00  0.00    -0.071 C 
ATOM     17  H36 H27 d   1      12.095   1.766  10.627  0.00  0.00     0.028 H 
ATOM     18  H37 H27 d   1      12.788   1.488  12.261  0.00  0.00     0.028 H 
ATOM     19  H38 H27 d   1      13.166   3.002  11.371  0.00  0.00     0.028 H 
ENDBRANCH  14  16
BRANCH  14  20
ATOM     20  CC2 H27 d   1      10.133   1.869  12.463  0.00  0.00    -0.071 C 
ATOM     21  H39 H27 d   1       9.253   2.347  12.918  0.00  0.00     0.028 H 
ATOM     22  H40 H27 d   1      10.534   1.110  13.151  0.00  0.00     0.028 H 
ATOM     23  H41 H27 d   1       9.842   1.389  11.517  0.00  0.00     0.028 H 
ENDBRANCH  14  20
ENDBRANCH  12  14
BRANCH  12  24
ATOM     24  C   H27 d   1      10.551   3.945  14.376  0.00  0.00     0.197 C 
ATOM     25  OZ2 H27 d   1      10.162   3.295  15.243  0.00  0.00    -0.646 OA
ATOM     26  O98 H27 d   1      10.061   4.948  14.221  0.00  0.00    -0.646 OA
ENDBRANCH  12  24
ENDBRANCH  11  12
BRANCH  11  27
ATOM     27  SA  H27 d   1      13.938   4.689  14.014  0.00  0.00     0.261 S 
ATOM     28  OS2 H27 d   1      14.839   5.591  13.441  0.00  0.00    -0.200 OA
ATOM     29  OS1 H27 d   1      14.586   3.459  14.085  0.00  0.00    -0.200 OA
BRANCH  27  30
ATOM     30  C12 H27 d   1      13.549   5.222  15.447  0.00  0.00     0.079 A 
ATOM     31  C13 H27 d   1      13.441   4.402  16.563  0.00  0.00    -0.059 A 
ATOM     32  C14 H27 d   1      13.076   4.946  17.782  0.00  0.00    -0.071 A 
ATOM     33  H1  H27 d   1      13.642   3.340  16.479  0.00  0.00     0.085 H 
ATOM     34  C15 H27 d   1      12.808   6.295  17.874  0.00  0.00    -0.026 A 
ATOM     35  H2  H27 d   1      13.001   4.315  18.660  0.00  0.00     0.084 H 
ATOM     36  C16 H27 d   1      12.921   7.111  16.769  0.00  0.00    -0.071 A 
ATOM     37  C17 H27 d   1      13.287   6.573  15.557  0.00  0.00    -0.059 A 
ATOM     38  H3  H27 d   1      12.722   8.173  16.855  0.00  0.00     0.084 H 
ATOM     39  H42 H27 d   1      13.370   7.212  14.685  0.00  0.00     0.085 H 
BRANCH  34  40
ATOM     40  C18 H27 d   1      12.430   6.930  19.149  0.00  0.00    -0.026 A 
ATOM     41  C23 H27 d   1      11.787   8.140  19.112  0.00  0.00    -0.072 A 
ATOM     42  C22 H27 d   1      11.432   8.769  20.283  0.00  0.00    -0.082 A 
ATOM     43  H7  H27 d   1      11.558   8.602  18.159  0.00  0.00     0.084 H 
ATOM     44  C21 H27 d   1      11.724   8.188  21.498  0.00  0.00    -0.083 A 
ATOM     45  H6  H27 d   1      10.921   9.725  20.250  0.00  0.00     0.083 H 
ATOM     46  C20 H27 d   1      12.381   6.975  21.543  0.00  0.00    -0.082 A 
ATOM     47  H5  H27 d   1      11.438   8.684  22.419  0.00  0.00     0.083 H 
ATOM     48  C19 H27 d   1      12.733   6.347  20.362  0.00  0.00    -0.072 A 
ATOM     49  H4  H27 d   1      12.619   6.518  22.497  0.00  0.00     0.083 H 
ATOM     50  H43 H27 d   1      13.248   5.394  20.390  0.00  0.00     0.084 H 
ENDBRANCH  34  40
ENDBRANCH  27  30
ENDBRANCH  11  27
ENDBRANCH   8  11
ENDBRANCH   5   8
ENDBRANCH   3   5
BRANCH   1  51
ATOM     51  N94 H27 d   1      11.287   6.436   7.953  0.00  0.00    -0.339 N 
ATOM     52  H30 H27 d   1      11.932   6.962   7.399  0.00  0.00     0.164 HD
BRANCH  51  53
ATOM     53  C27 H27 d   1      10.384   5.481   7.328  0.00  0.00     0.128 C 
ATOM     54  C28 H27 d   1       9.491   6.124   6.249  0.00  0.00     0.082 C 
ATOM     55  C35 H27 d   1       8.847   5.067   5.343  0.00  0.00     0.099 C 
ATOM     56  H14 H27 d   1      10.152   6.718   5.600  0.00  0.00     0.083 H 
ATOM     57  C34 H27 d   1       9.950   4.168   4.820  0.00  0.00     0.102 C 
ATOM     58  H13 H27 d   1       8.139   4.478   5.945  0.00  0.00     0.091 H 
ATOM     59  C33 H27 d   1      10.499   3.411   6.019  0.00  0.00     0.090 C 
ATOM     60  H19 H27 d   1      10.762   4.758   4.372  0.00  0.00     0.092 H 
ATOM     61  O32 H27 d   1      11.113   4.312   6.951  0.00  0.00    -0.354 OA
ATOM     62  H23 H27 d   1       9.647   2.923   6.514  0.00  0.00     0.090 H 
ATOM     63  H29 H27 d   1       9.687   5.153   8.114  0.00  0.00     0.121 H 
BRANCH  54  64
ATOM     64  N43 H27 d   1       8.549   7.076   6.857  0.00  0.00    -0.350 N 
ATOM     65  C44 H27 d   1       7.236   6.940   7.095  0.00  0.00     0.214 C 
ATOM     66  O46 H27 d   1       6.464   7.879   7.020  0.00  0.00    -0.274 OA
ATOM     67  H15 H27 d   1       8.945   7.952   7.133  0.00  0.00     0.163 HD
BRANCH  65  68
ATOM     68  C45 H27 d   1       6.772   5.568   7.475  0.00  0.00    -0.003 C 
ATOM     69  H16 H27 d   1       5.685   5.582   7.644  0.00  0.00     0.040 H 
ATOM     70  H17 H27 d   1       7.282   5.251   8.396  0.00  0.00     0.040 H 
ATOM     71  H18 H27 d   1       7.008   4.863   6.664  0.00  0.00     0.040 H 
ENDBRANCH  65  68
ENDBRANCH  54  64
BRANCH  55  72
ATOM     72  O36 H27 d   1       8.151   5.596   4.214  0.00  0.00    -0.311 OA
BRANCH  72  73
ATOM     73  C37 H27 d   1       7.016   4.759   3.861  0.00  0.00     0.255 C 
ATOM     74  O52 H27 d   1       7.043   4.158   2.805  0.00  0.00    -0.266 OA
BRANCH  73  75
ATOM     75  C51 H27 d   1       5.854   4.679   4.799  0.00  0.00     0.004 C 
ATOM     76  H10 H27 d   1       5.090   4.007   4.380  0.00  0.00     0.041 H 
ATOM     77  H11 H27 d   1       5.424   5.682   4.937  0.00  0.00     0.041 H 
ATOM     78  H12 H27 d   1       6.193   4.289   5.770  0.00  0.00     0.041 H 
ENDBRANCH  73  75
ENDBRANCH  72  73
ENDBRANCH  55  72
BRANCH  57  79
ATOM     79  O41 H27 d   1       9.330   3.375   3.802  0.00  0.00    -0.311 OA
BRANCH  79  80
ATOM     80  C42 H27 d   1       9.355   1.924   3.869  0.00  0.00     0.255 C 
ATOM     81  O50 H27 d   1      10.332   1.354   3.446  0.00  0.00    -0.266 OA
BRANCH  80  82
ATOM     82  C49 H27 d   1       8.179   1.186   4.423  0.00  0.00     0.004 C 
ATOM     83  H20 H27 d   1       8.378   0.104   4.394  0.00  0.00     0.041 H 
ATOM     84  H21 H27 d   1       7.287   1.411   3.819  0.00  0.00     0.041 H 
ATOM     85  H22 H27 d   1       8.006   1.499   5.463  0.00  0.00     0.041 H 
ENDBRANCH  80  82
ENDBRANCH  79  80
ENDBRANCH  57  79
BRANCH  59  86
ATOM     86  C38 H27 d   1      11.516   2.331   5.672  0.00  0.00     0.055 C 
ATOM     87  H24 H27 d   1      11.333   1.982   4.645  0.00  0.00     0.079 H 
ATOM     88  H25 H27 d   1      11.400   1.490   6.372  0.00  0.00     0.079 H 
BRANCH  86  89
ATOM     89  O39 H27 d   1      12.834   2.827   5.762  0.00  0.00    -0.319 OA
BRANCH  89  90
ATOM     90  C40 H27 d   1      13.676   2.258   6.772  0.00  0.00     0.254 C 
ATOM     91  O48 H27 d   1      13.237   2.237   7.893  0.00  0.00    -0.266 OA
BRANCH  90  92
ATOM     92  C47 H27 d   1      15.027   1.737   6.414  0.00  0.00     0.004 C 
ATOM     93  H26 H27 d   1      15.519   1.343   7.316  0.00  0.00     0.041 H 
ATOM     94  H27 H27 d   1      15.634   2.551   5.992  0.00  0.00     0.041 H 
ATOM     95  H28 H27 d   1      14.925   0.932   5.671  0.00  0.00     0.041 H 
ENDBRANCH  90  92
ENDBRANCH  89  90
ENDBRANCH  86  89
ENDBRANCH  59  86
ENDBRANCH  51  53
ENDBRANCH   1  51
TORSDOF 25
