REMARK  25 active torsions:
REMARK  status: ('A' for Active; 'I' for Inactive)
REMARK    1  A    between atoms: C15_50  and  C18_4 
REMARK    2  A    between atoms: C24_9  and  C25_37 
REMARK    3  A    between atoms: NA_38  and  C24_9 
REMARK    4  A    between atoms: C37_11  and  C51_12 
REMARK    5  A    between atoms: O36_13  and  C37_11 
REMARK    6  A    between atoms: C35_14  and  O36_13 
REMARK    7  A    between atoms: C28_15  and  N43_16 
REMARK       I    between atoms: N43_16  and  C44_17 
REMARK    8  A    between atoms: C44_17  and  C45_19 
REMARK    9  A    between atoms: C34_20  and  O41_21 
REMARK   10  A    between atoms: O41_21  and  C42_22 
REMARK   11  A    between atoms: C42_22  and  C49_24 
REMARK   12  A    between atoms: C33_25  and  C38_26 
REMARK   13  A    between atoms: C38_26  and  O39_27 
REMARK   14  A    between atoms: O39_27  and  C40_28 
REMARK   15  A    between atoms: C40_28  and  C47_30 
REMARK   16  A    between atoms: N94_33  and  C27_32 
REMARK   17  A    between atoms: C95_34  and  N94_33 
REMARK   18  A    between atoms: C25_37  and  N93_36 
REMARK   19  A    between atoms: NA_38  and  CZA_39 
REMARK   20  A    between atoms: SA_46  and  NA_38 
REMARK   21  A    between atoms: CZA_39  and  CZ1_40 
REMARK   22  A    between atoms: CZA_39  and  C_43 
REMARK   23  A    between atoms: CZ1_40  and  CC1_41 
REMARK   24  A    between atoms: CZ1_40  and  CC2_42 
REMARK   25  A    between atoms: SA_46  and  C12_49 
ROOT
ATOM      1  C95 H27 d   1      21.542 -22.662  19.302  0.00  0.00     0.169 C 
ATOM      2  SUR H27 d   1      22.798 -22.305  18.475  0.00  0.00    -0.041 SA
ATOM      3  N93 H27 d   1      20.328 -22.706  18.777  0.00  0.00    -0.366 N 
ATOM      4  H31 H27 d   1      19.730 -23.460  19.048  0.00  0.00     0.161 HD
ENDROOT
BRANCH   3   5
ATOM      5  C25 H27 d   1      19.807 -21.733  17.835  0.00  0.00     0.010 C 
ATOM      6  H32 H27 d   1      20.446 -21.749  16.940  0.00  0.00     0.066 H 
ATOM      7  H33 H27 d   1      18.786 -22.036  17.561  0.00  0.00     0.066 H 
BRANCH   5   8
ATOM      8  C24 H27 d   1      19.752 -20.306  18.349  0.00  0.00     0.021 C 
ATOM      9  H8  H27 d   1      20.785 -19.955  18.491  0.00  0.00     0.067 H 
ATOM     10  H9  H27 d   1      19.230 -20.312  19.317  0.00  0.00     0.067 H 
BRANCH   8  11
ATOM     11  NA  H27 d   1      19.075 -19.368  17.482  0.00  0.00    -0.290 N 
BRANCH  11  12
ATOM     12  CZA H27 d   1      19.908 -18.564  16.590  0.00  0.00     0.109 C 
ATOM     13  H34 H27 d   1      19.229 -18.044  15.898  0.00  0.00     0.091 H 
BRANCH  12  14
ATOM     14  CZ1 H27 d   1      20.839 -19.444  15.745  0.00  0.00    -0.031 C 
ATOM     15  H35 H27 d   1      21.315 -20.153  16.439  0.00  0.00     0.042 H 
BRANCH  14  16
ATOM     16  CC1 H27 d   1      20.136 -20.237  14.675  0.00  0.00    -0.071 C 
ATOM     17  H36 H27 d   1      20.872 -20.837  14.120  0.00  0.00     0.028 H 
ATOM     18  H37 H27 d   1      19.627 -19.549  13.984  0.00  0.00     0.028 H 
ATOM     19  H38 H27 d   1      19.395 -20.904  15.140  0.00  0.00     0.028 H 
ENDBRANCH  14  16
BRANCH  14  20
ATOM     20  CC2 H27 d   1      21.922 -18.682  15.039  0.00  0.00    -0.071 C 
ATOM     21  H39 H27 d   1      22.480 -18.076  15.769  0.00  0.00     0.028 H 
ATOM     22  H40 H27 d   1      21.473 -18.022  14.282  0.00  0.00     0.028 H 
ATOM     23  H41 H27 d   1      22.608 -19.389  14.549  0.00  0.00     0.028 H 
ENDBRANCH  14  20
ENDBRANCH  12  14
BRANCH  12  24
ATOM     24  C   H27 d   1      20.687 -17.514  17.315  0.00  0.00     0.197 C 
ATOM     25  OZ2 H27 d   1      20.764 -16.403  16.805  0.00  0.00    -0.646 OA
ATOM     26  O98 H27 d   1      21.245 -17.837  18.378  0.00  0.00    -0.646 OA
ENDBRANCH  12  24
ENDBRANCH  11  12
BRANCH  11  27
ATOM     27  SA  H27 d   1      17.645 -19.116  17.698  0.00  0.00     0.261 S 
ATOM     28  OS2 H27 d   1      17.045 -20.169  18.216  0.00  0.00    -0.200 OA
ATOM     29  OS1 H27 d   1      17.108 -18.764  16.533  0.00  0.00    -0.200 OA
BRANCH  27  30
ATOM     30  C12 H27 d   1      17.635 -17.852  18.693  0.00  0.00     0.079 A 
ATOM     31  C13 H27 d   1      17.614 -16.554  18.225  0.00  0.00    -0.059 A 
ATOM     32  C14 H27 d   1      17.629 -15.458  19.077  0.00  0.00    -0.071 A 
ATOM     33  H1  H27 d   1      17.585 -16.384  17.155  0.00  0.00     0.085 H 
ATOM     34  C15 H27 d   1      17.638 -15.611  20.439  0.00  0.00    -0.026 A 
ATOM     35  H2  H27 d   1      17.634 -14.459  18.656  0.00  0.00     0.084 H 
ATOM     36  C16 H27 d   1      17.642 -16.892  20.912  0.00  0.00    -0.071 A 
ATOM     37  C17 H27 d   1      17.652 -17.982  20.069  0.00  0.00    -0.059 A 
ATOM     38  H3  H27 d   1      17.637 -17.056  21.983  0.00  0.00     0.084 H 
ATOM     39  H42 H27 d   1      17.674 -18.976  20.500  0.00  0.00     0.085 H 
BRANCH  34  40
ATOM     40  C18 H27 d   1      17.643 -14.437  21.366  0.00  0.00    -0.026 A 
ATOM     41  C23 H27 d   1      18.240 -14.488  22.600  0.00  0.00    -0.072 A 
ATOM     42  C22 H27 d   1      18.219 -13.398  23.442  0.00  0.00    -0.082 A 
ATOM     43  H7  H27 d   1      18.735 -15.399  22.917  0.00  0.00     0.084 H 
ATOM     44  C21 H27 d   1      17.600 -12.231  23.083  0.00  0.00    -0.083 A 
ATOM     45  H6  H27 d   1      18.703 -13.466  24.410  0.00  0.00     0.083 H 
ATOM     46  C20 H27 d   1      16.982 -12.183  21.871  0.00  0.00    -0.082 A 
ATOM     47  H5  H27 d   1      17.602 -11.371  23.744  0.00  0.00     0.083 H 
ATOM     48  C19 H27 d   1      17.021 -13.271  21.039  0.00  0.00    -0.072 A 
ATOM     49  H4  H27 d   1      16.459 -11.284  21.564  0.00  0.00     0.083 H 
ATOM     50  H43 H27 d   1      16.533 -13.200  20.074  0.00  0.00     0.084 H 
ENDBRANCH  34  40
ENDBRANCH  27  30
ENDBRANCH  11  27
ENDBRANCH   8  11
ENDBRANCH   5   8
ENDBRANCH   3   5
BRANCH   1  51
ATOM     51  N94 H27 d   1      21.679 -22.820  20.606  0.00  0.00    -0.339 N 
ATOM     52  H30 H27 d   1      21.860 -21.973  21.107  0.00  0.00     0.164 HD
BRANCH  51  53
ATOM     53  C27 H27 d   1      21.614 -23.997  21.435  0.00  0.00     0.128 C 
ATOM     54  C28 H27 d   1      22.138 -23.543  22.804  0.00  0.00     0.082 C 
ATOM     55  C35 H27 d   1      21.524 -24.247  24.019  0.00  0.00     0.099 C 
ATOM     56  H14 H27 d   1      21.803 -22.499  22.889  0.00  0.00     0.083 H 
ATOM     57  C34 H27 d   1      20.753 -25.517  23.748  0.00  0.00     0.102 C 
ATOM     58  H13 H27 d   1      22.330 -24.453  24.739  0.00  0.00     0.091 H 
ATOM     59  C33 H27 d   1      20.236 -25.695  22.328  0.00  0.00     0.090 C 
ATOM     60  H19 H27 d   1      19.862 -25.508  24.393  0.00  0.00     0.092 H 
ATOM     61  O32 H27 d   1      20.287 -24.464  21.607  0.00  0.00    -0.354 OA
ATOM     62  H23 H27 d   1      20.857 -26.439  21.807  0.00  0.00     0.090 H 
ATOM     63  H29 H27 d   1      22.239 -24.798  21.013  0.00  0.00     0.121 H 
BRANCH  54  64
ATOM     64  N43 H27 d   1      23.608 -23.480  22.891  0.00  0.00    -0.350 N 
ATOM     65  C44 H27 d   1      24.396 -23.533  21.818  0.00  0.00     0.214 C 
ATOM     66  O46 H27 d   1      25.085 -22.609  21.409  0.00  0.00    -0.274 OA
ATOM     67  H15 H27 d   1      24.032 -23.394  23.793  0.00  0.00     0.163 HD
BRANCH  65  68
ATOM     68  C45 H27 d   1      24.314 -24.847  21.130  0.00  0.00    -0.003 C 
ATOM     69  H16 H27 d   1      24.979 -24.844  20.254  0.00  0.00     0.040 H 
ATOM     70  H17 H27 d   1      23.279 -25.026  20.804  0.00  0.00     0.040 H 
ATOM     71  H18 H27 d   1      24.624 -25.643  21.823  0.00  0.00     0.040 H 
ENDBRANCH  65  68
ENDBRANCH  54  64
BRANCH  55  72
ATOM     72  O36 H27 d   1      20.539 -23.418  24.587  0.00  0.00    -0.311 OA
BRANCH  72  73
ATOM     73  C37 H27 d   1      20.760 -23.154  25.975  0.00  0.00     0.255 C 
ATOM     74  O52 H27 d   1      19.768 -22.959  26.582  0.00  0.00    -0.266 OA
BRANCH  73  75
ATOM     75  C51 H27 d   1      22.114 -23.075  26.614  0.00  0.00     0.004 C 
ATOM     76  H10 H27 d   1      22.001 -22.861  27.687  0.00  0.00     0.041 H 
ATOM     77  H11 H27 d   1      22.697 -22.272  26.140  0.00  0.00     0.041 H 
ATOM     78  H12 H27 d   1      22.637 -24.034  26.484  0.00  0.00     0.041 H 
ENDBRANCH  73  75
ENDBRANCH  72  73
ENDBRANCH  55  72
BRANCH  57  79
ATOM     79  O41 H27 d   1      21.597 -26.562  24.184  0.00  0.00    -0.311 OA
BRANCH  79  80
ATOM     80  C42 H27 d   1      20.836 -27.347  25.148  0.00  0.00     0.255 C 
ATOM     81  O50 H27 d   1      20.800 -26.947  26.300  0.00  0.00    -0.266 OA
BRANCH  80  82
ATOM     82  C49 H27 d   1      20.124 -28.587  24.690  0.00  0.00     0.004 C 
ATOM     83  H20 H27 d   1      19.606 -29.049  25.543  0.00  0.00     0.041 H 
ATOM     84  H21 H27 d   1      20.855 -29.298  24.277  0.00  0.00     0.041 H 
ATOM     85  H22 H27 d   1      19.390 -28.323  23.914  0.00  0.00     0.041 H 
ENDBRANCH  80  82
ENDBRANCH  79  80
ENDBRANCH  57  79
BRANCH  59  86
ATOM     86  C38 H27 d   1      18.785 -26.201  22.403  0.00  0.00     0.055 C 
ATOM     87  H24 H27 d   1      18.161 -25.432  22.881  0.00  0.00     0.079 H 
ATOM     88  H25 H27 d   1      18.757 -27.122  23.004  0.00  0.00     0.079 H 
BRANCH  86  89
ATOM     89  O39 H27 d   1      18.269 -26.477  21.105  0.00  0.00    -0.319 OA
BRANCH  89  90
ATOM     90  C40 H27 d   1      17.228 -25.655  20.487  0.00  0.00     0.254 C 
ATOM     91  O48 H27 d   1      16.425 -25.127  21.217  0.00  0.00    -0.266 OA
BRANCH  90  92
ATOM     92  C47 H27 d   1      17.142 -25.478  18.991  0.00  0.00     0.004 C 
ATOM     93  H26 H27 d   1      16.291 -24.826  18.747  0.00  0.00     0.041 H 
ATOM     94  H27 H27 d   1      17.001 -26.459  18.513  0.00  0.00     0.041 H 
ATOM     95  H28 H27 d   1      18.072 -25.021  18.622  0.00  0.00     0.041 H 
ENDBRANCH  90  92
ENDBRANCH  89  90
ENDBRANCH  86  89
ENDBRANCH  59  86
ENDBRANCH  51  53
ENDBRANCH   1  51
TORSDOF 25
