REMARK  6 active torsions:
REMARK  status: ('A' for Active; 'I' for Inactive)
REMARK    1  A    between atoms: CAM_7  and  NAL_8 
REMARK    2  A    between atoms: NAK_9  and  CAJ_10 
REMARK    3  A    between atoms: CAJ_10  and  CAB_11 
REMARK    4  A    between atoms: CAE_14  and  OAG_15 
REMARK    5  A    between atoms: CAF_16  and  OAH_17 
REMARK    6  A    between atoms: CAA_18  and  OAI_19 
ROOT
ATOM      1  CAJ 4P9 d   1       3.477 -23.502 -20.176  0.00  0.00     0.061 C 
ATOM      2  H5  4P9 d   1       2.968 -24.252 -20.799  0.00  0.00     0.077 H 
ATOM      3  H6  4P9 d   1       3.447 -23.819 -19.123  0.00  0.00     0.077 H 
ENDROOT
BRANCH   1   4
ATOM      4  NAK 4P9 d   1       2.804 -22.334 -20.286  0.00  0.00    -0.188 NA
ATOM      5  NAL 4P9 d   1       1.569 -22.275 -19.947  0.00  0.00    -0.155 NA
BRANCH   5   6
ATOM      6  CAM 4P9 d   1       0.981 -21.087 -20.084  0.00  0.00     0.078 A 
ATOM      7  CAN 4P9 d   1      -0.369 -20.906 -19.768  0.00  0.00    -0.052 A 
ATOM      8  CAP 4P9 d   1      -0.984 -19.678 -20.011  0.00  0.00    -0.060 A 
ATOM      9  H1  4P9 d   1      -0.938 -21.720 -19.334  0.00  0.00     0.087 H 
ATOM     10  CAR 4P9 d   1      -0.240 -18.631 -20.552  0.00  0.00     0.034 A 
ATOM     11  H2  4P9 d   1      -2.034 -19.539 -19.780  0.00  0.00     0.086 H 
ATOM     12 CLS  4P9 d   1      -0.970 -17.098 -20.841  0.00  0.00    -0.084 Cl
ATOM     13  CAQ 4P9 d   1       1.100 -18.823 -20.864  0.00  0.00    -0.060 A 
ATOM     14  CAO 4P9 d   1       1.716 -20.042 -20.638  0.00  0.00    -0.052 A 
ATOM     15  H3  4P9 d   1       1.671 -18.007 -21.291  0.00  0.00     0.086 H 
ATOM     16  H4  4P9 d   1       2.761 -20.182 -20.890  0.00  0.00     0.087 H 
ENDBRANCH   5   6
ENDBRANCH   1   4
BRANCH   1  17
ATOM     17  CAB 4P9 d   1       4.816 -23.437 -20.575  0.00  0.00    -0.001 C 
ATOM     18  CAC 4P9 d   1       5.571 -22.254 -20.535  0.00  0.00    -0.070 C 
ATOM     19  CAD 4P9 d   1       6.919 -22.252 -20.922  0.00  0.00    -0.048 C 
ATOM     20  H7  4P9 d   1       5.107 -21.333 -20.202  0.00  0.00     0.084 H 
ATOM     21  CAE 4P9 d   1       7.538 -23.439 -21.313  0.00  0.00     0.101 C 
ATOM     22  H8  4P9 d   1       7.481 -21.325 -20.917  0.00  0.00     0.087 H 
ATOM     23  CAF 4P9 d   1       6.806 -24.613 -21.316  0.00  0.00     0.133 C 
ATOM     24  CAA 4P9 d   1       5.497 -24.617 -20.870  0.00  0.00     0.109 C 
BRANCH  21  25
ATOM     25  OAG 4P9 d   1       8.838 -23.520 -21.703  0.00  0.00    -0.358 OA
ATOM     26  H9  4P9 d   1       9.046 -24.420 -21.924  0.00  0.00     0.217 HD
ENDBRANCH  21  25
BRANCH  23  27
ATOM     27  OAH 4P9 d   1       7.395 -25.781 -21.691  0.00  0.00    -0.356 OA
ATOM     28  H10 4P9 d   1       6.760 -26.486 -21.638  0.00  0.00     0.218 HD
ENDBRANCH  23  27
BRANCH  24  29
ATOM     29  OAI 4P9 d   1       4.799 -25.781 -20.947  0.00  0.00    -0.357 OA
ATOM     30  H11 4P9 d   1       5.238 -26.447 -20.431  0.00  0.00     0.217 HD
ENDBRANCH  24  29
ENDBRANCH   1  17
TORSDOF 6
