REMARK WARNING: 32 MAX_TORS EXCEEDED!!!
REMARK  72 active torsions:
REMARK  status: ('A' for Active; 'I' for Inactive)
REMARK    1  A    between atoms: N_1  and  CA_2 
REMARK    2  A    between atoms: CA_2  and  C_3 
REMARK    3  A    between atoms: CA_2  and  CB_5 
REMARK       I    between atoms: C_3  and  N_7 
REMARK    4  A    between atoms: CB_5  and  OG_6 
REMARK    5  A    between atoms: N_7  and  CA_8 
REMARK    6  A    between atoms: CA_8  and  C_9 
REMARK    7  A    between atoms: CA_8  and  CB_11 
REMARK       I    between atoms: C_9  and  N_14 
REMARK    8  A    between atoms: CB_11  and  OG1_12 
REMARK    9  A    between atoms: CB_11  and  CG2_13 
REMARK   10  A    between atoms: N_14  and  CA_15 
REMARK   11  A    between atoms: CA_15  and  C_16 
REMARK   12  A    between atoms: CA_15  and  CB_18 
REMARK       I    between atoms: C_16  and  N_21 
REMARK   13  A    between atoms: CB_18  and  CG1_19 
REMARK   14  A    between atoms: CB_18  and  CG2_20 
REMARK   15  A    between atoms: CA_22  and  C_23 
REMARK       I    between atoms: C_23  and  N_28 
REMARK   16  A    between atoms: N_28  and  CA_29 
REMARK   17  A    between atoms: CA_29  and  C_30 
REMARK   18  A    between atoms: CA_29  and  CB_32 
REMARK       I    between atoms: C_30  and  N_35 
REMARK   19  A    between atoms: CB_32  and  CG1_33 
REMARK   20  A    between atoms: CB_32  and  CG2_34 
REMARK   21  A    between atoms: N_35  and  CA_36 
REMARK   22  A    between atoms: CA_36  and  C_37 
REMARK   23  A    between atoms: CA_36  and  CB_39 
REMARK       I    between atoms: C_37  and  N_40 
REMARK   24  A    between atoms: CA_41  and  C_42 
REMARK       I    between atoms: C_42  and  N_47 
REMARK   25  A    between atoms: CA_48  and  C_49 
REMARK       I    between atoms: C_49  and  N_54 
REMARK   26  A    between atoms: N_54  and  CA_55 
REMARK   27  A    between atoms: CA_55  and  C_56 
REMARK   28  A    between atoms: CA_55  and  CB_58 
REMARK       I    between atoms: C_56  and  N_65 
REMARK   29  A    between atoms: CB_58  and  CG_59 
REMARK   30  A    between atoms: CG_59  and  CD_60 
REMARK   31  A    between atoms: CD_60  and  NE_61 
REMARK       I    between atoms: NE_61  and  CZ_62 
REMARK       I    between atoms: CZ_62  and  NH1_63 
REMARK       I    between atoms: CZ_62  and  NH2_64 
REMARK   32  A    between atoms: N_65  and  CA_66 
REMARK   33  A    between atoms: CA_66  and  C_67 
REMARK   34  A    between atoms: CA_66  and  CB_69 
REMARK       I    between atoms: C_67  and  N_76 
REMARK   35  A    between atoms: CB_69  and  CG_70 
REMARK   36  A    between atoms: CG_70  and  CD_71 
REMARK   37  A    between atoms: CD_71  and  NE_72 
REMARK       I    between atoms: NE_72  and  CZ_73 
REMARK       I    between atoms: CZ_73  and  NH1_74 
REMARK       I    between atoms: CZ_73  and  NH2_75 
REMARK   38  A    between atoms: N_76  and  CA_77 
REMARK   39  A    between atoms: CA_77  and  C_78 
REMARK   40  A    between atoms: CA_77  and  CB_80 
REMARK       I    between atoms: C_78  and  N_87 
REMARK   41  A    between atoms: CB_80  and  CG_81 
REMARK   42  A    between atoms: CG_81  and  CD_82 
REMARK   43  A    between atoms: CD_82  and  NE_83 
REMARK       I    between atoms: NE_83  and  CZ_84 
REMARK       I    between atoms: CZ_84  and  NH1_85 
REMARK       I    between atoms: CZ_84  and  NH2_86 
REMARK   44  A    between atoms: N_87  and  CA_88 
REMARK   45  A    between atoms: CA_88  and  C_89 
REMARK   46  A    between atoms: CA_88  and  CB_91 
REMARK       I    between atoms: C_89  and  N_98 
REMARK   47  A    between atoms: CB_91  and  CG_92 
REMARK   48  A    between atoms: CG_92  and  CD_93 
REMARK   49  A    between atoms: CD_93  and  NE_94 
REMARK       I    between atoms: NE_94  and  CZ_95 
REMARK       I    between atoms: CZ_95  and  NH1_96 
REMARK       I    between atoms: CZ_95  and  NH2_97 
REMARK   50  A    between atoms: N_98  and  CA_99 
REMARK   51  A    between atoms: CA_99  and  C_100 
REMARK       I    between atoms: C_100  and  N_102 
REMARK   52  A    between atoms: N_102  and  CA_103 
REMARK   53  A    between atoms: CA_103  and  C_104 
REMARK   54  A    between atoms: CA_103  and  CB_106 
REMARK       I    between atoms: C_104  and  N_113 
REMARK   55  A    between atoms: CB_106  and  CG_107 
REMARK   56  A    between atoms: CG_107  and  CD_108 
REMARK   57  A    between atoms: CD_108  and  NE_109 
REMARK       I    between atoms: NE_109  and  CZ_110 
REMARK       I    between atoms: CZ_110  and  NH1_111 
REMARK   58  A    between atoms: N_113  and  CA_114 
REMARK   59  A    between atoms: CA_114  and  C_115 
REMARK   60  A    between atoms: CA_114  and  CB_117 
REMARK       I    between atoms: C_115  and  N_121 
REMARK   61  A    between atoms: CB_117  and  CG_118 
REMARK       I    between atoms: CG_118  and  ND2_120 
REMARK   62  A    between atoms: N_121  and  CA_122 
REMARK   63  A    between atoms: CA_122  and  C_123 
REMARK   64  A    between atoms: CA_122  and  CB_125 
REMARK       I    between atoms: C_123  and  N_129 
REMARK   65  A    between atoms: CB_125  and  CG_126 
REMARK   66  A    between atoms: CG_126  and  CD1_127 
REMARK   67  A    between atoms: CG_126  and  CD2_128 
REMARK   68  A    between atoms: N_129  and  CA_130 
REMARK   69  A    between atoms: CA_130  and  C_131 
REMARK   70  A    between atoms: CA_130  and  CB_133 
REMARK   71  A    between atoms: CB_133  and  OG1_134 
REMARK   72  A    between atoms: CB_133  and  CG2_135 
ROOT
ATOM      1  CA  ARG d   1      20.085  43.031  37.187  0.00  0.00     0.089 C 
ATOM      2  H73 ARG d   1      20.277  43.956  37.751  0.00  0.00     0.087 H 
ENDROOT
BRANCH   1   3
ATOM      3  N   ARG d   1      21.107  42.043  37.596  0.00  0.00    -0.346 N 
ATOM      4  C   ARG d   1      22.089  42.315  38.461  0.00  0.00     0.241 C 
ATOM      5  O   ARG d   1      22.078  43.334  39.154  0.00  0.00    -0.271 OA
ATOM      6  H72 ARG d   1      21.061  41.124  37.205  0.00  0.00     0.163 HD
BRANCH   4   7
ATOM      7  CA  ARG d   1      23.274  41.345  38.542  0.00  0.00     0.089 C 
ATOM      8  H60 ARG d   1      23.485  40.988  37.523  0.00  0.00     0.087 H 
BRANCH   7   9
ATOM      9  N   ARG d   1      24.483  42.023  39.051  0.00  0.00    -0.346 N 
ATOM     10  C   PRO d   1      25.274  42.831  38.335  0.00  0.00     0.241 C 
ATOM     11  O   PRO d   1      25.101  43.019  37.127  0.00  0.00    -0.271 OA
ATOM     12  H59 ARG d   1      24.730  41.866  40.007  0.00  0.00     0.163 HD
BRANCH  10  13
ATOM     13  CA  PRO d   1      26.381  43.563  39.116  0.00  0.00     0.091 C 
ATOM     14  N   PRO d   1      27.715  43.349  38.550  0.00  0.00    -0.337 N 
ATOM     15  C   PRO d   1      28.379  42.177  38.633  0.00  0.00     0.243 C 
ATOM     16  CD  PRO d   1      28.223  44.586  37.972  0.00  0.00    -0.001 C 
ATOM     17  O   PRO d   1      27.870  41.194  39.184  0.00  0.00    -0.271 OA
ATOM     18  CG  PRO d   1      27.050  45.566  37.965  0.00  0.00    -0.048 C 
ATOM     19  H57 PRO d   1      28.579  44.410  36.946  0.00  0.00     0.064 H 
ATOM     20  H58 PRO d   1      29.047  44.982  38.583  0.00  0.00     0.064 H 
ATOM     21  CB  PRO d   1      26.176  45.081  39.119  0.00  0.00    -0.036 C 
ATOM     22  H55 PRO d   1      27.396  46.595  38.139  0.00  0.00     0.035 H 
ATOM     23  H56 PRO d   1      26.504  45.519  37.011  0.00  0.00     0.035 H 
ATOM     24  H53 PRO d   1      26.506  45.520  40.072  0.00  0.00     0.036 H 
ATOM     25  H54 PRO d   1      25.120  45.335  38.945  0.00  0.00     0.036 H 
ATOM     26  H52 PRO d   1      26.365  43.192  40.151  0.00  0.00     0.087 H 
BRANCH  15  27
ATOM     27  CA  PRO d   1      29.798  42.073  38.024  0.00  0.00     0.092 C 
ATOM     28  N   PRO d   1      30.566  40.927  38.520  0.00  0.00    -0.337 N 
ATOM     29  C   ALA d   1      31.159  40.908  39.732  0.00  0.00     0.243 C 
ATOM     30  CD  PRO d   1      30.695  39.901  37.489  0.00  0.00    -0.001 C 
ATOM     31  O   ALA d   1      31.008  41.838  40.536  0.00  0.00    -0.271 OA
ATOM     32  CG  PRO d   1      30.007  40.439  36.236  0.00  0.00    -0.048 C 
ATOM     33  H50 PRO d   1      30.208  38.971  37.818  0.00  0.00     0.064 H 
ATOM     34  H51 PRO d   1      31.757  39.705  37.282  0.00  0.00     0.064 H 
ATOM     35  CB  PRO d   1      29.790  41.927  36.499  0.00  0.00    -0.036 C 
ATOM     36  H48 PRO d   1      30.647  40.294  35.353  0.00  0.00     0.035 H 
ATOM     37  H49 PRO d   1      29.044  39.932  36.078  0.00  0.00     0.035 H 
ATOM     38  H46 PRO d   1      30.601  42.520  36.051  0.00  0.00     0.036 H 
ATOM     39  H47 PRO d   1      28.825  42.255  36.086  0.00  0.00     0.036 H 
ATOM     40  H45 PRO d   1      30.333  42.997  38.288  0.00  0.00     0.087 H 
BRANCH  29  41
ATOM     41  CA  ALA d   1      32.038  39.698  40.137  0.00  0.00     0.086 C 
ATOM     42  H41 ALA d   1      32.303  39.160  39.215  0.00  0.00     0.086 H 
BRANCH  41  43
ATOM     43  N   ALA d   1      33.283  40.101  40.796  0.00  0.00    -0.346 N 
ATOM     44  C   VAL d   1      34.260  40.754  40.165  0.00  0.00     0.241 C 
ATOM     45  O   VAL d   1      34.143  41.104  38.988  0.00  0.00    -0.271 OA
ATOM     46  H40 ALA d   1      33.406  39.876  41.763  0.00  0.00     0.163 HD
BRANCH  44  47
ATOM     47  CA  VAL d   1      35.545  41.058  40.941  0.00  0.00     0.092 C 
ATOM     48  H32 VAL d   1      35.500  40.470  41.870  0.00  0.00     0.088 H 
BRANCH  47  49
ATOM     49  N   VAL d   1      36.764  40.617  40.224  0.00  0.00    -0.346 N 
ATOM     50  C   PRO d   1      37.763  39.912  40.772  0.00  0.00     0.241 C 
ATOM     51  O   PRO d   1      37.733  39.544  41.951  0.00  0.00    -0.271 OA
ATOM     52  H31 VAL d   1      36.848  40.864  39.259  0.00  0.00     0.163 HD
BRANCH  50  53
ATOM     53  CA  PRO d   1      38.946  39.548  39.852  0.00  0.00     0.091 C 
ATOM     54  N   PRO d   1      40.096  38.995  40.580  0.00  0.00    -0.337 N 
ATOM     55  C   VAL d   1      40.892  39.733  41.379  0.00  0.00     0.243 C 
ATOM     56  CD  PRO d   1      40.243  37.577  40.283  0.00  0.00    -0.001 C 
ATOM     57  O   VAL d   1      40.758  40.957  41.453  0.00  0.00    -0.271 OA
ATOM     58  CG  PRO d   1      38.978  37.175  39.531  0.00  0.00    -0.048 C 
ATOM     59  H29 PRO d   1      40.335  36.998  41.214  0.00  0.00     0.064 H 
ATOM     60  H30 PRO d   1      41.131  37.407  39.656  0.00  0.00     0.064 H 
ATOM     61  CB  PRO d   1      38.564  38.466  38.835  0.00  0.00    -0.036 C 
ATOM     62  H27 PRO d   1      39.189  36.382  38.799  0.00  0.00     0.035 H 
ATOM     63  H28 PRO d   1      38.197  36.833  40.226  0.00  0.00     0.035 H 
ATOM     64  H25 PRO d   1      39.113  38.599  37.891  0.00  0.00     0.036 H 
ATOM     65  H26 PRO d   1      37.483  38.477  38.634  0.00  0.00     0.036 H 
ATOM     66  H24 PRO d   1      39.256  40.460  39.321  0.00  0.00     0.087 H 
BRANCH  55  67
ATOM     67  CA  VAL d   1      41.978  39.045  42.233  0.00  0.00     0.092 C 
ATOM     68  H16 VAL d   1      42.283  38.163  41.650  0.00  0.00     0.088 H 
BRANCH  67  69
ATOM     69  N   VAL d   1      43.216  39.839  42.400  0.00  0.00    -0.346 N 
ATOM     70  C   THR d   1      44.179  39.916  41.483  0.00  0.00     0.243 C 
ATOM     71  O   THR d   1      44.115  39.306  40.415  0.00  0.00    -0.271 OA
ATOM     72  H15 VAL d   1      43.337  40.348  43.252  0.00  0.00     0.163 HD
BRANCH  70  73
ATOM     73  CA  THR d   1      45.350  40.849  41.797  0.00  0.00     0.113 C 
ATOM     74  H9  THR d   1      44.974  41.849  41.533  0.00  0.00     0.091 H 
BRANCH  73  75
ATOM     75  N   THR d   1      45.709  40.958  43.233  0.00  0.00    -0.344 N 
ATOM     76  C   SER d   1      46.042  39.952  44.056  0.00  0.00     0.251 C 
ATOM     77  O   SER d   1      45.834  38.774  43.776  0.00  0.00    -0.271 OA
ATOM     78  H8  THR d   1      45.702  41.877  43.628  0.00  0.00     0.163 HD
BRANCH  76  79
ATOM     79  CA  SER d   1      46.733  40.328  45.365  0.00  0.00     0.195 C 
ATOM     80  H4  SER d   1      46.396  41.334  45.653  0.00  0.00     0.102 H 
BRANCH  79  81
ATOM     81  N   SER d   1      46.408  39.404  46.471  0.00  0.00    -0.064 N 
ATOM     82  H1  SER d   1      46.889  39.698  47.307  0.00  0.00     0.275 HD
ATOM     83  H2  SER d   1      46.700  38.471  46.226  0.00  0.00     0.275 HD
ATOM     84  H3  SER d   1      45.413  39.413  46.635  0.00  0.00     0.275 HD
ENDBRANCH  79  81
BRANCH  79  85
ATOM     85  CB  SER d   1      48.248  40.363  45.142  0.00  0.00     0.051 C 
ATOM     86  H5  SER d   1      48.729  40.935  45.950  0.00  0.00     0.077 H 
ATOM     87  H6  SER d   1      48.470  40.837  44.175  0.00  0.00     0.077 H 
BRANCH  85  88
ATOM     88  OG  SER d   1      48.732  39.037  45.144  0.00  0.00    -0.398 OA
ATOM     89  H7  SER d   1      48.312  38.547  44.447  0.00  0.00     0.209 HD
ENDBRANCH  85  88
ENDBRANCH  79  85
ENDBRANCH  76  79
ENDBRANCH  73  75
BRANCH  73  90
ATOM     90  CB  THR d   1      46.582  40.644  40.889  0.00  0.00     0.060 C 
ATOM     91  H10 THR d   1      46.251  40.746  39.845  0.00  0.00     0.086 H 
BRANCH  90  92
ATOM     92  OG1 THR d   1      47.164  39.370  41.063  0.00  0.00    -0.393 OA
ATOM     93  H11 THR d   1      47.442  39.271  41.966  0.00  0.00     0.210 HD
ENDBRANCH  90  92
BRANCH  90  94
ATOM     94  CG2 THR d   1      47.683  41.666  41.159  0.00  0.00    -0.050 C 
ATOM     95  H12 THR d   1      48.533  41.475  40.488  0.00  0.00     0.031 H 
ATOM     96  H13 THR d   1      48.015  41.580  42.204  0.00  0.00     0.031 H 
ATOM     97  H14 THR d   1      47.295  42.679  40.979  0.00  0.00     0.031 H 
ENDBRANCH  90  94
ENDBRANCH  73  90
ENDBRANCH  70  73
ENDBRANCH  67  69
BRANCH  67  98
ATOM     98  CB  VAL d   1      41.431  38.481  43.565  0.00  0.00    -0.033 C 
ATOM     99  H17 VAL d   1      40.793  37.622  43.308  0.00  0.00     0.042 H 
BRANCH  98 100
ATOM    100  CG1 VAL d   1      42.542  37.979  44.496  0.00  0.00    -0.071 C 
ATOM    101  H18 VAL d   1      42.096  37.591  45.423  0.00  0.00     0.028 H 
ATOM    102  H19 VAL d   1      43.222  38.809  44.736  0.00  0.00     0.028 H 
ATOM    103  H20 VAL d   1      43.105  37.177  43.996  0.00  0.00     0.028 H 
ENDBRANCH  98 100
BRANCH  98 104
ATOM    104  CG2 VAL d   1      40.572  39.480  44.346  0.00  0.00    -0.071 C 
ATOM    105  H21 VAL d   1      39.766  39.855  43.698  0.00  0.00     0.028 H 
ATOM    106  H22 VAL d   1      41.198  40.322  44.677  0.00  0.00     0.028 H 
ATOM    107  H23 VAL d   1      40.135  38.980  45.223  0.00  0.00     0.028 H 
ENDBRANCH  98 104
ENDBRANCH  67  98
ENDBRANCH  55  67
ENDBRANCH  50  53
ENDBRANCH  47  49
BRANCH  47 108
ATOM    108  CB  VAL d   1      35.607  42.545  41.359  0.00  0.00    -0.033 C 
ATOM    109  H33 VAL d   1      35.484  43.152  40.450  0.00  0.00     0.042 H 
BRANCH 108 110
ATOM    110  CG1 VAL d   1      34.481  42.899  42.340  0.00  0.00    -0.071 C 
ATOM    111  H34 VAL d   1      34.555  43.961  42.615  0.00  0.00     0.028 H 
ATOM    112  H35 VAL d   1      34.573  42.279  43.244  0.00  0.00     0.028 H 
ATOM    113  H36 VAL d   1      33.507  42.711  41.864  0.00  0.00     0.028 H 
ENDBRANCH 108 110
BRANCH 108 114
ATOM    114  CG2 VAL d   1      36.942  42.927  42.016  0.00  0.00    -0.071 C 
ATOM    115  H37 VAL d   1      37.770  42.684  41.333  0.00  0.00     0.028 H 
ATOM    116  H38 VAL d   1      37.063  42.365  42.954  0.00  0.00     0.028 H 
ATOM    117  H39 VAL d   1      36.949  44.006  42.231  0.00  0.00     0.028 H 
ENDBRANCH 108 114
ENDBRANCH  47 108
ENDBRANCH  44  47
ENDBRANCH  41  43
BRANCH  41 118
ATOM    118  CB  ALA d   1      31.275  38.733  41.047  0.00  0.00    -0.049 C 
ATOM    119  H42 ALA d   1      30.339  38.428  40.556  0.00  0.00     0.030 H 
ATOM    120  H43 ALA d   1      31.043  39.233  41.999  0.00  0.00     0.030 H 
ATOM    121  H44 ALA d   1      31.894  37.844  41.240  0.00  0.00     0.030 H 
ENDBRANCH  41 118
ENDBRANCH  29  41
ENDBRANCH  15  27
ENDBRANCH  10  13
ENDBRANCH   7   9
BRANCH   7 122
ATOM    122  CB  ARG d   1      22.952  40.122  39.416  0.00  0.00    -0.036 C 
ATOM    123  H61 ARG d   1      22.033  39.652  39.037  0.00  0.00     0.036 H 
ATOM    124  H62 ARG d   1      22.790  40.462  40.450  0.00  0.00     0.036 H 
BRANCH 122 125
ATOM    125  CG  ARG d   1      24.081  39.068  39.415  0.00  0.00    -0.048 C 
ATOM    126  H63 ARG d   1      24.890  39.426  38.761  0.00  0.00     0.035 H 
ATOM    127  H64 ARG d   1      23.677  38.126  39.016  0.00  0.00     0.035 H 
BRANCH 125 128
ATOM    128  CD  ARG d   1      24.667  38.794  40.804  0.00  0.00     0.009 C 
ATOM    129  H65 ARG d   1      25.032  39.739  41.232  0.00  0.00     0.064 H 
ATOM    130  H66 ARG d   1      25.505  38.088  40.706  0.00  0.00     0.064 H 
BRANCH 128 131
ATOM    131  NE  ARG d   1      23.659  38.219  41.705  0.00  0.00    -0.227 N 
ATOM    132  CZ  ARG d   1      23.223  38.691  42.855  0.00  0.00     0.665 C 
ATOM    133  NH1 ARG d   1      23.693  39.766  43.422  0.00  0.00    -0.235 N 
ATOM    134  NH2 ARG d   1      22.275  38.059  43.472  0.00  0.00    -0.235 N 
ATOM    135  H68 ARG d   1      23.308  40.083  44.323  0.00  0.00     0.174 HD
ATOM    136  H69 ARG d   1      24.449  40.299  42.969  0.00  0.00     0.174 HD
ATOM    137  H70 ARG d   1      21.873  37.204  43.061  0.00  0.00     0.174 HD
ATOM    138  H71 ARG d   1      21.923  38.411  44.374  0.00  0.00     0.174 HD
ATOM    139  H67 ARG d   1      23.238  37.331  41.397  0.00  0.00     0.177 HD
ENDBRANCH 128 131
ENDBRANCH 125 128
ENDBRANCH 122 125
ENDBRANCH   7 122
ENDBRANCH   4   7
ENDBRANCH   1   3
BRANCH   1 140
ATOM    140  C   ARG d   1      18.654  42.587  37.527  0.00  0.00     0.241 C 
ATOM    141  O   ARG d   1      18.401  41.400  37.739  0.00  0.00    -0.271 OA
ATOM    142  N   ARG d   1      17.707  43.531  37.577  0.00  0.00    -0.346 N 
ATOM    143  H85 ARG d   1      17.978  44.479  37.413  0.00  0.00     0.163 HD
BRANCH 142 144
ATOM    144  CA  ARG d   1      16.281  43.253  37.861  0.00  0.00     0.089 C 
ATOM    145  H86 ARG d   1      16.228  42.794  38.859  0.00  0.00     0.087 H 
BRANCH 144 146
ATOM    146  C   ARG d   1      15.670  42.251  36.867  0.00  0.00     0.241 C 
ATOM    147  O   ARG d   1      15.977  42.318  35.675  0.00  0.00    -0.271 OA
ATOM    148  N   ARG d   1      14.764  41.369  37.311  0.00  0.00    -0.346 N 
ATOM    149  H98 ARG d   1      14.689  41.222  38.297  0.00  0.00     0.163 HD
BRANCH 148 150
ATOM    150  CA  ARG d   1      13.869  40.602  36.417  0.00  0.00     0.089 C 
ATOM    151  H99 ARG d   1      13.594  41.285  35.600  0.00  0.00     0.087 H 
BRANCH 150 152
ATOM    152  C   ARG d   1      12.551  40.192  37.085  0.00  0.00     0.240 C 
ATOM    153  O   ARG d   1      12.470  40.073  38.308  0.00  0.00    -0.271 OA
ATOM    154  N   GLY d   1      11.510  39.989  36.275  0.00  0.00    -0.351 N 
ATOM    155 1H11 GLY d   1      11.649  40.122  35.294  0.00  0.00     0.163 HD
BRANCH 154 156
ATOM    156  CA  GLY d   1      10.173  39.583  36.731  0.00  0.00     0.069 C 
ATOM    157 2H11 GLY d   1      10.279  38.658  37.316  0.00  0.00     0.078 H 
ATOM    158 3H11 GLY d   1       9.555  39.386  35.843  0.00  0.00     0.078 H 
BRANCH 156 159
ATOM    159  C   GLY d   1       9.441  40.617  37.602  0.00  0.00     0.236 C 
ATOM    160  O   GLY d   1       8.612  40.234  38.435  0.00  0.00    -0.272 OA
ATOM    161  N   ARG d   1       9.772  41.910  37.478  0.00  0.00    -0.346 N 
ATOM    162 4H11 ARG d   1      10.413  42.155  36.751  0.00  0.00     0.163 HD
BRANCH 161 163
ATOM    163  CA  ARG d   1       9.263  42.998  38.332  0.00  0.00     0.089 C 
ATOM    164 5H11 ARG d   1       9.284  42.650  39.375  0.00  0.00     0.087 H 
BRANCH 163 165
ATOM    165  C   ARG d   1       7.804  43.350  38.008  0.00  0.00     0.241 C 
ATOM    166  O   ARG d   1       7.462  43.574  36.844  0.00  0.00    -0.271 OA
ATOM    167  N   ASN d   1       6.949  43.415  39.032  0.00  0.00    -0.346 N 
ATOM    168 7H12 ASN d   1       7.317  43.274  39.951  0.00  0.00     0.163 HD
BRANCH 167 169
ATOM    169  CA  ASN d   1       5.506  43.678  38.910  0.00  0.00     0.097 C 
ATOM    170 8H12 ASN d   1       5.362  44.422  38.113  0.00  0.00     0.088 H 
BRANCH 169 171
ATOM    171  C   ASN d   1       4.917  44.271  40.208  0.00  0.00     0.241 C 
ATOM    172  O   ASN d   1       5.226  43.796  41.299  0.00  0.00    -0.271 OA
ATOM    173  N   LEU d   1       4.039  45.271  40.080  0.00  0.00    -0.346 N 
ATOM    174 3H13 LEU d   1       3.865  45.604  39.153  0.00  0.00     0.163 HD
BRANCH 173 175
ATOM    175  CA  LEU d   1       3.303  45.930  41.172  0.00  0.00     0.089 C 
ATOM    176 4H13 LEU d   1       3.278  45.253  42.039  0.00  0.00     0.087 H 
BRANCH 175 177
ATOM    177  C   LEU d   1       1.852  46.235  40.747  0.00  0.00     0.241 C 
ATOM    178  O   LEU d   1       1.546  46.244  39.549  0.00  0.00    -0.271 OA
ATOM    179  N   THR d   1       0.966  46.509  41.714  0.00  0.00    -0.343 N 
ATOM    180 4H14 THR d   1       1.295  46.520  42.658  0.00  0.00     0.163 HD
BRANCH 179 181
ATOM    181  CA  THR d   1      -0.472  46.797  41.479  0.00  0.00     0.120 C 
ATOM    182 5H14 THR d   1      -0.837  45.887  40.981  0.00  0.00     0.093 H 
BRANCH 181 183
ATOM    183  C   THR d   1      -0.813  47.918  40.498  0.00  0.00     0.199 C 
ATOM    184  O   THR d   1      -1.631  47.683  39.573  0.00  0.00    -0.646 OA
ATOM    185  OXT THR d   1      -0.278  49.039  40.668  0.00  0.00    -0.646 OA
ENDBRANCH 181 183
BRANCH 181 186
ATOM    186  CB  THR d   1      -1.315  46.902  42.764  0.00  0.00     0.061 C 
ATOM    187 6H14 THR d   1      -1.328  47.958  43.071  0.00  0.00     0.086 H 
BRANCH 186 188
ATOM    188  OG1 THR d   1      -0.784  46.124  43.817  0.00  0.00    -0.393 OA
ATOM    189 7H14 THR d   1      -1.333  46.218  44.587  0.00  0.00     0.210 HD
ENDBRANCH 186 188
BRANCH 186 190
ATOM    190  CG2 THR d   1      -2.751  46.428  42.561  0.00  0.00    -0.050 C 
ATOM    191 8H14 THR d   1      -3.306  46.524  43.506  0.00  0.00     0.031 H 
ATOM    192 9H14 THR d   1      -2.748  45.375  42.243  0.00  0.00     0.031 H 
ATOM    193 0H15 THR d   1      -3.234  47.043  41.788  0.00  0.00     0.031 H 
ENDBRANCH 186 190
ENDBRANCH 181 186
ENDBRANCH 179 181
ENDBRANCH 175 177
BRANCH 175 194
ATOM    194  CB  LEU d   1       4.029  47.230  41.579  0.00  0.00    -0.035 C 
ATOM    195 5H13 LEU d   1       3.419  47.730  42.346  0.00  0.00     0.037 H 
ATOM    196 6H13 LEU d   1       4.095  47.871  40.688  0.00  0.00     0.037 H 
BRANCH 194 197
ATOM    197  CG  LEU d   1       5.452  47.062  42.145  0.00  0.00    -0.059 C 
ATOM    198 7H13 LEU d   1       6.051  46.479  41.430  0.00  0.00     0.038 H 
BRANCH 197 199
ATOM    199  CD1 LEU d   1       6.085  48.437  42.341  0.00  0.00    -0.073 C 
ATOM    200 8H13 LEU d   1       7.101  48.319  42.745  0.00  0.00     0.028 H 
ATOM    201 9H13 LEU d   1       5.477  49.024  43.045  0.00  0.00     0.028 H 
ATOM    202 0H14 LEU d   1       6.133  48.959  41.374  0.00  0.00     0.028 H 
ENDBRANCH 197 199
BRANCH 197 203
ATOM    203  CD2 LEU d   1       5.450  46.344  43.495  0.00  0.00    -0.073 C 
ATOM    204 1H14 LEU d   1       4.997  45.348  43.380  0.00  0.00     0.028 H 
ATOM    205 2H14 LEU d   1       4.867  46.930  44.221  0.00  0.00     0.028 H 
ATOM    206 3H14 LEU d   1       6.484  46.238  43.855  0.00  0.00     0.028 H 
ENDBRANCH 197 203
ENDBRANCH 194 197
ENDBRANCH 175 194
ENDBRANCH 173 175
ENDBRANCH 169 171
BRANCH 169 207
ATOM    207  CB  ASN d   1       4.788  42.375  38.482  0.00  0.00     0.036 C 
ATOM    208 9H12 ASN d   1       5.288  41.525  38.969  0.00  0.00     0.051 H 
ATOM    209 0H13 ASN d   1       4.872  42.273  37.390  0.00  0.00     0.051 H 
BRANCH 207 210
ATOM    210  CG  ASN d   1       3.313  42.346  38.857  0.00  0.00     0.217 C 
ATOM    211  OD1 ASN d   1       2.471  42.940  38.197  0.00  0.00    -0.274 OA
ATOM    212  ND2 ASN d   1       2.963  41.662  39.918  0.00  0.00    -0.370 N 
ATOM    213 1H13 ASN d   1       2.002  41.622  40.193  0.00  0.00     0.159 HD
ATOM    214 2H13 ASN d   1       3.656  41.180  40.453  0.00  0.00     0.159 HD
ENDBRANCH 207 210
ENDBRANCH 169 207
ENDBRANCH 167 169
ENDBRANCH 163 165
BRANCH 163 215
ATOM    215  CB  ARG d   1      10.230  44.194  38.218  0.00  0.00    -0.036 C 
ATOM    216 6H11 ARG d   1      10.260  44.515  37.166  0.00  0.00     0.036 H 
ATOM    217 7H11 ARG d   1      11.231  43.860  38.529  0.00  0.00     0.036 H 
BRANCH 215 218
ATOM    218  CG  ARG d   1       9.836  45.403  39.080  0.00  0.00    -0.048 C 
ATOM    219 8H11 ARG d   1       9.538  45.048  40.078  0.00  0.00     0.035 H 
ATOM    220 9H11 ARG d   1       8.988  45.919  38.606  0.00  0.00     0.035 H 
BRANCH 218 221
ATOM    221  CD  ARG d   1      11.001  46.392  39.230  0.00  0.00     0.009 C 
ATOM    222 0H12 ARG d   1      11.335  46.711  38.231  0.00  0.00     0.064 H 
ATOM    223 1H12 ARG d   1      11.832  45.895  39.753  0.00  0.00     0.064 H 
BRANCH 221 224
ATOM    224  NE  ARG d   1      10.583  47.578  40.003  0.00  0.00    -0.227 N 
ATOM    225  CZ  ARG d   1      10.182  48.741  39.523  0.00  0.00     0.665 C 
ATOM    226  NH1 ARG d   1      10.226  49.042  38.259  0.00  0.00    -0.235 N 
ATOM    227  NH2 ARG d   1       9.704  49.643  40.328  0.00  0.00    -0.235 N 
ATOM    228 3H12 ARG d   1       9.900  49.965  37.938  0.00  0.00     0.174 HD
ATOM    229 4H12 ARG d   1      10.587  48.358  37.579  0.00  0.00     0.174 HD
ATOM    230 5H12 ARG d   1       9.648  49.453  41.339  0.00  0.00     0.174 HD
ATOM    231 6H12 ARG d   1       9.382  50.547  39.955  0.00  0.00     0.174 HD
ATOM    232 2H12 ARG d   1      10.607  47.489  41.029  0.00  0.00     0.177 HD
ENDBRANCH 221 224
ENDBRANCH 218 221
ENDBRANCH 215 218
ENDBRANCH 163 215
ENDBRANCH 161 163
ENDBRANCH 156 159
ENDBRANCH 154 156
ENDBRANCH 150 152
BRANCH 150 233
ATOM    233  CB  ARG d   1      14.600  39.410  35.757  0.00  0.00    -0.036 C 
ATOM    234 0H10 ARG d   1      15.626  39.743  35.540  0.00  0.00     0.036 H 
ATOM    235 1H10 ARG d   1      14.077  39.196  34.814  0.00  0.00     0.036 H 
BRANCH 233 236
ATOM    236  CG  ARG d   1      14.713  38.080  36.519  0.00  0.00    -0.048 C 
ATOM    237 2H10 ARG d   1      15.318  37.395  35.907  0.00  0.00     0.035 H 
ATOM    238 3H10 ARG d   1      13.698  37.672  36.632  0.00  0.00     0.035 H 
BRANCH 236 239
ATOM    239  CD  ARG d   1      15.346  38.143  37.910  0.00  0.00     0.009 C 
ATOM    240 4H10 ARG d   1      15.387  37.123  38.320  0.00  0.00     0.064 H 
ATOM    241 5H10 ARG d   1      14.711  38.771  38.553  0.00  0.00     0.064 H 
BRANCH 239 242
ATOM    242  NE  ARG d   1      16.709  38.701  37.914  0.00  0.00    -0.227 N 
ATOM    243  CZ  ARG d   1      17.854  38.067  37.745  0.00  0.00     0.665 C 
ATOM    244  NH1 ARG d   1      17.979  36.832  37.360  0.00  0.00    -0.235 N 
ATOM    245  NH2 ARG d   1      18.945  38.719  37.964  0.00  0.00    -0.235 N 
ATOM    246 7H10 ARG d   1      18.916  36.418  37.255  0.00  0.00     0.174 HD
ATOM    247 8H10 ARG d   1      17.141  36.267  37.160  0.00  0.00     0.174 HD
ATOM    248 9H10 ARG d   1      18.905  39.701  38.271  0.00  0.00     0.174 HD
ATOM    249 0H11 ARG d   1      19.856  38.257  37.832  0.00  0.00     0.174 HD
ATOM    250 6H10 ARG d   1      16.777  39.717  38.069  0.00  0.00     0.177 HD
ENDBRANCH 239 242
ENDBRANCH 236 239
ENDBRANCH 233 236
ENDBRANCH 150 233
ENDBRANCH 148 150
ENDBRANCH 144 146
BRANCH 144 251
ATOM    251  CB  ARG d   1      15.473  44.570  37.909  0.00  0.00    -0.036 C 
ATOM    252  H87 ARG d   1      16.110  45.328  38.388  0.00  0.00     0.036 H 
ATOM    253  H88 ARG d   1      14.586  44.388  38.534  0.00  0.00     0.036 H 
BRANCH 251 254
ATOM    254  CG  ARG d   1      14.979  45.163  36.569  0.00  0.00    -0.048 C 
ATOM    255  H89 ARG d   1      14.395  46.067  36.797  0.00  0.00     0.035 H 
ATOM    256  H90 ARG d   1      14.328  44.417  36.091  0.00  0.00     0.035 H 
BRANCH 254 257
ATOM    257  CD  ARG d   1      16.068  45.550  35.559  0.00  0.00     0.009 C 
ATOM    258  H91 ARG d   1      15.587  45.818  34.607  0.00  0.00     0.064 H 
ATOM    259  H92 ARG d   1      16.730  44.685  35.405  0.00  0.00     0.064 H 
BRANCH 257 260
ATOM    260  NE  ARG d   1      16.879  46.691  36.017  0.00  0.00    -0.227 N 
ATOM    261  CZ  ARG d   1      17.998  47.117  35.453  0.00  0.00     0.665 C 
ATOM    262  NH1 ARG d   1      18.529  46.527  34.418  0.00  0.00    -0.235 N 
ATOM    263  NH2 ARG d   1      18.622  48.158  35.911  0.00  0.00    -0.235 N 
ATOM    264  H94 ARG d   1      19.401  46.891  34.009  0.00  0.00     0.174 HD
ATOM    265  H95 ARG d   1      18.076  45.697  34.010  0.00  0.00     0.174 HD
ATOM    266  H96 ARG d   1      18.249  48.664  36.727  0.00  0.00     0.174 HD
ATOM    267  H97 ARG d   1      19.490  48.478  35.459  0.00  0.00     0.174 HD
ATOM    268  H93 ARG d   1      16.547  47.201  36.848  0.00  0.00     0.177 HD
ENDBRANCH 257 260
ENDBRANCH 254 257
ENDBRANCH 251 254
ENDBRANCH 144 251
ENDBRANCH 142 144
ENDBRANCH   1 140
BRANCH   1 269
ATOM    269  CB  ARG d   1      20.247  43.356  35.687  0.00  0.00    -0.036 C 
ATOM    270  H74 ARG d   1      19.614  44.227  35.461  0.00  0.00     0.036 H 
ATOM    271  H75 ARG d   1      19.892  42.487  35.114  0.00  0.00     0.036 H 
BRANCH 269 272
ATOM    272  CG  ARG d   1      21.682  43.679  35.215  0.00  0.00    -0.048 C 
ATOM    273  H76 ARG d   1      21.647  43.900  34.138  0.00  0.00     0.035 H 
ATOM    274  H77 ARG d   1      22.308  42.791  35.387  0.00  0.00     0.035 H 
BRANCH 272 275
ATOM    275  CD  ARG d   1      22.337  44.872  35.928  0.00  0.00     0.009 C 
ATOM    276  H78 ARG d   1      22.307  44.703  37.014  0.00  0.00     0.064 H 
ATOM    277  H79 ARG d   1      21.779  45.788  35.684  0.00  0.00     0.064 H 
BRANCH 275 278
ATOM    278  NE  ARG d   1      23.744  45.035  35.503  0.00  0.00    -0.227 N 
ATOM    279  CZ  ARG d   1      24.259  46.030  34.800  0.00  0.00     0.665 C 
ATOM    280  NH1 ARG d   1      23.560  47.033  34.365  0.00  0.00    -0.235 N 
ATOM    281  NH2 ARG d   1      25.515  46.058  34.481  0.00  0.00    -0.235 N 
ATOM    282  H81 ARG d   1      24.015  47.781  33.822  0.00  0.00     0.174 HD
ATOM    283  H82 ARG d   1      22.550  47.082  34.563  0.00  0.00     0.174 HD
ATOM    284  H83 ARG d   1      26.141  45.299  34.787  0.00  0.00     0.174 HD
ATOM    285  H84 ARG d   1      25.887  46.839  33.922  0.00  0.00     0.174 HD
ATOM    286  H80 ARG d   1      24.396  44.290  35.786  0.00  0.00     0.177 HD
ENDBRANCH 275 278
ENDBRANCH 272 275
ENDBRANCH 269 272
ENDBRANCH   1 269
TORSDOF 72
