REMARK  15 active torsions:
REMARK  status: ('A' for Active; 'I' for Inactive)
REMARK    1  A    between atoms: C2_2  and  O20_20 
REMARK    2  A    between atoms: C3_3  and  O21_21 
REMARK    3  A    between atoms: C4_4  and  O22_22 
REMARK    4  A    between atoms: C5_5  and  C7_7 
REMARK    5  A    between atoms: C6_6  and  N8_8 
REMARK    6  A    between atoms: C7_7  and  O23_23 
REMARK    7  A    between atoms: N8_8  and  C9_9 
REMARK    8  A    between atoms: C9_9  and  C10_10 
REMARK    9  A    between atoms: C10_10  and  C11_11 
REMARK   10  A    between atoms: C11_11  and  C12_12 
REMARK   11  A    between atoms: C12_12  and  C13_13 
REMARK   12  A    between atoms: C13_13  and  C14_14 
REMARK   13  A    between atoms: C14_14  and  C15_15 
REMARK   14  A    between atoms: C15_15  and  C16_16 
REMARK   15  A    between atoms: C16_16  and  N17_17 
ROOT
ATOM      1  N17 66V d   1       3.487 158.761 140.291  0.00  0.00    -0.116 NA
ATOM      2  N18 66V d   1       2.623 158.068 139.467  0.00  0.00    -0.168 NA
ATOM      3  N19 66V d   1       1.890 157.497 138.768  0.00  0.00     0.068 N 
ENDROOT
BRANCH   1   4
ATOM      4  C16 66V d   1       4.338 158.042 141.222  0.00  0.00     0.047 C 
ATOM      5  H26 66V d   1       3.773 157.871 142.150  0.00  0.00     0.071 H 
ATOM      6  H27 66V d   1       4.606 157.074 140.773  0.00  0.00     0.071 H 
BRANCH   4   7
ATOM      7  C15 66V d   1       5.625 158.788 141.569  0.00  0.00    -0.046 C 
ATOM      8  H24 66V d   1       5.368 159.738 142.060  0.00  0.00     0.035 H 
ATOM      9  H25 66V d   1       6.224 158.171 142.255  0.00  0.00     0.035 H 
BRANCH   7  10
ATOM     10  C14 66V d   1       6.450 159.082 140.311  0.00  0.00    -0.063 C 
ATOM     11  H22 66V d   1       6.225 158.312 139.558  0.00  0.00     0.033 H 
ATOM     12  H23 66V d   1       6.158 160.069 139.924  0.00  0.00     0.033 H 
BRANCH  10  13
ATOM     13  C13 66V d   1       7.961 159.087 140.566  0.00  0.00    -0.065 C 
ATOM     14  H20 66V d   1       8.227 159.977 141.156  0.00  0.00     0.033 H 
ATOM     15  H21 66V d   1       8.238 158.181 141.124  0.00  0.00     0.033 H 
BRANCH  13  16
ATOM     16  C12 66V d   1       8.723 159.115 139.235  0.00  0.00    -0.065 C 
ATOM     17  H18 66V d   1       8.436 158.235 138.641  0.00  0.00     0.033 H 
ATOM     18  H19 66V d   1       8.453 160.031 138.689  0.00  0.00     0.033 H 
BRANCH  16  19
ATOM     19  C11 66V d   1      10.224 159.095 139.449  0.00  0.00    -0.064 C 
ATOM     20  H16 66V d   1      10.580 160.136 139.440  0.00  0.00     0.033 H 
ATOM     21  H17 66V d   1      10.418 158.649 140.436  0.00  0.00     0.033 H 
BRANCH  19  22
ATOM     22  C10 66V d   1      11.033 158.312 138.412  0.00  0.00    -0.043 C 
ATOM     23  H14 66V d   1      10.718 157.258 138.396  0.00  0.00     0.035 H 
ATOM     24  H15 66V d   1      10.900 158.750 137.412  0.00  0.00     0.035 H 
BRANCH  22  25
ATOM     25  C9  66V d   1      12.505 158.426 138.858  0.00  0.00     0.082 C 
ATOM     26  H12 66V d   1      12.792 159.487 138.811  0.00  0.00     0.075 H 
ATOM     27  H13 66V d   1      12.572 158.074 139.898  0.00  0.00     0.075 H 
BRANCH  25  28
ATOM     28  N8  66V d   1      13.480 157.654 138.051  0.00  0.00    -0.070 N 
ATOM     29  H10 66V d   1      13.178 156.694 137.993  0.00  0.00     0.277 HD
ATOM     30  H11 66V d   1      13.531 158.047 137.124  0.00  0.00     0.277 HD
BRANCH  28  31
ATOM     31  C6  66V d   1      14.838 157.710 138.689  0.00  0.00     0.112 C 
ATOM     32  C1  66V d   1      15.858 157.166 137.686  0.00  0.00    -0.011 C 
ATOM     33  C2  66V d   1      16.037 155.627 137.651  0.00  0.00     0.064 C 
ATOM     34  H1  66V d   1      15.545 157.489 136.682  0.00  0.00     0.040 H 
ATOM     35  H2  66V d   1      16.835 157.611 137.927  0.00  0.00     0.040 H 
ATOM     36  C3  66V d   1      15.510 154.911 138.877  0.00  0.00     0.085 C 
ATOM     37  H3  66V d   1      17.120 155.439 137.620  0.00  0.00     0.087 H 
ATOM     38  C4  66V d   1      15.807 155.756 140.079  0.00  0.00     0.070 C 
ATOM     39  H4  66V d   1      14.421 154.783 138.785  0.00  0.00     0.090 H 
ATOM     40  C5  66V d   1      14.891 156.988 140.055  0.00  0.00     0.021 C 
ATOM     41  H5  66V d   1      16.860 156.073 140.060  0.00  0.00     0.087 H 
ATOM     42  H6  66V d   1      13.874 156.604 140.225  0.00  0.00     0.050 H 
ATOM     43  H7  66V d   1      15.080 158.767 138.876  0.00  0.00     0.085 H 
BRANCH  33  44
ATOM     44  O20 66V d   1      15.475 155.068 136.452  0.00  0.00    -0.393 OA
ATOM     45  H28 66V d   1      14.529 155.156 136.476  0.00  0.00     0.210 HD
ENDBRANCH  33  44
BRANCH  36  46
ATOM     46  O21 66V d   1      16.125 153.605 138.998  0.00  0.00    -0.390 OA
ATOM     47  H29 66V d   1      15.923 153.089 138.226  0.00  0.00     0.210 HD
ENDBRANCH  36  46
BRANCH  38  48
ATOM     48  O22 66V d   1      15.552 155.005 141.263  0.00  0.00    -0.392 OA
ATOM     49  H30 66V d   1      15.726 155.547 142.024  0.00  0.00     0.210 HD
ENDBRANCH  38  48
BRANCH  40  50
ATOM     50  C7  66V d   1      15.178 157.942 141.213  0.00  0.00     0.024 C 
ATOM     51  H8  66V d   1      15.025 157.406 142.161  0.00  0.00     0.074 H 
ATOM     52  H9  66V d   1      14.481 158.791 141.155  0.00  0.00     0.074 H 
BRANCH  50  53
ATOM     53  O23 66V d   1      16.526 158.444 141.175  0.00  0.00    -0.400 OA
ATOM     54  H31 66V d   1      16.665 158.914 140.361  0.00  0.00     0.209 HD
ENDBRANCH  50  53
ENDBRANCH  40  50
ENDBRANCH  28  31
ENDBRANCH  25  28
ENDBRANCH  22  25
ENDBRANCH  19  22
ENDBRANCH  16  19
ENDBRANCH  13  16
ENDBRANCH  10  13
ENDBRANCH   7  10
ENDBRANCH   4   7
ENDBRANCH   1   4
TORSDOF 15
