REMARK  6 active torsions:
REMARK  status: ('A' for Active; 'I' for Inactive)
REMARK    1  A    between atoms: C1_1  and  O1_9 
REMARK    2  A    between atoms: C2_2  and  C8_7 
REMARK    3  A    between atoms: C3_3  and  N1_12 
REMARK    4  A    between atoms: C5_5  and  O5_11 
REMARK    5  A    between atoms: C6_6  and  O6_10 
REMARK    6  A    between atoms: C8_7  and  O8_8 
ROOT
ATOM      1  C1  66U d   1      15.791 155.216 140.006  0.00  0.00     0.070 C 
ATOM      2  C2  66U d   1      14.875 156.462 139.933  0.00  0.00     0.021 C 
ATOM      3  C3  66U d   1      14.907 157.149 138.551  0.00  0.00     0.110 C 
ATOM      4  C4  66U d   1      15.917 156.580 137.575  0.00  0.00    -0.012 C 
ATOM      5  C5  66U d   1      16.079 155.039 137.582  0.00  0.00     0.064 C 
ATOM      6  C6  66U d   1      15.530 154.342 138.809  0.00  0.00     0.085 C 
ATOM      7  H1  66U d   1      16.847 155.525 140.006  0.00  0.00     0.087 H 
ATOM      8  H2  66U d   1      13.847 156.098 140.078  0.00  0.00     0.050 H 
ATOM      9  H3  66U d   1      15.158 158.207 138.718  0.00  0.00     0.084 H 
ATOM     10  H4  66U d   1      16.897 157.022 137.810  0.00  0.00     0.040 H 
ATOM     11  H5  66U d   1      15.612 156.881 136.562  0.00  0.00     0.040 H 
ATOM     12  H6  66U d   1      17.161 154.842 137.584  0.00  0.00     0.087 H 
ATOM     13  H7  66U d   1      14.445 154.197 138.704  0.00  0.00     0.090 H 
ENDROOT
BRANCH   2  14
ATOM     14  C8  66U d   1      15.146 157.454 141.055  0.00  0.00     0.024 C 
ATOM     15  H8  66U d   1      14.935 156.969 142.020  0.00  0.00     0.074 H 
ATOM     16  H9  66U d   1      14.485 158.324 140.930  0.00  0.00     0.074 H 
BRANCH  14  17
ATOM     17  O8  66U d   1      16.509 157.899 141.045  0.00  0.00    -0.400 OA
ATOM     18  H10 66U d   1      16.696 158.323 140.216  0.00  0.00     0.209 HD
ENDBRANCH  14  17
ENDBRANCH   2  14
BRANCH   1  19
ATOM     19  O1  66U d   1      15.494 154.529 141.222  0.00  0.00    -0.392 OA
ATOM     20  H11 66U d   1      15.667 155.103 141.959  0.00  0.00     0.210 HD
ENDBRANCH   1  19
BRANCH   3  21
ATOM     21  N1  66U d   1      13.561 157.069 137.893  0.00  0.00    -0.074 N 
ATOM     22  H14 66U d   1      12.860 157.440 138.515  0.00  0.00     0.274 HD
ATOM     23  H15 66U d   1      13.347 156.107 137.682  0.00  0.00     0.274 HD
ATOM     24  H16 66U d   1      13.572 157.606 137.040  0.00  0.00     0.274 HD
ENDBRANCH   3  21
BRANCH   6  25
ATOM     25  O6  66U d   1      16.174 153.043 138.905  0.00  0.00    -0.390 OA
ATOM     26  H12 66U d   1      15.982 152.537 138.124  0.00  0.00     0.210 HD
ENDBRANCH   6  25
BRANCH   5  27
ATOM     27  O5  66U d   1      15.562 154.491 136.370  0.00  0.00    -0.393 OA
ATOM     28  H13 66U d   1      14.616 154.581 136.361  0.00  0.00     0.210 HD
ENDBRANCH   5  27
TORSDOF 6
