REMARK  28 active torsions:
REMARK  status: ('A' for Active; 'I' for Inactive)
REMARK    1  A    between atoms: N_1  and  CA_2 
REMARK    2  A    between atoms: CA_2  and  C_3 
REMARK    3  A    between atoms: CA_2  and  CB_5 
REMARK       I    between atoms: C_3  and  N_9 
REMARK    4  A    between atoms: CB_5  and  CG_6 
REMARK       I    between atoms: CG_6  and  ND2_8 
REMARK    5  A    between atoms: CA_10  and  C_11 
REMARK       I    between atoms: C_11  and  N_16 
REMARK    6  A    between atoms: N_16  and  CA_17 
REMARK    7  A    between atoms: CA_17  and  C_18 
REMARK    8  A    between atoms: CA_17  and  CB_20 
REMARK       I    between atoms: C_18  and  N_24 
REMARK    9  A    between atoms: CB_20  and  CG1_21 
REMARK   10  A    between atoms: CB_20  and  CG2_22 
REMARK   11  A    between atoms: CG1_21  and  CD1_23 
REMARK   12  A    between atoms: N_24  and  CA_25 
REMARK   13  A    between atoms: CA_25  and  C_26 
REMARK   14  A    between atoms: CA_25  and  CB_28 
REMARK       I    between atoms: C_26  and  N_30 
REMARK   15  A    between atoms: CB_28  and  OG_29 
REMARK   16  A    between atoms: N_30  and  CA_31 
REMARK   17  A    between atoms: CA_31  and  C_32 
REMARK   18  A    between atoms: CA_31  and  CB_34 
REMARK       I    between atoms: C_32  and  N_38 
REMARK   19  A    between atoms: CB_34  and  CG_35 
REMARK   20  A    between atoms: N_38  and  CA_39 
REMARK   21  A    between atoms: CA_39  and  C_40 
REMARK   22  A    between atoms: CA_39  and  CB_42 
REMARK       I    between atoms: C_40  and  N_49 
REMARK   23  A    between atoms: CB_42  and  CG_43 
REMARK   24  A    between atoms: CA_50  and  C_51 
REMARK       I    between atoms: C_51  and  N_56 
REMARK   25  A    between atoms: N_56  and  CA_57 
REMARK   26  A    between atoms: CA_57  and  C_58 
REMARK   27  A    between atoms: CA_57  and  CB_60 
REMARK   28  A    between atoms: CB_60  and  CG_61 
ROOT
ATOM      1  C   SER d   1      11.099 -32.879   1.793  0.00  0.00     0.243 C 
ATOM      2  O   SER d   1      10.605 -32.063   1.007  0.00  0.00    -0.271 OA
ATOM      3  N   ASP d   1      11.893 -33.873   1.403  0.00  0.00    -0.345 N 
ATOM      4  H32 ASP d   1      12.258 -34.502   2.090  0.00  0.00     0.163 HD
ENDROOT
BRANCH   1   5
ATOM      5  CA  SER d   1      10.835 -32.788   3.301  0.00  0.00     0.109 C 
ATOM      6  H28 SER d   1      11.709 -33.225   3.807  0.00  0.00     0.090 H 
BRANCH   5   7
ATOM      7  N   SER d   1      10.696 -31.417   3.799  0.00  0.00    -0.344 N 
ATOM      8  C   ILE d   1      11.684 -30.778   4.421  0.00  0.00     0.241 C 
ATOM      9  O   ILE d   1      12.846 -31.192   4.431  0.00  0.00    -0.271 OA
ATOM     10  H27 SER d   1       9.825 -30.943   3.666  0.00  0.00     0.163 HD
BRANCH   8  11
ATOM     11  CA  ILE d   1      11.289 -29.459   5.118  0.00  0.00     0.092 C 
ATOM     12  H17 ILE d   1      10.190 -29.442   5.157  0.00  0.00     0.088 H 
BRANCH  11  13
ATOM     13  N   ILE d   1      11.748 -29.329   6.518  0.00  0.00    -0.346 N 
ATOM     14  C   PRO d   1      11.566 -30.280   7.442  0.00  0.00     0.241 C 
ATOM     15  O   PRO d   1      11.475 -31.492   7.177  0.00  0.00    -0.271 OA
ATOM     16  H16 ILE d   1      12.218 -28.488   6.788  0.00  0.00     0.163 HD
BRANCH  14  17
ATOM     17  CA  PRO d   1      11.555 -29.844   8.925  0.00  0.00     0.091 C 
ATOM     18  N   PRO d   1      12.158 -28.533   9.224  0.00  0.00    -0.337 N 
ATOM     19  C   ASN d   1      13.468 -28.216   9.218  0.00  0.00     0.251 C 
ATOM     20  CD  PRO d   1      11.142 -27.530   9.603  0.00  0.00    -0.001 C 
ATOM     21  O   ASN d   1      14.365 -29.038   8.961  0.00  0.00    -0.271 OA
ATOM     22  CG  PRO d   1       9.835 -28.230   9.332  0.00  0.00    -0.048 C 
ATOM     23  H14 PRO d   1      11.237 -26.623   8.988  0.00  0.00     0.064 H 
ATOM     24  H15 PRO d   1      11.231 -27.263  10.666  0.00  0.00     0.064 H 
ATOM     25  CB  PRO d   1      10.118 -29.683   9.432  0.00  0.00    -0.036 C 
ATOM     26  H12 PRO d   1       9.082 -27.935  10.078  0.00  0.00     0.035 H 
ATOM     27  H13 PRO d   1       9.470 -27.981   8.325  0.00  0.00     0.035 H 
ATOM     28  H10 PRO d   1      10.036 -30.022  10.475  0.00  0.00     0.036 H 
ATOM     29  H11 PRO d   1       9.420 -30.257   8.804  0.00  0.00     0.036 H 
ATOM     30  H9  PRO d   1      12.078 -30.620   9.503  0.00  0.00     0.087 H 
BRANCH  19  31
ATOM     31  CA  ASN d   1      13.810 -26.763   9.588  0.00  0.00     0.184 C 
ATOM     32  H4  ASN d   1      12.846 -26.242   9.691  0.00  0.00     0.099 H 
BRANCH  31  33
ATOM     33  N   ASN d   1      14.486 -26.610  10.874  0.00  0.00    -0.066 N 
ATOM     34  H1  ASN d   1      14.674 -25.634  11.041  0.00  0.00     0.275 HD
ATOM     35  H2  ASN d   1      15.354 -27.122  10.860  0.00  0.00     0.275 HD
ATOM     36  H3  ASN d   1      13.896 -26.969  11.608  0.00  0.00     0.275 HD
ENDBRANCH  31  33
BRANCH  31  37
ATOM     37  CB  ASN d   1      14.568 -26.055   8.454  0.00  0.00     0.044 C 
ATOM     38  H5  ASN d   1      14.358 -24.977   8.511  0.00  0.00     0.051 H 
ATOM     39  H6  ASN d   1      14.208 -26.448   7.492  0.00  0.00     0.051 H 
BRANCH  37  40
ATOM     40  CG  ASN d   1      16.070 -26.260   8.529  0.00  0.00     0.217 C 
ATOM     41  OD1 ASN d   1      16.850 -25.301   8.528  0.00  0.00    -0.274 OA
ATOM     42  ND2 ASN d   1      16.485 -27.516   8.601  0.00  0.00    -0.370 N 
ATOM     43  H7  ASN d   1      17.463 -27.717   8.653  0.00  0.00     0.159 HD
ATOM     44  H8  ASN d   1      15.820 -28.263   8.604  0.00  0.00     0.159 HD
ENDBRANCH  37  40
ENDBRANCH  31  37
ENDBRANCH  19  31
ENDBRANCH  14  17
ENDBRANCH  11  13
BRANCH  11  45
ATOM     45  CB  ILE d   1      11.738 -28.246   4.226  0.00  0.00    -0.030 C 
ATOM     46  H18 ILE d   1      12.764 -28.451   3.886  0.00  0.00     0.043 H 
BRANCH  45  47
ATOM     47  CG1 ILE d   1      11.775 -26.919   5.013  0.00  0.00    -0.063 C 
ATOM     48  H19 ILE d   1      12.379 -26.201   4.439  0.00  0.00     0.033 H 
ATOM     49  H20 ILE d   1      12.259 -27.113   5.981  0.00  0.00     0.033 H 
BRANCH  47  50
ATOM     50  CD1 ILE d   1      10.416 -26.276   5.287  0.00  0.00    -0.076 C 
ATOM     51  H24 ILE d   1      10.559 -25.342   5.850  0.00  0.00     0.027 H 
ATOM     52  H25 ILE d   1       9.795 -26.967   5.876  0.00  0.00     0.027 H 
ATOM     53  H26 ILE d   1       9.915 -26.056   4.333  0.00  0.00     0.027 H 
ENDBRANCH  47  50
ENDBRANCH  45  47
BRANCH  45  54
ATOM     54  CG2 ILE d   1      10.862 -28.134   2.992  0.00  0.00    -0.071 C 
ATOM     55  H21 ILE d   1      10.858 -29.095   2.457  0.00  0.00     0.028 H 
ATOM     56  H22 ILE d   1      11.257 -27.348   2.332  0.00  0.00     0.028 H 
ATOM     57  H23 ILE d   1       9.835 -27.878   3.293  0.00  0.00     0.028 H 
ENDBRANCH  45  54
ENDBRANCH  11  45
ENDBRANCH   8  11
ENDBRANCH   5   7
BRANCH   5  58
ATOM     58  CB  SER d   1       9.604 -33.633   3.683  0.00  0.00     0.044 C 
ATOM     59  H29 SER d   1       9.403 -34.356   2.878  0.00  0.00     0.077 H 
ATOM     60  H30 SER d   1       8.737 -32.967   3.803  0.00  0.00     0.077 H 
BRANCH  58  61
ATOM     61  OG  SER d   1       9.813 -34.340   4.896  0.00  0.00    -0.398 OA
ATOM     62  H31 SER d   1       9.038 -34.849   5.102  0.00  0.00     0.209 HD
ENDBRANCH  58  61
ENDBRANCH   5  58
ENDBRANCH   1   5
BRANCH   3  63
ATOM     63  CA  ASP d   1      12.245 -34.071   0.005  0.00  0.00     0.098 C 
ATOM     64  H33 ASP d   1      12.555 -33.107  -0.425  0.00  0.00     0.088 H 
BRANCH  63  65
ATOM     65  C   ASP d   1      11.046 -34.594  -0.766  0.00  0.00     0.241 C 
ATOM     66  O   ASP d   1      10.226 -35.330  -0.226  0.00  0.00    -0.271 OA
ATOM     67  N   PHE d   1      10.941 -34.212  -2.029  0.00  0.00    -0.346 N 
ATOM     68  H36 PHE d   1      11.595 -33.553  -2.401  0.00  0.00     0.163 HD
BRANCH  67  69
ATOM     69  CA  PHE d   1       9.888 -34.737  -2.881  0.00  0.00     0.093 C 
ATOM     70  H37 PHE d   1       8.921 -34.390  -2.488  0.00  0.00     0.088 H 
BRANCH  69  71
ATOM     71  C   PHE d   1       9.884 -36.269  -2.876  0.00  0.00     0.243 C 
ATOM     72  O   PHE d   1      10.944 -36.901  -2.989  0.00  0.00    -0.271 OA
ATOM     73  N   PRO d   1       8.684 -36.871  -2.760  0.00  0.00    -0.337 N 
ATOM     74  CA  PRO d   1       8.540 -38.323  -2.796  0.00  0.00     0.091 C 
ATOM     75  CD  PRO d   1       7.383 -36.198  -2.901  0.00  0.00    -0.001 C 
ATOM     76  CB  PRO d   1       7.026 -38.515  -2.844  0.00  0.00    -0.036 C 
ATOM     77  H45 PRO d   1       9.001 -38.819  -1.929  0.00  0.00     0.087 H 
ATOM     78  CG  PRO d   1       6.514 -37.275  -3.490  0.00  0.00    -0.048 C 
ATOM     79  H46 PRO d   1       6.615 -38.623  -1.829  0.00  0.00     0.036 H 
ATOM     80  H47 PRO d   1       6.765 -39.401  -3.441  0.00  0.00     0.036 H 
ATOM     81  H48 PRO d   1       5.456 -37.108  -3.241  0.00  0.00     0.035 H 
ATOM     82  H49 PRO d   1       6.630 -37.322  -4.583  0.00  0.00     0.035 H 
ATOM     83  H50 PRO d   1       7.455 -35.333  -3.577  0.00  0.00     0.064 H 
ATOM     84  H51 PRO d   1       6.999 -35.869  -1.924  0.00  0.00     0.064 H 
BRANCH  74  85
ATOM     85  C   PRO d   1       9.135 -38.807  -4.092  0.00  0.00     0.241 C 
ATOM     86  O   PRO d   1       9.103 -38.066  -5.081  0.00  0.00    -0.271 OA
ATOM     87  N   ASP d   1       9.671 -40.020  -4.103  0.00  0.00    -0.344 N 
ATOM     88  H52 ASP d   1       9.710 -40.563  -3.264  0.00  0.00     0.163 HD
BRANCH  87  89
ATOM     89  CA  ASP d   1      10.198 -40.549  -5.342  0.00  0.00     0.105 C 
ATOM     90  H53 ASP d   1      11.016 -39.897  -5.682  0.00  0.00     0.090 H 
BRANCH  89  91
ATOM     91  C   ASP d   1       9.092 -40.544  -6.396  0.00  0.00     0.197 C 
ATOM     92  O   ASP d   1       7.936 -40.221  -6.104  0.00  0.00    -0.646 OA
ATOM     93  OXT ASP d   1       9.327 -40.863  -7.566  0.00  0.00    -0.646 OA
ENDBRANCH  89  91
BRANCH  89  94
ATOM     94  CB  ASP d   1      10.753 -41.956  -5.159  0.00  0.00     0.044 C 
ATOM     95  H54 ASP d   1       9.985 -42.580  -4.679  0.00  0.00     0.053 H 
ATOM     96  H55 ASP d   1      11.642 -41.905  -4.513  0.00  0.00     0.053 H 
BRANCH  94  97
ATOM     97  CG  ASP d   1      11.144 -42.591  -6.478  0.00  0.00     0.175 C 
ATOM     98  OD1 ASP d   1      11.074 -43.835  -6.584  0.00  0.00    -0.648 OA
ATOM     99  OD2 ASP d   1      11.504 -41.839  -7.415  0.00  0.00    -0.648 OA
ENDBRANCH  94  97
ENDBRANCH  89  94
ENDBRANCH  87  89
ENDBRANCH  74  85
ENDBRANCH  69  71
BRANCH  69 100
ATOM    100  CB  PHE d   1      10.048 -34.205  -4.299  0.00  0.00    -0.014 C 
ATOM    101  H38 PHE d   1       9.428 -34.813  -4.974  0.00  0.00     0.043 H 
ATOM    102  H39 PHE d   1      11.105 -34.295  -4.590  0.00  0.00     0.043 H 
BRANCH 100 103
ATOM    103  CG  PHE d   1       9.642 -32.792  -4.433  0.00  0.00    -0.056 A 
ATOM    104  CD1 PHE d   1       8.527 -32.334  -3.778  0.00  0.00    -0.077 A 
ATOM    105  CE1 PHE d   1       8.137 -31.011  -3.879  0.00  0.00    -0.082 A 
ATOM    106  H40 PHE d   1       7.944 -33.019  -3.173  0.00  0.00     0.084 H 
ATOM    107  CZ  PHE d   1       8.869 -30.130  -4.626  0.00  0.00    -0.083 A 
ATOM    108  H42 PHE d   1       7.246 -30.671  -3.363  0.00  0.00     0.083 H 
ATOM    109  CE2 PHE d   1       9.995 -30.572  -5.281  0.00  0.00    -0.082 A 
ATOM    110  H44 PHE d   1       8.565 -29.092  -4.701  0.00  0.00     0.083 H 
ATOM    111  CD2 PHE d   1      10.380 -31.904  -5.178  0.00  0.00    -0.077 A 
ATOM    112  H43 PHE d   1      10.582 -29.882  -5.877  0.00  0.00     0.083 H 
ATOM    113  H41 PHE d   1      11.272 -32.246  -5.691  0.00  0.00     0.084 H 
ENDBRANCH 100 103
ENDBRANCH  69 100
ENDBRANCH  67  69
ENDBRANCH  63  65
BRANCH  63 114
ATOM    114  CB  ASP d   1      13.400 -35.061  -0.107  0.00  0.00     0.043 C 
ATOM    115  H34 ASP d   1      13.003 -36.027  -0.452  0.00  0.00     0.052 H 
ATOM    116  H35 ASP d   1      13.855 -35.185   0.887  0.00  0.00     0.052 H 
BRANCH 114 117
ATOM    117  CG  ASP d   1      14.468 -34.603  -1.075  0.00  0.00     0.175 C 
ATOM    118  OD1 ASP d   1      14.380 -34.966  -2.277  0.00  0.00    -0.648 OA
ATOM    119  OD2 ASP d   1      15.399 -33.886  -0.625  0.00  0.00    -0.648 OA
ENDBRANCH 114 117
ENDBRANCH  63 114
ENDBRANCH   3  63
TORSDOF 28
