REMARK WARNING: 32 MAX_TORS EXCEEDED!!!
REMARK  34 active torsions:
REMARK  status: ('A' for Active; 'I' for Inactive)
REMARK    1  A    between atoms: CA_6  and  CB_9 
REMARK    2  A    between atoms: CB_9  and  CG_10 
REMARK    3  A    between atoms: CG_10  and  CD_11 
REMARK       I    between atoms: CD_11  and  NE2_13 
REMARK    4  A    between atoms: CA_15  and  CB_18 
REMARK    5  A    between atoms: CB_18  and  CG_19 
REMARK    6  A    between atoms: CG_19  and  CD_20 
REMARK       I    between atoms: CD_20  and  NE2_22 
REMARK    7  A    between atoms: CA_24  and  CB_27 
REMARK    8  A    between atoms: CB_27  and  CG_28 
REMARK    9  A    between atoms: CA_32  and  CB_35 
REMARK   10  A    between atoms: CB_35  and  CG_36 
REMARK   11  A    between atoms: CG_36  and  CD1_37 
REMARK   12  A    between atoms: CG_36  and  CD2_38 
REMARK   13  A    between atoms: CA_40  and  CB_43 
REMARK   14  A    between atoms: CB_43  and  OG_44 
REMARK   15  A    between atoms: CA_46  and  CB_49 
REMARK   16  A    between atoms: CB_49  and  OG1_50 
REMARK   17  A    between atoms: CB_49  and  CG2_51 
REMARK   18  A    between atoms: CA_53  and  CB_56 
REMARK   19  A    between atoms: CB_56  and  CG_57 
REMARK   20  A    between atoms: CG_57  and  CD_58 
REMARK   21  A    between atoms: CD_58  and  NE_59 
REMARK       I    between atoms: NE_59  and  CZ_60 
REMARK       I    between atoms: CZ_60  and  NH1_61 
REMARK       I    between atoms: CZ_60  and  NH2_62 
REMARK   22  A    between atoms: CA_64  and  CB_67 
REMARK   23  A    between atoms: CB_67  and  CG_68 
REMARK   24  A    between atoms: CG_68  and  CD_69 
REMARK   25  A    between atoms: CD_69  and  NE_70 
REMARK       I    between atoms: NE_70  and  CZ_71 
REMARK       I    between atoms: CZ_71  and  NH1_72 
REMARK   26  A    between atoms: CA_75  and  CB_78 
REMARK   27  A    between atoms: CB_78  and  CG_79 
REMARK   28  A    between atoms: CG_79  and  CD1_80 
REMARK   29  A    between atoms: CG_79  and  CD2_81 
REMARK   30  A    between atoms: CA_83  and  CB_86 
REMARK   31  A    between atoms: CB_86  and  CG_87 
REMARK   32  A    between atoms: CG_87  and  CD_88 
REMARK   33  A    between atoms: CD_88  and  CE_89 
REMARK   34  A    between atoms: CE_89  and  NZ_90 
ROOT
ATOM      1  N   GLY d   1      15.447  31.947 -29.478  0.00  0.00    -0.084 NA
ATOM      2  CA  GLY d   1      15.655  32.447 -28.129  0.00  0.00     0.215 A 
ATOM      3  C   GLY d   1      14.915  33.724 -27.772  0.00  0.00     0.266 C 
ATOM      4  O   GLY d   1      14.666  33.990 -26.595  0.00  0.00    -0.269 OA
ATOM      5  N   GLY d   1      14.422  31.554 -32.100  0.00  0.00    -0.351 N 
ATOM      6  CA  GLY d   1      15.834  31.774 -31.861  0.00  0.00     0.066 C 
ATOM      7  C   GLY d   1      16.099  32.444 -30.528  0.00  0.00     0.243 C 
ATOM      8  O   GLY d   1      16.869  33.400 -30.452  0.00  0.00    -0.276 OA
ATOM      9  OXT GLY d   1      15.547  32.040 -29.506  0.00  0.00    -0.260 OA
ATOM     10  H1  GLY d   1      16.246  32.015 -27.308  0.00  0.00     0.131 H 
ATOM     11  H95 GLY d   1      14.082  30.620 -32.210  0.00  0.00     0.163 HD
ATOM     12  H96 GLY d   1      16.232  32.413 -32.663  0.00  0.00     0.077 H 
ATOM     13  H97 GLY d   1      16.350  30.803 -31.876  0.00  0.00     0.077 H 
ATOM     14  N   GLN d   1      14.571  34.520 -28.784  0.00  0.00    -0.344 N 
ATOM     15  CA  GLN d   1      13.866  35.779 -28.592  0.00  0.00     0.090 C 
ATOM     16  C   GLN d   1      12.405  35.643 -28.983  0.00  0.00     0.241 C 
ATOM     17  O   GLN d   1      12.051  34.901 -29.903  0.00  0.00    -0.271 OA
ATOM     18  N   GLN d   1      11.552  36.370 -28.275  0.00  0.00    -0.346 N 
ATOM     19  CA  GLN d   1      10.141  36.297 -28.593  0.00  0.00     0.090 C 
ATOM     20  C   GLN d   1       9.831  37.149 -29.816  0.00  0.00     0.241 C 
ATOM     21  O   GLN d   1      10.472  38.167 -30.077  0.00  0.00    -0.271 OA
ATOM     22  H2  GLN d   1      14.807  34.241 -29.715  0.00  0.00     0.163 HD
ATOM     23  H3  GLN d   1      13.922  36.047 -27.526  0.00  0.00     0.087 H 
ATOM     24  H10 GLN d   1      11.877  36.958 -27.535  0.00  0.00     0.163 HD
ATOM     25  H11 GLN d   1       9.896  35.251 -28.827  0.00  0.00     0.087 H 
ATOM     26  N   ASP d   1       8.854  36.688 -30.587  0.00  0.00    -0.346 N 
ATOM     27  CA  ASP d   1       8.480  37.284 -31.866  0.00  0.00     0.098 C 
ATOM     28  C   ASP d   1       7.082  37.860 -31.714  0.00  0.00     0.241 C 
ATOM     29  O   ASP d   1       6.128  37.110 -31.491  0.00  0.00    -0.271 OA
ATOM     30  H18 ASP d   1       8.345  35.886 -30.274  0.00  0.00     0.163 HD
ATOM     31  H19 ASP d   1       9.179  38.097 -32.112  0.00  0.00     0.088 H 
ATOM     32  N   LEU d   1       6.963  39.188 -31.831  0.00  0.00    -0.346 N 
ATOM     33  CA  LEU d   1       5.687  39.842 -31.550  0.00  0.00     0.089 C 
ATOM     34  C   LEU d   1       4.613  39.505 -32.576  0.00  0.00     0.241 C 
ATOM     35  O   LEU d   1       3.426  39.691 -32.292  0.00  0.00    -0.271 OA
ATOM     36  N   LEU d   1       8.531  31.992 -29.252  0.00  0.00    -0.346 N 
ATOM     37  CA  LEU d   1       9.975  32.153 -29.195  0.00  0.00     0.089 C 
ATOM     38  C   LEU d   1      10.591  31.665 -30.494  0.00  0.00     0.241 C 
ATOM     39  O   LEU d   1      10.285  30.566 -30.964  0.00  0.00    -0.271 OA
ATOM     40  H22 LEU d   1       7.751  39.735 -32.112  0.00  0.00     0.163 HD
ATOM     41  H23 LEU d   1       5.339  39.487 -30.569  0.00  0.00     0.087 H 
ATOM     42  H71 LEU d   1       8.103  31.241 -28.749  0.00  0.00     0.163 HD
ATOM     43  H72 LEU d   1      10.206  33.222 -29.074  0.00  0.00     0.087 H 
ATOM     44  N   SER d   1       4.997  39.006 -33.755  0.00  0.00    -0.344 N 
ATOM     45  CA  SER d   1       4.001  38.617 -34.753  0.00  0.00     0.109 C 
ATOM     46  C   SER d   1       3.234  37.373 -34.313  0.00  0.00     0.243 C 
ATOM     47  O   SER d   1       2.007  37.298 -34.459  0.00  0.00    -0.271 OA
ATOM     48  H33 SER d   1       5.971  38.898 -33.956  0.00  0.00     0.163 HD
ATOM     49  H34 SER d   1       3.285  39.444 -34.865  0.00  0.00     0.090 H 
ATOM     50  N   THR d   1       3.941  36.390 -33.768  0.00  0.00    -0.344 N 
ATOM     51  CA  THR d   1       3.354  35.110 -33.412  0.00  0.00     0.113 C 
ATOM     52  C   THR d   1       3.252  34.887 -31.915  0.00  0.00     0.243 C 
ATOM     53  O   THR d   1       2.588  33.933 -31.495  0.00  0.00    -0.271 OA
ATOM     54  H38 THR d   1       4.915  36.537 -33.596  0.00  0.00     0.163 HD
ATOM     55  H39 THR d   1       2.338  35.078 -33.831  0.00  0.00     0.091 H 
ATOM     56  N   ARG d   1       3.887  35.733 -31.110  0.00  0.00    -0.346 N 
ATOM     57  CA  ARG d   1       3.972  35.574 -29.661  0.00  0.00     0.089 C 
ATOM     58  C   ARG d   1       4.697  34.296 -29.262  0.00  0.00     0.241 C 
ATOM     59  O   ARG d   1       4.488  33.776 -28.162  0.00  0.00    -0.271 OA
ATOM     60  N   ARG d   1       5.556  33.787 -30.137  0.00  0.00    -0.346 N 
ATOM     61  CA  ARG d   1       6.275  32.549 -29.910  0.00  0.00     0.089 C 
ATOM     62  C   ARG d   1       7.767  32.820 -29.958  0.00  0.00     0.241 C 
ATOM     63  O   ARG d   1       8.214  33.760 -30.613  0.00  0.00    -0.271 OA
ATOM     64  H45 ARG d   1       4.334  36.527 -31.522  0.00  0.00     0.163 HD
ATOM     65  H46 ARG d   1       4.555  36.422 -29.272  0.00  0.00     0.087 H 
ATOM     66  H58 ARG d   1       5.714  34.281 -30.992  0.00  0.00     0.163 HD
ATOM     67  H59 ARG d   1       6.013  32.168 -28.912  0.00  0.00     0.087 H 
ATOM     68  N   LYS d   1      11.444  32.497 -31.076  0.00  0.00    -0.346 N 
ATOM     69  CA  LYS d   1      12.098  32.221 -32.349  0.00  0.00     0.089 C 
ATOM     70  C   LYS d   1      13.572  32.572 -32.176  0.00  0.00     0.240 C 
ATOM     71  O   LYS d   1      13.926  33.752 -32.086  0.00  0.00    -0.271 OA
ATOM     72  H82 LYS d   1      11.650  33.361 -30.616  0.00  0.00     0.163 HD
ATOM     73  H83 LYS d   1      12.006  31.150 -32.583  0.00  0.00     0.087 H 
ENDROOT
BRANCH  57  74
ATOM     74  CB  ARG d   1       2.590  35.622 -29.010  0.00  0.00    -0.036 C 
ATOM     75  H47 ARG d   1       2.713  35.507 -27.923  0.00  0.00     0.036 H 
ATOM     76  H48 ARG d   1       1.992  34.786 -29.402  0.00  0.00     0.036 H 
BRANCH  74  77
ATOM     77  CG  ARG d   1       1.845  36.907 -29.273  0.00  0.00    -0.048 C 
ATOM     78  H49 ARG d   1       1.603  36.973 -30.344  0.00  0.00     0.035 H 
ATOM     79  H50 ARG d   1       2.479  37.759 -28.987  0.00  0.00     0.035 H 
BRANCH  77  80
ATOM     80  CD  ARG d   1       0.577  36.945 -28.476  0.00  0.00     0.009 C 
ATOM     81  H51 ARG d   1       0.829  36.889 -27.407  0.00  0.00     0.064 H 
ATOM     82  H52 ARG d   1      -0.042  36.079 -28.753  0.00  0.00     0.064 H 
BRANCH  80  83
ATOM     83  NE  ARG d   1      -0.185  38.162 -28.715  0.00  0.00    -0.227 N 
ATOM     84  CZ  ARG d   1      -1.221  38.539 -27.976  0.00  0.00     0.665 C 
ATOM     85  NH1 ARG d   1      -1.590  37.780 -26.946  0.00  0.00    -0.235 N 
ATOM     86  NH2 ARG d   1      -1.872  39.665 -28.263  0.00  0.00    -0.235 N 
ATOM     87  H54 ARG d   1      -2.392  38.058 -26.362  0.00  0.00     0.174 HD
ATOM     88  H55 ARG d   1      -1.074  36.915 -26.733  0.00  0.00     0.174 HD
ATOM     89  H56 ARG d   1      -1.575  40.242 -29.063  0.00  0.00     0.174 HD
ATOM     90  H57 ARG d   1      -2.672  39.959 -27.685  0.00  0.00     0.174 HD
ATOM     91  H53 ARG d   1       0.096  38.764 -29.502  0.00  0.00     0.177 HD
ENDBRANCH  80  83
ENDBRANCH  77  80
ENDBRANCH  74  77
ENDBRANCH  57  74
BRANCH  51  92
ATOM     92  CB  THR d   1       4.176  33.970 -34.023  0.00  0.00     0.060 C 
ATOM     93  H40 THR d   1       3.729  33.004 -33.744  0.00  0.00     0.086 H 
BRANCH  92  94
ATOM     94  OG1 THR d   1       5.518  34.042 -33.522  0.00  0.00    -0.393 OA
ATOM     95  H41 THR d   1       6.033  33.337 -33.897  0.00  0.00     0.210 HD
ENDBRANCH  92  94
BRANCH  92  96
ATOM     96  CG2 THR d   1       4.197  34.100 -35.546  0.00  0.00    -0.050 C 
ATOM     97  H42 THR d   1       4.789  33.278 -35.976  0.00  0.00     0.031 H 
ATOM     98  H43 THR d   1       4.649  35.063 -35.826  0.00  0.00     0.031 H 
ATOM     99  H44 THR d   1       3.168  34.052 -35.932  0.00  0.00     0.031 H 
ENDBRANCH  92  96
ENDBRANCH  51  92
BRANCH  61 100
ATOM    100  CB  ARG d   1       5.903  31.491 -30.944  0.00  0.00    -0.036 C 
ATOM    101  H60 ARG d   1       6.588  30.638 -30.830  0.00  0.00     0.036 H 
ATOM    102  H61 ARG d   1       6.024  31.927 -31.947  0.00  0.00     0.036 H 
BRANCH 100 103
ATOM    103  CG  ARG d   1       4.483  30.985 -30.811  0.00  0.00    -0.048 C 
ATOM    104  H62 ARG d   1       4.286  30.257 -31.611  0.00  0.00     0.035 H 
ATOM    105  H63 ARG d   1       3.790  31.834 -30.908  0.00  0.00     0.035 H 
BRANCH 103 106
ATOM    106  CD  ARG d   1       4.259  30.317 -29.471  0.00  0.00     0.009 C 
ATOM    107  H64 ARG d   1       3.238  29.909 -29.436  0.00  0.00     0.064 H 
ATOM    108  H65 ARG d   1       4.384  31.061 -28.670  0.00  0.00     0.064 H 
BRANCH 106 109
ATOM    109  NE  ARG d   1       5.211  29.240 -29.274  0.00  0.00    -0.227 N 
ATOM    110  CZ  ARG d   1       5.109  28.052 -29.852  0.00  0.00     0.665 C 
ATOM    111  NH1 ARG d   1       4.083  27.797 -30.654  0.00  0.00    -0.235 N 
ATOM    112  NH2 ARG d   1       6.030  27.122 -29.626  0.00  0.00    -0.235 N 
ATOM    113  H67 ARG d   1       3.999  26.875 -31.106  0.00  0.00     0.174 HD
ATOM    114  H68 ARG d   1       3.370  28.521 -30.825  0.00  0.00     0.174 HD
ATOM    115  H69 ARG d   1       6.824  27.325 -29.003  0.00  0.00     0.174 HD
ATOM    116  H70 ARG d   1       5.950  26.198 -30.074  0.00  0.00     0.174 HD
ATOM    117  H66 ARG d   1       6.012  29.409 -28.649  0.00  0.00     0.177 HD
ENDBRANCH 106 109
ENDBRANCH 103 106
ENDBRANCH 100 103
ENDBRANCH  61 100
BRANCH  45 118
ATOM    118  CB  SER d   1       4.669  38.365 -36.109  0.00  0.00     0.044 C 
ATOM    119  H35 SER d   1       3.916  37.970 -36.806  0.00  0.00     0.077 H 
ATOM    120  H36 SER d   1       5.470  37.623 -35.976  0.00  0.00     0.077 H 
BRANCH 118 121
ATOM    121  OG  SER d   1       5.228  39.546 -36.662  0.00  0.00    -0.398 OA
ATOM    122  H37 SER d   1       4.542  40.191 -36.787  0.00  0.00     0.209 HD
ENDBRANCH 118 121
ENDBRANCH  45 118
BRANCH  37 123
ATOM    123  CB  LEU d   1      10.560  31.393 -28.003  0.00  0.00    -0.035 C 
ATOM    124  H73 LEU d   1      11.655  31.383 -28.112  0.00  0.00     0.037 H 
ATOM    125  H74 LEU d   1      10.178  30.362 -28.038  0.00  0.00     0.037 H 
BRANCH 123 126
ATOM    126  CG  LEU d   1      10.229  31.972 -26.622  0.00  0.00    -0.059 C 
ATOM    127  H75 LEU d   1       9.137  32.090 -26.554  0.00  0.00     0.038 H 
BRANCH 126 128
ATOM    128  CD1 LEU d   1      10.671  31.028 -25.518  0.00  0.00    -0.073 C 
ATOM    129  H76 LEU d   1      10.423  31.466 -24.540  0.00  0.00     0.028 H 
ATOM    130  H77 LEU d   1      11.758  30.870 -25.584  0.00  0.00     0.028 H 
ATOM    131  H78 LEU d   1      10.153  30.064 -25.630  0.00  0.00     0.028 H 
ENDBRANCH 126 128
BRANCH 126 132
ATOM    132  CD2 LEU d   1      10.863  33.339 -26.446  0.00  0.00    -0.073 C 
ATOM    133  H79 LEU d   1      10.529  34.005 -27.255  0.00  0.00     0.028 H 
ATOM    134  H80 LEU d   1      11.958  33.242 -26.479  0.00  0.00     0.028 H 
ATOM    135  H81 LEU d   1      10.561  33.761 -25.476  0.00  0.00     0.028 H 
ENDBRANCH 126 132
ENDBRANCH 123 126
ENDBRANCH  37 123
BRANCH  33 136
ATOM    136  CB  LEU d   1       5.869  41.356 -31.475  0.00  0.00    -0.035 C 
ATOM    137  H24 LEU d   1       4.915  41.801 -31.157  0.00  0.00     0.037 H 
ATOM    138  H25 LEU d   1       6.128  41.721 -32.480  0.00  0.00     0.037 H 
BRANCH 136 139
ATOM    139  CG  LEU d   1       6.956  41.816 -30.506  0.00  0.00    -0.059 C 
ATOM    140  H26 LEU d   1       7.929  41.500 -30.911  0.00  0.00     0.038 H 
BRANCH 139 141
ATOM    141  CD1 LEU d   1       6.956  43.325 -30.403  0.00  0.00    -0.073 C 
ATOM    142  H27 LEU d   1       7.742  43.645 -29.703  0.00  0.00     0.028 H 
ATOM    143  H28 LEU d   1       5.977  43.667 -30.036  0.00  0.00     0.028 H 
ATOM    144  H29 LEU d   1       7.149  43.760 -31.395  0.00  0.00     0.028 H 
ENDBRANCH 139 141
BRANCH 139 145
ATOM    145  CD2 LEU d   1       6.793  41.177 -29.133  0.00  0.00    -0.073 C 
ATOM    146  H30 LEU d   1       6.796  40.082 -29.236  0.00  0.00     0.028 H 
ATOM    147  H31 LEU d   1       5.840  41.501 -28.689  0.00  0.00     0.028 H 
ATOM    148  H32 LEU d   1       7.625  41.487 -28.483  0.00  0.00     0.028 H 
ENDBRANCH 139 145
ENDBRANCH 136 139
ENDBRANCH  33 136
BRANCH  69 149
ATOM    149  CB  LYS d   1      11.446  33.022 -33.484  0.00  0.00    -0.038 C 
ATOM    150  H84 LYS d   1      11.514  34.090 -33.232  0.00  0.00     0.036 H 
ATOM    151  H85 LYS d   1      10.388  32.727 -33.548  0.00  0.00     0.036 H 
BRANCH 149 152
ATOM    152  CG  LYS d   1      12.077  32.818 -34.850  0.00  0.00    -0.061 C 
ATOM    153  H86 LYS d   1      12.264  31.744 -34.995  0.00  0.00     0.033 H 
ATOM    154  H87 LYS d   1      13.031  33.364 -34.883  0.00  0.00     0.033 H 
BRANCH 152 155
ATOM    155  CD  LYS d   1      11.188  33.317 -35.984  0.00  0.00    -0.043 C 
ATOM    156  H88 LYS d   1      11.132  34.415 -35.950  0.00  0.00     0.035 H 
ATOM    157  H89 LYS d   1      10.179  32.895 -35.872  0.00  0.00     0.035 H 
BRANCH 155 158
ATOM    158  CE  LYS d   1      11.777  32.879 -37.322  0.00  0.00     0.080 C 
ATOM    159  H90 LYS d   1      11.788  31.780 -37.359  0.00  0.00     0.075 H 
ATOM    160  H91 LYS d   1      12.807  33.258 -37.394  0.00  0.00     0.075 H 
BRANCH 158 161
ATOM    161  NZ  LYS d   1      11.003  33.385 -38.480  0.00  0.00    -0.079 N 
ATOM    162  H92 LYS d   1      11.432  33.069 -39.335  0.00  0.00     0.274 HD
ATOM    163  H93 LYS d   1      10.992  34.393 -38.462  0.00  0.00     0.274 HD
ATOM    164  H94 LYS d   1      10.058  33.038 -38.430  0.00  0.00     0.274 HD
ENDBRANCH 158 161
ENDBRANCH 155 158
ENDBRANCH 152 155
ENDBRANCH 149 152
ENDBRANCH  69 149
BRANCH  27 165
ATOM    165  CB  ASP d   1       8.550  36.223 -32.972  0.00  0.00     0.043 C 
ATOM    166  H20 ASP d   1       8.013  35.327 -32.627  0.00  0.00     0.052 H 
ATOM    167  H21 ASP d   1       9.607  35.973 -33.146  0.00  0.00     0.052 H 
BRANCH 165 168
ATOM    168  CG  ASP d   1       7.939  36.668 -34.294  0.00  0.00     0.175 C 
ATOM    169  OD1 ASP d   1       7.568  37.845 -34.449  0.00  0.00    -0.648 OA
ATOM    170  OD2 ASP d   1       7.846  35.822 -35.207  0.00  0.00    -0.648 OA
ENDBRANCH 165 168
ENDBRANCH  27 165
BRANCH  19 171
ATOM    171  CB  GLN d   1       9.281  36.735 -27.415  0.00  0.00    -0.030 C 
ATOM    172  H12 GLN d   1       9.166  37.828 -27.447  0.00  0.00     0.037 H 
ATOM    173  H13 GLN d   1       9.785  36.446 -26.481  0.00  0.00     0.037 H 
BRANCH 171 174
ATOM    174  CG  GLN d   1       7.910  36.100 -27.446  0.00  0.00     0.011 C 
ATOM    175  H14 GLN d   1       7.858  35.329 -26.663  0.00  0.00     0.047 H 
ATOM    176  H15 GLN d   1       7.757  35.634 -28.431  0.00  0.00     0.047 H 
BRANCH 174 177
ATOM    177  CD  GLN d   1       6.819  37.104 -27.210  0.00  0.00     0.215 C 
ATOM    178  OE1 GLN d   1       7.083  38.268 -26.917  0.00  0.00    -0.274 OA
ATOM    179  NE2 GLN d   1       5.582  36.664 -27.332  0.00  0.00    -0.370 N 
ATOM    180  H16 GLN d   1       4.813  37.287 -27.187  0.00  0.00     0.159 HD
ATOM    181  H17 GLN d   1       5.413  35.708 -27.570  0.00  0.00     0.159 HD
ENDBRANCH 174 177
ENDBRANCH 171 174
ENDBRANCH  19 171
BRANCH  15 182
ATOM    182  CB  GLN d   1      14.501  36.901 -29.409  0.00  0.00    -0.030 C 
ATOM    183  H4  GLN d   1      13.713  37.621 -29.675  0.00  0.00     0.037 H 
ATOM    184  H5  GLN d   1      14.922  36.463 -30.326  0.00  0.00     0.037 H 
BRANCH 182 185
ATOM    185  CG  GLN d   1      15.606  37.650 -28.690  0.00  0.00     0.011 C 
ATOM    186  H6  GLN d   1      16.497  37.007 -28.642  0.00  0.00     0.047 H 
ATOM    187  H7  GLN d   1      15.269  37.886 -27.670  0.00  0.00     0.047 H 
BRANCH 185 188
ATOM    188  CD  GLN d   1      15.974  38.946 -29.396  0.00  0.00     0.215 C 
ATOM    189  OE1 GLN d   1      15.416  39.273 -30.444  0.00  0.00    -0.274 OA
ATOM    190  NE2 GLN d   1      16.914  39.692 -28.820  0.00  0.00    -0.370 N 
ATOM    191  H8  GLN d   1      17.195  40.554 -29.241  0.00  0.00     0.159 HD
ATOM    192  H9  GLN d   1      17.339  39.390 -27.967  0.00  0.00     0.159 HD
ENDBRANCH 185 188
ENDBRANCH 182 185
ENDBRANCH  15 182
TORSDOF 34
