REMARK  5 active torsions:
REMARK  status: ('A' for Active; 'I' for Inactive)
REMARK    1  A    between atoms: O16_21  and  C10_4 
REMARK    2  A    between atoms: N4_14  and  C15_6 
REMARK    3  A    between atoms: C17_7  and  O16_21 
REMARK    4  A    between atoms: C1_12  and  C2_13 
REMARK    5  A    between atoms: N5_15  and  C12_19 
ROOT
ATOM      1  N3  67A d   1      93.422  -7.909  14.122  0.00  0.00    -0.162 NA
ATOM      2  C7  67A d   1      91.924  -9.778  14.000  0.00  0.00     0.205 A 
ATOM      3  C8  67A d   1      92.662 -10.272  12.896  0.00  0.00    -0.015 A 
ATOM      4  C1  67A d   1      92.375  -8.505  14.611  0.00  0.00     0.156 A 
ATOM      5  N5  67A d   1      94.064  -8.386  13.124  0.00  0.00    -0.244 N 
ATOM      6  C9  67A d   1      93.730  -9.543  12.492  0.00  0.00     0.008 A 
ATOM      7  O18 67A d   1      90.952 -10.389  14.415  0.00  0.00    -0.286 OA
ATOM      8  H1  67A d   1      92.383 -11.197  12.394  0.00  0.00     0.091 H 
ATOM      9  H7  67A d   1      94.329  -9.888  11.650  0.00  0.00     0.115 H 
ENDROOT
BRANCH   4  10
ATOM     10  C2  67A d   1      91.740  -7.858  15.772  0.00  0.00     0.095 A 
ATOM     11  N4  67A d   1      91.742  -6.517  16.090  0.00  0.00    -0.232 N 
ATOM     12  N6  67A d   1      91.059  -6.363  17.285  0.00  0.00    -0.179 NA
ATOM     13  C14 67A d   1      90.670  -7.550  17.686  0.00  0.00     0.024 A 
ATOM     14  C11 67A d   1      91.087  -8.516  16.770  0.00  0.00    -0.034 A 
ATOM     15  H9  67A d   1      90.107  -7.751  18.596  0.00  0.00     0.117 H 
ATOM     16  H8  67A d   1      90.922  -9.590  16.840  0.00  0.00     0.089 H 
BRANCH  11  17
ATOM     17  C15 67A d   1      92.273  -5.434  15.368  0.00  0.00     0.059 A 
ATOM     18  C26 67A d   1      91.625  -5.010  14.199  0.00  0.00    -0.055 A 
ATOM     19  C27 67A d   1      92.117  -3.927  13.479  0.00  0.00    -0.081 A 
ATOM     20  H5  67A d   1      90.737  -5.529  13.855  0.00  0.00     0.087 H 
ATOM     21  C29 67A d   1      93.247  -3.267  13.929  0.00  0.00    -0.083 A 
ATOM     22  H12 67A d   1      91.619  -3.602  12.572  0.00  0.00     0.083 H 
ATOM     23  C28 67A d   1      93.883  -3.686  15.094  0.00  0.00    -0.081 A 
ATOM     24  H13 67A d   1      93.638  -2.422  13.373  0.00  0.00     0.083 H 
ATOM     25  C25 67A d   1      93.402  -4.763  15.823  0.00  0.00    -0.055 A 
ATOM     26  H6  67A d   1      94.768  -3.162  15.437  0.00  0.00     0.083 H 
ATOM     27  H11 67A d   1      93.899  -5.077  16.734  0.00  0.00     0.087 H 
ENDBRANCH  11  17
ENDBRANCH   4  10
BRANCH   5  28
ATOM     28  C12 67A d   1      95.174  -7.637  12.707  0.00  0.00     0.060 A 
ATOM     29  C13 67A d   1      96.288  -8.312  12.271  0.00  0.00    -0.023 A 
ATOM     30  C17 67A d   1      97.392  -7.575  11.869  0.00  0.00     0.080 A 
ATOM     31  H2  67A d   1      96.304  -9.396  12.242  0.00  0.00     0.091 H 
ATOM     32  C24 67A d   1      97.380  -6.161  11.887  0.00  0.00    -0.050 A 
ATOM     33  C23 67A d   1      96.253  -5.483  12.331  0.00  0.00    -0.078 A 
ATOM     34  H4  67A d   1      98.250  -5.607  11.554  0.00  0.00     0.087 H 
ATOM     35  C22 67A d   1      95.159  -6.229  12.734  0.00  0.00    -0.055 A 
ATOM     36  H10 67A d   1      96.230  -4.400  12.361  0.00  0.00     0.083 H 
ATOM     37  H3  67A d   1      94.268  -5.717  13.079  0.00  0.00     0.087 H 
BRANCH  30  38
ATOM     38  O16 67A d   1      98.466  -8.299  11.452  0.00  0.00    -0.255 OA
BRANCH  38  39
ATOM     39  C10 67A d   1      99.720  -7.998  12.063  0.00  0.00     0.530 C 
ATOM     40  F19 67A d   1     100.182  -6.798  11.506  0.00  0.00    -0.144 F 
ATOM     41  F20 67A d   1      99.623  -7.825  13.451  0.00  0.00    -0.144 F 
ATOM     42  F21 67A d   1     100.585  -9.058  11.772  0.00  0.00    -0.144 F 
ENDBRANCH  38  39
ENDBRANCH  30  38
ENDBRANCH   5  28
TORSDOF 5
