REMARK  23 active torsions:
REMARK  status: ('A' for Active; 'I' for Inactive)
REMARK    1  A    between atoms: C7_5  and  C1_51 
REMARK    2  A    between atoms: C17_11  and  C18_12 
REMARK    3  A    between atoms: C17_11  and  C21_13 
REMARK    4  A    between atoms: N16_44  and  C17_11 
REMARK    5  A    between atoms: C21_13  and  C22_14 
REMARK    6  A    between atoms: C21_13  and  C23_45 
REMARK    7  A    between atoms: C24_15  and  C25_16 
REMARK    8  A    between atoms: N16_44  and  C24_15 
REMARK    9  A    between atoms: C50_18  and  C51_19 
REMARK       I    between atoms: N49_20  and  C50_18 
REMARK   10  A    between atoms: C35_21  and  N49_20 
REMARK   11  A    between atoms: C34_22  and  O42_23 
REMARK   12  A    between atoms: O42_23  and  C43_24 
REMARK   13  A    between atoms: C43_24  and  C44_26 
REMARK   14  A    between atoms: C33_27  and  O41_28 
REMARK   15  A    between atoms: O41_28  and  C46_29 
REMARK   16  A    between atoms: C46_29  and  C47_31 
REMARK   17  A    between atoms: C32_32  and  C36_33 
REMARK   18  A    between atoms: C36_33  and  O37_34 
REMARK   19  A    between atoms: O37_34  and  C38_35 
REMARK   20  A    between atoms: C38_35  and  C39_37 
REMARK   21  A    between atoms: N28_40  and  C30_39 
REMARK   22  A    between atoms: S13_48  and  N16_44 
REMARK   23  A    between atoms: S13_48  and  C10_50 
ROOT
ATOM      1  C25 V24 d   1     -19.589 -13.523  -2.775  0.00  0.00     0.087 A 
ATOM      2  N28 V24 d   1     -20.879 -14.046  -1.006  0.00  0.00    -0.252 N 
ATOM      3  N27 V24 d   1     -21.507 -14.565  -2.134  0.00  0.00     0.007 NA
ATOM      4  N26 V24 d   1     -20.661 -14.221  -3.205  0.00  0.00    -0.161 NA
ATOM      5  C29 V24 d   1     -19.771 -13.424  -1.392  0.00  0.00     0.024 A 
ATOM      6  H36 V24 d   1     -19.092 -12.904  -0.718  0.00  0.00     0.117 H 
ENDROOT
BRANCH   1   7
ATOM      7  C24 V24 d   1     -18.492 -13.006  -3.727  0.00  0.00     0.049 C 
ATOM      8  H14 V24 d   1     -19.039 -12.580  -4.581  0.00  0.00     0.075 H 
ATOM      9  H15 V24 d   1     -17.953 -13.909  -4.051  0.00  0.00     0.075 H 
BRANCH   7  10
ATOM     10  N16 V24 d   1     -17.424 -12.013  -3.426  0.00  0.00    -0.286 N 
BRANCH  10  11
ATOM     11  C17 V24 d   1     -17.209 -11.046  -4.511  0.00  0.00     0.109 C 
ATOM     12  H9  V24 d   1     -16.706 -10.204  -4.013  0.00  0.00     0.091 H 
BRANCH  11  13
ATOM     13  C18 V24 d   1     -16.304 -11.451  -5.600  0.00  0.00     0.198 C 
ATOM     14  O20 V24 d   1     -16.770 -12.095  -6.516  0.00  0.00    -0.646 OA
ATOM     15  O19 V24 d   1     -15.154 -11.073  -5.512  0.00  0.00    -0.646 OA
ENDBRANCH  11  13
BRANCH  11  16
ATOM     16  C21 V24 d   1     -18.472 -10.446  -5.153  0.00  0.00    -0.031 C 
ATOM     17  H10 V24 d   1     -18.787 -11.140  -5.946  0.00  0.00     0.042 H 
BRANCH  16  18
ATOM     18  C22 V24 d   1     -19.622 -10.292  -4.198  0.00  0.00    -0.071 C 
ATOM     19  H11 V24 d   1     -20.483  -9.859  -4.728  0.00  0.00     0.028 H 
ATOM     20  H12 V24 d   1     -19.327  -9.627  -3.373  0.00  0.00     0.028 H 
ATOM     21  H13 V24 d   1     -19.897 -11.277  -3.794  0.00  0.00     0.028 H 
ENDBRANCH  16  18
BRANCH  16  22
ATOM     22  C23 V24 d   1     -18.206  -9.092  -5.793  0.00  0.00    -0.071 C 
ATOM     23  H37 V24 d   1     -17.366  -9.178  -6.498  0.00  0.00     0.028 H 
ATOM     24  H38 V24 d   1     -17.954  -8.360  -5.011  0.00  0.00     0.028 H 
ATOM     25  H39 V24 d   1     -19.105  -8.758  -6.332  0.00  0.00     0.028 H 
ENDBRANCH  16  22
ENDBRANCH  11  16
ENDBRANCH  10  11
BRANCH  10  26
ATOM     26  S13 V24 d   1     -16.544 -12.075  -2.193  0.00  0.00     0.262 S 
ATOM     27  O14 V24 d   1     -17.139 -13.043  -1.396  0.00  0.00    -0.200 OA
ATOM     28  O15 V24 d   1     -16.534 -10.980  -1.395  0.00  0.00    -0.200 OA
BRANCH  26  29
ATOM     29  C10 V24 d   1     -15.082 -12.682  -2.337  0.00  0.00     0.079 A 
ATOM     30  C9  V24 d   1     -14.923 -14.040  -2.574  0.00  0.00    -0.059 A 
ATOM     31  C8  V24 d   1     -13.693 -14.638  -2.697  0.00  0.00    -0.071 A 
ATOM     32  H6  V24 d   1     -15.810 -14.657  -2.666  0.00  0.00     0.085 H 
ATOM     33  C7  V24 d   1     -12.615 -13.810  -2.575  0.00  0.00    -0.026 A 
ATOM     34  H5  V24 d   1     -13.585 -15.701  -2.880  0.00  0.00     0.084 H 
ATOM     35  C12 V24 d   1     -12.748 -12.455  -2.295  0.00  0.00    -0.071 A 
ATOM     36  C11 V24 d   1     -13.984 -11.899  -2.171  0.00  0.00    -0.059 A 
ATOM     37  H8  V24 d   1     -11.864 -11.839  -2.175  0.00  0.00     0.084 H 
ATOM     38  H7  V24 d   1     -14.091 -10.845  -1.943  0.00  0.00     0.085 H 
BRANCH  33  39
ATOM     39  C1  V24 d   1     -11.280 -14.380  -2.673  0.00  0.00    -0.026 A 
ATOM     40  C2  V24 d   1     -11.114 -15.630  -3.167  0.00  0.00    -0.072 A 
ATOM     41  C3  V24 d   1      -9.840 -16.184  -3.223  0.00  0.00    -0.082 A 
ATOM     42  H1  V24 d   1     -11.970 -16.196  -3.517  0.00  0.00     0.084 H 
ATOM     43  C4  V24 d   1      -8.727 -15.471  -2.795  0.00  0.00    -0.083 A 
ATOM     44  H40 V24 d   1      -9.713 -17.190  -3.607  0.00  0.00     0.083 H 
ATOM     45  C5  V24 d   1      -8.915 -14.199  -2.282  0.00  0.00    -0.082 A 
ATOM     46  H2  V24 d   1      -7.734 -15.901  -2.861  0.00  0.00     0.083 H 
ATOM     47  C6  V24 d   1     -10.195 -13.653  -2.204  0.00  0.00    -0.072 A 
ATOM     48  H3  V24 d   1      -8.062 -13.624  -1.939  0.00  0.00     0.083 H 
ATOM     49  H4  V24 d   1     -10.342 -12.666  -1.780  0.00  0.00     0.084 H 
ENDBRANCH  33  39
ENDBRANCH  26  29
ENDBRANCH  10  26
ENDBRANCH   7  10
ENDBRANCH   1   7
BRANCH   2  50
ATOM     50  C30 V24 d   1     -21.509 -14.256   0.316  0.00  0.00     0.144 C 
ATOM     51  C35 V24 d   1     -22.028 -15.656   0.303  0.00  0.00     0.083 C 
ATOM     52  C34 V24 d   1     -22.872 -15.914   1.550  0.00  0.00     0.099 C 
ATOM     53  H20 V24 d   1     -21.165 -16.337   0.344  0.00  0.00     0.083 H 
ATOM     54  C33 V24 d   1     -22.291 -15.289   2.843  0.00  0.00     0.102 C 
ATOM     55  H21 V24 d   1     -23.869 -15.474   1.404  0.00  0.00     0.091 H 
ATOM     56  C32 V24 d   1     -20.860 -14.718   2.705  0.00  0.00     0.090 C 
ATOM     57  H25 V24 d   1     -22.199 -16.113   3.566  0.00  0.00     0.092 H 
ATOM     58  O31 V24 d   1     -20.525 -14.311   1.346  0.00  0.00    -0.353 OA
ATOM     59  H29 V24 d   1     -20.784 -13.822   3.339  0.00  0.00     0.090 H 
ATOM     60  H35 V24 d   1     -22.285 -13.504   0.519  0.00  0.00     0.123 H 
BRANCH  51  61
ATOM     61  N49 V24 d   1     -22.720 -15.925  -0.913  0.00  0.00    -0.350 N 
ATOM     62  C50 V24 d   1     -22.798 -17.162  -1.369  0.00  0.00     0.214 C 
ATOM     63  O52 V24 d   1     -23.042 -18.195  -0.815  0.00  0.00    -0.274 OA
ATOM     64  H19 V24 d   1     -23.147 -15.177  -1.421  0.00  0.00     0.163 HD
BRANCH  62  65
ATOM     65  C51 V24 d   1     -22.614 -17.258  -2.779  0.00  0.00    -0.003 C 
ATOM     66  H16 V24 d   1     -22.396 -16.261  -3.189  0.00  0.00     0.040 H 
ATOM     67  H17 V24 d   1     -23.530 -17.653  -3.242  0.00  0.00     0.040 H 
ATOM     68  H18 V24 d   1     -21.774 -17.934  -2.994  0.00  0.00     0.040 H 
ENDBRANCH  62  65
ENDBRANCH  51  61
BRANCH  52  69
ATOM     69  O42 V24 d   1     -22.997 -17.344   1.583  0.00  0.00    -0.311 OA
BRANCH  69  70
ATOM     70  C43 V24 d   1     -23.741 -18.027   2.592  0.00  0.00     0.255 C 
ATOM     71  O45 V24 d   1     -24.534 -17.370   3.186  0.00  0.00    -0.266 OA
BRANCH  70  72
ATOM     72  C44 V24 d   1     -23.489 -19.479   2.837  0.00  0.00     0.004 C 
ATOM     73  H22 V24 d   1     -24.148 -19.834   3.643  0.00  0.00     0.041 H 
ATOM     74  H23 V24 d   1     -22.439 -19.625   3.130  0.00  0.00     0.041 H 
ATOM     75  H24 V24 d   1     -23.695 -20.047   1.918  0.00  0.00     0.041 H 
ENDBRANCH  70  72
ENDBRANCH  69  70
ENDBRANCH  52  69
BRANCH  54  76
ATOM     76  O41 V24 d   1     -23.251 -14.386   3.392  0.00  0.00    -0.311 OA
BRANCH  76  77
ATOM     77  C46 V24 d   1     -23.576 -14.700   4.769  0.00  0.00     0.255 C 
ATOM     78  O48 V24 d   1     -23.919 -15.796   5.100  0.00  0.00    -0.266 OA
BRANCH  77  79
ATOM     79  C47 V24 d   1     -23.450 -13.624   5.758  0.00  0.00     0.004 C 
ATOM     80  H26 V24 d   1     -23.727 -14.005   6.752  0.00  0.00     0.041 H 
ATOM     81  H27 V24 d   1     -24.118 -12.794   5.484  0.00  0.00     0.041 H 
ATOM     82  H28 V24 d   1     -22.410 -13.266   5.780  0.00  0.00     0.041 H 
ENDBRANCH  77  79
ENDBRANCH  76  77
ENDBRANCH  54  76
BRANCH  56  83
ATOM     83  C36 V24 d   1     -19.895 -15.789   3.256  0.00  0.00     0.055 C 
ATOM     84  H30 V24 d   1     -20.128 -16.716   2.712  0.00  0.00     0.079 H 
ATOM     85  H31 V24 d   1     -20.154 -15.913   4.318  0.00  0.00     0.079 H 
BRANCH  83  86
ATOM     86  O37 V24 d   1     -18.461 -15.651   3.210  0.00  0.00    -0.319 OA
BRANCH  86  87
ATOM     87  C38 V24 d   1     -17.624 -15.133   4.300  0.00  0.00     0.254 C 
ATOM     88  O40 V24 d   1     -16.584 -14.584   4.046  0.00  0.00    -0.266 OA
BRANCH  87  89
ATOM     89  C39 V24 d   1     -18.104 -15.283   5.708  0.00  0.00     0.004 C 
ATOM     90  H32 V24 d   1     -17.365 -14.846   6.396  0.00  0.00     0.041 H 
ATOM     91  H33 V24 d   1     -18.233 -16.351   5.939  0.00  0.00     0.041 H 
ATOM     92  H34 V24 d   1     -19.066 -14.763   5.825  0.00  0.00     0.041 H 
ENDBRANCH  87  89
ENDBRANCH  86  87
ENDBRANCH  83  86
ENDBRANCH  56  83
ENDBRANCH   2  50
TORSDOF 23
