REMARK  4 active torsions:
REMARK  status: ('A' for Active; 'I' for Inactive)
REMARK    1  A    between atoms: C2_2  and  O2_7 
REMARK    2  A    between atoms: C3_3  and  O3_8 
REMARK    3  A    between atoms: C5_5  and  C6_6 
REMARK    4  A    between atoms: C6_6  and  O6_10 
ROOT
ATOM      1  C1  KOJ d   1       2.929 101.980  24.118  0.00  0.00     0.048 A 
ATOM      2  C2  KOJ d   1       3.264 101.030  25.085  0.00  0.00     0.120 A 
ATOM      3  C3  KOJ d   1       2.295 100.733  26.071  0.00  0.00     0.099 A 
ATOM      4  C4  KOJ d   1       1.031 101.395  26.040  0.00  0.00    -0.038 A 
ATOM      5  C5  KOJ d   1       0.833 102.307  25.049  0.00  0.00     0.083 A 
ATOM      6  O5  KOJ d   1       1.760 102.569  24.151  0.00  0.00    -0.349 OA
ATOM      7  H1  KOJ d   1       3.642 102.232  23.334  0.00  0.00     0.127 H 
ATOM      8  H2  KOJ d   1       0.259 101.180  26.777  0.00  0.00     0.085 H 
ATOM      9  H3  KOJ d   1       1.241 103.098  25.695  0.00  0.00     0.093 H 
ENDROOT
BRANCH   5  10
ATOM     10  C6  KOJ d   1      -0.482 103.022  24.985  0.00  0.00     0.044 C 
ATOM     11  H4  KOJ d   1      -0.836 103.262  25.998  0.00  0.00     0.078 H 
ATOM     12  H5  KOJ d   1      -1.230 102.400  24.473  0.00  0.00     0.078 H 
BRANCH  10  13
ATOM     13  O6  KOJ d   1      -0.245 104.218  24.248  0.00  0.00    -0.398 OA
ATOM     14  H8  KOJ d   1       0.068 103.996  23.379  0.00  0.00     0.209 HD
ENDBRANCH  10  13
ENDBRANCH   5  10
BRANCH   3  15
ATOM     15  O3  KOJ d   1       2.608  99.774  27.074  0.00  0.00    -0.358 OA
ATOM     16  H7  KOJ d   1       3.487  99.444  26.932  0.00  0.00     0.217 HD
ENDBRANCH   3  15
BRANCH   2  17
ATOM     17  O2  KOJ d   1       4.588 100.328  25.135  0.00  0.00    -0.356 OA
ATOM     18  H6  KOJ d   1       5.131 100.627  24.415  0.00  0.00     0.218 HD
ENDBRANCH   2  17
TORSDOF 4
