REMARK  19 active torsions:
REMARK  status: ('A' for Active; 'I' for Inactive)
REMARK    1  A    between atoms: C41_2  and  C43_3 
REMARK       I    between atoms: C41_2  and  N40_4 
REMARK    2  A    between atoms: N40_4  and  C31_5 
REMARK    3  A    between atoms: C32_6  and  O39_7 
REMARK    4  A    between atoms: C33_8  and  O38_9 
REMARK    5  A    between atoms: C34_10  and  C36_11 
REMARK    6  A    between atoms: C36_11  and  O37_12 
REMARK    7  A    between atoms: C30_14  and  N29_15 
REMARK    8  A    between atoms: N29_15  and  C27_16 
REMARK    9  A    between atoms: N26_18  and  C25_19 
REMARK   10  A    between atoms: C25_19  and  C24_20 
REMARK   11  A    between atoms: C24_20  and  N16_21 
REMARK   12  A    between atoms: N16_21  and  C17_22 
REMARK   13  A    between atoms: N16_21  and  S13_29 
REMARK   14  A    between atoms: C17_22  and  C21_23 
REMARK   15  A    between atoms: C17_22  and  C18_26 
REMARK   16  A    between atoms: C21_23  and  C23_24 
REMARK   17  A    between atoms: C21_23  and  C22_25 
REMARK   18  A    between atoms: S13_29  and  C10_32 
REMARK   19  A    between atoms: C07_37  and  C01_38 
ROOT
ATOM      1  C24 67F d   1     -19.031 -12.716  -4.068  0.00  0.00     0.021 C 
ATOM      2  H19 67F d   1     -19.501 -12.903  -3.091  0.00  0.00     0.067 H 
ATOM      3  H20 67F d   1     -19.718 -12.135  -4.700  0.00  0.00     0.067 H 
ENDROOT
BRANCH   1   4
ATOM      4  C25 67F d   1     -18.732 -14.050  -4.745  0.00  0.00     0.010 C 
ATOM      5  H17 67F d   1     -17.670 -14.070  -5.030  0.00  0.00     0.066 H 
ATOM      6  H18 67F d   1     -18.935 -14.861  -4.031  0.00  0.00     0.066 H 
BRANCH   4   7
ATOM      7  N26 67F d   1     -19.549 -14.267  -5.951  0.00  0.00    -0.366 N 
ATOM      8  C27 67F d   1     -20.566 -15.149  -6.104  0.00  0.00     0.169 C 
ATOM      9  S28 67F d   1     -21.051 -15.961  -4.869  0.00  0.00    -0.041 SA
ATOM     10  H16 67F d   1     -19.329 -13.700  -6.745  0.00  0.00     0.161 HD
BRANCH   8  11
ATOM     11  N29 67F d   1     -21.142 -15.431  -7.296  0.00  0.00    -0.339 N 
ATOM     12  H15 67F d   1     -21.979 -15.978  -7.313  0.00  0.00     0.164 HD
BRANCH  11  13
ATOM     13  C30 67F d   1     -20.578 -14.960  -8.558  0.00  0.00     0.128 C 
ATOM     14  C31 67F d   1     -21.353 -15.202  -9.863  0.00  0.00     0.081 C 
ATOM     15  C32 67F d   1     -20.378 -14.867 -11.004  0.00  0.00     0.086 C 
ATOM     16  H5  67F d   1     -22.216 -14.521  -9.873  0.00  0.00     0.083 H 
ATOM     17  C33 67F d   1     -19.748 -13.467 -10.908  0.00  0.00     0.089 C 
ATOM     18  H6  67F d   1     -19.563 -15.604 -10.956  0.00  0.00     0.090 H 
ATOM     19  C34 67F d   1     -19.771 -12.795  -9.508  0.00  0.00     0.088 C 
ATOM     20  H8  67F d   1     -20.319 -12.810 -11.581  0.00  0.00     0.091 H 
ATOM     21  O35 67F d   1     -20.383 -13.543  -8.436  0.00  0.00    -0.354 OA
ATOM     22  H10 67F d   1     -18.724 -12.607  -9.229  0.00  0.00     0.090 H 
ATOM     23  H14 67F d   1     -19.601 -15.452  -8.672  0.00  0.00     0.121 H 
BRANCH  14  24
ATOM     24  N40 67F d   1     -21.834 -16.550 -10.172  0.00  0.00    -0.350 N 
ATOM     25  C41 67F d   1     -22.948 -16.709 -10.900  0.00  0.00     0.214 C 
ATOM     26  O42 67F d   1     -23.803 -15.839 -10.995  0.00  0.00    -0.274 OA
ATOM     27  H4  67F d   1     -21.333 -17.349  -9.841  0.00  0.00     0.163 HD
BRANCH  25  28
ATOM     28  C43 67F d   1     -23.038 -17.935 -11.762  0.00  0.00    -0.003 C 
ATOM     29  H1  67F d   1     -22.191 -18.601 -11.541  0.00  0.00     0.040 H 
ATOM     30  H2  67F d   1     -23.007 -17.641 -12.822  0.00  0.00     0.040 H 
ATOM     31  H3  67F d   1     -23.982 -18.461 -11.555  0.00  0.00     0.040 H 
ENDBRANCH  25  28
ENDBRANCH  14  24
BRANCH  15  32
ATOM     32  O39 67F d   1     -21.009 -14.977 -12.289  0.00  0.00    -0.391 OA
ATOM     33  H7  67F d   1     -20.380 -14.764 -12.969  0.00  0.00     0.210 HD
ENDBRANCH  15  32
BRANCH  17  34
ATOM     34  O38 67F d   1     -18.396 -13.554 -11.402  0.00  0.00    -0.390 OA
ATOM     35  H9  67F d   1     -17.986 -12.698 -11.352  0.00  0.00     0.210 HD
ENDBRANCH  17  34
BRANCH  19  36
ATOM     36  C36 67F d   1     -20.523 -11.453  -9.566  0.00  0.00     0.043 C 
ATOM     37  H11 67F d   1     -21.511 -11.620 -10.020  0.00  0.00     0.078 H 
ATOM     38  H12 67F d   1     -19.948 -10.752 -10.188  0.00  0.00     0.078 H 
BRANCH  36  39
ATOM     39  O37 67F d   1     -20.705 -10.873  -8.264  0.00  0.00    -0.398 OA
ATOM     40  H13 67F d   1     -21.207 -11.469  -7.721  0.00  0.00     0.209 HD
ENDBRANCH  36  39
ENDBRANCH  19  36
ENDBRANCH  11  13
ENDBRANCH   8  11
ENDBRANCH   4   7
ENDBRANCH   1   4
BRANCH   1  41
ATOM     41  N16 67F d   1     -17.772 -11.938  -3.867  0.00  0.00    -0.290 N 
BRANCH  41  42
ATOM     42  C17 67F d   1     -17.497 -11.142  -5.102  0.00  0.00     0.109 C 
ATOM     43  H21 67F d   1     -18.139 -11.645  -5.840  0.00  0.00     0.091 H 
BRANCH  42  44
ATOM     44  C21 67F d   1     -17.952  -9.687  -5.208  0.00  0.00    -0.031 C 
ATOM     45  H22 67F d   1     -17.088  -9.058  -4.949  0.00  0.00     0.042 H 
BRANCH  44  46
ATOM     46  C23 67F d   1     -19.111  -9.222  -4.310  0.00  0.00    -0.071 C 
ATOM     47  H23 67F d   1     -19.319  -8.159  -4.501  0.00  0.00     0.028 H 
ATOM     48  H24 67F d   1     -18.834  -9.357  -3.254  0.00  0.00     0.028 H 
ATOM     49  H25 67F d   1     -20.009  -9.818  -4.532  0.00  0.00     0.028 H 
ENDBRANCH  44  46
BRANCH  44  50
ATOM     50  C22 67F d   1     -18.306  -9.457  -6.697  0.00  0.00    -0.071 C 
ATOM     51  H26 67F d   1     -17.471  -9.793  -7.329  0.00  0.00     0.028 H 
ATOM     52  H27 67F d   1     -18.488  -8.386  -6.869  0.00  0.00     0.028 H 
ATOM     53  H28 67F d   1     -19.211 -10.029  -6.951  0.00  0.00     0.028 H 
ENDBRANCH  44  50
ENDBRANCH  42  44
BRANCH  42  54
ATOM     54  C18 67F d   1     -16.128 -11.313  -5.655  0.00  0.00     0.197 C 
ATOM     55  O20 67F d   1     -15.172 -10.486  -5.719  0.00  0.00    -0.646 OA
ATOM     56  O19 67F d   1     -16.039 -12.410  -6.117  0.00  0.00    -0.646 OA
ENDBRANCH  42  54
ENDBRANCH  41  42
BRANCH  41  57
ATOM     57  S13 67F d   1     -17.001 -12.077  -2.521  0.00  0.00     0.261 S 
ATOM     58  O14 67F d   1     -17.022 -10.877  -1.764  0.00  0.00    -0.200 OA
ATOM     59  O15 67F d   1     -17.759 -13.036  -1.758  0.00  0.00    -0.200 OA
BRANCH  57  60
ATOM     60  C10 67F d   1     -15.477 -12.625  -2.587  0.00  0.00     0.079 A 
ATOM     61  C09 67F d   1     -15.277 -13.992  -2.689  0.00  0.00    -0.059 A 
ATOM     62  C08 67F d   1     -14.001 -14.541  -2.736  0.00  0.00    -0.071 A 
ATOM     63  H29 67F d   1     -16.137 -14.650  -2.733  0.00  0.00     0.085 H 
ATOM     64  C07 67F d   1     -12.874 -13.729  -2.646  0.00  0.00    -0.026 A 
ATOM     65  H30 67F d   1     -13.882 -15.613  -2.844  0.00  0.00     0.084 H 
ATOM     66  C12 67F d   1     -13.047 -12.351  -2.509  0.00  0.00    -0.071 A 
ATOM     67  C11 67F d   1     -14.342 -11.811  -2.485  0.00  0.00    -0.059 A 
ATOM     68  H32 67F d   1     -12.184 -11.700  -2.421  0.00  0.00     0.084 H 
ATOM     69  H31 67F d   1     -14.467 -10.739  -2.385  0.00  0.00     0.085 H 
BRANCH  64  70
ATOM     70  C01 67F d   1     -11.528 -14.338  -2.734  0.00  0.00    -0.026 A 
ATOM     71  C06 67F d   1     -10.444 -13.809  -2.048  0.00  0.00    -0.072 A 
ATOM     72  C05 67F d   1      -9.185 -14.412  -2.198  0.00  0.00    -0.082 A 
ATOM     73  H33 67F d   1     -10.567 -12.944  -1.407  0.00  0.00     0.084 H 
ATOM     74  C04 67F d   1      -9.001 -15.530  -2.997  0.00  0.00    -0.083 A 
ATOM     75  H34 67F d   1      -8.334 -13.992  -1.675  0.00  0.00     0.083 H 
ATOM     76  C03 67F d   1     -10.079 -16.049  -3.679  0.00  0.00    -0.082 A 
ATOM     77  H35 67F d   1      -8.023 -15.989  -3.084  0.00  0.00     0.083 H 
ATOM     78  C02 67F d   1     -11.321 -15.451  -3.551  0.00  0.00    -0.072 A 
ATOM     79  H36 67F d   1      -9.956 -16.920  -4.312  0.00  0.00     0.083 H 
ATOM     80  H37 67F d   1     -12.160 -15.860  -4.103  0.00  0.00     0.084 H 
ENDBRANCH  64  70
ENDBRANCH  57  60
ENDBRANCH  41  57
ENDBRANCH   1  41
TORSDOF 19
