REMARK  1 active torsions:
REMARK  status: ('A' for Active; 'I' for Inactive)
REMARK    1  A    between atoms: N2_7  and  C1_9 
ROOT
ATOM      1  C4  67N d   1     -16.713   6.072   9.298  0.00  0.00    -0.056 A 
ATOM      2  C5  67N d   1     -17.309   6.516  10.552  0.00  0.00    -0.001 A 
ATOM      3  C6  67N d   1     -16.858   7.270  11.658  0.00  0.00    -0.056 A 
ATOM      4  C11 67N d   1     -19.383   5.398   9.894  0.00  0.00     0.274 A 
ATOM      5  C7  67N d   1     -17.884   7.364  12.527  0.00  0.00    -0.021 A 
ATOM      6  C10 67N d   1     -18.642   6.160  10.820  0.00  0.00     0.111 A 
ATOM      7  N2  67N d   1     -18.774   5.029   8.751  0.00  0.00    -0.327 N 
ATOM      8  C3  67N d   1     -17.477   5.354   8.455  0.00  0.00    -0.017 A 
ATOM      9  N8  67N d   1     -18.966   6.693  12.036  0.00  0.00    -0.361 N 
ATOM     10  O12 67N d   1     -20.555   5.074  10.118  0.00  0.00    -0.265 OA
ATOM     11  H1  67N d   1     -15.680   6.314   9.051  0.00  0.00     0.086 H 
ATOM     12  H2  67N d   1     -15.864   7.697  11.785  0.00  0.00     0.086 H 
ATOM     13  H3  67N d   1     -17.854   7.895  13.477  0.00  0.00     0.111 H 
ATOM     14  H4  67N d   1     -17.052   5.021   7.509  0.00  0.00     0.111 H 
ATOM     15  H8  67N d   1     -19.878   6.603  12.505  0.00  0.00     0.165 HD
ENDROOT
BRANCH   7  16
ATOM     16  C1  67N d   1     -19.546   4.253   7.782  0.00  0.00    -0.011 C 
ATOM     17  H5  67N d   1     -20.559   4.081   8.174  0.00  0.00     0.057 H 
ATOM     18  H6  67N d   1     -19.051   3.286   7.609  0.00  0.00     0.057 H 
ATOM     19  H7  67N d   1     -19.609   4.808   6.834  0.00  0.00     0.057 H 
ENDBRANCH   7  16
TORSDOF 1
