REMARK  27 active torsions:
REMARK  status: ('A' for Active; 'I' for Inactive)
REMARK    1  A    between atoms: C54_2  and  C56_3 
REMARK       I    between atoms: C54_2  and  N53_4 
REMARK    2  A    between atoms: N53_4  and  C35_5 
REMARK    3  A    between atoms: C36_6  and  O49_7 
REMARK    4  A    between atoms: O49_7  and  C50_8 
REMARK    5  A    between atoms: C50_8  and  C51_10 
REMARK    6  A    between atoms: C37_11  and  O45_12 
REMARK    7  A    between atoms: O45_12  and  C46_13 
REMARK    8  A    between atoms: C46_13  and  C48_14 
REMARK    9  A    between atoms: C38_16  and  C40_17 
REMARK   10  A    between atoms: C40_17  and  O41_18 
REMARK   11  A    between atoms: O41_18  and  C42_19 
REMARK   12  A    between atoms: C42_19  and  C44_20 
REMARK   13  A    between atoms: C34_23  and  O33_24 
REMARK   14  A    between atoms: O33_24  and  C32_25 
REMARK   15  A    between atoms: C32_25  and  C31_26 
REMARK   16  A    between atoms: C31_26  and  C30_27 
REMARK   17  A    between atoms: C30_27  and  N28_28 
REMARK   18  A    between atoms: C25_32  and  C24_33 
REMARK   19  A    between atoms: C24_33  and  N16_34 
REMARK   20  A    between atoms: N16_34  and  C17_35 
REMARK   21  A    between atoms: N16_34  and  S13_42 
REMARK   22  A    between atoms: C17_35  and  C21_36 
REMARK   23  A    between atoms: C17_35  and  C18_39 
REMARK   24  A    between atoms: C21_36  and  C23_37 
REMARK   25  A    between atoms: C21_36  and  C22_38 
REMARK   26  A    between atoms: S13_42  and  C10_45 
REMARK   27  A    between atoms: C07_50  and  C01_51 
ROOT
ATOM      1  C30 67M d   1       0.172   9.711  36.386  0.00  0.00     0.015 C 
ATOM      2  H25 67M d   1      -0.704  10.009  35.791  0.00  0.00     0.066 H 
ATOM      3  H26 67M d   1       0.038   8.680  36.746  0.00  0.00     0.066 H 
ENDROOT
BRANCH   1   4
ATOM      4  C31 67M d   1       0.341  10.659  37.573  0.00  0.00    -0.029 C 
ATOM      5  H23 67M d   1       1.388  10.995  37.609  0.00  0.00     0.038 H 
ATOM      6  H24 67M d   1      -0.318  11.528  37.427  0.00  0.00     0.038 H 
BRANCH   4   7
ATOM      7  C32 67M d   1      -0.006  10.002  38.898  0.00  0.00     0.024 C 
ATOM      8  H21 67M d   1      -0.216  10.780  39.646  0.00  0.00     0.074 H 
ATOM      9  H22 67M d   1      -0.896   9.369  38.768  0.00  0.00     0.074 H 
BRANCH   7  10
ATOM     10  O33 67M d   1       1.086   9.197  39.346  0.00  0.00    -0.359 OA
BRANCH  10  11
ATOM     11  C34 67M d   1       0.672   8.220  40.303  0.00  0.00     0.153 C 
ATOM     12  C35 67M d   1       1.420   6.931  39.969  0.00  0.00     0.087 C 
ATOM     13  C36 67M d   1       0.773   5.852  40.856  0.00  0.00     0.100 C 
ATOM     14  H5  67M d   1       2.470   7.034  40.280  0.00  0.00     0.084 H 
ATOM     15  C37 67M d   1       1.189   6.232  42.307  0.00  0.00     0.102 C 
ATOM     16  H6  67M d   1      -0.322   5.935  40.786  0.00  0.00     0.091 H 
ATOM     17  C38 67M d   1       0.513   7.586  42.690  0.00  0.00     0.090 C 
ATOM     18  H10 67M d   1       2.276   6.403  42.291  0.00  0.00     0.092 H 
ATOM     19  O39 67M d   1       0.847   8.604  41.696  0.00  0.00    -0.349 OA
ATOM     20  H14 67M d   1      -0.576   7.430  42.666  0.00  0.00     0.090 H 
ATOM     21  H20 67M d   1      -0.404   8.044  40.157  0.00  0.00     0.132 H 
BRANCH  12  22
ATOM     22  N53 67M d   1       1.433   6.700  38.523  0.00  0.00    -0.349 N 
ATOM     23  C54 67M d   1       2.355   5.961  37.885  0.00  0.00     0.214 C 
ATOM     24  O55 67M d   1       3.181   5.293  38.487  0.00  0.00    -0.274 OA
ATOM     25  H4  67M d   1       0.709   7.120  37.976  0.00  0.00     0.163 HD
BRANCH  23  26
ATOM     26  C56 67M d   1       2.347   5.964  36.378  0.00  0.00    -0.003 C 
ATOM     27  H1  67M d   1       1.539   6.618  36.017  0.00  0.00     0.040 H 
ATOM     28  H2  67M d   1       2.182   4.941  36.010  0.00  0.00     0.040 H 
ATOM     29  H3  67M d   1       3.313   6.336  36.007  0.00  0.00     0.040 H 
ENDBRANCH  23  26
ENDBRANCH  12  22
BRANCH  13  30
ATOM     30  O49 67M d   1       1.118   4.530  40.392  0.00  0.00    -0.311 OA
BRANCH  30  31
ATOM     31  C50 67M d   1       0.199   3.979  39.389  0.00  0.00     0.255 C 
ATOM     32  O52 67M d   1       0.310   4.269  38.215  0.00  0.00    -0.266 OA
BRANCH  31  33
ATOM     33  C51 67M d   1      -0.883   3.054  39.794  0.00  0.00     0.004 C 
ATOM     34  H7  67M d   1      -1.460   2.753  38.907  0.00  0.00     0.041 H 
ATOM     35  H8  67M d   1      -1.548   3.559  40.510  0.00  0.00     0.041 H 
ATOM     36  H9  67M d   1      -0.445   2.162  40.266  0.00  0.00     0.041 H 
ENDBRANCH  31  33
ENDBRANCH  30  31
ENDBRANCH  13  30
BRANCH  15  37
ATOM     37  O45 67M d   1       0.960   5.200  43.298  0.00  0.00    -0.311 OA
BRANCH  37  38
ATOM     38  C46 67M d   1       2.086   4.343  43.766  0.00  0.00     0.255 C 
ATOM     39  O47 67M d   1       1.792   3.202  44.087  0.00  0.00    -0.266 OA
BRANCH  38  40
ATOM     40  C48 67M d   1       3.539   4.765  43.905  0.00  0.00     0.004 C 
ATOM     41  H11 67M d   1       4.134   3.916  44.273  0.00  0.00     0.041 H 
ATOM     42  H12 67M d   1       3.612   5.600  44.618  0.00  0.00     0.041 H 
ATOM     43  H13 67M d   1       3.923   5.085  42.925  0.00  0.00     0.041 H 
ENDBRANCH  38  40
ENDBRANCH  37  38
ENDBRANCH  15  37
BRANCH  17  44
ATOM     44  C40 67M d   1       0.877   8.079  44.113  0.00  0.00     0.055 C 
ATOM     45  H15 67M d   1       0.686   7.272  44.835  0.00  0.00     0.079 H 
ATOM     46  H16 67M d   1       0.255   8.950  44.364  0.00  0.00     0.079 H 
BRANCH  44  47
ATOM     47  O41 67M d   1       2.272   8.456  44.178  0.00  0.00    -0.319 OA
BRANCH  47  48
ATOM     48  C42 67M d   1       3.213   8.303  45.308  0.00  0.00     0.254 C 
ATOM     49  O43 67M d   1       4.375   8.006  45.020  0.00  0.00    -0.266 OA
BRANCH  48  50
ATOM     50  C44 67M d   1       2.774   8.566  46.733  0.00  0.00     0.004 C 
ATOM     51  H17 67M d   1       3.620   8.396  47.415  0.00  0.00     0.041 H 
ATOM     52  H18 67M d   1       1.950   7.886  46.994  0.00  0.00     0.041 H 
ATOM     53  H19 67M d   1       2.433   9.608  46.825  0.00  0.00     0.041 H 
ENDBRANCH  48  50
ENDBRANCH  47  48
ENDBRANCH  44  47
ENDBRANCH  17  44
ENDBRANCH  10  11
ENDBRANCH   7  10
ENDBRANCH   4   7
ENDBRANCH   1   4
BRANCH   1  54
ATOM     54  N28 67M d   1       1.388   9.799  35.564  0.00  0.00    -0.283 N 
ATOM     55  N27 67M d   1       1.201  10.296  34.275  0.00  0.00     0.004 NA
ATOM     56  N26 67M d   1       2.481  10.273  33.693  0.00  0.00    -0.161 NA
ATOM     57  C25 67M d   1       3.379   9.825  34.587  0.00  0.00     0.087 A 
ATOM     58  C29 67M d   1       2.685   9.513  35.760  0.00  0.00     0.021 A 
ATOM     59  H27 67M d   1       3.120   9.109  36.673  0.00  0.00     0.116 H 
BRANCH  57  60
ATOM     60  C24 67M d   1       4.866   9.715  34.321  0.00  0.00     0.049 C 
ATOM     61  H28 67M d   1       5.022   9.566  33.242  0.00  0.00     0.075 H 
ATOM     62  H29 67M d   1       5.260   8.848  34.871  0.00  0.00     0.075 H 
BRANCH  60  63
ATOM     63  N16 67M d   1       5.621  10.950  34.755  0.00  0.00    -0.286 N 
BRANCH  63  64
ATOM     64  C17 67M d   1       5.996  12.049  33.826  0.00  0.00     0.109 C 
ATOM     65  H30 67M d   1       6.511  12.800  34.444  0.00  0.00     0.091 H 
BRANCH  64  66
ATOM     66  C21 67M d   1       4.861  12.813  33.113  0.00  0.00    -0.031 C 
ATOM     67  H31 67M d   1       4.325  12.094  32.476  0.00  0.00     0.042 H 
BRANCH  66  68
ATOM     68  C23 67M d   1       5.513  13.882  32.216  0.00  0.00    -0.071 C 
ATOM     69  H32 67M d   1       4.729  14.447  31.691  0.00  0.00     0.028 H 
ATOM     70  H33 67M d   1       6.168  13.393  31.480  0.00  0.00     0.028 H 
ATOM     71  H34 67M d   1       6.107  14.569  32.837  0.00  0.00     0.028 H 
ENDBRANCH  66  68
BRANCH  66  72
ATOM     72  C22 67M d   1       3.819  13.472  34.031  0.00  0.00    -0.071 C 
ATOM     73  H35 67M d   1       3.356  12.705  34.670  0.00  0.00     0.028 H 
ATOM     74  H36 67M d   1       3.044  13.956  33.418  0.00  0.00     0.028 H 
ATOM     75  H37 67M d   1       4.311  14.226  34.662  0.00  0.00     0.028 H 
ENDBRANCH  66  72
ENDBRANCH  64  66
BRANCH  64  76
ATOM     76  C18 67M d   1       7.009  11.524  32.819  0.00  0.00     0.198 C 
ATOM     77  O20 67M d   1       6.844  10.491  32.114  0.00  0.00    -0.646 OA
ATOM     78  O19 67M d   1       8.058  12.115  32.686  0.00  0.00    -0.646 OA
ENDBRANCH  64  76
ENDBRANCH  63  64
BRANCH  63  79
ATOM     79  S13 67M d   1       6.215  11.030  36.183  0.00  0.00     0.262 S 
ATOM     80  O14 67M d   1       6.229  12.359  36.764  0.00  0.00    -0.200 OA
ATOM     81  O15 67M d   1       5.508  10.052  36.964  0.00  0.00    -0.200 OA
BRANCH  79  82
ATOM     82  C10 67M d   1       7.735  10.428  36.034  0.00  0.00     0.079 A 
ATOM     83  C09 67M d   1       7.907   9.037  35.933  0.00  0.00    -0.059 A 
ATOM     84  C08 67M d   1       9.173   8.451  35.797  0.00  0.00    -0.071 A 
ATOM     85  H38 67M d   1       7.033   8.397  35.961  0.00  0.00     0.085 H 
ATOM     86  C07 67M d   1      10.338   9.248  35.779  0.00  0.00    -0.026 A 
ATOM     87  H39 67M d   1       9.258   7.374  35.705  0.00  0.00     0.084 H 
ATOM     88  C12 67M d   1      10.197  10.668  35.889  0.00  0.00    -0.071 A 
ATOM     89  C11 67M d   1       8.906  11.243  36.023  0.00  0.00    -0.059 A 
ATOM     90  H41 67M d   1      11.075  11.304  35.870  0.00  0.00     0.084 H 
ATOM     91  H40 67M d   1       8.808  12.318  36.118  0.00  0.00     0.085 H 
BRANCH  86  92
ATOM     92  C01 67M d   1      11.675   8.582  35.707  0.00  0.00    -0.026 A 
ATOM     93  C06 67M d   1      11.912   7.420  35.006  0.00  0.00    -0.072 A 
ATOM     94  C05 67M d   1      13.190   6.841  34.982  0.00  0.00    -0.082 A 
ATOM     95  H42 67M d   1      11.100   6.947  34.466  0.00  0.00     0.084 H 
ATOM     96  C04 67M d   1      14.239   7.385  35.729  0.00  0.00    -0.083 A 
ATOM     97  H43 67M d   1      13.366   5.960  34.376  0.00  0.00     0.083 H 
ATOM     98  C03 67M d   1      14.001   8.503  36.461  0.00  0.00    -0.082 A 
ATOM     99  H44 67M d   1      15.220   6.924  35.724  0.00  0.00     0.083 H 
ATOM    100  C02 67M d   1      12.741   9.096  36.447  0.00  0.00    -0.072 A 
ATOM    101  H45 67M d   1      14.795   8.936  37.059  0.00  0.00     0.083 H 
ATOM    102  H46 67M d   1      12.582   9.993  37.035  0.00  0.00     0.084 H 
ENDBRANCH  86  92
ENDBRANCH  79  82
ENDBRANCH  63  79
ENDBRANCH  60  63
ENDBRANCH  57  60
ENDBRANCH   1  54
TORSDOF 27
