REMARK  17 active torsions:
REMARK  status: ('A' for Active; 'I' for Inactive)
REMARK    1  A    between atoms: S13_2  and  C10_4 
REMARK    2  A    between atoms: S13_2  and  N16_16 
REMARK    3  A    between atoms: C07_7  and  C01_8 
REMARK    4  A    between atoms: N16_16  and  C17_17 
REMARK    5  A    between atoms: N16_16  and  C24_24 
REMARK    6  A    between atoms: C17_17  and  C18_18 
REMARK    7  A    between atoms: C17_17  and  C21_21 
REMARK    8  A    between atoms: C21_21  and  C22_22 
REMARK    9  A    between atoms: C21_21  and  C23_23 
REMARK   10  A    between atoms: C24_24  and  C25_25 
REMARK   11  A    between atoms: N28_29  and  C30_30 
REMARK   12  A    between atoms: C31_31  and  N40_32 
REMARK       I    between atoms: N40_32  and  C41_33 
REMARK   13  A    between atoms: C41_33  and  C42_34 
REMARK   14  A    between atoms: C34_37  and  C36_38 
REMARK   15  A    between atoms: C36_38  and  O37_39 
REMARK   16  A    between atoms: C33_40  and  O38_41 
REMARK   17  A    between atoms: C32_42  and  O39_43 
ROOT
ATOM      1  N16 V28 d   1     -17.433 -12.000  -3.534  0.00  0.00    -0.286 N 
ENDROOT
BRANCH   1   2
ATOM      2  S13 V28 d   1     -16.844 -12.108  -2.146  0.00  0.00     0.262 S 
ATOM      3  O15 V28 d   1     -16.809 -10.874  -1.491  0.00  0.00    -0.200 OA
ATOM      4  O14 V28 d   1     -17.603 -13.026  -1.396  0.00  0.00    -0.200 OA
BRANCH   2   5
ATOM      5  C10 V28 d   1     -15.362 -12.712  -2.338  0.00  0.00     0.079 A 
ATOM      6  C11 V28 d   1     -15.184 -14.086  -2.421  0.00  0.00    -0.059 A 
ATOM      7  C12 V28 d   1     -13.923 -14.641  -2.573  0.00  0.00    -0.071 A 
ATOM      8  H1  V28 d   1     -16.048 -14.738  -2.366  0.00  0.00     0.085 H 
ATOM      9  C07 V28 d   1     -12.809 -13.827  -2.652  0.00  0.00    -0.026 A 
ATOM     10  H2  V28 d   1     -13.810 -15.718  -2.630  0.00  0.00     0.084 H 
ATOM     11  C08 V28 d   1     -12.966 -12.456  -2.561  0.00  0.00    -0.071 A 
ATOM     12  C09 V28 d   1     -14.230 -11.904  -2.426  0.00  0.00    -0.059 A 
ATOM     13  H8  V28 d   1     -12.096 -11.810  -2.595  0.00  0.00     0.084 H 
ATOM     14  H9  V28 d   1     -14.340 -10.826  -2.388  0.00  0.00     0.085 H 
BRANCH   9  15
ATOM     15  C01 V28 d   1     -11.480 -14.457  -2.801  0.00  0.00    -0.026 A 
ATOM     16  C02 V28 d   1     -10.410 -13.982  -2.061  0.00  0.00    -0.072 A 
ATOM     17  C03 V28 d   1      -9.157 -14.583  -2.177  0.00  0.00    -0.082 A 
ATOM     18  H3  V28 d   1     -10.547 -13.141  -1.390  0.00  0.00     0.084 H 
ATOM     19  C04 V28 d   1      -8.999 -15.665  -3.028  0.00  0.00    -0.083 A 
ATOM     20  H4  V28 d   1      -8.315 -14.207  -1.607  0.00  0.00     0.083 H 
ATOM     21  C05 V28 d   1     -10.070 -16.151  -3.756  0.00  0.00    -0.082 A 
ATOM     22  H5  V28 d   1      -8.027 -16.135  -3.124  0.00  0.00     0.083 H 
ATOM     23  C06 V28 d   1     -11.309 -15.548  -3.640  0.00  0.00    -0.072 A 
ATOM     24  H6  V28 d   1      -9.938 -17.002  -4.415  0.00  0.00     0.083 H 
ATOM     25  H7  V28 d   1     -12.150 -15.930  -4.207  0.00  0.00     0.084 H 
ENDBRANCH   9  15
ENDBRANCH   2   5
ENDBRANCH   1   2
BRANCH   1  26
ATOM     26  C17 V28 d   1     -17.030 -10.966  -4.484  0.00  0.00     0.109 C 
ATOM     27  H10 V28 d   1     -16.560 -10.156  -3.908  0.00  0.00     0.091 H 
BRANCH  26  28
ATOM     28  C18 V28 d   1     -16.003 -11.440  -5.497  0.00  0.00     0.198 C 
ATOM     29  O19 V28 d   1     -16.163 -12.490  -6.150  0.00  0.00    -0.646 OA
ATOM     30  O20 V28 d   1     -14.977 -10.758  -5.673  0.00  0.00    -0.646 OA
ENDBRANCH  26  28
BRANCH  26  31
ATOM     31  C21 V28 d   1     -18.273 -10.393  -5.164  0.00  0.00    -0.031 C 
ATOM     32  H11 V28 d   1     -18.846 -11.243  -5.562  0.00  0.00     0.042 H 
BRANCH  31  33
ATOM     33  C22 V28 d   1     -19.171  -9.658  -4.178  0.00  0.00    -0.071 C 
ATOM     34  H12 V28 d   1     -20.051  -9.263  -4.707  0.00  0.00     0.028 H 
ATOM     35  H13 V28 d   1     -18.613  -8.826  -3.723  0.00  0.00     0.028 H 
ATOM     36  H14 V28 d   1     -19.498 -10.354  -3.391  0.00  0.00     0.028 H 
ENDBRANCH  31  33
BRANCH  31  37
ATOM     37  C23 V28 d   1     -17.919  -9.490  -6.342  0.00  0.00    -0.071 C 
ATOM     38  H15 V28 d   1     -17.271 -10.038  -7.042  0.00  0.00     0.028 H 
ATOM     39  H16 V28 d   1     -17.390  -8.598  -5.974  0.00  0.00     0.028 H 
ATOM     40  H17 V28 d   1     -18.840  -9.183  -6.859  0.00  0.00     0.028 H 
ENDBRANCH  31  37
ENDBRANCH  26  31
ENDBRANCH   1  26
BRANCH   1  41
ATOM     41  C24 V28 d   1     -18.280 -13.050  -4.098  0.00  0.00     0.049 C 
ATOM     42  H18 V28 d   1     -17.734 -13.992  -3.941  0.00  0.00     0.075 H 
ATOM     43  H19 V28 d   1     -18.342 -12.838  -5.176  0.00  0.00     0.075 H 
BRANCH  41  44
ATOM     44  C25 V28 d   1     -19.710 -13.319  -3.645  0.00  0.00     0.087 A 
ATOM     45  N26 V28 d   1     -20.836 -12.916  -4.274  0.00  0.00    -0.161 NA
ATOM     46  N27 V28 d   1     -21.953 -13.381  -3.598  0.00  0.00     0.007 NA
ATOM     47  N28 V28 d   1     -21.426 -14.089  -2.534  0.00  0.00    -0.252 N 
ATOM     48  C29 V28 d   1     -20.099 -14.082  -2.558  0.00  0.00     0.024 A 
ATOM     49  H20 V28 d   1     -19.438 -14.584  -1.853  0.00  0.00     0.117 H 
BRANCH  47  50
ATOM     50  C30 V28 d   1     -22.425 -14.727  -1.639  0.00  0.00     0.144 C 
ATOM     51  C31 V28 d   1     -22.572 -16.225  -1.961  0.00  0.00     0.083 C 
ATOM     52  C32 V28 d   1     -23.208 -17.049  -0.852  0.00  0.00     0.086 C 
ATOM     53  H22 V28 d   1     -21.559 -16.617  -2.133  0.00  0.00     0.083 H 
ATOM     54  C33 V28 d   1     -22.639 -16.633   0.488  0.00  0.00     0.089 C 
ATOM     55  H33 V28 d   1     -24.291 -16.855  -0.847  0.00  0.00     0.090 H 
ATOM     56  C34 V28 d   1     -22.800 -15.129   0.655  0.00  0.00     0.088 C 
ATOM     57  H31 V28 d   1     -21.571 -16.892   0.539  0.00  0.00     0.091 H 
ATOM     58  O35 V28 d   1     -22.001 -14.480  -0.305  0.00  0.00    -0.353 OA
ATOM     59  H27 V28 d   1     -23.857 -14.877   0.482  0.00  0.00     0.090 H 
ATOM     60  H21 V28 d   1     -23.404 -14.250  -1.792  0.00  0.00     0.123 H 
BRANCH  51  61
ATOM     61  N40 V28 d   1     -23.351 -16.439  -3.153  0.00  0.00    -0.350 N 
ATOM     62  C41 V28 d   1     -22.778 -16.559  -4.322  0.00  0.00     0.214 C 
ATOM     63  O43 V28 d   1     -21.571 -16.599  -4.433  0.00  0.00    -0.274 OA
ATOM     64  H23 V28 d   1     -24.347 -16.497  -3.086  0.00  0.00     0.163 HD
BRANCH  62  65
ATOM     65  C42 V28 d   1     -23.711 -16.643  -5.485  0.00  0.00    -0.003 C 
ATOM     66  H24 V28 d   1     -23.131 -16.741  -6.414  0.00  0.00     0.040 H 
ATOM     67  H25 V28 d   1     -24.324 -15.731  -5.530  0.00  0.00     0.040 H 
ATOM     68  H26 V28 d   1     -24.366 -17.519  -5.367  0.00  0.00     0.040 H 
ENDBRANCH  62  65
ENDBRANCH  51  61
BRANCH  52  69
ATOM     69  O39 V28 d   1     -23.001 -18.445  -1.087  0.00  0.00    -0.391 OA
ATOM     70  H34 V28 d   1     -23.430 -18.947  -0.404  0.00  0.00     0.210 HD
ENDBRANCH  52  69
BRANCH  54  71
ATOM     71  O38 V28 d   1     -23.347 -17.335   1.498  0.00  0.00    -0.390 OA
ATOM     72  H32 V28 d   1     -23.232 -18.270   1.373  0.00  0.00     0.210 HD
ENDBRANCH  54  71
BRANCH  56  73
ATOM     73  C36 V28 d   1     -22.407 -14.611   2.013  0.00  0.00     0.043 C 
ATOM     74  H28 V28 d   1     -21.321 -14.445   2.069  0.00  0.00     0.078 H 
ATOM     75  H29 V28 d   1     -22.712 -15.314   2.803  0.00  0.00     0.078 H 
BRANCH  73  76
ATOM     76  O37 V28 d   1     -23.112 -13.382   2.131  0.00  0.00    -0.398 OA
ATOM     77  H30 V28 d   1     -22.844 -12.796   1.433  0.00  0.00     0.209 HD
ENDBRANCH  73  76
ENDBRANCH  56  73
ENDBRANCH  47  50
ENDBRANCH  41  44
ENDBRANCH   1  41
TORSDOF 17
