REMARK  11 active torsions:
REMARK  status: ('A' for Active; 'I' for Inactive)
REMARK    1  A    between atoms: S_2  and  C19_4 
REMARK    2  A    between atoms: S_2  and  C18_5 
REMARK    3  A    between atoms: C16_7  and  C17_8 
REMARK    4  A    between atoms: C17_8  and  O2_9 
REMARK    5  A    between atoms: C13_12  and  N4_13 
REMARK    6  A    between atoms: C4_15  and  C2_16 
REMARK    7  A    between atoms: C2_16  and  C3_17 
REMARK    8  A    between atoms: C2_16  and  C1_18 
REMARK    9  A    between atoms: C6_24  and  C7_25 
REMARK   10  A    between atoms: C8_31  and  C9_32 
REMARK   11  A    between atoms: C9_32  and  O1_33 
ROOT
ATOM      1  N4  67S d   1      -5.811   6.684 -23.166  0.00  0.00    -0.280 NA
ATOM      2  C21 67S d   1      -5.783   5.970 -21.898  0.00  0.00     0.003 C 
ATOM      3  C4  67S d   1      -4.819   6.662 -20.950  0.00  0.00     0.043 C 
ATOM      4  C12 67S d   1      -6.406   8.011 -22.954  0.00  0.00    -0.001 C 
ATOM      5  C11 67S d   1      -5.783   8.824 -21.801  0.00  0.00     0.023 C 
ATOM      6  N1  67S d   1      -5.334   7.990 -20.699  0.00  0.00    -0.207 N 
ATOM      7  C5  67S d   1      -5.374   8.345 -19.402  0.00  0.00     0.725 A 
ATOM      8  N2  67S d   1      -5.811   9.523 -18.942  0.00  0.00    -0.058 NA
ATOM      9  C6  67S d   1      -5.794   9.746 -17.605  0.00  0.00     0.169 A 
ATOM     10  N3  67S d   1      -4.926   7.419 -18.526  0.00  0.00    -0.074 NA
ATOM     11  C10 67S d   1      -4.888   7.597 -17.195  0.00  0.00     0.031 A 
ATOM     12  C8  67S d   1      -5.333   8.800 -16.689  0.00  0.00     0.018 A 
ATOM     13  H10 67S d   1      -5.452   4.935 -22.067  0.00  0.00     0.059 H 
ATOM     14  H11 67S d   1      -6.791   5.965 -21.457  0.00  0.00     0.059 H 
ATOM     15  H12 67S d   1      -4.809   6.110 -19.999  0.00  0.00     0.076 H 
ATOM     16  H20 67S d   1      -7.476   7.875 -22.738  0.00  0.00     0.058 H 
ATOM     17  H21 67S d   1      -6.290   8.590 -23.882  0.00  0.00     0.058 H 
ATOM     18  H22 67S d   1      -6.537   9.530 -21.422  0.00  0.00     0.067 H 
ATOM     19  H23 67S d   1      -4.920   9.383 -22.192  0.00  0.00     0.067 H 
ATOM     20  H24 67S d   1      -4.518   6.818 -16.538  0.00  0.00     0.116 H 
ENDROOT
BRANCH   1  21
ATOM     21  C13 67S d   1      -6.369   5.864 -24.258  0.00  0.00     0.012 A 
ATOM     22  C20 67S d   1      -7.252   6.381 -25.202  0.00  0.00    -0.041 A 
ATOM     23  C18 67S d   1      -7.752   5.600 -26.248  0.00  0.00     0.069 A 
ATOM     24  H4  67S d   1      -7.560   7.417 -25.124  0.00  0.00     0.088 H 
ATOM     25  C16 67S d   1      -7.354   4.257 -26.333  0.00  0.00    -0.013 A 
ATOM     26  C15 67S d   1      -6.476   3.742 -25.402  0.00  0.00    -0.072 A 
ATOM     27  C14 67S d   1      -5.983   4.532 -24.384  0.00  0.00    -0.062 A 
ATOM     28  H8  67S d   1      -6.170   2.704 -25.471  0.00  0.00     0.084 H 
ATOM     29  H9  67S d   1      -5.284   4.109 -23.671  0.00  0.00     0.086 H 
BRANCH  23  30
ATOM     30  S   67S d   1      -8.794   6.233 -27.303  0.00  0.00     0.172 S 
ATOM     31  O4  67S d   1      -8.320   6.120 -28.650  0.00  0.00    -0.223 OA
ATOM     32  O3  67S d   1     -10.021   5.512 -27.107  0.00  0.00    -0.223 OA
BRANCH  30  33
ATOM     33  C19 67S d   1      -9.138   7.822 -27.051  0.00  0.00     0.020 C 
ATOM     34  H1  67S d   1      -8.226   8.421 -27.190  0.00  0.00     0.049 H 
ATOM     35  H2  67S d   1      -9.514   7.958 -26.026  0.00  0.00     0.049 H 
ATOM     36  H3  67S d   1      -9.905   8.150 -27.769  0.00  0.00     0.049 H 
ENDBRANCH  30  33
ENDBRANCH  23  30
BRANCH  25  37
ATOM     37  C17 67S d   1      -7.824   3.281 -27.403  0.00  0.00     0.042 C 
ATOM     38  H5  67S d   1      -7.009   2.593 -27.670  0.00  0.00     0.081 H 
ATOM     39  H6  67S d   1      -8.147   3.831 -28.299  0.00  0.00     0.081 H 
BRANCH  37  40
ATOM     40  O2  67S d   1      -8.925   2.548 -26.853  0.00  0.00    -0.396 OA
ATOM     41  H7  67S d   1      -8.637   2.081 -26.077  0.00  0.00     0.209 HD
ENDBRANCH  37  40
ENDBRANCH  25  37
ENDBRANCH   1  21
BRANCH   3  42
ATOM     42  C2  67S d   1      -3.388   6.671 -21.490  0.00  0.00    -0.040 C 
ATOM     43  H13 67S d   1      -3.423   6.598 -22.587  0.00  0.00     0.042 H 
BRANCH  42  44
ATOM     44  C3  67S d   1      -2.600   7.918 -21.105  0.00  0.00    -0.071 C 
ATOM     45  H14 67S d   1      -1.586   7.855 -21.526  0.00  0.00     0.028 H 
ATOM     46  H15 67S d   1      -2.538   7.989 -20.009  0.00  0.00     0.028 H 
ATOM     47  H16 67S d   1      -3.107   8.809 -21.502  0.00  0.00     0.028 H 
ENDBRANCH  42  44
BRANCH  42  48
ATOM     48  C1  67S d   1      -2.661   5.461 -20.911  0.00  0.00    -0.071 C 
ATOM     49  H17 67S d   1      -3.209   4.544 -21.174  0.00  0.00     0.028 H 
ATOM     50  H18 67S d   1      -2.607   5.555 -19.816  0.00  0.00     0.028 H 
ATOM     51  H19 67S d   1      -1.643   5.412 -21.326  0.00  0.00     0.028 H 
ENDBRANCH  42  48
ENDBRANCH   3  42
BRANCH   9  52
ATOM     52  C7  67S d   1      -6.307  11.076 -17.110  0.00  0.00     0.435 C 
ATOM     53  F2  67S d   1      -5.457  11.598 -16.245  0.00  0.00    -0.165 F 
ATOM     54  F1  67S d   1      -6.447  11.855 -18.174  0.00  0.00    -0.165 F 
ATOM     55  F3  67S d   1      -7.463  10.875 -16.497  0.00  0.00    -0.165 F 
ENDBRANCH   9  52
BRANCH  12  56
ATOM     56  C9  67S d   1      -5.311   9.047 -15.180  0.00  0.00     0.044 C 
ATOM     57  H25 67S d   1      -6.342   9.175 -14.818  0.00  0.00     0.081 H 
ATOM     58  H26 67S d   1      -4.733   9.959 -14.970  0.00  0.00     0.081 H 
BRANCH  56  59
ATOM     59  O1  67S d   1      -4.707   7.938 -14.505  0.00  0.00    -0.396 OA
ATOM     60  H27 67S d   1      -5.206   7.150 -14.684  0.00  0.00     0.209 HD
ENDBRANCH  56  59
ENDBRANCH  12  56
TORSDOF 11
