REMARK  7 active torsions:
REMARK  status: ('A' for Active; 'I' for Inactive)
REMARK    1  A    between atoms: C04_4  and  C07_7 
REMARK       I    between atoms: C07_7  and  N09_9 
REMARK    2  A    between atoms: N09_9  and  N10_10 
REMARK       I    between atoms: N10_10  and  C11_11 
REMARK    3  A    between atoms: C11_11  and  C13_13 
REMARK    4  A    between atoms: C16_16  and  C19_19 
REMARK    5  A    between atoms: C19_19  and  N20_20 
REMARK    6  A    between atoms: N20_20  and  S21_21 
REMARK    7  A    between atoms: S21_21  and  C24_24 
ROOT
ATOM      1  C13 67P d   1     -18.885  10.069 -28.286  0.00  0.00     0.033 A 
ATOM      2  C14 67P d   1     -18.110  10.239 -29.444  0.00  0.00    -0.067 A 
ATOM      3  C15 67P d   1     -16.890   9.586 -29.572  0.00  0.00    -0.074 A 
ATOM      4  C16 67P d   1     -16.424   8.760 -28.542  0.00  0.00    -0.040 A 
ATOM      5  C17 67P d   1     -17.193   8.597 -27.388  0.00  0.00    -0.074 A 
ATOM      6  C18 67P d   1     -18.422   9.257 -27.261  0.00  0.00    -0.067 A 
ATOM      7  H8  67P d   1     -18.465  10.882 -30.241  0.00  0.00     0.085 H 
ATOM      8  H9  67P d   1     -16.298   9.716 -30.471  0.00  0.00     0.084 H 
ATOM      9  H10 67P d   1     -16.838   7.958 -26.588  0.00  0.00     0.084 H 
ATOM     10  H11 67P d   1     -19.012   9.133 -26.360  0.00  0.00     0.085 H 
ENDROOT
BRANCH   1  11
ATOM     11  C11 67P d   1     -20.253  10.797 -28.120  0.00  0.00     0.270 C 
ATOM     12  N10 67P d   1     -20.679  11.073 -26.819  0.00  0.00    -0.263 N 
ATOM     13  H7  67P d   1     -20.072  10.778 -26.081  0.00  0.00     0.190 HD
ATOM     14  O12 67P d   1     -20.902  11.113 -29.083  0.00  0.00    -0.266 OA
BRANCH  12  15
ATOM     15  N09 67P d   1     -21.821  11.694 -26.445  0.00  0.00    -0.263 N 
ATOM     16  C07 67P d   1     -21.726  13.039 -25.977  0.00  0.00     0.270 C 
ATOM     17  O08 67P d   1     -20.625  13.598 -25.959  0.00  0.00    -0.266 OA
ATOM     18  H6  67P d   1     -22.703  11.226 -26.495  0.00  0.00     0.190 HD
BRANCH  16  19
ATOM     19  C04 67P d   1     -22.960  13.830 -25.485  0.00  0.00     0.033 A 
ATOM     20  C03 67P d   1     -24.154  13.158 -25.163  0.00  0.00    -0.068 A 
ATOM     21  C02 67P d   1     -25.262  13.887 -24.702  0.00  0.00    -0.082 A 
ATOM     22  H3  67P d   1     -24.218  12.081 -25.270  0.00  0.00     0.085 H 
ATOM     23  C01 67P d   1     -25.185  15.289 -24.553  0.00  0.00    -0.083 A 
ATOM     24  H2  67P d   1     -26.183  13.370 -24.459  0.00  0.00     0.083 H 
ATOM     25  C06 67P d   1     -23.997  15.957 -24.864  0.00  0.00    -0.082 A 
ATOM     26  H1  67P d   1     -26.045  15.846 -24.198  0.00  0.00     0.083 H 
ATOM     27  C05 67P d   1     -22.879  15.226 -25.326  0.00  0.00    -0.068 A 
ATOM     28  H5  67P d   1     -23.933  17.033 -24.751  0.00  0.00     0.083 H 
ATOM     29  H4  67P d   1     -21.955  15.743 -25.559  0.00  0.00     0.085 H 
ENDBRANCH  16  19
ENDBRANCH  12  15
ENDBRANCH   1  11
BRANCH   4  30
ATOM     30  C19 67P d   1     -15.072   8.027 -28.663  0.00  0.00     0.026 C 
ATOM     31  H12 67P d   1     -15.159   7.265 -29.451  0.00  0.00     0.072 H 
ATOM     32  H13 67P d   1     -14.855   7.538 -27.702  0.00  0.00     0.072 H 
BRANCH  30  33
ATOM     33  N20 67P d   1     -13.966   8.900 -28.992  0.00  0.00    -0.311 N 
ATOM     34  H14 67P d   1     -13.534   8.827 -29.891  0.00  0.00     0.172 HD
BRANCH  33  35
ATOM     35  S21 67P d   1     -13.400  10.019 -27.908  0.00  0.00     0.259 S 
ATOM     36  O22 67P d   1     -13.028   9.416 -26.669  0.00  0.00    -0.201 OA
ATOM     37  O23 67P d   1     -12.174  10.607 -28.365  0.00  0.00    -0.201 OA
BRANCH  35  38
ATOM     38  C24 67P d   1     -14.660  11.299 -27.713  0.00  0.00     0.081 A 
ATOM     39  C25 67P d   1     -14.829  12.251 -28.673  0.00  0.00    -0.057 A 
ATOM     40  C26 67P d   1     -15.816  13.229 -28.528  0.00  0.00    -0.043 A 
ATOM     41  H15 67P d   1     -14.195  12.249 -29.552  0.00  0.00     0.086 H 
ATOM     42  C27 67P d   1     -16.637  13.215 -27.382  0.00  0.00     0.138 A 
ATOM     43  H16 67P d   1     -15.949  13.990 -29.288  0.00  0.00     0.088 H 
ATOM     44  C28 67P d   1     -16.471  12.250 -26.420  0.00  0.00     0.074 A 
ATOM     45  F31 67P d   1     -17.585  14.155 -27.246  0.00  0.00    -0.204 F 
ATOM     46  C29 67P d   1     -15.493  11.285 -26.564  0.00  0.00    -0.036 A 
ATOM     47 CL   67P d   1     -17.479  12.204 -24.984  0.00  0.00    -0.081 Cl
ATOM     48  H17 67P d   1     -15.363  10.522 -25.805  0.00  0.00     0.088 H 
ENDBRANCH  35  38
ENDBRANCH  33  35
ENDBRANCH  30  33
ENDBRANCH   4  30
TORSDOF 7
