REMARK  8 active torsions:
REMARK  status: ('A' for Active; 'I' for Inactive)
REMARK    1  A    between atoms: S25_25  and  C04_4 
REMARK    2  A    between atoms: C07_7  and  C08_8 
REMARK    3  A    between atoms: N18_18  and  C07_7 
REMARK    4  A    between atoms: C10_10  and  C12_12 
REMARK       I    between atoms: C12_12  and  N22_22 
REMARK    5  A    between atoms: C13_13  and  C14_14 
REMARK    6  A    between atoms: N22_22  and  C13_13 
REMARK    7  A    between atoms: C16_16  and  C17_17 
REMARK    8  A    between atoms: N18_18  and  S25_25 
ROOT
ATOM      1  C08 67R d   1     -17.695  -9.361  28.697  0.00  0.00     0.070 A 
ATOM      2  C09 67R d   1     -18.454  -9.350  27.568  0.00  0.00     0.028 A 
ATOM      3  C10 67R d   1     -20.089 -10.493  28.580  0.00  0.00     0.141 A 
ATOM      4  C11 67R d   1     -19.344 -10.518  29.733  0.00  0.00     0.036 A 
ATOM      5  N19 67R d   1     -19.605  -9.883  27.505  0.00  0.00    -0.252 NA
ATOM      6  N20 67R d   1     -18.201  -9.973  29.796  0.00  0.00    -0.260 NA
ATOM      7  H6  67R d   1     -18.059  -8.865  26.683  0.00  0.00     0.118 H 
ATOM      8  H7  67R d   1     -19.742 -11.015  30.610  0.00  0.00     0.118 H 
ENDROOT
BRANCH   1   9
ATOM      9  C07 67R d   1     -16.323  -8.697  28.670  0.00  0.00     0.044 C 
ATOM     10  H4  67R d   1     -16.377  -7.752  29.229  0.00  0.00     0.074 H 
ATOM     11  H5  67R d   1     -16.052  -8.489  27.624  0.00  0.00     0.074 H 
BRANCH   9  12
ATOM     12  N18 67R d   1     -15.313  -9.513  29.250  0.00  0.00    -0.310 N 
ATOM     13  H14 67R d   1     -14.967  -9.364  30.176  0.00  0.00     0.172 HD
BRANCH  12  14
ATOM     14  S25 67R d   1     -14.774 -10.686  28.308  0.00  0.00     0.259 S 
ATOM     15  O26 67R d   1     -13.623 -11.352  29.051  0.00  0.00    -0.201 OA
ATOM     16  O27 67R d   1     -14.287 -10.175  27.087  0.00  0.00    -0.201 OA
BRANCH  14  17
ATOM     17  C04 67R d   1     -16.049 -11.893  28.135  0.00  0.00     0.081 A 
ATOM     18  C03 67R d   1     -16.776 -12.002  27.032  0.00  0.00    -0.036 A 
ATOM     19  C02 67R d   1     -17.761 -12.940  26.990  0.00  0.00     0.074 A 
ATOM     20  H1  67R d   1     -16.590 -11.357  26.181  0.00  0.00     0.088 H 
ATOM     21  C01 67R d   1     -17.995 -13.765  28.042  0.00  0.00     0.138 A 
ATOM     22 CL   67R d   1     -18.720 -13.152  25.619  0.00  0.00    -0.081 Cl
ATOM     23  C06 67R d   1     -17.279 -13.655  29.134  0.00  0.00    -0.043 A 
ATOM     24  F29 67R d   1     -18.934 -14.653  27.954  0.00  0.00    -0.204 F 
ATOM     25  C05 67R d   1     -16.304 -12.698  29.181  0.00  0.00    -0.057 A 
ATOM     26  H3  67R d   1     -17.456 -14.308  29.981  0.00  0.00     0.088 H 
ATOM     27  H2  67R d   1     -15.720 -12.585  30.087  0.00  0.00     0.086 H 
ENDBRANCH  14  17
ENDBRANCH  12  14
ENDBRANCH   9  12
ENDBRANCH   1   9
BRANCH   3  28
ATOM     28  C12 67R d   1     -21.485 -11.133  28.488  0.00  0.00     0.272 C 
ATOM     29  O21 67R d   1     -21.801 -12.004  29.257  0.00  0.00    -0.266 OA
ATOM     30  N22 67R d   1     -22.436 -10.672  27.463  0.00  0.00    -0.351 N 
ATOM     31  H15 67R d   1     -22.154  -9.948  26.834  0.00  0.00     0.163 HD
BRANCH  30  32
ATOM     32  C13 67R d   1     -23.681 -11.196  27.343  0.00  0.00     0.027 C 
ATOM     33  H8  67R d   1     -24.159 -11.236  28.333  0.00  0.00     0.072 H 
ATOM     34  H9  67R d   1     -24.282 -10.565  26.671  0.00  0.00     0.072 H 
BRANCH  32  35
ATOM     35  C14 67R d   1     -23.586 -12.589  26.773  0.00  0.00     0.019 A 
ATOM     36  C15 67R d   1     -22.453 -13.436  26.783  0.00  0.00     0.017 A 
ATOM     37  N24 67R d   1     -22.621 -14.633  26.190  0.00  0.00    -0.257 NA
ATOM     38  H10 67R d   1     -21.509 -13.140  27.239  0.00  0.00     0.116 H 
ATOM     39  C16 67R d   1     -23.857 -14.871  25.710  0.00  0.00     0.071 A 
ATOM     40  S23 67R d   1     -24.764 -13.519  25.982  0.00  0.00    -0.077 SA
BRANCH  39  41
ATOM     41  C17 67R d   1     -24.267 -16.120  25.044  0.00  0.00    -0.029 C 
ATOM     42  H11 67R d   1     -23.420 -16.822  25.028  0.00  0.00     0.036 H 
ATOM     43  H12 67R d   1     -24.581 -15.900  24.013  0.00  0.00     0.036 H 
ATOM     44  H13 67R d   1     -25.106 -16.571  25.594  0.00  0.00     0.036 H 
ENDBRANCH  39  41
ENDBRANCH  32  35
ENDBRANCH  30  32
ENDBRANCH   3  28
TORSDOF 8
