REMARK  9 active torsions:
REMARK  status: ('A' for Active; 'I' for Inactive)
REMARK    1  A    between atoms: C10_1  and  C09_18 
REMARK    2  A    between atoms: C11_2  and  C26_9 
REMARK    3  A    between atoms: C16_5  and  C13_3 
REMARK       I    between atoms: N18_22  and  C16_5 
REMARK    4  A    between atoms: C22_6  and  C25_8 
REMARK    5  A    between atoms: S07_16  and  C04_13 
REMARK    6  A    between atoms: N08_17  and  S07_16 
REMARK    7  A    between atoms: C09_18  and  N08_17 
REMARK    8  A    between atoms: C19_23  and  N18_22 
REMARK    9  A    between atoms: C19_23  and  C20_24 
ROOT
ATOM      1  C10 67Q d   1      17.879  95.898  28.542  0.00  0.00     0.076 A 
ATOM      2  C11 67Q d   1      18.787  95.529  27.586  0.00  0.00     0.058 A 
ATOM      3  C13 67Q d   1      20.319  96.978  28.413  0.00  0.00     0.142 A 
ATOM      4  C14 67Q d   1      19.411  97.355  29.377  0.00  0.00     0.036 A 
ATOM      5  N12 67Q d   1      19.994  96.061  27.526  0.00  0.00    -0.245 NA
ATOM      6  N15 67Q d   1      18.205  96.803  29.429  0.00  0.00    -0.259 NA
ATOM      7  H1  67Q d   1      19.685  98.112  30.103  0.00  0.00     0.118 H 
ENDROOT
BRANCH   1   8
ATOM      8  C09 67Q d   1      16.503  95.239  28.559  0.00  0.00     0.044 C 
ATOM      9  H13 67Q d   1      16.522  94.497  29.371  0.00  0.00     0.074 H 
ATOM     10  H14 67Q d   1      16.392  94.724  27.594  0.00  0.00     0.074 H 
BRANCH   8  11
ATOM     11  N08 67Q d   1      15.347  95.993  28.740  0.00  0.00    -0.310 N 
ATOM     12  H12 67Q d   1      14.693  95.615  29.395  0.00  0.00     0.172 HD
BRANCH  11  13
ATOM     13  S07 67Q d   1      14.904  97.374  28.060  0.00  0.00     0.259 S 
ATOM     14  O27 67Q d   1      13.915  97.822  28.819  0.00  0.00    -0.201 OA
ATOM     15  O28 67Q d   1      14.251  97.164  26.931  0.00  0.00    -0.201 OA
BRANCH  13  16
ATOM     16  C04 67Q d   1      16.225  98.502  27.957  0.00  0.00     0.082 A 
ATOM     17  C03 67Q d   1      17.078  98.388  26.933  0.00  0.00    -0.020 A 
ATOM     18  C02 67Q d   1      18.127  99.239  26.829  0.00  0.00     0.156 A 
ATOM     19  H9  67Q d   1      16.930  97.615  26.187  0.00  0.00     0.090 H 
ATOM     20  C01 67Q d   1      18.310 100.205  27.790  0.00  0.00     0.154 A 
ATOM     21  F29 67Q d   1      18.918  99.092  25.798  0.00  0.00    -0.203 F 
ATOM     22  C06 67Q d   1      17.441 100.312  28.830  0.00  0.00    -0.041 A 
ATOM     23  F30 67Q d   1      19.290 101.042  27.752  0.00  0.00    -0.203 F 
ATOM     24  C05 67Q d   1      16.399  99.448  28.916  0.00  0.00    -0.057 A 
ATOM     25  H11 67Q d   1      17.579 101.080  29.583  0.00  0.00     0.088 H 
ATOM     26  H10 67Q d   1      15.707  99.512  29.748  0.00  0.00     0.086 H 
ENDBRANCH  13  16
ENDBRANCH  11  13
ENDBRANCH   8  11
ENDBRANCH   1   8
BRANCH   2  27
ATOM     27  C26 67Q d   1      18.419  94.479  26.604  0.00  0.00    -0.034 C 
ATOM     28  H6  67Q d   1      19.260  94.310  25.916  0.00  0.00     0.035 H 
ATOM     29  H7  67Q d   1      17.537  94.804  26.032  0.00  0.00     0.035 H 
ATOM     30  H8  67Q d   1      18.187  93.544  27.136  0.00  0.00     0.035 H 
ENDBRANCH   2  27
BRANCH   3  31
ATOM     31  C16 67Q d   1      21.717  97.593  28.373  0.00  0.00     0.272 C 
ATOM     32  O17 67Q d   1      22.220  98.151  29.313  0.00  0.00    -0.266 OA
ATOM     33  N18 67Q d   1      22.447  97.443  27.184  0.00  0.00    -0.351 N 
ATOM     34  H15 67Q d   1      22.034  96.947  26.420  0.00  0.00     0.163 HD
BRANCH  33  35
ATOM     35  C19 67Q d   1      23.737  97.967  27.036  0.00  0.00     0.027 C 
ATOM     36  H16 67Q d   1      24.296  97.370  26.301  0.00  0.00     0.072 H 
ATOM     37  H17 67Q d   1      24.259  97.940  28.004  0.00  0.00     0.072 H 
BRANCH  35  38
ATOM     38  C20 67Q d   1      23.635  99.397  26.555  0.00  0.00     0.019 A 
ATOM     39  C24 67Q d   1      22.495 100.225  26.512  0.00  0.00     0.017 A 
ATOM     40  N23 67Q d   1      22.753 101.457  26.023  0.00  0.00    -0.257 NA
ATOM     41  H2  67Q d   1      21.507  99.904  26.840  0.00  0.00     0.116 H 
ATOM     42  C22 67Q d   1      23.985 101.723  25.666  0.00  0.00     0.071 A 
ATOM     43  S21 67Q d   1      24.858 100.369  25.937  0.00  0.00    -0.077 SA
BRANCH  42  44
ATOM     44  C25 67Q d   1      24.519 103.031  25.104  0.00  0.00    -0.029 C 
ATOM     45  H3  67Q d   1      23.700 103.761  25.034  0.00  0.00     0.036 H 
ATOM     46  H4  67Q d   1      24.940 102.855  24.103  0.00  0.00     0.036 H 
ATOM     47  H5  67Q d   1      25.303 103.423  25.768  0.00  0.00     0.036 H 
ENDBRANCH  42  44
ENDBRANCH  35  38
ENDBRANCH  33  35
ENDBRANCH   3  31
TORSDOF 9
