REMARK  3 active torsions:
REMARK  status: ('A' for Active; 'I' for Inactive)
REMARK    1  A    between atoms: N14_15  and  C15_3 
REMARK    2  A    between atoms: C2_5  and  C1_4 
REMARK    3  A    between atoms: C12_13  and  C3_6 
REMARK       I    between atoms: C12_13  and  N14_15 
ROOT
ATOM      1  C5  68C d   1     -12.517  38.380  23.781  0.00  0.00     0.116 A 
ATOM      2  C7  68C d   1     -14.684  37.958  23.811  0.00  0.00     0.068 A 
ATOM      3  C2  68C d   1     -10.820  37.358  22.531  0.00  0.00    -0.021 A 
ATOM      4  C3  68C d   1     -10.132  38.317  23.257  0.00  0.00     0.082 A 
ATOM      5  S4  68C d   1     -11.134  39.265  24.296  0.00  0.00    -0.063 SA
ATOM      6  N6  68C d   1     -13.729  38.690  24.289  0.00  0.00    -0.236 NA
ATOM      7  N8  68C d   1     -14.521  36.954  22.882  0.00  0.00    -0.317 N 
ATOM      8  C9  68C d   1     -13.302  36.614  22.344  0.00  0.00     0.260 A 
ATOM      9  O10 68C d   1     -13.205  35.720  21.517  0.00  0.00    -0.267 OA
ATOM     10  C11 68C d   1     -12.209  37.417  22.850  0.00  0.00     0.075 A 
ATOM     11  H1  68C d   1     -15.694  38.151  24.171  0.00  0.00     0.143 H 
ATOM     12  H5  68C d   1     -15.330  36.447  22.584  0.00  0.00     0.169 HD
ENDROOT
BRANCH   4  13
ATOM     13  C12 68C d   1      -8.673  38.687  23.335  0.00  0.00     0.265 C 
ATOM     14  O13 68C d   1      -8.246  39.299  24.299  0.00  0.00    -0.267 OA
ATOM     15  N14 68C d   1      -7.862  38.274  22.322  0.00  0.00    -0.300 N 
ATOM     16  H6  68C d   1      -8.274  37.753  21.575  0.00  0.00     0.171 HD
BRANCH  15  17
ATOM     17  C15 68C d   1      -6.510  38.529  22.262  0.00  0.00     0.196 A 
ATOM     18  N16 68C d   1      -5.778  38.303  21.195  0.00  0.00    -0.124 NA
ATOM     19  N17 68C d   1      -4.480  38.660  21.442  0.00  0.00    -0.153 NA
ATOM     20  C18 68C d   1      -4.273  39.109  22.638  0.00  0.00     0.065 A 
ATOM     21  S19 68C d   1      -5.679  39.165  23.627  0.00  0.00    -0.041 SA
ATOM     22  H7  68C d   1      -3.292  39.425  22.989  0.00  0.00     0.129 H 
ENDBRANCH  15  17
ENDBRANCH   4  13
BRANCH   3  23
ATOM     23  C1  68C d   1     -10.219  36.410  21.567  0.00  0.00    -0.049 C 
ATOM     24  H2  68C d   1      -9.134  36.581  21.512  0.00  0.00     0.033 H 
ATOM     25  H3  68C d   1     -10.665  36.565  20.574  0.00  0.00     0.033 H 
ATOM     26  H4  68C d   1     -10.411  35.379  21.898  0.00  0.00     0.033 H 
ENDBRANCH   3  23
TORSDOF 3
