REMARK  4 active torsions:
REMARK  status: ('A' for Active; 'I' for Inactive)
REMARK    1  A    between atoms: N2_15  and  C1_1 
REMARK    2  A    between atoms: C5_3  and  C3_2 
REMARK       I    between atoms: C3_2  and  N2_15 
REMARK    3  A    between atoms: C15_7  and  C14_22 
REMARK    4  A    between atoms: N22_12  and  C23_13 
ROOT
ATOM      1  C5  68U d   1      40.120  59.828  55.609  0.00  0.00     0.125 A 
ATOM      2  C7  68U d   1      41.728  60.236  53.966  0.00  0.00     0.082 A 
ATOM      3  C8  68U d   1      42.418  61.112  54.850  0.00  0.00     0.011 A 
ATOM      4  C11 68U d   1      43.590  61.740  54.401  0.00  0.00     0.014 A 
ATOM      5  N6  68U d   1      40.620  59.637  54.387  0.00  0.00    -0.242 NA
ATOM      6  C9  68U d   1      41.910  61.326  56.150  0.00  0.00    -0.067 A 
ATOM      7  C10 68U d   1      40.763  60.682  56.528  0.00  0.00    -0.049 A 
ATOM      8  N12 68U d   1      44.051  61.523  53.185  0.00  0.00    -0.271 NA
ATOM      9  C13 68U d   1      43.440  60.712  52.328  0.00  0.00     0.015 A 
ATOM     10  C14 68U d   1      42.274  60.046  52.663  0.00  0.00     0.021 A 
ATOM     11  H4  68U d   1      44.123  62.413  55.063  0.00  0.00     0.116 H 
ATOM     12  H12 68U d   1      42.421  61.990  56.838  0.00  0.00     0.085 H 
ATOM     13  H13 68U d   1      40.354  60.827  57.522  0.00  0.00     0.087 H 
ATOM     14  H14 68U d   1      43.866  60.568  51.341  0.00  0.00     0.116 H 
ENDROOT
BRANCH  10  15
ATOM     15  C15 68U d   1      41.635  59.141  51.696  0.00  0.00    -0.021 A 
ATOM     16  C16 68U d   1      41.540  57.789  52.017  0.00  0.00    -0.063 A 
ATOM     17  C17 68U d   1      40.947  56.892  51.146  0.00  0.00    -0.014 A 
ATOM     18  H5  68U d   1      41.936  57.435  52.962  0.00  0.00     0.085 H 
ATOM     19  C18 68U d   1      40.781  55.410  51.400  0.00  0.00     0.072 A 
ATOM     20  C24 68U d   1      40.431  57.306  49.928  0.00  0.00     0.051 A 
ATOM     21  S19 68U d   1      39.935  54.868  49.890  0.00  0.00     0.236 S 
ATOM     22  H6  68U d   1      40.166  55.223  52.293  0.00  0.00     0.066 H 
ATOM     23  H7  68U d   1      41.755  54.912  51.514  0.00  0.00     0.066 H 
ATOM     24  O20 68U d   1      38.590  54.527  50.182  0.00  0.00    -0.205 OA
ATOM     25  N22 68U d   1      39.847  56.325  49.104  0.00  0.00    -0.279 N 
ATOM     26  O21 68U d   1      40.821  54.084  49.113  0.00  0.00    -0.205 OA
ATOM     27  C25 68U d   1      40.545  58.690  49.606  0.00  0.00    -0.055 A 
ATOM     28  C26 68U d   1      41.135  59.588  50.473  0.00  0.00    -0.070 A 
ATOM     29  H15 68U d   1      40.159  59.046  48.658  0.00  0.00     0.087 H 
ATOM     30  H16 68U d   1      41.209  60.636  50.205  0.00  0.00     0.084 H 
BRANCH  25  31
ATOM     31  C23 68U d   1      39.248  56.516  47.777  0.00  0.00    -0.004 C 
ATOM     32  H8  68U d   1      39.321  57.576  47.491  0.00  0.00     0.058 H 
ATOM     33  H9  68U d   1      38.190  56.216  47.806  0.00  0.00     0.058 H 
ATOM     34  H10 68U d   1      39.784  55.900  47.041  0.00  0.00     0.058 H 
ENDBRANCH  25  31
ENDBRANCH  10  15
BRANCH   1  35
ATOM     35  C3  68U d   1      38.883  59.099  55.999  0.00  0.00     0.269 C 
ATOM     36  N2  68U d   1      38.053  58.645  55.033  0.00  0.00    -0.360 N 
ATOM     37  H11 68U d   1      38.276  58.819  54.074  0.00  0.00     0.162 HD
ATOM     38  O4  68U d   1      38.646  58.883  57.178  0.00  0.00    -0.266 OA
BRANCH  36  39
ATOM     39  C1  68U d   1      36.838  57.907  55.362  0.00  0.00    -0.018 C 
ATOM     40  H1  68U d   1      36.313  57.633  54.435  0.00  0.00     0.056 H 
ATOM     41  H2  68U d   1      36.183  58.537  55.982  0.00  0.00     0.056 H 
ATOM     42  H3  68U d   1      37.102  56.995  55.917  0.00  0.00     0.056 H 
ENDBRANCH  36  39
ENDBRANCH   1  35
TORSDOF 4
