REMARK  4 active torsions:
REMARK  status: ('A' for Active; 'I' for Inactive)
REMARK    1  A    between atoms: C15_11  and  C1_1 
REMARK    2  A    between atoms: N12_25  and  C15_11 
REMARK    3  A    between atoms: C18_13  and  N22_29 
REMARK    4  A    between atoms: N27_28  and  C29_21 
ROOT
ATOM      1  C1  6AJ d   1      36.996  49.169  37.154  0.00  0.00    -0.016 A 
ATOM      2  C2  6AJ d   1      36.427  47.979  36.605  0.00  0.00    -0.036 A 
ATOM      3  C3  6AJ d   1      35.068  48.011  36.218  0.00  0.00     0.117 A 
ATOM      4  C4  6AJ d   1      34.250  49.123  36.354  0.00  0.00    -0.044 A 
ATOM      5  C5  6AJ d   1      34.811  50.326  36.896  0.00  0.00    -0.059 A 
ATOM      6  C6  6AJ d   1      36.185  50.327  37.298  0.00  0.00     0.052 A 
ATOM      7  C30 6AJ d   1      36.721  51.531  37.790  0.00  0.00     0.100 C 
ATOM      8  N31 6AJ d   1      37.157  52.506  38.188  0.00  0.00    -0.191 NA
ATOM      9  F32 6AJ d   1      34.599  46.895  35.701  0.00  0.00    -0.206 F 
ATOM     10  H1  6AJ d   1      37.020  47.079  36.489  0.00  0.00     0.089 H 
ATOM     11  H2  6AJ d   1      33.208  49.083  36.057  0.00  0.00     0.088 H 
ATOM     12  H3  6AJ d   1      34.205  51.219  37.000  0.00  0.00     0.086 H 
ENDROOT
BRANCH   1  13
ATOM     13  C15 6AJ d   1      38.460  49.055  37.463  0.00  0.00     0.043 C 
ATOM     14  H4  6AJ d   1      39.013  49.516  36.631  0.00  0.00     0.073 H 
ATOM     15  H5  6AJ d   1      38.706  47.984  37.518  0.00  0.00     0.073 H 
BRANCH  13  16
ATOM     16  N12 6AJ d   1      38.932  49.692  38.727  0.00  0.00    -0.168 N 
ATOM     17  C8  6AJ d   1      38.554  49.446  40.006  0.00  0.00     0.167 A 
ATOM     18  C7  6AJ d   1      37.598  48.523  40.617  0.00  0.00     0.293 A 
ATOM     19  C9  6AJ d   1      39.355  50.294  40.784  0.00  0.00     0.195 A 
ATOM     20  N24 6AJ d   1      37.649  48.556  42.000  0.00  0.00    -0.136 N 
ATOM     21  O14 6AJ d   1      36.848  47.777  40.033  0.00  0.00    -0.265 OA
ATOM     22  C23 6AJ d   1      38.539  49.418  42.720  0.00  0.00     0.694 A 
ATOM     23  C25 6AJ d   1      36.885  47.721  42.909  0.00  0.00     0.094 A 
ATOM     24  N13 6AJ d   1      39.349  50.291  42.200  0.00  0.00    -0.171 N 
ATOM     25  N27 6AJ d   1      38.415  49.148  44.049  0.00  0.00    -0.153 N 
ATOM     26  H20 6AJ d   1      39.933  50.923  42.766  0.00  0.00     0.186 HD
ATOM     27  C26 6AJ d   1      37.486  48.148  44.240  0.00  0.00     0.256 A 
ATOM     28  O28 6AJ d   1      37.191  47.671  45.335  0.00  0.00    -0.271 OA
ATOM     29  H15 6AJ d   1      35.809  47.943  42.858  0.00  0.00     0.080 H 
ATOM     30  H16 6AJ d   1      37.048  46.651  42.713  0.00  0.00     0.080 H 
ATOM     31  N10 6AJ d   1      40.159  51.083  40.043  0.00  0.00    -0.043 NA
ATOM     32  C11 6AJ d   1      39.936  50.695  38.796  0.00  0.00     0.707 A 
ATOM     33  N16 6AJ d   1      40.547  51.159  37.673  0.00  0.00    -0.214 N 
ATOM     34  C17 6AJ d   1      40.802  52.610  37.681  0.00  0.00     0.038 C 
ATOM     35  C21 6AJ d   1      41.645  50.280  37.175  0.00  0.00     0.012 C 
ATOM     36  C18 6AJ d   1      41.161  53.119  36.274  0.00  0.00     0.116 C 
ATOM     37  H6  6AJ d   1      39.899  53.131  38.032  0.00  0.00     0.068 H 
ATOM     38  H7  6AJ d   1      41.637  52.824  38.364  0.00  0.00     0.068 H 
ATOM     39  C19 6AJ d   1      42.366  52.285  35.693  0.00  0.00    -0.036 C 
ATOM     40  H8  6AJ d   1      41.429  54.186  36.298  0.00  0.00     0.086 H 
ATOM     41  C20 6AJ d   1      42.074  50.724  35.763  0.00  0.00    -0.048 C 
ATOM     42  H9  6AJ d   1      43.271  52.507  36.278  0.00  0.00     0.036 H 
ATOM     43  H10 6AJ d   1      42.528  52.573  34.644  0.00  0.00     0.036 H 
ATOM     44  H11 6AJ d   1      42.987  50.179  35.481  0.00  0.00     0.035 H 
ATOM     45  H12 6AJ d   1      41.269  50.481  35.054  0.00  0.00     0.035 H 
ATOM     46  H13 6AJ d   1      42.506  50.350  37.856  0.00  0.00     0.065 H 
ATOM     47  H14 6AJ d   1      41.291  49.239  37.138  0.00  0.00     0.065 H 
BRANCH  25  48
ATOM     48  C29 6AJ d   1      39.156  49.779  45.136  0.00  0.00     0.005 C 
ATOM     49  H17 6AJ d   1      38.835  49.350  46.096  0.00  0.00     0.058 H 
ATOM     50  H18 6AJ d   1      38.959  50.861  45.134  0.00  0.00     0.058 H 
ATOM     51  H19 6AJ d   1      40.233  49.602  44.997  0.00  0.00     0.058 H 
ENDBRANCH  25  48
BRANCH  36  52
ATOM     52  N22 6AJ d   1      39.889  52.901  35.454  0.00  0.00    -0.073 N 
ATOM     53  H21 6AJ d   1      39.138  53.445  35.848  0.00  0.00     0.274 HD
ATOM     54  H22 6AJ d   1      39.641  51.924  35.472  0.00  0.00     0.274 HD
ATOM     55  H23 6AJ d   1      40.050  53.190  34.502  0.00  0.00     0.274 HD
ENDBRANCH  36  52
ENDBRANCH  13  16
ENDBRANCH   1  13
TORSDOF 4
