REMARK  5 active torsions:
REMARK  status: ('A' for Active; 'I' for Inactive)
REMARK    1  A    between atoms: CAD_4  and  CAH_5 
REMARK    2  A    between atoms: CAK_13  and  OAN_14 
REMARK    3  A    between atoms: OAN_14  and  CAO_15 
REMARK    4  A    between atoms: CAO_15  and  CAP_16 
REMARK    5  A    between atoms: CAO_15  and  CAQ_17 
ROOT
ATOM      1  CAJ 68Y d   1       2.048  -2.067   3.324  0.00  0.00    -0.023 A 
ATOM      2  CAF 68Y d   1       3.439  -2.175   3.430  0.00  0.00     0.058 A 
ATOM      3  NAE 68Y d   1       4.159  -2.116   2.245  0.00  0.00    -0.383 N 
ATOM      4  CAD 68Y d   1       5.385  -1.290   2.035  0.00  0.00     0.014 C 
ATOM      5  CAC 68Y d   1       6.041  -0.885   3.372  0.00  0.00     0.028 C 
ATOM      6  CAB 68Y d   1       6.357  -2.044   4.126  0.00  0.00     0.224 C 
ATOM      7  OAI 68Y d   1       7.507  -2.476   4.276  0.00  0.00    -0.273 OA
ATOM      8  NAA 68Y d   1       5.378  -2.694   4.809  0.00  0.00    -0.325 N 
ATOM      9  CAG 68Y d   1       4.010  -2.426   4.644  0.00  0.00     0.061 A 
ATOM     10  CAM 68Y d   1       3.234  -2.536   5.784  0.00  0.00    -0.052 A 
ATOM     11  CAL 68Y d   1       1.844  -2.509   5.678  0.00  0.00    -0.049 A 
ATOM     12  CAK 68Y d   1       1.240  -2.301   4.441  0.00  0.00     0.072 A 
ATOM     13  H1  68Y d   1       1.596  -1.802   2.375  0.00  0.00     0.091 H 
ATOM     14  H2  68Y d   1       3.823  -2.683   1.453  0.00  0.00     0.160 HD
ATOM     15  H3  68Y d   1       5.080  -0.370   1.515  0.00  0.00     0.072 H 
ATOM     16  H7  68Y d   1       5.343  -0.256   3.945  0.00  0.00     0.050 H 
ATOM     17  H8  68Y d   1       6.962  -0.319   3.170  0.00  0.00     0.050 H 
ATOM     18  H9  68Y d   1       5.646  -3.401   5.464  0.00  0.00     0.169 HD
ATOM     19  H10 68Y d   1       3.704  -2.643   6.755  0.00  0.00     0.087 H 
ATOM     20  H11 68Y d   1       1.232  -2.650   6.561  0.00  0.00     0.087 H 
ENDROOT
BRANCH  12  21
ATOM     21  OAN 68Y d   1      -0.138  -2.220   4.399  0.00  0.00    -0.342 OA
BRANCH  21  22
ATOM     22  CAO 68Y d   1      -0.807  -2.389   3.141  0.00  0.00     0.067 C 
ATOM     23  H12 68Y d   1      -0.399  -1.663   2.422  0.00  0.00     0.091 H 
BRANCH  22  24
ATOM     24  CAP 68Y d   1      -2.287  -2.109   3.390  0.00  0.00    -0.048 C 
ATOM     25  H13 68Y d   1      -2.846  -2.226   2.450  0.00  0.00     0.031 H 
ATOM     26  H14 68Y d   1      -2.408  -1.081   3.763  0.00  0.00     0.031 H 
ATOM     27  H15 68Y d   1      -2.674  -2.818   4.137  0.00  0.00     0.031 H 
ENDBRANCH  22  24
BRANCH  22  28
ATOM     28  CAQ 68Y d   1      -0.699  -3.696   2.578  0.00  0.00    -0.029 A 
ATOM     29  CAR 68Y d   1      -0.146  -4.814   3.213  0.00  0.00    -0.074 A 
ATOM     30  CAS 68Y d   1      -0.160  -6.062   2.549  0.00  0.00    -0.082 A 
ATOM     31  H16 68Y d   1       0.288  -4.724   4.202  0.00  0.00     0.084 H 
ATOM     32  CAT 68Y d   1      -0.644  -6.163   1.250  0.00  0.00    -0.083 A 
ATOM     33  H17 68Y d   1       0.209  -6.946   3.056  0.00  0.00     0.083 H 
ATOM     34  CAU 68Y d   1      -1.163  -5.036   0.619  0.00  0.00    -0.082 A 
ATOM     35  H18 68Y d   1      -0.618  -7.114   0.731  0.00  0.00     0.083 H 
ATOM     36  CAV 68Y d   1      -1.193  -3.828   1.285  0.00  0.00    -0.074 A 
ATOM     37  H19 68Y d   1      -1.543  -5.107  -0.394  0.00  0.00     0.083 H 
ATOM     38  H20 68Y d   1      -1.612  -2.961   0.788  0.00  0.00     0.084 H 
ENDBRANCH  22  28
ENDBRANCH  21  22
ENDBRANCH  12  21
BRANCH   4  39
ATOM     39  CAH 68Y d   1       6.405  -2.011   1.158  0.00  0.00    -0.057 C 
ATOM     40  H4  68Y d   1       7.291  -1.373   1.026  0.00  0.00     0.030 H 
ATOM     41  H5  68Y d   1       5.958  -2.225   0.176  0.00  0.00     0.030 H 
ATOM     42  H6  68Y d   1       6.701  -2.955   1.640  0.00  0.00     0.030 H 
ENDBRANCH   4  39
TORSDOF 5
