REMARK  4 active torsions:
REMARK  status: ('A' for Active; 'I' for Inactive)
REMARK    1  A    between atoms: CAB_9  and  CAL_10 
REMARK    2  A    between atoms: CAH_13  and  CAN_14 
REMARK       I    between atoms: CAN_14  and  NAO_16 
REMARK    3  A    between atoms: NAO_16  and  CAQ_17 
REMARK    4  A    between atoms: CAQ_17  and  CAR_18 
ROOT
ATOM      1  CAI 69A d   1     -53.130   4.293 -10.247  0.00  0.00    -0.065 A 
ATOM      2  CAJ 69A d   1     -53.990   5.370 -10.395  0.00  0.00    -0.080 A 
ATOM      3  CAK 69A d   1     -55.351   5.116 -10.557  0.00  0.00    -0.055 A 
ATOM      4  CAE 69A d   1     -55.823   3.804 -10.491  0.00  0.00     0.062 A 
ATOM      5  NAF 69A d   1     -57.191   3.606 -10.799  0.00  0.00    -0.325 N 
ATOM      6  CAG 69A d   1     -58.039   2.754 -10.134  0.00  0.00     0.224 C 
ATOM      7  OAM 69A d   1     -59.192   2.598 -10.587  0.00  0.00    -0.273 OA
ATOM      8  CAA 69A d   1     -57.561   2.125  -8.944  0.00  0.00     0.028 C 
ATOM      9  CAB 69A d   1     -56.567   0.995  -9.243  0.00  0.00     0.014 C 
ATOM     10  NAC 69A d   1     -55.451   1.435 -10.157  0.00  0.00    -0.383 N 
ATOM     11  CAD 69A d   1     -54.968   2.742 -10.260  0.00  0.00     0.071 A 
ATOM     12  CAH 69A d   1     -53.574   2.977 -10.179  0.00  0.00     0.060 A 
ATOM     13  H1  69A d   1     -52.065   4.485 -10.181  0.00  0.00     0.085 H 
ATOM     14  H2  69A d   1     -53.613   6.386 -10.385  0.00  0.00     0.083 H 
ATOM     15  H3  69A d   1     -56.040   5.934 -10.733  0.00  0.00     0.087 H 
ATOM     16  H4  69A d   1     -57.571   4.129 -11.562  0.00  0.00     0.169 HD
ATOM     17  H5  69A d   1     -58.418   1.707  -8.396  0.00  0.00     0.050 H 
ATOM     18  H6  69A d   1     -57.061   2.881  -8.321  0.00  0.00     0.050 H 
ATOM     19  H7  69A d   1     -56.106   0.701  -8.288  0.00  0.00     0.072 H 
ATOM     20  H11 69A d   1     -55.011   0.717 -10.751  0.00  0.00     0.160 HD
ENDROOT
BRANCH  12  21
ATOM     21  CAN 69A d   1     -52.621   1.951 -10.163  0.00  0.00     0.254 C 
ATOM     22  OAP 69A d   1     -52.895   0.798  -9.835  0.00  0.00    -0.268 OA
ATOM     23  NAO 69A d   1     -51.424   2.268 -10.710  0.00  0.00    -0.353 N 
ATOM     24  H12 69A d   1     -51.256   3.209 -11.003  0.00  0.00     0.163 HD
BRANCH  23  25
ATOM     25  CAQ 69A d   1     -50.363   1.260 -10.884  0.00  0.00     0.019 C 
ATOM     26  H13 69A d   1     -50.363   0.612  -9.995  0.00  0.00     0.071 H 
ATOM     27  H14 69A d   1     -49.401   1.789 -10.951  0.00  0.00     0.071 H 
BRANCH  25  28
ATOM     28  CAR 69A d   1     -50.486   0.431 -12.029  0.00  0.00    -0.041 C 
ATOM     29  CAS 69A d   1     -49.646  -0.673 -12.105  0.00  0.00    -0.075 C 
ATOM     30  CAT 69A d   1     -49.638  -1.515 -13.211  0.00  0.00    -0.082 C 
ATOM     31  H15 69A d   1     -48.978  -0.884 -11.278  0.00  0.00     0.084 H 
ATOM     32  CAU 69A d   1     -50.595  -1.342 -14.195  0.00  0.00    -0.083 C 
ATOM     33  H16 69A d   1     -48.892  -2.296 -13.301  0.00  0.00     0.083 H 
ATOM     34  CAV 69A d   1     -51.427  -0.232 -14.149  0.00  0.00    -0.082 C 
ATOM     35  H17 69A d   1     -50.694  -2.067 -14.995  0.00  0.00     0.083 H 
ATOM     36  CAW 69A d   1     -51.402   0.630 -13.051  0.00  0.00    -0.075 C 
ATOM     37  H18 69A d   1     -52.102  -0.033 -14.973  0.00  0.00     0.083 H 
ATOM     38  H19 69A d   1     -52.101   1.457 -12.997  0.00  0.00     0.084 H 
ENDBRANCH  25  28
ENDBRANCH  23  25
ENDBRANCH  12  21
BRANCH   9  39
ATOM     39  CAL 69A d   1     -57.293  -0.213  -9.789  0.00  0.00    -0.057 C 
ATOM     40  H8  69A d   1     -56.568  -1.013  -9.998  0.00  0.00     0.030 H 
ATOM     41  H9  69A d   1     -57.814   0.061 -10.718  0.00  0.00     0.030 H 
ATOM     42  H10 69A d   1     -58.025  -0.566  -9.048  0.00  0.00     0.030 H 
ENDBRANCH   9  39
TORSDOF 4
