REMARK  4 active torsions:
REMARK  status: ('A' for Active; 'I' for Inactive)
REMARK    1  A    between atoms: CAW_3  and  CAV_4 
REMARK    2  A    between atoms: NAT_8  and  CAX_9 
REMARK    3  A    between atoms: CAN_13  and  CAJ_14 
REMARK    4  A    between atoms: CAD_17  and  CAI_18 
ROOT
ATOM      1  CAV 69B d   1     -21.460  -0.874  22.577  0.00  0.00     0.071 A 
ATOM      2  CAR 69B d   1     -20.769  -1.775  23.325  0.00  0.00     0.020 A 
ATOM      3  CAS 69B d   1     -21.063  -2.526  24.423  0.00  0.00    -0.058 A 
ATOM      4  NAU 69B d   1     -20.674  -0.335  21.653  0.00  0.00    -0.176 NA
ATOM      5  NAT 69B d   1     -19.528  -0.943  21.743  0.00  0.00    -0.273 N 
ATOM      6  CAQ 69B d   1     -19.531  -1.811  22.782  0.00  0.00     0.064 A 
ATOM      7  CAP 69B d   1     -18.570  -2.643  23.260  0.00  0.00    -0.054 A 
ATOM      8  CAO 69B d   1     -18.860  -3.485  24.339  0.00  0.00    -0.070 A 
ATOM      9  CAN 69B d   1     -20.109  -3.415  24.978  0.00  0.00    -0.023 A 
ATOM     10  H6  69B d   1     -22.043  -2.442  24.880  0.00  0.00     0.086 H 
ATOM     11  H10 69B d   1     -17.585  -2.655  22.808  0.00  0.00     0.087 H 
ATOM     12  H11 69B d   1     -18.117  -4.195  24.684  0.00  0.00     0.084 H 
ENDROOT
BRANCH   9  13
ATOM     13  CAJ 69B d   1     -20.408  -4.161  26.164  0.00  0.00     0.003 A 
ATOM     14  CAF 69B d   1     -20.463  -5.573  26.203  0.00  0.00     0.066 A 
ATOM     15  NAE 69B d   1     -20.227  -6.286  25.012  0.00  0.00    -0.383 N 
ATOM     16  CAG 69B d   1     -20.862  -6.224  27.362  0.00  0.00     0.062 A 
ATOM     17  CAD 69B d   1     -19.189  -7.333  24.907  0.00  0.00     0.014 C 
ATOM     18  H12 69B d   1     -20.799  -6.070  24.183  0.00  0.00     0.160 HD
ATOM     19  CAC 69B d   1     -19.058  -8.125  26.237  0.00  0.00     0.028 C 
ATOM     20  H13 69B d   1     -18.223  -6.849  24.698  0.00  0.00     0.072 H 
ATOM     21  CAB 69B d   1     -20.334  -8.532  26.729  0.00  0.00     0.224 C 
ATOM     22  H17 69B d   1     -18.573  -7.485  26.988  0.00  0.00     0.050 H 
ATOM     23  H18 69B d   1     -18.441  -9.018  26.062  0.00  0.00     0.050 H 
ATOM     24  OAH 69B d   1     -20.757  -9.696  26.617  0.00  0.00    -0.273 OA
ATOM     25  NAA 69B d   1     -21.122  -7.599  27.374  0.00  0.00    -0.325 N 
ATOM     26  H19 69B d   1     -21.923  -7.924  27.877  0.00  0.00     0.169 HD
ATOM     27  CAM 69B d   1     -21.190  -5.511  28.520  0.00  0.00    -0.055 A 
ATOM     28  CAL 69B d   1     -21.084  -4.124  28.518  0.00  0.00    -0.080 A 
ATOM     29  H20 69B d   1     -21.523  -6.034  29.409  0.00  0.00     0.087 H 
ATOM     30  CAK 69B d   1     -20.740  -3.468  27.337  0.00  0.00    -0.070 A 
ATOM     31  H21 69B d   1     -21.267  -3.559  29.425  0.00  0.00     0.083 H 
ATOM     32  H22 69B d   1     -20.729  -2.384  27.325  0.00  0.00     0.084 H 
BRANCH  17  33
ATOM     33  CAI 69B d   1     -19.526  -8.262  23.749  0.00  0.00    -0.057 C 
ATOM     34  H14 69B d   1     -18.755  -9.042  23.669  0.00  0.00     0.030 H 
ATOM     35  H15 69B d   1     -19.562  -7.684  22.814  0.00  0.00     0.030 H 
ATOM     36  H16 69B d   1     -20.505  -8.731  23.928  0.00  0.00     0.030 H 
ENDBRANCH  17  33
ENDBRANCH   9  13
BRANCH   1  37
ATOM     37  CAW 69B d   1     -22.893  -0.364  22.800  0.00  0.00    -0.009 A 
ATOM     38  CAY 69B d   1     -23.719  -0.035  21.566  0.00  0.00    -0.056 A 
ATOM     39  CAZ 69B d   1     -24.083  -1.235  22.417  0.00  0.00    -0.056 A 
ATOM     40  H1  69B d   1     -24.369   0.852  21.561  0.00  0.00     0.034 H 
ATOM     41  H2  69B d   1     -23.291  -0.182  20.563  0.00  0.00     0.034 H 
ATOM     42  H3  69B d   1     -23.919  -2.252  22.032  0.00  0.00     0.034 H 
ATOM     43  H4  69B d   1     -24.997  -1.218  23.029  0.00  0.00     0.034 H 
ATOM     44  H5  69B d   1     -22.936   0.269  23.698  0.00  0.00     0.049 H 
ENDBRANCH   1  37
BRANCH   5  45
ATOM     45  CAX 69B d   1     -18.369  -0.542  20.918  0.00  0.00     0.003 C 
ATOM     46  H7  69B d   1     -17.510  -1.186  21.155  0.00  0.00     0.059 H 
ATOM     47  H8  69B d   1     -18.112   0.506  21.132  0.00  0.00     0.059 H 
ATOM     48  H9  69B d   1     -18.623  -0.647  19.853  0.00  0.00     0.059 H 
ENDBRANCH   5  45
TORSDOF 4
