REMARK  5 active torsions:
REMARK  status: ('A' for Active; 'I' for Inactive)
REMARK    1  A    between atoms: C12_7  and  C15_14 
REMARK    2  A    between atoms: C2_10  and  C1_9 
REMARK    3  A    between atoms: C19_18  and  O21_20 
REMARK    4  A    between atoms: O21_20  and  C22_21 
REMARK    5  A    between atoms: C22_21  and  C23_22 
ROOT
ATOM      1  C15 69F d   1      31.401  12.854  15.083  0.00  0.00    -0.021 A 
ATOM      2  C16 69F d   1      31.126  12.487  16.400  0.00  0.00    -0.072 A 
ATOM      3  C17 69F d   1      32.091  11.822  17.140  0.00  0.00    -0.080 A 
ATOM      4  C18 69F d   1      33.325  11.514  16.593  0.00  0.00    -0.051 A 
ATOM      5  C19 69F d   1      33.601  11.871  15.280  0.00  0.00     0.070 A 
ATOM      6  C20 69F d   1      32.649  12.547  14.530  0.00  0.00    -0.040 A 
ATOM      7  H12 69F d   1      30.164  12.720  16.842  0.00  0.00     0.084 H 
ATOM      8  H13 69F d   1      31.876  11.538  18.164  0.00  0.00     0.083 H 
ATOM      9  H14 69F d   1      34.071  10.997  17.186  0.00  0.00     0.087 H 
ATOM     10  H15 69F d   1      32.873  12.839  13.510  0.00  0.00     0.089 H 
ENDROOT
BRANCH   1  11
ATOM     11  C12 69F d   1      30.427  13.574  14.224  0.00  0.00     0.003 A 
ATOM     12  C11 69F d   1      30.742  14.873  13.800  0.00  0.00    -0.070 A 
ATOM     13  C10 69F d   1      29.875  15.583  12.992  0.00  0.00    -0.080 A 
ATOM     14  H3  69F d   1      31.677  15.325  14.110  0.00  0.00     0.084 H 
ATOM     15  C9  69F d   1      28.686  15.009  12.575  0.00  0.00    -0.055 A 
ATOM     16  H5  69F d   1      30.126  16.591  12.684  0.00  0.00     0.083 H 
ATOM     17  C8  69F d   1      28.350  13.732  13.003  0.00  0.00     0.062 A 
ATOM     18  H4  69F d   1      28.020  15.555  11.917  0.00  0.00     0.087 H 
ATOM     19  C13 69F d   1      29.212  12.984  13.824  0.00  0.00     0.066 A 
ATOM     20  N7  69F d   1      27.176  13.151  12.512  0.00  0.00    -0.325 N 
ATOM     21  N14 69F d   1      28.919  11.670  14.235  0.00  0.00    -0.383 N 
ATOM     22  C2  69F d   1      27.674  11.366  14.991  0.00  0.00     0.014 C 
ATOM     23  H11 69F d   1      29.575  10.909  14.009  0.00  0.00     0.160 HD
ATOM     24  C4  69F d   1      26.524  12.328  14.701  0.00  0.00     0.028 C 
ATOM     25  H9  69F d   1      27.902  11.406  16.066  0.00  0.00     0.072 H 
ATOM     26  C5  69F d   1      26.307  12.437  13.227  0.00  0.00     0.224 C 
ATOM     27  H1  69F d   1      25.606  11.953  15.177  0.00  0.00     0.050 H 
ATOM     28  H2  69F d   1      26.768  13.320  15.107  0.00  0.00     0.050 H 
ATOM     29  O6  69F d   1      25.349  11.934  12.660  0.00  0.00    -0.273 OA
ATOM     30  H10 69F d   1      26.971  13.283  11.542  0.00  0.00     0.169 HD
BRANCH  22  31
ATOM     31  C1  69F d   1      27.205   9.960  14.617  0.00  0.00    -0.057 C 
ATOM     32  H6  69F d   1      28.012   9.240  14.814  0.00  0.00     0.030 H 
ATOM     33  H7  69F d   1      26.942   9.933  13.549  0.00  0.00     0.030 H 
ATOM     34  H8  69F d   1      26.323   9.696  15.219  0.00  0.00     0.030 H 
ENDBRANCH  22  31
ENDBRANCH   1  11
BRANCH   5  35
ATOM     35  O21 69F d   1      34.817  11.563  14.752  0.00  0.00    -0.347 OA
BRANCH  35  36
ATOM     36  C22 69F d   1      35.094  11.867  13.379  0.00  0.00     0.050 C 
ATOM     37  H16 69F d   1      35.012  12.951  13.209  0.00  0.00     0.082 H 
ATOM     38  H17 69F d   1      34.385  11.338  12.725  0.00  0.00     0.082 H 
BRANCH  36  39
ATOM     39  C23 69F d   1      36.501  11.405  13.096  0.00  0.00    -0.034 A 
ATOM     40  C24 69F d   1      37.467  12.308  12.680  0.00  0.00    -0.075 A 
ATOM     41  C25 69F d   1      38.756  11.871  12.431  0.00  0.00    -0.082 A 
ATOM     42  H18 69F d   1      37.213  13.354  12.550  0.00  0.00     0.084 H 
ATOM     43  C26 69F d   1      39.080  10.536  12.605  0.00  0.00    -0.083 A 
ATOM     44  H19 69F d   1      39.512  12.574  12.100  0.00  0.00     0.083 H 
ATOM     45  C27 69F d   1      38.116   9.636  13.021  0.00  0.00    -0.082 A 
ATOM     46  H20 69F d   1      40.092  10.196  12.415  0.00  0.00     0.083 H 
ATOM     47  C28 69F d   1      36.827  10.072  13.272  0.00  0.00    -0.075 A 
ATOM     48  H21 69F d   1      38.370   8.590  13.150  0.00  0.00     0.083 H 
ATOM     49  H22 69F d   1      36.073   9.369  13.607  0.00  0.00     0.084 H 
ENDBRANCH  36  39
ENDBRANCH  35  36
ENDBRANCH   5  35
TORSDOF 5
