REMARK  30 active torsions:
REMARK  status: ('A' for Active; 'I' for Inactive)
REMARK    1  A    between atoms: N_1  and  CA_2 
REMARK    2  A    between atoms: CA_2  and  C_3 
REMARK    3  A    between atoms: CA_2  and  CB_5 
REMARK       I    between atoms: C_3  and  N_6 
REMARK    4  A    between atoms: N_6  and  CA_7 
REMARK    5  A    between atoms: CA_7  and  C_8 
REMARK    6  A    between atoms: CA_7  and  CB_10 
REMARK       I    between atoms: C_8  and  N_13 
REMARK    7  A    between atoms: CB_10  and  CG1_11 
REMARK    8  A    between atoms: CB_10  and  CG2_12 
REMARK    9  A    between atoms: N_13  and  CA_14 
REMARK   10  A    between atoms: CA_14  and  C_15 
REMARK       I    between atoms: C_15  and  N_17 
REMARK   11  A    between atoms: N_17  and  CA_18 
REMARK   12  A    between atoms: CA_18  and  C_19 
REMARK   13  A    between atoms: CA_18  and  CB_21 
REMARK       I    between atoms: C_19  and  N_25 
REMARK   14  A    between atoms: CB_21  and  CG1_22 
REMARK   15  A    between atoms: CB_21  and  CG2_23 
REMARK   16  A    between atoms: CG1_22  and  CD1_24 
REMARK   17  A    between atoms: N_25  and  CA_26 
REMARK   18  A    between atoms: CA_26  and  C_27 
REMARK       I    between atoms: C_27  and  N_29 
REMARK   19  A    between atoms: N_29  and  CA_30 
REMARK   20  A    between atoms: CA_30  and  C_31 
REMARK   21  A    between atoms: CA_30  and  CB_33 
REMARK       I    between atoms: C_31  and  N_34 
REMARK   22  A    between atoms: N_34  and  CA_35 
REMARK   23  A    between atoms: CA_35  and  C_36 
REMARK   24  A    between atoms: CA_35  and  CB_38 
REMARK       I    between atoms: C_36  and  N_41 
REMARK   25  A    between atoms: CB_38  and  CG1_39 
REMARK   26  A    between atoms: CB_38  and  CG2_40 
REMARK   27  A    between atoms: N_41  and  CA_42 
REMARK   28  A    between atoms: CA_42  and  C_43 
REMARK   29  A    between atoms: CA_42  and  CB_45 
REMARK   30  A    between atoms: CB_45  and  CG_46 
ROOT
ATOM      1  N   GLY d   1      -4.967  17.210 -19.453  0.00  0.00    -0.351 N 
ATOM      2  H31 GLY d   1      -4.538  17.163 -18.551  0.00  0.00     0.163 HD
ATOM      3  C   ILE d   1      -5.872  16.302 -19.800  0.00  0.00     0.241 C 
ATOM      4  O   ILE d   1      -6.651  16.484 -20.744  0.00  0.00    -0.271 OA
ENDROOT
BRANCH   3   5
ATOM      5  CA  ILE d   1      -6.080  15.112 -18.835  0.00  0.00     0.092 C 
ATOM      6  H21 ILE d   1      -5.461  14.298 -19.240  0.00  0.00     0.088 H 
BRANCH   5   7
ATOM      7  N   ILE d   1      -5.595  15.367 -17.482  0.00  0.00    -0.346 N 
ATOM      8  C   GLY d   1      -4.634  14.645 -16.926  0.00  0.00     0.236 C 
ATOM      9  O   GLY d   1      -4.154  13.650 -17.465  0.00  0.00    -0.272 OA
ATOM     10  H20 ILE d   1      -6.003  16.113 -16.956  0.00  0.00     0.163 HD
BRANCH   8  11
ATOM     11  CA  GLY d   1      -4.284  15.004 -15.498  0.00  0.00     0.069 C 
ATOM     12  H18 GLY d   1      -3.515  15.790 -15.500  0.00  0.00     0.078 H 
ATOM     13  H19 GLY d   1      -5.185  15.373 -14.986  0.00  0.00     0.078 H 
BRANCH  11  14
ATOM     14  N   GLY d   1      -3.775  13.837 -14.791  0.00  0.00    -0.351 N 
ATOM     15  C   VAL d   1      -3.941  13.706 -13.479  0.00  0.00     0.241 C 
ATOM     16  O   VAL d   1      -4.543  14.543 -12.804  0.00  0.00    -0.271 OA
ATOM     17  H17 GLY d   1      -3.293  13.124 -15.300  0.00  0.00     0.163 HD
BRANCH  15  18
ATOM     18  CA  VAL d   1      -3.346  12.449 -12.845  0.00  0.00     0.092 C 
ATOM     19  H9  VAL d   1      -2.402  12.220 -13.361  0.00  0.00     0.088 H 
BRANCH  18  20
ATOM     20  N   VAL d   1      -3.044  12.657 -11.435  0.00  0.00    -0.346 N 
ATOM     21  C   ALA d   1      -2.119  13.537 -11.072  0.00  0.00     0.248 C 
ATOM     22  O   ALA d   1      -1.448  14.179 -11.890  0.00  0.00    -0.271 OA
ATOM     23  H8  VAL d   1      -3.535  12.135 -10.738  0.00  0.00     0.163 HD
BRANCH  21  24
ATOM     24  CA  ALA d   1      -1.923  13.728  -9.575  0.00  0.00     0.172 C 
ATOM     25  H4  ALA d   1      -1.933  12.741  -9.089  0.00  0.00     0.098 H 
BRANCH  24  26
ATOM     26  N   ALA d   1      -0.631  14.357  -9.329  0.00  0.00    -0.067 N 
ATOM     27  H1  ALA d   1      -0.502  14.483  -8.337  0.00  0.00     0.275 HD
ATOM     28  H2  ALA d   1      -0.601  15.254  -9.788  0.00  0.00     0.275 HD
ATOM     29  H3  ALA d   1       0.103  13.769  -9.691  0.00  0.00     0.275 HD
ENDBRANCH  24  26
BRANCH  24  30
ATOM     30  CB  ALA d   1      -3.053  14.570  -8.986  0.00  0.00    -0.042 C 
ATOM     31  H5  ALA d   1      -4.017  14.078  -9.182  0.00  0.00     0.030 H 
ATOM     32  H6  ALA d   1      -3.048  15.567  -9.451  0.00  0.00     0.030 H 
ATOM     33  H7  ALA d   1      -2.907  14.671  -7.900  0.00  0.00     0.030 H 
ENDBRANCH  24  30
ENDBRANCH  21  24
ENDBRANCH  18  20
BRANCH  18  34
ATOM     34  CB  VAL d   1      -4.304  11.259 -13.048  0.00  0.00    -0.033 C 
ATOM     35  H10 VAL d   1      -4.510  11.158 -14.124  0.00  0.00     0.042 H 
BRANCH  34  36
ATOM     36  CG1 VAL d   1      -3.647   9.985 -12.555  0.00  0.00    -0.071 C 
ATOM     37  H11 VAL d   1      -4.333   9.138 -12.701  0.00  0.00     0.028 H 
ATOM     38  H12 VAL d   1      -3.411  10.085 -11.485  0.00  0.00     0.028 H 
ATOM     39  H13 VAL d   1      -2.720   9.808 -13.120  0.00  0.00     0.028 H 
ENDBRANCH  34  36
BRANCH  34  40
ATOM     40  CG2 VAL d   1      -5.637  11.473 -12.319  0.00  0.00    -0.071 C 
ATOM     41  H14 VAL d   1      -6.108  12.399 -12.681  0.00  0.00     0.028 H 
ATOM     42  H15 VAL d   1      -5.455  11.553 -11.237  0.00  0.00     0.028 H 
ATOM     43  H16 VAL d   1      -6.304  10.621 -12.516  0.00  0.00     0.028 H 
ENDBRANCH  34  40
ENDBRANCH  18  34
ENDBRANCH  15  18
ENDBRANCH  11  14
ENDBRANCH   8  11
ENDBRANCH   5   7
BRANCH   5  44
ATOM     44  CB  ILE d   1      -7.534  14.554 -18.764  0.00  0.00    -0.030 C 
ATOM     45  H22 ILE d   1      -7.500  13.720 -18.047  0.00  0.00     0.043 H 
BRANCH  44  46
ATOM     46  CG1 ILE d   1      -7.954  13.927 -20.097  0.00  0.00    -0.063 C 
ATOM     47  H23 ILE d   1      -7.095  13.386 -20.520  0.00  0.00     0.033 H 
ATOM     48  H24 ILE d   1      -8.258  14.729 -20.785  0.00  0.00     0.033 H 
BRANCH  46  49
ATOM     49  CD1 ILE d   1      -9.094  12.971 -19.939  0.00  0.00    -0.076 C 
ATOM     50  H28 ILE d   1      -9.357  12.549 -20.920  0.00  0.00     0.027 H 
ATOM     51  H29 ILE d   1      -9.963  13.502 -19.523  0.00  0.00     0.027 H 
ATOM     52  H30 ILE d   1      -8.800  12.159 -19.258  0.00  0.00     0.027 H 
ENDBRANCH  46  49
ENDBRANCH  44  46
BRANCH  44  53
ATOM     53  CG2 ILE d   1      -8.519  15.539 -18.174  0.00  0.00    -0.071 C 
ATOM     54  H25 ILE d   1      -8.124  15.928 -17.224  0.00  0.00     0.028 H 
ATOM     55  H26 ILE d   1      -9.479  15.034 -17.992  0.00  0.00     0.028 H 
ATOM     56  H27 ILE d   1      -8.670  16.372 -18.877  0.00  0.00     0.028 H 
ENDBRANCH  44  53
ENDBRANCH   5  44
ENDBRANCH   3   5
BRANCH   1  57
ATOM     57  CA  GLY d   1      -4.594  18.274 -20.377  0.00  0.00     0.069 C 
ATOM     58  H32 GLY d   1      -4.895  17.963 -21.388  0.00  0.00     0.078 H 
ATOM     59  H33 GLY d   1      -3.501  18.387 -20.338  0.00  0.00     0.078 H 
BRANCH  57  60
ATOM     60  C   GLY d   1      -5.212  19.634 -20.104  0.00  0.00     0.236 C 
ATOM     61  O   GLY d   1      -6.006  19.797 -19.184  0.00  0.00    -0.272 OA
ATOM     62  N   ALA d   1      -4.833  20.624 -20.911  0.00  0.00    -0.347 N 
ATOM     63  H34 ALA d   1      -4.192  20.428 -21.653  0.00  0.00     0.163 HD
BRANCH  62  64
ATOM     64  CA  ALA d   1      -5.326  21.984 -20.742  0.00  0.00     0.086 C 
ATOM     65  H35 ALA d   1      -5.130  22.288 -19.703  0.00  0.00     0.086 H 
BRANCH  64  66
ATOM     66  C   ALA d   1      -6.827  22.114 -20.991  0.00  0.00     0.240 C 
ATOM     67  O   ALA d   1      -7.396  21.388 -21.814  0.00  0.00    -0.271 OA
ATOM     68  N   VAL d   1      -7.463  23.047 -20.292  0.00  0.00    -0.346 N 
ATOM     69  H39 VAL d   1      -6.954  23.578 -19.615  0.00  0.00     0.163 HD
BRANCH  68  70
ATOM     70  CA  VAL d   1      -8.887  23.319 -20.485  0.00  0.00     0.092 C 
ATOM     71  H40 VAL d   1      -9.255  22.665 -21.289  0.00  0.00     0.088 H 
BRANCH  70  72
ATOM     72  C   VAL d   1      -9.076  24.769 -20.915  0.00  0.00     0.241 C 
ATOM     73  O   VAL d   1      -8.103  25.482 -21.128  0.00  0.00    -0.271 OA
ATOM     74  N   PHE d   1     -10.324  25.196 -21.049  0.00  0.00    -0.344 N 
ATOM     75  H48 PHE d   1     -11.082  24.591 -20.805  0.00  0.00     0.163 HD
BRANCH  74  76
ATOM     76  CA  PHE d   1     -10.605  26.539 -21.548  0.00  0.00     0.100 C 
ATOM     77  H49 PHE d   1      -9.672  27.122 -21.525  0.00  0.00     0.090 H 
BRANCH  76  78
ATOM     78  C   PHE d   1     -11.633  27.244 -20.672  0.00  0.00     0.197 C 
ATOM     79  O   PHE d   1     -12.821  26.916 -20.717  0.00  0.00    -0.646 OA
ATOM     80  OXT PHE d   1     -11.287  28.149 -19.910  0.00  0.00    -0.646 OA
ENDBRANCH  76  78
BRANCH  76  81
ATOM     81  CB  PHE d   1     -11.099  26.465 -22.994  0.00  0.00    -0.013 C 
ATOM     82  H50 PHE d   1     -12.030  25.880 -23.012  0.00  0.00     0.043 H 
ATOM     83  H51 PHE d   1     -10.333  25.954 -23.595  0.00  0.00     0.043 H 
BRANCH  81  84
ATOM     84  CG  PHE d   1     -11.372  27.808 -23.618  0.00  0.00    -0.056 A 
ATOM     85  CD1 PHE d   1     -10.363  28.503 -24.265  0.00  0.00    -0.077 A 
ATOM     86  CE1 PHE d   1     -10.614  29.737 -24.846  0.00  0.00    -0.082 A 
ATOM     87  H52 PHE d   1      -9.367  28.078 -24.318  0.00  0.00     0.084 H 
ATOM     88  CZ  PHE d   1     -11.881  30.284 -24.784  0.00  0.00    -0.083 A 
ATOM     89  H54 PHE d   1      -9.816  30.272 -25.349  0.00  0.00     0.083 H 
ATOM     90  CE2 PHE d   1     -12.895  29.600 -24.146  0.00  0.00    -0.082 A 
ATOM     91  H56 PHE d   1     -12.078  31.249 -25.236  0.00  0.00     0.083 H 
ATOM     92  CD2 PHE d   1     -12.640  28.368 -23.568  0.00  0.00    -0.077 A 
ATOM     93  H55 PHE d   1     -13.890  30.027 -24.097  0.00  0.00     0.083 H 
ATOM     94  H53 PHE d   1     -13.441  27.834 -23.070  0.00  0.00     0.084 H 
ENDBRANCH  81  84
ENDBRANCH  76  81
ENDBRANCH  74  76
ENDBRANCH  70  72
BRANCH  70  95
ATOM     95  CB  VAL d   1      -9.716  23.026 -19.211  0.00  0.00    -0.033 C 
ATOM     96  H41 VAL d   1     -10.713  23.473 -19.341  0.00  0.00     0.042 H 
BRANCH  95  97
ATOM     97  CG1 VAL d   1      -9.891  21.513 -19.043  0.00  0.00    -0.071 C 
ATOM     98  H42 VAL d   1     -10.480  21.311 -18.137  0.00  0.00     0.028 H 
ATOM     99  H43 VAL d   1      -8.903  21.038 -18.952  0.00  0.00     0.028 H 
ATOM    100  H44 VAL d   1     -10.415  21.105 -19.920  0.00  0.00     0.028 H 
ENDBRANCH  95  97
BRANCH  95 101
ATOM    101  CG2 VAL d   1      -9.074  23.663 -17.965  0.00  0.00    -0.071 C 
ATOM    102  H45 VAL d   1      -8.965  24.746 -18.122  0.00  0.00     0.028 H 
ATOM    103  H46 VAL d   1      -8.084  23.216 -17.793  0.00  0.00     0.028 H 
ATOM    104  H47 VAL d   1      -9.715  23.482 -17.089  0.00  0.00     0.028 H 
ENDBRANCH  95 101
ENDBRANCH  70  95
ENDBRANCH  68  70
ENDBRANCH  64  66
BRANCH  64 105
ATOM    105  CB  ALA d   1      -4.562  22.919 -21.674  0.00  0.00    -0.049 C 
ATOM    106  H36 ALA d   1      -4.933  23.947 -21.547  0.00  0.00     0.030 H 
ATOM    107  H37 ALA d   1      -4.712  22.601 -22.716  0.00  0.00     0.030 H 
ATOM    108  H38 ALA d   1      -3.490  22.884 -21.430  0.00  0.00     0.030 H 
ENDBRANCH  64 105
ENDBRANCH  62  64
ENDBRANCH  57  60
ENDBRANCH   1  57
TORSDOF 30
