REMARK  8 active torsions:
REMARK  status: ('A' for Active; 'I' for Inactive)
REMARK    1  A    between atoms: N_3  and  C_4 
REMARK    2  A    between atoms: C7_6  and  O2_17 
REMARK    3  A    between atoms: C1_8  and  N1_9 
REMARK    4  A    between atoms: O2_17  and  C8_18 
REMARK    5  A    between atoms: C8_18  and  C9_19 
REMARK    6  A    between atoms: C12_23  and  O3_27 
REMARK    7  A    between atoms: O3_27  and  C13_28 
REMARK    8  A    between atoms: C17_30  and  C18_31 
ROOT
ATOM      1  O2  VQ7 d   1     125.859  33.217  25.880  0.00  0.00    -0.330 OA
ENDROOT
BRANCH   1   2
ATOM      2  C7  VQ7 d   1     125.166  32.118  25.433  0.00  0.00     0.173 A 
ATOM      3  N2  VQ7 d   1     123.833  32.235  25.334  0.00  0.00    -0.169 NA
ATOM      4  C22 VQ7 d   1     123.104  31.191  24.904  0.00  0.00     0.351 A 
ATOM      5  O4  VQ7 d   1     121.861  31.301  24.803  0.00  0.00    -0.244 OA
ATOM      6  N   VQ7 d   1     123.647  30.021  24.567  0.00  0.00    -0.288 N 
ATOM      7  C1  VQ7 d   1     125.002  29.815  24.652  0.00  0.00     0.113 A 
ATOM      8  C6  VQ7 d   1     125.771  30.903  25.100  0.00  0.00     0.011 A 
ATOM      9  H4  VQ7 d   1     126.851  30.798  25.189  0.00  0.00     0.096 H 
BRANCH   6  10
ATOM     10  C   VQ7 d   1     122.606  29.061  24.154  0.00  0.00    -0.008 C 
ATOM     11  H1  VQ7 d   1     121.621  29.548  24.197  0.00  0.00     0.057 H 
ATOM     12  H2  VQ7 d   1     122.617  28.195  24.831  0.00  0.00     0.057 H 
ATOM     13  H3  VQ7 d   1     122.804  28.725  23.126  0.00  0.00     0.057 H 
ENDBRANCH   6  10
BRANCH   7  14
ATOM     14  N1  VQ7 d   1     125.702  28.610  24.320  0.00  0.00    -0.365 N 
ATOM     15  C5  VQ7 d   1     126.998  28.363  24.962  0.00  0.00     0.009 C 
ATOM     16  C4  VQ7 d   1     127.197  26.844  25.091  0.00  0.00     0.043 C 
ATOM     17  H5  VQ7 d   1     127.012  28.825  25.960  0.00  0.00     0.065 H 
ATOM     18  H6  VQ7 d   1     127.804  28.792  24.348  0.00  0.00     0.065 H 
ATOM     19  S   VQ7 d   1     127.232  26.066  23.612  0.00  0.00     0.147 S 
ATOM     20  H7  VQ7 d   1     126.369  26.431  25.686  0.00  0.00     0.058 H 
ATOM     21  H8  VQ7 d   1     128.149  26.657  25.609  0.00  0.00     0.058 H 
ATOM     22  O   VQ7 d   1     126.738  24.718  23.711  0.00  0.00    -0.228 OA
ATOM     23  O1  VQ7 d   1     128.564  26.050  23.089  0.00  0.00    -0.228 OA
ATOM     24  C3  VQ7 d   1     126.288  26.926  22.568  0.00  0.00     0.043 C 
ATOM     25  C2  VQ7 d   1     125.189  27.612  23.364  0.00  0.00     0.009 C 
ATOM     26  H9  VQ7 d   1     125.841  26.247  21.827  0.00  0.00     0.058 H 
ATOM     27  H10 VQ7 d   1     126.899  27.681  22.052  0.00  0.00     0.058 H 
ATOM     28  H11 VQ7 d   1     124.511  28.118  22.660  0.00  0.00     0.065 H 
ATOM     29  H12 VQ7 d   1     124.632  26.846  23.923  0.00  0.00     0.065 H 
ENDBRANCH   7  14
ENDBRANCH   1   2
BRANCH   1  30
ATOM     30  C8  VQ7 d   1     125.146  34.344  26.433  0.00  0.00     0.051 C 
ATOM     31  H13 VQ7 d   1     124.206  34.003  26.890  0.00  0.00     0.082 H 
ATOM     32  H14 VQ7 d   1     124.924  35.072  25.639  0.00  0.00     0.082 H 
BRANCH  30  33
ATOM     33  C9  VQ7 d   1     126.027  34.985  27.486  0.00  0.00    -0.028 A 
ATOM     34  C21 VQ7 d   1     126.493  36.289  27.315  0.00  0.00    -0.035 A 
ATOM     35  C20 VQ7 d   1     127.313  36.873  28.279  0.00  0.00     0.153 A 
ATOM     36  H15 VQ7 d   1     126.216  36.850  26.430  0.00  0.00     0.089 H 
ATOM     37  F4  VQ7 d   1     127.770  38.127  28.104  0.00  0.00    -0.203 F 
ATOM     38  C12 VQ7 d   1     127.663  36.166  29.421  0.00  0.00     0.153 A 
ATOM     39  C11 VQ7 d   1     127.207  34.868  29.592  0.00  0.00     0.153 A 
ATOM     40  F   VQ7 d   1     127.590  34.219  30.719  0.00  0.00    -0.203 F 
ATOM     41  C10 VQ7 d   1     126.392  34.273  28.626  0.00  0.00    -0.035 A 
ATOM     42  H16 VQ7 d   1     126.043  33.256  28.764  0.00  0.00     0.089 H 
BRANCH  38  43
ATOM     43  O3  VQ7 d   1     128.497  36.706  30.381  0.00  0.00    -0.304 OA
BRANCH  43  44
ATOM     44  C13 VQ7 d   1     129.791  36.197  30.428  0.00  0.00     0.077 A 
ATOM     45  C19 VQ7 d   1     130.689  36.548  31.435  0.00  0.00    -0.034 A 
ATOM     46  C17 VQ7 d   1     131.981  36.019  31.445  0.00  0.00     0.072 A 
ATOM     47  H17 VQ7 d   1     130.382  37.236  32.215  0.00  0.00     0.089 H 
ATOM     48  C16 VQ7 d   1     132.372  35.128  30.456  0.00  0.00     0.049 A 
ATOM     49 CL   VQ7 d   1     134.034  34.444  30.471  0.00  0.00    -0.083 Cl
ATOM     50  C15 VQ7 d   1     131.485  34.762  29.447  0.00  0.00    -0.059 A 
ATOM     51  C14 VQ7 d   1     130.211  35.306  29.436  0.00  0.00    -0.049 A 
ATOM     52  H18 VQ7 d   1     131.788  34.059  28.679  0.00  0.00     0.086 H 
ATOM     53  H19 VQ7 d   1     129.525  35.035  28.641  0.00  0.00     0.087 H 
BRANCH  46  54
ATOM     54  C18 VQ7 d   1     132.958  36.402  32.533  0.00  0.00     0.419 C 
ATOM     55  F3  VQ7 d   1     133.889  35.469  32.664  0.00  0.00    -0.166 F 
ATOM     56  F2  VQ7 d   1     133.565  37.540  32.246  0.00  0.00    -0.166 F 
ATOM     57  F1  VQ7 d   1     132.299  36.538  33.671  0.00  0.00    -0.166 F 
ENDBRANCH  46  54
ENDBRANCH  43  44
ENDBRANCH  38  43
ENDBRANCH  30  33
ENDBRANCH   1  30
TORSDOF 8
