REMARK  9 active torsions:
REMARK  status: ('A' for Active; 'I' for Inactive)
REMARK       I    between atoms: N12_1  and  C13_2 
REMARK    1  A    between atoms: C11_18  and  N12_1 
REMARK    2  A    between atoms: C13_2  and  C14_19 
REMARK    3  A    between atoms: C14_19  and  C15_3 
REMARK    4  A    between atoms: C26_6  and  N27_28 
REMARK       I    between atoms: N27_28  and  C28_7 
REMARK    5  A    between atoms: C28_7  and  C29_29 
REMARK    6  A    between atoms: C23_25  and  N03_10 
REMARK    7  A    between atoms: C06_13  and  O07_14 
REMARK    8  A    between atoms: O07_14  and  C08_15 
REMARK    9  A    between atoms: C29_29  and  C30_30 
ROOT
ATOM      1  C01 69V d   1     115.835 157.552  40.673  0.00  0.00    -0.025 C 
ATOM      2  C02 69V d   1     114.427 157.860  40.204  0.00  0.00    -0.001 C 
ATOM      3  N03 69V d   1     113.437 157.770  41.213  0.00  0.00    -0.358 N 
ATOM      4  C04 69V d   1     113.459 156.885  42.317  0.00  0.00    -0.001 C 
ATOM      5  C05 69V d   1     114.842 156.292  42.487  0.00  0.00    -0.025 C 
ATOM      6  C06 69V d   1     115.952 157.267  42.156  0.00  0.00     0.050 C 
ATOM      7  H4  69V d   1     116.473 158.417  40.437  0.00  0.00     0.039 H 
ATOM      8  H5  69V d   1     116.195 156.670  40.124  0.00  0.00     0.039 H 
ATOM      9  H6  69V d   1     114.168 157.150  39.405  0.00  0.00     0.064 H 
ATOM     10  H7  69V d   1     114.415 158.884  39.802  0.00  0.00     0.064 H 
ATOM     11  H8  69V d   1     112.735 156.075  42.147  0.00  0.00     0.064 H 
ATOM     12  H9  69V d   1     113.186 157.436  43.229  0.00  0.00     0.064 H 
ATOM     13  H10 69V d   1     114.933 155.420  41.823  0.00  0.00     0.039 H 
ATOM     14  H11 69V d   1     114.959 155.971  43.532  0.00  0.00     0.039 H 
ATOM     15  H12 69V d   1     116.927 156.803  42.368  0.00  0.00     0.084 H 
ENDROOT
BRANCH   6  16
ATOM     16  O07 69V d   1     115.842 158.451  42.917  0.00  0.00    -0.322 OA
BRANCH  16  17
ATOM     17  C08 69V d   1     117.130 158.824  43.357  0.00  0.00     0.233 A 
ATOM     18  N09 69V d   1     117.471 159.292  44.566  0.00  0.00    -0.114 NA
ATOM     19  N10 69V d   1     118.774 159.565  44.740  0.00  0.00    -0.121 NA
ATOM     20  C11 69V d   1     119.596 159.345  43.692  0.00  0.00     0.198 A 
ATOM     21  S22 69V d   1     118.579 158.747  42.441  0.00  0.00    -0.003 SA
BRANCH  20  22
ATOM     22  N12 69V d   1     121.015 159.516  43.580  0.00  0.00    -0.304 N 
ATOM     23  C13 69V d   1     121.797 160.434  44.335  0.00  0.00     0.227 C 
ATOM     24  O21 69V d   1     123.002 160.457  44.131  0.00  0.00    -0.273 OA
ATOM     25  H1  69V d   1     121.495 158.942  42.916  0.00  0.00     0.171 HD
BRANCH  23  26
ATOM     26  C14 69V d   1     121.138 161.331  45.378  0.00  0.00     0.033 C 
ATOM     27  H13 69V d   1     121.537 161.028  46.357  0.00  0.00     0.054 H 
ATOM     28  H14 69V d   1     120.058 161.123  45.342  0.00  0.00     0.054 H 
BRANCH  26  29
ATOM     29  C15 69V d   1     121.299 162.837  45.284  0.00  0.00    -0.050 A 
ATOM     30  C20 69V d   1     120.471 163.640  46.061  0.00  0.00    -0.076 A 
ATOM     31  C19 69V d   1     120.589 165.023  46.006  0.00  0.00    -0.082 A 
ATOM     32  H3  69V d   1     119.732 163.186  46.711  0.00  0.00     0.084 H 
ATOM     33  C18 69V d   1     121.544 165.605  45.180  0.00  0.00    -0.083 A 
ATOM     34  H17 69V d   1     119.937 165.648  46.606  0.00  0.00     0.083 H 
ATOM     35  C17 69V d   1     122.378 164.806  44.406  0.00  0.00    -0.082 A 
ATOM     36  H16 69V d   1     121.639 166.684  45.139  0.00  0.00     0.083 H 
ATOM     37  C16 69V d   1     122.255 163.422  44.463  0.00  0.00    -0.076 A 
ATOM     38  H2  69V d   1     123.121 165.260  43.761  0.00  0.00     0.083 H 
ATOM     39  H15 69V d   1     122.908 162.797  43.864  0.00  0.00     0.084 H 
ENDBRANCH  26  29
ENDBRANCH  23  26
ENDBRANCH  20  22
ENDBRANCH  16  17
ENDBRANCH   6  16
BRANCH   3  40
ATOM     40  C23 69V d   1     112.347 158.684  41.081  0.00  0.00     0.193 A 
ATOM     41  N24 69V d   1     111.929 159.593  41.977  0.00  0.00    -0.122 NA
ATOM     42  N25 69V d   1     110.882 160.362  41.629  0.00  0.00    -0.121 NA
ATOM     43  C26 69V d   1     110.367 160.149  40.406  0.00  0.00     0.198 A 
ATOM     44  S37 69V d   1     111.308 158.882  39.716  0.00  0.00    -0.011 SA
BRANCH  43  45
ATOM     45  N27 69V d   1     109.274 160.820  39.819  0.00  0.00    -0.304 N 
ATOM     46  C28 69V d   1     108.951 162.138  40.220  0.00  0.00     0.227 C 
ATOM     47  O36 69V d   1     109.611 162.712  41.060  0.00  0.00    -0.273 OA
ATOM     48  H18 69V d   1     108.726 160.363  39.118  0.00  0.00     0.171 HD
BRANCH  46  49
ATOM     49  C29 69V d   1     107.781 162.863  39.606  0.00  0.00     0.033 C 
ATOM     50  H19 69V d   1     106.876 162.702  40.211  0.00  0.00     0.054 H 
ATOM     51  H20 69V d   1     107.607 162.501  38.582  0.00  0.00     0.054 H 
BRANCH  49  52
ATOM     52  C30 69V d   1     108.137 164.333  39.584  0.00  0.00    -0.050 A 
ATOM     53  C31 69V d   1     109.139 164.788  38.724  0.00  0.00    -0.076 A 
ATOM     54  C32 69V d   1     109.482 166.132  38.708  0.00  0.00    -0.082 A 
ATOM     55  H21 69V d   1     109.649 164.091  38.069  0.00  0.00     0.084 H 
ATOM     56  C33 69V d   1     108.820 167.010  39.559  0.00  0.00    -0.083 A 
ATOM     57  H22 69V d   1     110.256 166.493  38.041  0.00  0.00     0.083 H 
ATOM     58  C34 69V d   1     107.825 166.556  40.423  0.00  0.00    -0.082 A 
ATOM     59  H23 69V d   1     109.081 168.062  39.550  0.00  0.00     0.083 H 
ATOM     60  C35 69V d   1     107.482 165.212  40.441  0.00  0.00    -0.076 A 
ATOM     61  H24 69V d   1     107.319 167.253  41.081  0.00  0.00     0.083 H 
ATOM     62  H25 69V d   1     106.713 164.851  41.114  0.00  0.00     0.084 H 
ENDBRANCH  49  52
ENDBRANCH  46  49
ENDBRANCH  43  45
ENDBRANCH   3  40
TORSDOF 9
