REMARK  16 active torsions:
REMARK  status: ('A' for Active; 'I' for Inactive)
REMARK    1  A    between atoms: C01_1  and  C05_2 
REMARK    2  A    between atoms: C05_2  and  N08_3 
REMARK    3  A    between atoms: N08_3  and  C09_4 
REMARK    4  A    between atoms: N08_3  and  C16_6 
REMARK    5  A    between atoms: C09_4  and  C12_5 
REMARK    6  A    between atoms: C16_6  and  C19_7 
REMARK    7  A    between atoms: C19_7  and  N22_8 
REMARK    8  A    between atoms: N22_8  and  C23_9 
REMARK       I    between atoms: N22_8  and  C50_26 
REMARK    9  A    between atoms: C23_9  and  C26_10 
REMARK   10  A    between atoms: C31_13  and  C36_16 
REMARK   11  A    between atoms: C41_19  and  C46_22 
REMARK   12  A    between atoms: C50_26  and  C52_28 
REMARK   13  A    between atoms: C52_28  and  N55_29 
REMARK   14  A    between atoms: C70_38  and  S71_39 
REMARK   15  A    between atoms: S71_39  and  C72_40 
REMARK   16  A    between atoms: C72_40  and  C75_41 
ROOT
ATOM      1  N22 5HV d   1     203.202  23.550 114.075  0.00  0.00    -0.345 N 
ATOM      2  C50 5HV d   1     201.875  23.494 113.456  0.00  0.00     0.238 C 
ATOM      3  O51 5HV d   1     200.937  22.933 113.995  0.00  0.00    -0.272 OA
ENDROOT
BRANCH   1   4
ATOM      4  C19 5HV d   1     203.409  22.911 115.419  0.00  0.00     0.021 C 
ATOM      5  H14 5HV d   1     204.452  23.076 115.727  0.00  0.00     0.067 H 
ATOM      6  H15 5HV d   1     202.733  23.391 116.142  0.00  0.00     0.067 H 
BRANCH   4   7
ATOM      7  C16 5HV d   1     203.128  21.373 115.423  0.00  0.00     0.098 C 
ATOM      8  H12 5HV d   1     202.185  21.166 114.896  0.00  0.00     0.078 H 
ATOM      9  H13 5HV d   1     203.952  20.843 114.922  0.00  0.00     0.078 H 
BRANCH   7  10
ATOM     10  N08 5HV d   1     203.026  20.927 116.820  0.00  0.00    -0.070 N 
ATOM     11  H6  5HV d   1     202.814  21.754 117.356  0.00  0.00     0.279 HD
BRANCH  10  12
ATOM     12  C05 5HV d   1     204.268  20.415 117.375  0.00  0.00     0.080 C 
ATOM     13  H4  5HV d   1     204.708  21.194 118.015  0.00  0.00     0.075 H 
ATOM     14  H5  5HV d   1     204.035  19.528 117.983  0.00  0.00     0.075 H 
BRANCH  12  15
ATOM     15  C01 5HV d   1     205.297  20.020 116.328  0.00  0.00    -0.053 C 
ATOM     16  H1  5HV d   1     206.203  19.645 116.827  0.00  0.00     0.029 H 
ATOM     17  H2  5HV d   1     205.553  20.897 115.716  0.00  0.00     0.029 H 
ATOM     18  H3  5HV d   1     204.881  19.232 115.683  0.00  0.00     0.029 H 
ENDBRANCH  12  15
ENDBRANCH  10  12
BRANCH  10  19
ATOM     19  C09 5HV d   1     201.912  20.037 117.011  0.00  0.00     0.080 C 
ATOM     20  H7  5HV d   1     201.018  20.496 116.565  0.00  0.00     0.075 H 
ATOM     21  H8  5HV d   1     201.754  19.902 118.091  0.00  0.00     0.075 H 
BRANCH  19  22
ATOM     22  C12 5HV d   1     202.123  18.642 116.366  0.00  0.00    -0.053 C 
ATOM     23  H9  5HV d   1     201.238  18.016 116.549  0.00  0.00     0.029 H 
ATOM     24  H10 5HV d   1     203.009  18.163 116.809  0.00  0.00     0.029 H 
ATOM     25  H11 5HV d   1     202.272  18.758 115.282  0.00  0.00     0.029 H 
ENDBRANCH  19  22
ENDBRANCH  10  19
ENDBRANCH   7  10
ENDBRANCH   4   7
ENDBRANCH   1   4
BRANCH   1  26
ATOM     26  C23 5HV d   1     204.304  24.253 113.347  0.00  0.00     0.021 C 
ATOM     27  H16 5HV d   1     203.905  24.689 112.419  0.00  0.00     0.071 H 
ATOM     28  H17 5HV d   1     205.095  23.529 113.102  0.00  0.00     0.071 H 
BRANCH  26  29
ATOM     29  C26 5HV d   1     204.905  25.393 114.235  0.00  0.00    -0.040 A 
ATOM     30  C27 5HV d   1     206.237  25.788 114.065  0.00  0.00    -0.074 A 
ATOM     31  C29 5HV d   1     206.765  26.804 114.862  0.00  0.00    -0.072 A 
ATOM     32  H18 5HV d   1     206.856  25.306 113.317  0.00  0.00     0.084 H 
ATOM     33  C31 5HV d   1     205.928  27.434 115.811  0.00  0.00    -0.026 A 
ATOM     34  H19 5HV d   1     207.801  27.105 114.755  0.00  0.00     0.084 H 
ATOM     35  C32 5HV d   1     204.617  27.037 115.986  0.00  0.00    -0.072 A 
ATOM     36  C34 5HV d   1     204.093  26.011 115.182  0.00  0.00    -0.074 A 
ATOM     37  H20 5HV d   1     203.997  27.513 116.737  0.00  0.00     0.084 H 
ATOM     38  H21 5HV d   1     203.061  25.702 115.299  0.00  0.00     0.084 H 
BRANCH  33  39
ATOM     39  C36 5HV d   1     206.416  28.415 116.675  0.00  0.00    -0.026 A 
ATOM     40  C37 5HV d   1     207.719  28.192 117.183  0.00  0.00    -0.071 A 
ATOM     41  C39 5HV d   1     208.288  29.088 118.094  0.00  0.00    -0.068 A 
ATOM     42  H22 5HV d   1     208.279  27.321 116.864  0.00  0.00     0.084 H 
ATOM     43  C41 5HV d   1     207.544  30.199 118.524  0.00  0.00     0.048 A 
ATOM     44  H23 5HV d   1     209.294  28.926 118.465  0.00  0.00     0.084 H 
ATOM     45  C42 5HV d   1     206.221  30.419 118.046  0.00  0.00    -0.068 A 
ATOM     46  C44 5HV d   1     205.650  29.520 117.122  0.00  0.00    -0.071 A 
ATOM     47  H24 5HV d   1     205.654  31.276 118.392  0.00  0.00     0.084 H 
ATOM     48  H25 5HV d   1     204.640  29.672 116.759  0.00  0.00     0.084 H 
BRANCH  43  49
ATOM     49  C46 5HV d   1     208.246  31.125 119.538  0.00  0.00     0.417 C 
ATOM     50  F47 5HV d   1     208.874  32.136 118.899  0.00  0.00    -0.166 F 
ATOM     51  F48 5HV d   1     207.355  31.602 120.425  0.00  0.00    -0.166 F 
ATOM     52  F49 5HV d   1     209.102  30.340 120.216  0.00  0.00    -0.166 F 
ENDBRANCH  43  49
ENDBRANCH  33  39
ENDBRANCH  26  29
ENDBRANCH   1  26
BRANCH   2  53
ATOM     53  C52 5HV d   1     201.642  24.139 112.107  0.00  0.00     0.075 C 
ATOM     54  H26 5HV d   1     201.936  23.449 111.302  0.00  0.00     0.079 H 
ATOM     55  H27 5HV d   1     202.226  25.067 112.026  0.00  0.00     0.079 H 
BRANCH  53  56
ATOM     56  N55 5HV d   1     200.201  24.438 112.016  0.00  0.00    -0.323 N 
ATOM     57  C56 5HV d   1     199.366  23.489 111.524  0.00  0.00     0.012 A 
ATOM     58  C57 5HV d   1     199.666  22.062 111.005  0.00  0.00    -0.014 A 
ATOM     59  C66 5HV d   1     197.989  23.751 111.433  0.00  0.00     0.079 A 
ATOM     60  C60 5HV d   1     198.352  21.528 110.539  0.00  0.00    -0.100 A 
ATOM     61  H28 5HV d   1     200.072  21.436 111.813  0.00  0.00     0.047 H 
ATOM     62  H29 5HV d   1     200.384  22.098 110.173  0.00  0.00     0.047 H 
ATOM     63  C63 5HV d   1     197.292  22.525 110.855  0.00  0.00    -0.088 A 
ATOM     64  H30 5HV d   1     198.195  20.568 110.049  0.00  0.00     0.076 H 
ATOM     65  H31 5HV d   1     196.221  22.401 110.702  0.00  0.00     0.078 H 
ATOM     66  C67 5HV d   1     197.515  25.002 111.872  0.00  0.00     0.258 A 
ATOM     67  H32 5HV d   1     198.077  24.178 110.423  0.00  0.00     0.070 H 
ATOM     68  O68 5HV d   1     196.324  25.252 111.786  0.00  0.00    -0.270 OA
ATOM     69  N69 5HV d   1     198.398  25.931 112.369  0.00  0.00    -0.188 NA
ATOM     70  C70 5HV d   1     199.720  25.645 112.444  0.00  0.00     0.172 A 
BRANCH  70  71
ATOM     71  S71 5HV d   1     200.849  26.859 113.082  0.00  0.00    -0.087 SA
BRANCH  71  72
ATOM     72  C72 5HV d   1     199.915  28.403 113.378  0.00  0.00     0.008 C 
ATOM     73  H33 5HV d   1     198.870  28.167 113.629  0.00  0.00     0.056 H 
ATOM     74  H34 5HV d   1     199.942  29.036 112.479  0.00  0.00     0.056 H 
BRANCH  72  75
ATOM     75  C75 5HV d   1     200.589  29.141 114.564  0.00  0.00    -0.048 A 
ATOM     76  C76 5HV d   1     200.431  28.617 115.862  0.00  0.00    -0.073 A 
ATOM     77  C78 5HV d   1     201.033  29.263 116.935  0.00  0.00    -0.045 A 
ATOM     78  H35 5HV d   1     199.846  27.719 116.022  0.00  0.00     0.084 H 
ATOM     79  C80 5HV d   1     201.788  30.424 116.727  0.00  0.00     0.116 A 
ATOM     80  H36 5HV d   1     200.918  28.867 117.937  0.00  0.00     0.088 H 
ATOM     81  F81 5HV d   1     202.353  31.028 117.768  0.00  0.00    -0.206 F 
ATOM     82  C82 5HV d   1     201.940  30.943 115.430  0.00  0.00    -0.045 A 
ATOM     83  C84 5HV d   1     201.337  30.293 114.339  0.00  0.00    -0.073 A 
ATOM     84  H37 5HV d   1     202.522  31.844 115.271  0.00  0.00     0.088 H 
ATOM     85  H38 5HV d   1     201.453  30.684 113.335  0.00  0.00     0.084 H 
ENDBRANCH  72  75
ENDBRANCH  71  72
ENDBRANCH  70  71
ENDBRANCH  53  56
ENDBRANCH   2  53
TORSDOF 16
