REMARK WARNING: 32 MAX_TORS EXCEEDED!!!
REMARK  53 active torsions:
REMARK  status: ('A' for Active; 'I' for Inactive)
REMARK    1  A    between atoms: N_1  and  CA_2 
REMARK    2  A    between atoms: CA_2  and  C_3 
REMARK    3  A    between atoms: CA_2  and  CB_5 
REMARK       I    between atoms: C_3  and  N_9 
REMARK    4  A    between atoms: CB_5  and  CG_6 
REMARK       I    between atoms: CG_6  and  ND2_8 
REMARK    5  A    between atoms: N_9  and  CA_10 
REMARK    6  A    between atoms: CA_10  and  C_11 
REMARK    7  A    between atoms: CA_10  and  CB_13 
REMARK       I    between atoms: C_11  and  N_14 
REMARK    8  A    between atoms: N_14  and  CA_15 
REMARK    9  A    between atoms: CA_15  and  C_16 
REMARK   10  A    between atoms: CA_15  and  CB_18 
REMARK       I    between atoms: C_16  and  N_22 
REMARK   11  A    between atoms: CB_18  and  CG_19 
REMARK   12  A    between atoms: CG_19  and  CD1_20 
REMARK   13  A    between atoms: CG_19  and  CD2_21 
REMARK   14  A    between atoms: N_22  and  CA_23 
REMARK   15  A    between atoms: CA_23  and  C_24 
REMARK   16  A    between atoms: CA_23  and  CB_26 
REMARK       I    between atoms: C_24  and  N_30 
REMARK   17  A    between atoms: CB_26  and  CG_27 
REMARK   18  A    between atoms: CG_27  and  CD1_28 
REMARK   19  A    between atoms: CG_27  and  CD2_29 
REMARK   20  A    between atoms: N_30  and  CA_31 
REMARK   21  A    between atoms: CA_31  and  C_32 
REMARK   22  A    between atoms: CA_31  and  CB_34 
REMARK       I    between atoms: C_32  and  N_41 
REMARK   23  A    between atoms: CB_34  and  CG_35 
REMARK   24  A    between atoms: CG_35  and  CD_36 
REMARK   25  A    between atoms: CD_36  and  NE_37 
REMARK       I    between atoms: NE_37  and  CZ_38 
REMARK       I    between atoms: CZ_38  and  NH1_39 
REMARK   26  A    between atoms: N_41  and  CA_42 
REMARK   27  A    between atoms: CA_42  and  C_43 
REMARK   28  A    between atoms: CA_42  and  CB_45 
REMARK       I    between atoms: C_43  and  N_53 
REMARK   29  A    between atoms: CB_45  and  CG_46 
REMARK   30  A    between atoms: CZ_51  and  OH_52 
REMARK   31  A    between atoms: N_53  and  CA_54 
REMARK   32  A    between atoms: CA_54  and  C_55 
REMARK   33  A    between atoms: CA_54  and  CB_57 
REMARK       I    between atoms: C_55  and  N_61 
REMARK   34  A    between atoms: CB_57  and  CG_58 
REMARK   35  A    between atoms: CG_58  and  CD1_59 
REMARK   36  A    between atoms: CG_58  and  CD2_60 
REMARK   37  A    between atoms: N_61  and  CA_62 
REMARK   38  A    between atoms: CA_62  and  C_63 
REMARK   39  A    between atoms: CA_62  and  CB_65 
REMARK       I    between atoms: C_63  and  N_69 
REMARK   40  A    between atoms: CB_65  and  CG_66 
REMARK   41  A    between atoms: CG_66  and  CD1_67 
REMARK   42  A    between atoms: CG_66  and  CD2_68 
REMARK   43  A    between atoms: N_69  and  CA_70 
REMARK   44  A    between atoms: CA_70  and  C_71 
REMARK   45  A    between atoms: CA_70  and  CB_73 
REMARK       I    between atoms: C_71  and  N_77 
REMARK   46  A    between atoms: CB_73  and  CG_74 
REMARK   47  A    between atoms: N_77  and  CA_78 
REMARK   48  A    between atoms: CA_78  and  C_79 
REMARK   49  A    between atoms: CA_78  and  CB_81 
REMARK   50  A    between atoms: CB_81  and  CG_82 
REMARK   51  A    between atoms: CG_82  and  CD_83 
REMARK   52  A    between atoms: CD_83  and  CE_84 
REMARK   53  A    between atoms: CE_84  and  NZ_85 
ROOT
ATOM      1  CA  TYR d   1      -5.042  45.381   0.825  0.00  0.00     0.093 C 
ATOM      2  H50 TYR d   1      -5.869  45.414   0.101  0.00  0.00     0.088 H 
ENDROOT
BRANCH   1   3
ATOM      3  N   TYR d   1      -5.227  46.450   1.761  0.00  0.00    -0.346 N 
ATOM      4  C   ARG d   1      -6.375  46.600   2.374  0.00  0.00     0.241 C 
ATOM      5  O   ARG d   1      -7.326  45.809   2.192  0.00  0.00    -0.271 OA
ATOM      6  H49 TYR d   1      -4.477  47.084   1.947  0.00  0.00     0.163 HD
BRANCH   4   7
ATOM      7  CA  ARG d   1      -6.424  47.736   3.435  0.00  0.00     0.089 C 
ATOM      8  H37 ARG d   1      -7.204  47.477   4.165  0.00  0.00     0.087 H 
BRANCH   7   9
ATOM      9  N   ARG d   1      -5.139  47.771   4.114  0.00  0.00    -0.346 N 
ATOM     10  C   LEU d   1      -4.825  46.772   4.924  0.00  0.00     0.241 C 
ATOM     11  O   LEU d   1      -5.574  45.816   5.107  0.00  0.00    -0.271 OA
ATOM     12  H36 ARG d   1      -4.506  48.532   3.972  0.00  0.00     0.163 HD
BRANCH  10  13
ATOM     13  CA  LEU d   1      -3.509  46.879   5.659  0.00  0.00     0.089 C 
ATOM     14  H26 LEU d   1      -3.100  45.870   5.815  0.00  0.00     0.087 H 
BRANCH  13  15
ATOM     15  N   LEU d   1      -2.537  47.653   4.871  0.00  0.00    -0.346 N 
ATOM     16  C   LEU d   1      -2.162  47.209   3.676  0.00  0.00     0.241 C 
ATOM     17  O   LEU d   1      -2.495  46.094   3.262  0.00  0.00    -0.271 OA
ATOM     18  H25 LEU d   1      -2.162  48.507   5.232  0.00  0.00     0.163 HD
BRANCH  16  19
ATOM     19  CA  LEU d   1      -1.298  48.107   2.817  0.00  0.00     0.089 C 
ATOM     20  H15 LEU d   1      -1.265  47.659   1.813  0.00  0.00     0.087 H 
BRANCH  19  21
ATOM     21  N   LEU d   1      -1.802  49.487   2.652  0.00  0.00    -0.346 N 
ATOM     22  C   ALA d   1      -2.845  49.813   1.882  0.00  0.00     0.240 C 
ATOM     23  O   ALA d   1      -3.590  48.990   1.415  0.00  0.00    -0.271 OA
ATOM     24  H14 LEU d   1      -1.335  50.220   3.146  0.00  0.00     0.163 HD
BRANCH  22  25
ATOM     25  CA  ALA d   1      -3.149  51.312   1.653  0.00  0.00     0.086 C 
ATOM     26  H10 ALA d   1      -4.228  51.396   1.454  0.00  0.00     0.086 H 
BRANCH  25  27
ATOM     27  N   ALA d   1      -2.855  52.143   2.810  0.00  0.00    -0.346 N 
ATOM     28  C   ASN d   1      -3.451  51.923   3.971  0.00  0.00     0.249 C 
ATOM     29  O   ASN d   1      -4.106  50.911   4.186  0.00  0.00    -0.271 OA
ATOM     30  H9  ALA d   1      -2.195  52.889   2.727  0.00  0.00     0.163 HD
BRANCH  28  31
ATOM     31  CA  ASN d   1      -3.277  52.985   5.058  0.00  0.00     0.183 C 
ATOM     32  H4  ASN d   1      -2.211  53.053   5.319  0.00  0.00     0.099 H 
BRANCH  31  33
ATOM     33  N   ASN d   1      -3.738  54.364   4.635  0.00  0.00    -0.066 N 
ATOM     34  H1  ASN d   1      -3.596  55.013   5.393  0.00  0.00     0.275 HD
ATOM     35  H2  ASN d   1      -4.717  54.333   4.398  0.00  0.00     0.275 HD
ATOM     36  H3  ASN d   1      -3.207  54.664   3.832  0.00  0.00     0.275 HD
ENDBRANCH  31  33
BRANCH  31  37
ATOM     37  CB  ASN d   1      -4.058  52.483   6.266  0.00  0.00     0.044 C 
ATOM     38  H5  ASN d   1      -3.793  51.430   6.441  0.00  0.00     0.051 H 
ATOM     39  H6  ASN d   1      -5.133  52.559   6.044  0.00  0.00     0.051 H 
BRANCH  37  40
ATOM     40  CG  ASN d   1      -3.773  53.260   7.513  0.00  0.00     0.217 C 
ATOM     41  OD1 ASN d   1      -2.666  53.226   8.039  0.00  0.00    -0.274 OA
ATOM     42  ND2 ASN d   1      -4.796  53.918   8.037  0.00  0.00    -0.370 N 
ATOM     43  H7  ASN d   1      -4.670  54.456   8.870  0.00  0.00     0.159 HD
ATOM     44  H8  ASN d   1      -5.694  53.877   7.599  0.00  0.00     0.159 HD
ENDBRANCH  37  40
ENDBRANCH  31  37
ENDBRANCH  28  31
ENDBRANCH  25  27
BRANCH  25  45
ATOM     45  CB  ALA d   1      -2.419  51.839   0.454  0.00  0.00    -0.049 C 
ATOM     46  H11 ALA d   1      -2.644  51.208  -0.419  0.00  0.00     0.030 H 
ATOM     47  H12 ALA d   1      -1.336  51.824   0.648  0.00  0.00     0.030 H 
ATOM     48  H13 ALA d   1      -2.741  52.871   0.253  0.00  0.00     0.030 H 
ENDBRANCH  25  45
ENDBRANCH  22  25
ENDBRANCH  19  21
BRANCH  19  49
ATOM     49  CB  LEU d   1       0.122  48.117   3.373  0.00  0.00    -0.035 C 
ATOM     50  H16 LEU d   1       0.183  47.308   4.116  0.00  0.00     0.037 H 
ATOM     51  H17 LEU d   1       0.266  49.086   3.873  0.00  0.00     0.037 H 
BRANCH  49  52
ATOM     52  CG  LEU d   1       1.299  47.931   2.408  0.00  0.00    -0.059 C 
ATOM     53  H18 LEU d   1       1.274  46.893   2.046  0.00  0.00     0.038 H 
BRANCH  52  54
ATOM     54  CD1 LEU d   1       1.232  48.853   1.219  0.00  0.00    -0.073 C 
ATOM     55  H19 LEU d   1       2.099  48.673   0.566  0.00  0.00     0.028 H 
ATOM     56  H20 LEU d   1       1.243  49.898   1.564  0.00  0.00     0.028 H 
ATOM     57  H21 LEU d   1       0.305  48.662   0.658  0.00  0.00     0.028 H 
ENDBRANCH  52  54
BRANCH  52  58
ATOM     58  CD2 LEU d   1       2.624  48.174   3.097  0.00  0.00    -0.073 C 
ATOM     59  H22 LEU d   1       2.708  47.515   3.974  0.00  0.00     0.028 H 
ATOM     60  H23 LEU d   1       2.682  49.224   3.421  0.00  0.00     0.028 H 
ATOM     61  H24 LEU d   1       3.446  47.960   2.398  0.00  0.00     0.028 H 
ENDBRANCH  52  58
ENDBRANCH  49  52
ENDBRANCH  19  49
ENDBRANCH  16  19
ENDBRANCH  13  15
BRANCH  13  62
ATOM     62  CB  LEU d   1      -3.785  47.511   7.017  0.00  0.00    -0.035 C 
ATOM     63  H27 LEU d   1      -4.601  46.949   7.494  0.00  0.00     0.037 H 
ATOM     64  H28 LEU d   1      -4.105  48.550   6.849  0.00  0.00     0.037 H 
BRANCH  62  65
ATOM     65  CG  LEU d   1      -2.597  47.532   7.985  0.00  0.00    -0.059 C 
ATOM     66  H29 LEU d   1      -1.674  47.541   7.386  0.00  0.00     0.038 H 
BRANCH  65  67
ATOM     67  CD1 LEU d   1      -2.596  48.775   8.854  0.00  0.00    -0.073 C 
ATOM     68  H30 LEU d   1      -1.729  48.748   9.531  0.00  0.00     0.028 H 
ATOM     69  H31 LEU d   1      -3.522  48.809   9.446  0.00  0.00     0.028 H 
ATOM     70  H32 LEU d   1      -2.535  49.669   8.216  0.00  0.00     0.028 H 
ENDBRANCH  65  67
BRANCH  65  71
ATOM     71  CD2 LEU d   1      -2.593  46.273   8.837  0.00  0.00    -0.073 C 
ATOM     72  H33 LEU d   1      -2.594  45.388   8.184  0.00  0.00     0.028 H 
ATOM     73  H34 LEU d   1      -3.489  46.259   9.475  0.00  0.00     0.028 H 
ATOM     74  H35 LEU d   1      -1.693  46.261   9.469  0.00  0.00     0.028 H 
ENDBRANCH  65  71
ENDBRANCH  62  65
ENDBRANCH  13  62
ENDBRANCH  10  13
ENDBRANCH   7   9
BRANCH   7  75
ATOM     75  CB  ARG d   1      -6.753  49.125   2.891  0.00  0.00    -0.036 C 
ATOM     76  H38 ARG d   1      -5.910  49.452   2.265  0.00  0.00     0.036 H 
ATOM     77  H39 ARG d   1      -6.859  49.807   3.747  0.00  0.00     0.036 H 
BRANCH  75  78
ATOM     78  CG  ARG d   1      -8.019  49.221   2.057  0.00  0.00    -0.048 C 
ATOM     79  H40 ARG d   1      -7.805  48.809   1.060  0.00  0.00     0.035 H 
ATOM     80  H41 ARG d   1      -8.289  50.283   1.964  0.00  0.00     0.035 H 
BRANCH  78  81
ATOM     81  CD  ARG d   1      -9.226  48.470   2.636  0.00  0.00     0.009 C 
ATOM     82  H42 ARG d   1      -8.900  47.448   2.881  0.00  0.00     0.064 H 
ATOM     83  H43 ARG d   1     -10.002  48.431   1.857  0.00  0.00     0.064 H 
BRANCH  81  84
ATOM     84  NE  ARG d   1      -9.833  49.050   3.846  0.00  0.00    -0.227 N 
ATOM     85  CZ  ARG d   1     -10.633  48.373   4.682  0.00  0.00     0.665 C 
ATOM     86  NH1 ARG d   1     -11.143  49.000   5.721  0.00  0.00    -0.235 N 
ATOM     87  NH2 ARG d   1     -10.943  47.086   4.494  0.00  0.00    -0.235 N 
ATOM     88  H45 ARG d   1     -11.760  48.497   6.375  0.00  0.00     0.174 HD
ATOM     89  H46 ARG d   1     -10.925  49.994   5.880  0.00  0.00     0.174 HD
ATOM     90  H47 ARG d   1     -10.556  46.575   3.688  0.00  0.00     0.174 HD
ATOM     91  H48 ARG d   1     -11.569  46.605   5.155  0.00  0.00     0.174 HD
ATOM     92  H44 ARG d   1      -9.630  50.036   4.063  0.00  0.00     0.177 HD
ENDBRANCH  81  84
ENDBRANCH  78  81
ENDBRANCH  75  78
ENDBRANCH   7  75
ENDBRANCH   4   7
ENDBRANCH   1   3
BRANCH   1  93
ATOM     93  C   TYR d   1      -5.075  44.043   1.508  0.00  0.00     0.241 C 
ATOM     94  O   TYR d   1      -5.740  43.160   1.033  0.00  0.00    -0.271 OA
ATOM     95  N   LEU d   1      -4.375  43.885   2.630  0.00  0.00    -0.346 N 
ATOM     96  H58 LEU d   1      -3.832  44.644   2.989  0.00  0.00     0.163 HD
BRANCH  95  97
ATOM     97  CA  LEU d   1      -4.397  42.605   3.341  0.00  0.00     0.089 C 
ATOM     98  H59 LEU d   1      -4.180  41.824   2.597  0.00  0.00     0.087 H 
BRANCH  97  99
ATOM     99  C   LEU d   1      -5.766  42.255   3.980  0.00  0.00     0.241 C 
ATOM    100  O   LEU d   1      -6.064  41.090   4.160  0.00  0.00    -0.271 OA
ATOM    101  N   LEU d   1      -6.589  43.241   4.319  0.00  0.00    -0.346 N 
ATOM    102  H69 LEU d   1      -6.263  44.186   4.304  0.00  0.00     0.163 HD
BRANCH 101 103
ATOM    103  CA  LEU d   1      -7.989  42.950   4.720  0.00  0.00     0.089 C 
ATOM    104  H70 LEU d   1      -7.946  42.135   5.457  0.00  0.00     0.087 H 
BRANCH 103 105
ATOM    105  C   LEU d   1      -8.958  42.532   3.598  0.00  0.00     0.241 C 
ATOM    106  O   LEU d   1      -9.901  41.809   3.881  0.00  0.00    -0.271 OA
ATOM    107  N   ASP d   1      -8.751  42.999   2.363  0.00  0.00    -0.346 N 
ATOM    108  H80 ASP d   1      -7.911  43.503   2.163  0.00  0.00     0.163 HD
BRANCH 107 109
ATOM    109  CA  ASP d   1      -9.729  42.786   1.303  0.00  0.00     0.098 C 
ATOM    110  H81 ASP d   1     -10.648  42.395   1.764  0.00  0.00     0.088 H 
BRANCH 109 111
ATOM    111  C   ASP d   1      -9.241  41.758   0.265  0.00  0.00     0.241 C 
ATOM    112  O   ASP d   1     -10.050  41.221  -0.443  0.00  0.00    -0.271 OA
ATOM    113  N   LYS d   1      -7.934  41.556   0.121  0.00  0.00    -0.345 N 
ATOM    114  H84 LYS d   1      -7.304  42.329   0.202  0.00  0.00     0.163 HD
BRANCH 113 115
ATOM    115  CA  LYS d   1      -7.409  40.234  -0.151  0.00  0.00     0.096 C 
ATOM    116  H85 LYS d   1      -7.383  39.715   0.818  0.00  0.00     0.089 H 
BRANCH 115 117
ATOM    117  C   LYS d   1      -5.956  40.210  -0.675  0.00  0.00     0.196 C 
ATOM    118  O   LYS d   1      -4.996  39.794   0.052  0.00  0.00    -0.646 OA
ATOM    119  O1  LYS d   1      -5.715  40.610  -1.845  0.00  0.00    -0.646 OA
ENDBRANCH 115 117
BRANCH 115 120
ATOM    120  CB  LYS d   1      -8.359  39.439  -1.039  0.00  0.00    -0.037 C 
ATOM    121  H86 LYS d   1      -7.938  39.424  -2.055  0.00  0.00     0.036 H 
ATOM    122  H87 LYS d   1      -9.327  39.961  -1.050  0.00  0.00     0.036 H 
BRANCH 120 123
ATOM    123  CG  LYS d   1      -8.611  37.998  -0.617  0.00  0.00    -0.061 C 
ATOM    124  H88 LYS d   1      -9.283  37.984   0.254  0.00  0.00     0.033 H 
ATOM    125  H89 LYS d   1      -7.655  37.523  -0.351  0.00  0.00     0.033 H 
BRANCH 123 126
ATOM    126  CD  LYS d   1      -9.255  37.231  -1.765  0.00  0.00    -0.043 C 
ATOM    127  H90 LYS d   1      -9.666  36.282  -1.391  0.00  0.00     0.035 H 
ATOM    128  H91 LYS d   1      -8.502  37.024  -2.540  0.00  0.00     0.035 H 
BRANCH 126 129
ATOM    129  CE  LYS d   1     -10.388  38.085  -2.361  0.00  0.00     0.080 C 
ATOM    130  H92 LYS d   1      -9.920  38.941  -2.869  0.00  0.00     0.075 H 
ATOM    131  H93 LYS d   1     -11.001  38.447  -1.522  0.00  0.00     0.075 H 
BRANCH 129 132
ATOM    132  NZ  LYS d   1     -11.314  37.438  -3.342  0.00  0.00    -0.079 N 
ATOM    133  H94 LYS d   1     -12.002  38.109  -3.648  0.00  0.00     0.274 HD
ATOM    134  H95 LYS d   1     -11.777  36.658  -2.903  0.00  0.00     0.274 HD
ATOM    135  H96 LYS d   1     -10.787  37.111  -4.137  0.00  0.00     0.274 HD
ENDBRANCH 129 132
ENDBRANCH 126 129
ENDBRANCH 123 126
ENDBRANCH 120 123
ENDBRANCH 115 120
ENDBRANCH 113 115
ENDBRANCH 109 111
BRANCH 109 136
ATOM    136  CB  ASP d   1     -10.062  44.105   0.608  0.00  0.00     0.043 C 
ATOM    137  H82 ASP d   1     -10.852  43.919  -0.135  0.00  0.00     0.052 H 
ATOM    138  H83 ASP d   1      -9.158  44.469   0.098  0.00  0.00     0.052 H 
BRANCH 136 139
ATOM    139  CG  ASP d   1     -10.547  45.190   1.570  0.00  0.00     0.175 C 
ATOM    140  OD1 ASP d   1     -10.992  44.890   2.712  0.00  0.00    -0.648 OA
ATOM    141  OD2 ASP d   1     -10.473  46.365   1.178  0.00  0.00    -0.648 OA
ENDBRANCH 136 139
ENDBRANCH 109 136
ENDBRANCH 107 109
ENDBRANCH 103 105
BRANCH 103 142
ATOM    142  CB  LEU d   1      -8.636  44.146   5.344  0.00  0.00    -0.035 C 
ATOM    143  H71 LEU d   1      -9.725  43.988   5.353  0.00  0.00     0.037 H 
ATOM    144  H72 LEU d   1      -8.398  45.029   4.733  0.00  0.00     0.037 H 
BRANCH 142 145
ATOM    145  CG  LEU d   1      -8.186  44.403   6.738  0.00  0.00    -0.059 C 
ATOM    146  H73 LEU d   1      -7.087  44.361   6.774  0.00  0.00     0.038 H 
BRANCH 145 147
ATOM    147  CD1 LEU d   1      -8.635  45.800   7.110  0.00  0.00    -0.073 C 
ATOM    148  H74 LEU d   1      -8.318  46.025   8.139  0.00  0.00     0.028 H 
ATOM    149  H75 LEU d   1      -9.731  45.863   7.042  0.00  0.00     0.028 H 
ATOM    150  H76 LEU d   1      -8.182  46.527   6.420  0.00  0.00     0.028 H 
ENDBRANCH 145 147
BRANCH 145 151
ATOM    151  CD2 LEU d   1      -8.729  43.359   7.688  0.00  0.00    -0.073 C 
ATOM    152  H77 LEU d   1      -8.377  42.364   7.379  0.00  0.00     0.028 H 
ATOM    153  H78 LEU d   1      -9.829  43.382   7.668  0.00  0.00     0.028 H 
ATOM    154  H79 LEU d   1      -8.376  43.572   8.708  0.00  0.00     0.028 H 
ENDBRANCH 145 151
ENDBRANCH 142 145
ENDBRANCH 103 142
ENDBRANCH 101 103
ENDBRANCH  97  99
BRANCH  97 155
ATOM    155  CB  LEU d   1      -3.307  42.553   4.395  0.00  0.00    -0.035 C 
ATOM    156  H60 LEU d   1      -3.420  41.605   4.941  0.00  0.00     0.037 H 
ATOM    157  H61 LEU d   1      -3.473  43.394   5.084  0.00  0.00     0.037 H 
BRANCH 155 158
ATOM    158  CG  LEU d   1      -1.861  42.635   3.910  0.00  0.00    -0.059 C 
ATOM    159  H62 LEU d   1      -1.764  43.493   3.228  0.00  0.00     0.038 H 
BRANCH 158 160
ATOM    160  CD1 LEU d   1      -0.921  42.861   5.097  0.00  0.00    -0.073 C 
ATOM    161  H63 LEU d   1       0.117  42.919   4.737  0.00  0.00     0.028 H 
ATOM    162  H64 LEU d   1      -1.018  42.025   5.806  0.00  0.00     0.028 H 
ATOM    163  H65 LEU d   1      -1.187  43.802   5.601  0.00  0.00     0.028 H 
ENDBRANCH 158 160
BRANCH 158 164
ATOM    164  CD2 LEU d   1      -1.523  41.374   3.141  0.00  0.00    -0.073 C 
ATOM    165  H66 LEU d   1      -2.224  41.257   2.302  0.00  0.00     0.028 H 
ATOM    166  H67 LEU d   1      -1.603  40.504   3.809  0.00  0.00     0.028 H 
ATOM    167  H68 LEU d   1      -0.496  41.445   2.753  0.00  0.00     0.028 H 
ENDBRANCH 158 164
ENDBRANCH 155 158
ENDBRANCH  97 155
ENDBRANCH  95  97
ENDBRANCH   1  93
BRANCH   1 168
ATOM    168  CB  TYR d   1      -3.740  45.562   0.068  0.00  0.00    -0.014 C 
ATOM    169  H51 TYR d   1      -2.934  45.719   0.800  0.00  0.00     0.043 H 
ATOM    170  H52 TYR d   1      -3.833  46.452  -0.571  0.00  0.00     0.043 H 
BRANCH 168 171
ATOM    171  CG  TYR d   1      -3.362  44.375  -0.815  0.00  0.00    -0.056 A 
ATOM    172  CD1 TYR d   1      -4.008  44.133  -2.037  0.00  0.00    -0.074 A 
ATOM    173  CE1 TYR d   1      -3.632  43.060  -2.825  0.00  0.00    -0.051 A 
ATOM    174  H53 TYR d   1      -4.805  44.790  -2.365  0.00  0.00     0.084 H 
ATOM    175  CZ  TYR d   1      -2.615  42.215  -2.411  0.00  0.00     0.065 A 
ATOM    176  H55 TYR d   1      -4.134  42.880  -3.769  0.00  0.00     0.087 H 
ATOM    177  CE2 TYR d   1      -1.974  42.430  -1.226  0.00  0.00    -0.051 A 
ATOM    178  CD2 TYR d   1      -2.321  43.500  -0.439  0.00  0.00    -0.074 A 
ATOM    179  H56 TYR d   1      -1.189  41.755  -0.905  0.00  0.00     0.087 H 
ATOM    180  H54 TYR d   1      -1.786  43.676   0.487  0.00  0.00     0.084 H 
BRANCH 175 181
ATOM    181  OH  TYR d   1      -2.209  41.131  -3.196  0.00  0.00    -0.361 OA
ATOM    182  H57 TYR d   1      -2.735  41.099  -3.986  0.00  0.00     0.217 HD
ENDBRANCH 175 181
ENDBRANCH 168 171
ENDBRANCH   1 168
TORSDOF 53
