REMARK WARNING: 32 MAX_TORS EXCEEDED!!!
REMARK  65 active torsions:
REMARK  status: ('A' for Active; 'I' for Inactive)
REMARK    1  A    between atoms: N_1  and  CA_2 
REMARK    2  A    between atoms: CA_2  and  C_3 
REMARK    3  A    between atoms: CA_2  and  CB_5 
REMARK       I    between atoms: C_3  and  N_8 
REMARK    4  A    between atoms: CB_5  and  OG1_6 
REMARK    5  A    between atoms: CB_5  and  CG2_7 
REMARK    6  A    between atoms: N_8  and  CA_9 
REMARK    7  A    between atoms: CA_9  and  C_10 
REMARK       I    between atoms: C_10  and  N_12 
REMARK    8  A    between atoms: N_12  and  CA_13 
REMARK    9  A    between atoms: CA_13  and  C_14 
REMARK   10  A    between atoms: CA_13  and  CB_16 
REMARK       I    between atoms: C_14  and  N_21 
REMARK   11  A    between atoms: CB_16  and  CG_17 
REMARK   12  A    between atoms: CG_17  and  CD_18 
REMARK   13  A    between atoms: CD_18  and  CE_19 
REMARK   14  A    between atoms: CE_19  and  NZ_20 
REMARK   15  A    between atoms: N_21  and  CA_22 
REMARK   16  A    between atoms: CA_22  and  C_23 
REMARK       I    between atoms: C_23  and  N_25 
REMARK   17  A    between atoms: N_25  and  CA_26 
REMARK   18  A    between atoms: CA_26  and  C_27 
REMARK   19  A    between atoms: CA_26  and  CB_29 
REMARK       I    between atoms: C_27  and  N_34 
REMARK   20  A    between atoms: CB_29  and  CG_30 
REMARK   21  A    between atoms: CG_30  and  CD_31 
REMARK   22  A    between atoms: CD_31  and  CE_32 
REMARK   23  A    between atoms: CE_32  and  NZ_33 
REMARK   24  A    between atoms: N_34  and  CA_35 
REMARK   25  A    between atoms: CA_35  and  C_36 
REMARK   26  A    between atoms: CA_35  and  CB_38 
REMARK       I    between atoms: C_36  and  N_48 
REMARK   27  A    between atoms: CB_38  and  CG_39 
REMARK   28  A    between atoms: N_48  and  CA_49 
REMARK   29  A    between atoms: CA_49  and  C_50 
REMARK   30  A    between atoms: CA_49  and  CB_52 
REMARK       I    between atoms: C_50  and  N_57 
REMARK   31  A    between atoms: CB_52  and  CG_53 
REMARK   32  A    between atoms: CG_53  and  CD_54 
REMARK   33  A    between atoms: CD_54  and  CE_55 
REMARK   34  A    between atoms: CE_55  and  NZ_56 
REMARK   35  A    between atoms: N_57  and  CA_58 
REMARK   36  A    between atoms: CA_58  and  C_59 
REMARK   37  A    between atoms: CA_58  and  CB_61 
REMARK       I    between atoms: C_59  and  N_68 
REMARK   38  A    between atoms: CB_61  and  CG_62 
REMARK   39  A    between atoms: CG_62  and  CD_63 
REMARK   40  A    between atoms: CD_63  and  NE_64 
REMARK       I    between atoms: NE_64  and  CZ_65 
REMARK       I    between atoms: CZ_65  and  NH1_66 
REMARK   41  A    between atoms: N_68  and  CA_69 
REMARK   42  A    between atoms: CA_69  and  C_70 
REMARK   43  A    between atoms: CA_69  and  CB_72 
REMARK       I    between atoms: C_70  and  N_77 
REMARK   44  A    between atoms: CB_72  and  CG_73 
REMARK   45  A    between atoms: CG_73  and  CD_74 
REMARK   46  A    between atoms: CD_74  and  CE_75 
REMARK   47  A    between atoms: CE_75  and  NZ_76 
REMARK   48  A    between atoms: N_77  and  CA_78 
REMARK   49  A    between atoms: CA_78  and  C_79 
REMARK   50  A    between atoms: CA_78  and  CB_81 
REMARK       I    between atoms: C_79  and  N_83 
REMARK   51  A    between atoms: CB_81  and  OG_82 
REMARK   52  A    between atoms: N_83  and  CA_84 
REMARK   53  A    between atoms: CA_84  and  C_85 
REMARK   54  A    between atoms: CA_84  and  CB_87 
REMARK       I    between atoms: C_85  and  N_88 
REMARK   55  A    between atoms: N_88  and  CA_89 
REMARK   56  A    between atoms: CA_89  and  C_90 
REMARK       I    between atoms: C_90  and  N_92 
REMARK   57  A    between atoms: N_92  and  CA_93 
REMARK   58  A    between atoms: CA_93  and  C_94 
REMARK       I    between atoms: C_94  and  N_96 
REMARK   59  A    between atoms: N_96  and  CA_97 
REMARK   60  A    between atoms: CA_97  and  C_98 
REMARK       I    between atoms: C_98  and  N_100 
REMARK   61  A    between atoms: CA_101  and  C_102 
REMARK       I    between atoms: C_102  and  N_107 
REMARK   62  A    between atoms: N_107  and  CA_108 
REMARK   63  A    between atoms: CA_108  and  C_109 
REMARK   64  A    between atoms: CA_108  and  CB_111 
REMARK   65  A    between atoms: CB_111  and  OG_112 
ROOT
ATOM      1  CA  LYS d   1      -6.710  -4.575  10.936  0.00  0.00     0.089 C 
ATOM      2  H53 LYS d   1      -5.978  -3.764  10.807  0.00  0.00     0.087 H 
ENDROOT
BRANCH   1   3
ATOM      3  N   LYS d   1      -7.427  -4.391  12.230  0.00  0.00    -0.346 N 
ATOM      4  C   TRP d   1      -7.211  -3.328  12.960  0.00  0.00     0.241 C 
ATOM      5  O   TRP d   1      -6.428  -2.467  12.608  0.00  0.00    -0.271 OA
ATOM      6  H52 LYS d   1      -8.077  -5.084  12.541  0.00  0.00     0.163 HD
BRANCH   4   7
ATOM      7  CA  TRP d   1      -7.979  -3.210  14.277  0.00  0.00     0.093 C 
ATOM      8  H43 TRP d   1      -8.348  -4.202  14.578  0.00  0.00     0.088 H 
BRANCH   7   9
ATOM      9  N   TRP d   1      -7.072  -2.675  15.332  0.00  0.00    -0.346 N 
ATOM     10  C   LYS d   1      -6.527  -3.490  16.193  0.00  0.00     0.241 C 
ATOM     11  O   LYS d   1      -6.744  -4.684  16.155  0.00  0.00    -0.271 OA
ATOM     12  H42 TRP d   1      -6.882  -1.694  15.380  0.00  0.00     0.163 HD
BRANCH  10  13
ATOM     13  CA  LYS d   1      -5.603  -2.885  17.253  0.00  0.00     0.089 C 
ATOM     14  H30 LYS d   1      -5.934  -1.863  17.489  0.00  0.00     0.087 H 
BRANCH  13  15
ATOM     15  N   LYS d   1      -5.650  -3.722  18.487  0.00  0.00    -0.346 N 
ATOM     16  C   GLY d   1      -6.288  -3.299  19.544  0.00  0.00     0.236 C 
ATOM     17  O   GLY d   1      -6.855  -2.225  19.553  0.00  0.00    -0.272 OA
ATOM     18  H29 LYS d   1      -5.191  -4.610  18.504  0.00  0.00     0.163 HD
BRANCH  16  19
ATOM     19  CA  GLY d   1      -6.296  -4.211  20.772  0.00  0.00     0.069 C 
ATOM     20  H27 GLY d   1      -6.903  -5.104  20.561  0.00  0.00     0.078 H 
ATOM     21  H28 GLY d   1      -5.266  -4.516  21.008  0.00  0.00     0.078 H 
BRANCH  19  22
ATOM     22  N   GLY d   1      -6.876  -3.481  21.934  0.00  0.00    -0.351 N 
ATOM     23  C   LYS d   1      -6.427  -3.710  23.139  0.00  0.00     0.240 C 
ATOM     24  O   LYS d   1      -5.537  -4.513  23.335  0.00  0.00    -0.271 OA
ATOM     25  H26 GLY d   1      -7.609  -2.816  21.791  0.00  0.00     0.163 HD
BRANCH  23  26
ATOM     26  CA  LYS d   1      -7.062  -2.929  24.291  0.00  0.00     0.089 C 
ATOM     27  H14 LYS d   1      -6.352  -2.872  25.129  0.00  0.00     0.087 H 
BRANCH  26  28
ATOM     28  N   LYS d   1      -7.399  -1.553  23.834  0.00  0.00    -0.346 N 
ATOM     29  C   GLY d   1      -6.461  -0.770  23.373  0.00  0.00     0.236 C 
ATOM     30  O   GLY d   1      -5.306  -1.142  23.308  0.00  0.00    -0.272 OA
ATOM     31  H13 LYS d   1      -8.344  -1.228  23.880  0.00  0.00     0.163 HD
BRANCH  29  32
ATOM     32  CA  GLY d   1      -6.870   0.632  22.918  0.00  0.00     0.069 C 
ATOM     33  H11 GLY d   1      -7.658   0.554  22.154  0.00  0.00     0.078 H 
ATOM     34  H12 GLY d   1      -7.249   1.201  23.780  0.00  0.00     0.078 H 
BRANCH  32  35
ATOM     35  N   GLY d   1      -5.688   1.332  22.342  0.00  0.00    -0.350 N 
ATOM     36  C   THR d   1      -5.774   2.591  22.006  0.00  0.00     0.251 C 
ATOM     37  O   THR d   1      -6.808   3.213  22.154  0.00  0.00    -0.271 OA
ATOM     38  H10 GLY d   1      -4.828   0.838  22.213  0.00  0.00     0.163 HD
BRANCH  36  39
ATOM     39  CA  THR d   1      -4.525   3.253  21.421  0.00  0.00     0.199 C 
ATOM     40  H4  THR d   1      -4.721   4.322  21.252  0.00  0.00     0.103 H 
BRANCH  39  41
ATOM     41  N   THR d   1      -3.390   3.101  22.374  0.00  0.00    -0.064 N 
ATOM     42  H1  THR d   1      -3.625   3.542  23.249  0.00  0.00     0.275 HD
ATOM     43  H2  THR d   1      -2.567   3.537  21.988  0.00  0.00     0.275 HD
ATOM     44  H3  THR d   1      -3.210   2.121  22.529  0.00  0.00     0.275 HD
ENDBRANCH  39  41
BRANCH  39  45
ATOM     45  CB  THR d   1      -4.168   2.583  20.092  0.00  0.00     0.068 C 
ATOM     46  H5  THR d   1      -5.069   2.123  19.660  0.00  0.00     0.086 H 
BRANCH  45  47
ATOM     47  OG1 THR d   1      -3.187   1.581  20.317  0.00  0.00    -0.393 OA
ATOM     48  H6  THR d   1      -2.966   1.165  19.492  0.00  0.00     0.210 HD
ENDBRANCH  45  47
BRANCH  45  49
ATOM     49  CG2 THR d   1      -3.617   3.630  19.122  0.00  0.00    -0.050 C 
ATOM     50  H7  THR d   1      -3.361   3.147  18.168  0.00  0.00     0.031 H 
ATOM     51  H8  THR d   1      -2.716   4.091  19.553  0.00  0.00     0.031 H 
ATOM     52  H9  THR d   1      -4.378   4.405  18.948  0.00  0.00     0.031 H 
ENDBRANCH  45  49
ENDBRANCH  39  45
ENDBRANCH  36  39
ENDBRANCH  32  35
ENDBRANCH  29  32
ENDBRANCH  26  28
BRANCH  26  53
ATOM     53  CB  LYS d   1      -8.335  -3.641  24.751  0.00  0.00    -0.038 C 
ATOM     54  H15 LYS d   1      -8.098  -4.682  25.015  0.00  0.00     0.036 H 
ATOM     55  H16 LYS d   1      -9.076  -3.628  23.938  0.00  0.00     0.036 H 
BRANCH  53  56
ATOM     56  CG  LYS d   1      -8.908  -2.924  25.974  0.00  0.00    -0.061 C 
ATOM     57  H17 LYS d   1      -9.224  -1.910  25.689  0.00  0.00     0.033 H 
ATOM     58  H18 LYS d   1      -8.137  -2.862  26.756  0.00  0.00     0.033 H 
BRANCH  56  59
ATOM     59  CD  LYS d   1     -10.113  -3.702  26.507  0.00  0.00    -0.043 C 
ATOM     60  H19 LYS d   1      -9.782  -4.685  26.874  0.00  0.00     0.035 H 
ATOM     61  H20 LYS d   1     -10.846  -3.840  25.699  0.00  0.00     0.035 H 
BRANCH  59  62
ATOM     62  CE  LYS d   1     -10.759  -2.922  27.653  0.00  0.00     0.080 C 
ATOM     63  H21 LYS d   1     -11.816  -2.730  27.416  0.00  0.00     0.075 H 
ATOM     64  H22 LYS d   1     -10.234  -1.965  27.787  0.00  0.00     0.075 H 
BRANCH  62  65
ATOM     65  NZ  LYS d   1     -10.669  -3.717  28.909  0.00  0.00    -0.079 N 
ATOM     66  H23 LYS d   1     -11.095  -3.202  29.664  0.00  0.00     0.274 HD
ATOM     67  H24 LYS d   1      -9.701  -3.893  29.127  0.00  0.00     0.274 HD
ATOM     68  H25 LYS d   1     -11.150  -4.594  28.787  0.00  0.00     0.274 HD
ENDBRANCH  62  65
ENDBRANCH  59  62
ENDBRANCH  56  59
ENDBRANCH  53  56
ENDBRANCH  26  53
ENDBRANCH  23  26
ENDBRANCH  19  22
ENDBRANCH  16  19
ENDBRANCH  13  15
BRANCH  13  69
ATOM     69  CB  LYS d   1      -4.170  -2.847  16.718  0.00  0.00    -0.038 C 
ATOM     70  H31 LYS d   1      -4.147  -2.288  15.771  0.00  0.00     0.036 H 
ATOM     71  H32 LYS d   1      -3.815  -3.874  16.547  0.00  0.00     0.036 H 
BRANCH  69  72
ATOM     72  CG  LYS d   1      -3.262  -2.157  17.739  0.00  0.00    -0.061 C 
ATOM     73  H33 LYS d   1      -3.220  -2.760  18.658  0.00  0.00     0.033 H 
ATOM     74  H34 LYS d   1      -3.664  -1.160  17.972  0.00  0.00     0.033 H 
BRANCH  72  75
ATOM     75  CD  LYS d   1      -1.854  -2.016  17.156  0.00  0.00    -0.043 C 
ATOM     76  H35 LYS d   1      -1.884  -1.348  16.282  0.00  0.00     0.035 H 
ATOM     77  H36 LYS d   1      -1.484  -3.005  16.849  0.00  0.00     0.035 H 
BRANCH  75  78
ATOM     78  CE  LYS d   1      -0.919  -1.428  18.215  0.00  0.00     0.080 C 
ATOM     79  H37 LYS d   1       0.103  -1.796  18.046  0.00  0.00     0.075 H 
ATOM     80  H38 LYS d   1      -1.259  -1.735  19.215  0.00  0.00     0.075 H 
BRANCH  78  81
ATOM     81  NZ  LYS d   1      -0.932   0.059  18.122  0.00  0.00    -0.079 N 
ATOM     82  H39 LYS d   1      -0.316   0.445  18.820  0.00  0.00     0.274 HD
ATOM     83  H40 LYS d   1      -1.869   0.397  18.277  0.00  0.00     0.274 HD
ATOM     84  H41 LYS d   1      -0.620   0.341  17.206  0.00  0.00     0.274 HD
ENDBRANCH  78  81
ENDBRANCH  75  78
ENDBRANCH  72  75
ENDBRANCH  69  72
ENDBRANCH  13  69
ENDBRANCH  10  13
ENDBRANCH   7   9
BRANCH   7  85
ATOM     85  CB  TRP d   1      -9.163  -2.259  14.092  0.00  0.00    -0.012 C 
ATOM     86  H44 TRP d   1      -9.780  -2.602  13.248  0.00  0.00     0.044 H 
ATOM     87  H45 TRP d   1      -8.790  -1.245  13.886  0.00  0.00     0.044 H 
BRANCH  85  88
ATOM     88  CG  TRP d   1      -9.989  -2.242  15.338  0.00  0.00    -0.028 A 
ATOM     89  CD1 TRP d   1     -10.016  -1.233  16.238  0.00  0.00    -0.015 A 
ATOM     90  NE1 TRP d   1     -10.889  -1.567  17.258  0.00  0.00    -0.365 N 
ATOM     91  H46 TRP d   1      -9.444  -0.309  16.171  0.00  0.00     0.112 H 
ATOM     92  CE2 TRP d   1     -11.461  -2.808  17.055  0.00  0.00     0.042 A 
ATOM     93  H47 TRP d   1     -11.088  -0.964  18.069  0.00  0.00     0.165 HD
ATOM     94  CD2 TRP d   1     -10.903  -3.261  15.837  0.00  0.00    -0.002 A 
ATOM     95  CZ2 TRP d   1     -12.379  -3.577  17.771  0.00  0.00    -0.056 A 
ATOM     96  CE3 TRP d   1     -11.299  -4.521  15.354  0.00  0.00    -0.070 A 
ATOM     97  CZ3 TRP d   1     -12.223  -5.299  16.072  0.00  0.00    -0.082 A 
ATOM     98  H48 TRP d   1     -10.889  -4.894  14.422  0.00  0.00     0.084 H 
ATOM     99  CH2 TRP d   1     -12.761  -4.828  17.278  0.00  0.00    -0.081 A 
ATOM    100  H50 TRP d   1     -12.522  -6.269  15.691  0.00  0.00     0.083 H 
ATOM    101  H51 TRP d   1     -13.473  -5.434  17.828  0.00  0.00     0.083 H 
ATOM    102  H49 TRP d   1     -12.793  -3.207  18.702  0.00  0.00     0.086 H 
ENDBRANCH  85  88
ENDBRANCH   7  85
ENDBRANCH   4   7
ENDBRANCH   1   3
BRANCH   1 103
ATOM    103  C   LYS d   1      -7.709  -4.545   9.780  0.00  0.00     0.241 C 
ATOM    104  O   LYS d   1      -8.876  -4.844   9.945  0.00  0.00    -0.271 OA
ATOM    105  N   ARG d   1      -7.257  -4.193   8.610  0.00  0.00    -0.346 N 
ATOM    106  H65 ARG d   1      -6.293  -3.951   8.499  0.00  0.00     0.163 HD
BRANCH 105 107
ATOM    107  CA  ARG d   1      -8.175  -4.150   7.438  0.00  0.00     0.089 C 
ATOM    108  H66 ARG d   1      -9.182  -3.859   7.771  0.00  0.00     0.087 H 
BRANCH 107 109
ATOM    109  C   ARG d   1      -8.235  -5.538   6.796  0.00  0.00     0.241 C 
ATOM    110  O   ARG d   1      -7.323  -6.331   6.928  0.00  0.00    -0.271 OA
ATOM    111  N   LYS d   1      -9.306  -5.849   6.118  0.00  0.00    -0.346 N 
ATOM    112  H78 LYS d   1     -10.047  -5.185   6.020  0.00  0.00     0.163 HD
BRANCH 111 113
ATOM    113  CA  LYS d   1      -9.422  -7.196   5.490  0.00  0.00     0.089 C 
ATOM    114  H79 LYS d   1      -9.077  -7.958   6.204  0.00  0.00     0.087 H 
BRANCH 113 115
ATOM    115  C   LYS d   1      -8.565  -7.266   4.227  0.00  0.00     0.241 C 
ATOM    116  O   LYS d   1      -8.589  -6.383   3.392  0.00  0.00    -0.271 OA
ATOM    117  N   SER d   1      -7.814  -8.321   4.081  0.00  0.00    -0.344 N 
ATOM    118  H91 SER d   1      -7.815  -9.032   4.784  0.00  0.00     0.163 HD
BRANCH 117 119
ATOM    119  CA  SER d   1      -6.955  -8.475   2.875  0.00  0.00     0.109 C 
ATOM    120  H92 SER d   1      -7.542  -8.250   1.972  0.00  0.00     0.090 H 
BRANCH 119 121
ATOM    121  C   SER d   1      -6.441  -9.915   2.809  0.00  0.00     0.243 C 
ATOM    122  O   SER d   1      -5.931 -10.442   3.778  0.00  0.00    -0.271 OA
ATOM    123  N   ALA d   1      -6.566 -10.558   1.683  0.00  0.00    -0.346 N 
ATOM    124  H96 ALA d   1      -6.988 -10.112   0.893  0.00  0.00     0.163 HD
BRANCH 123 125
ATOM    125  CA  ALA d   1      -6.077 -11.960   1.579  0.00  0.00     0.086 C 
ATOM    126  H97 ALA d   1      -5.177 -12.078   2.200  0.00  0.00     0.086 H 
BRANCH 125 127
ATOM    127  C   ALA d   1      -5.732 -12.285   0.124  0.00  0.00     0.240 C 
ATOM    128  O   ALA d   1      -6.309 -11.742  -0.803  0.00  0.00    -0.271 OA
ATOM    129  N   GLY d   1      -4.797 -13.174  -0.080  0.00  0.00    -0.351 N 
ATOM    130 1H10 GLY d   1      -4.341 -13.605   0.699  0.00  0.00     0.163 HD
BRANCH 129 131
ATOM    131  CA  GLY d   1      -4.407 -13.548  -1.468  0.00  0.00     0.069 C 
ATOM    132 2H10 GLY d   1      -3.942 -12.683  -1.963  0.00  0.00     0.078 H 
ATOM    133 3H10 GLY d   1      -5.302 -13.854  -2.030  0.00  0.00     0.078 H 
BRANCH 131 134
ATOM    134  C   GLY d   1      -3.411 -14.707  -1.428  0.00  0.00     0.235 C 
ATOM    135  O   GLY d   1      -3.113 -15.247  -0.381  0.00  0.00    -0.272 OA
ATOM    136  N   GLY d   1      -2.893 -15.095  -2.562  0.00  0.00    -0.351 N 
ATOM    137 4H10 GLY d   1      -3.152 -14.636  -3.412  0.00  0.00     0.163 HD
BRANCH 136 138
ATOM    138  CA  GLY d   1      -1.917 -16.220  -2.592  0.00  0.00     0.069 C 
ATOM    139 5H10 GLY d   1      -1.317 -16.209  -1.670  0.00  0.00     0.078 H 
ATOM    140 6H10 GLY d   1      -1.254 -16.106  -3.462  0.00  0.00     0.078 H 
BRANCH 138 141
ATOM    141  C   GLY d   1      -2.669 -17.547  -2.695  0.00  0.00     0.235 C 
ATOM    142  O   GLY d   1      -3.865 -17.575  -2.911  0.00  0.00    -0.272 OA
ATOM    143  N   GLY d   1      -1.978 -18.645  -2.542  0.00  0.00    -0.351 N 
ATOM    144 7H10 GLY d   1      -0.995 -18.594  -2.365  0.00  0.00     0.163 HD
BRANCH 143 145
ATOM    145  CA  GLY d   1      -2.649 -19.975  -2.630  0.00  0.00     0.069 C 
ATOM    146 8H10 GLY d   1      -2.310 -20.497  -3.537  0.00  0.00     0.078 H 
ATOM    147 9H10 GLY d   1      -3.739 -19.833  -2.674  0.00  0.00     0.078 H 
BRANCH 145 148
ATOM    148  C   GLY d   1      -2.294 -20.810  -1.400  0.00  0.00     0.238 C 
ATOM    149  O   GLY d   1      -1.468 -21.700  -1.462  0.00  0.00    -0.272 OA
ATOM    150  N   PRO d   1      -2.916 -20.524  -0.289  0.00  0.00    -0.337 N 
ATOM    151  CA  PRO d   1      -2.669 -21.257   0.986  0.00  0.00     0.091 C 
ATOM    152  CD  PRO d   1      -3.924 -19.467  -0.130  0.00  0.00    -0.001 C 
ATOM    153  CB  PRO d   1      -3.717 -20.694   1.952  0.00  0.00    -0.036 C 
ATOM    154 0H11 PRO d   1      -1.652 -21.053   1.353  0.00  0.00     0.087 H 
ATOM    155  CG  PRO d   1      -4.122 -19.374   1.382  0.00  0.00    -0.048 C 
ATOM    156 1H11 PRO d   1      -3.284 -20.562   2.954  0.00  0.00     0.036 H 
ATOM    157 2H11 PRO d   1      -4.584 -21.368   2.013  0.00  0.00     0.036 H 
ATOM    158 3H11 PRO d   1      -3.493 -18.573   1.798  0.00  0.00     0.035 H 
ATOM    159 4H11 PRO d   1      -5.178 -19.169   1.614  0.00  0.00     0.035 H 
ATOM    160 5H11 PRO d   1      -4.863 -19.743  -0.632  0.00  0.00     0.064 H 
ATOM    161 6H11 PRO d   1      -3.558 -18.513  -0.536  0.00  0.00     0.064 H 
BRANCH 151 162
ATOM    162  C   PRO d   1      -2.852 -22.770   0.828  0.00  0.00     0.241 C 
ATOM    163  O   PRO d   1      -3.708 -23.226   0.096  0.00  0.00    -0.271 OA
ATOM    164  N   SER d   1      -2.052 -23.548   1.508  0.00  0.00    -0.343 N 
ATOM    165 7H11 SER d   1      -1.355 -23.148   2.103  0.00  0.00     0.163 HD
BRANCH 164 166
ATOM    166  CA  SER d   1      -2.176 -25.030   1.399  0.00  0.00     0.116 C 
ATOM    167 8H11 SER d   1      -2.851 -25.282   0.568  0.00  0.00     0.093 H 
BRANCH 166 168
ATOM    168  C   SER d   1      -2.743 -25.591   2.705  0.00  0.00     0.198 C 
ATOM    169  O   SER d   1      -2.026 -26.312   3.378  0.00  0.00    -0.646 OA
ATOM    170  OXT SER d   1      -3.886 -25.289   3.009  0.00  0.00    -0.646 OA
ENDBRANCH 166 168
BRANCH 166 171
ATOM    171  CB  SER d   1      -0.797 -25.638   1.140  0.00  0.00     0.045 C 
ATOM    172 9H11 SER d   1      -0.202 -25.608   2.065  0.00  0.00     0.077 H 
ATOM    173 0H12 SER d   1      -0.283 -25.064   0.355  0.00  0.00     0.077 H 
BRANCH 171 174
ATOM    174  OG  SER d   1      -0.951 -26.987   0.718  0.00  0.00    -0.398 OA
ATOM    175 1H12 SER d   1      -1.395 -27.481   1.397  0.00  0.00     0.209 HD
ENDBRANCH 171 174
ENDBRANCH 166 171
ENDBRANCH 164 166
ENDBRANCH 151 162
ENDBRANCH 145 148
ENDBRANCH 143 145
ENDBRANCH 138 141
ENDBRANCH 136 138
ENDBRANCH 131 134
ENDBRANCH 129 131
ENDBRANCH 125 127
BRANCH 125 176
ATOM    176  CB  ALA d   1      -7.163 -12.917   2.074  0.00  0.00    -0.049 C 
ATOM    177  H98 ALA d   1      -6.801 -13.953   1.997  0.00  0.00     0.030 H 
ATOM    178  H99 ALA d   1      -8.066 -12.797   1.458  0.00  0.00     0.030 H 
ATOM    179 0H10 ALA d   1      -7.402 -12.689   3.123  0.00  0.00     0.030 H 
ENDBRANCH 125 176
ENDBRANCH 123 125
ENDBRANCH 119 121
BRANCH 119 180
ATOM    180  CB  SER d   1      -5.770  -7.516   2.966  0.00  0.00     0.044 C 
ATOM    181  H93 SER d   1      -5.040  -7.758   2.180  0.00  0.00     0.077 H 
ATOM    182  H94 SER d   1      -5.293  -7.614   3.952  0.00  0.00     0.077 H 
BRANCH 180 183
ATOM    183  OG  SER d   1      -6.231  -6.182   2.791  0.00  0.00    -0.398 OA
ATOM    184  H95 SER d   1      -6.862  -5.974   3.470  0.00  0.00     0.209 HD
ENDBRANCH 180 183
ENDBRANCH 119 180
ENDBRANCH 117 119
ENDBRANCH 113 115
BRANCH 113 185
ATOM    185  CB  LYS d   1     -10.882  -7.468   5.126  0.00  0.00    -0.038 C 
ATOM    186  H80 LYS d   1     -10.957  -8.438   4.612  0.00  0.00     0.036 H 
ATOM    187  H81 LYS d   1     -11.249  -6.672   4.462  0.00  0.00     0.036 H 
BRANCH 185 188
ATOM    188  CG  LYS d   1     -11.728  -7.499   6.400  0.00  0.00    -0.061 C 
ATOM    189  H82 LYS d   1     -11.809  -6.482   6.811  0.00  0.00     0.033 H 
ATOM    190  H83 LYS d   1     -11.251  -8.158   7.141  0.00  0.00     0.033 H 
BRANCH 188 191
ATOM    191  CD  LYS d   1     -13.125  -8.029   6.070  0.00  0.00    -0.043 C 
ATOM    192  H84 LYS d   1     -13.704  -8.137   6.999  0.00  0.00     0.035 H 
ATOM    193  H85 LYS d   1     -13.038  -9.008   5.576  0.00  0.00     0.035 H 
BRANCH 191 194
ATOM    194  CE  LYS d   1     -13.838  -7.049   5.136  0.00  0.00     0.080 C 
ATOM    195  H86 LYS d   1     -13.513  -6.023   5.364  0.00  0.00     0.075 H 
ATOM    196  H87 LYS d   1     -14.925  -7.130   5.281  0.00  0.00     0.075 H 
BRANCH 194 197
ATOM    197  NZ  LYS d   1     -13.500  -7.374   3.722  0.00  0.00    -0.079 N 
ATOM    198  H88 LYS d   1     -13.970  -6.728   3.107  0.00  0.00     0.274 HD
ATOM    199  H89 LYS d   1     -13.798  -8.314   3.513  0.00  0.00     0.274 HD
ATOM    200  H90 LYS d   1     -12.504  -7.300   3.589  0.00  0.00     0.274 HD
ENDBRANCH 194 197
ENDBRANCH 191 194
ENDBRANCH 188 191
ENDBRANCH 185 188
ENDBRANCH 113 185
ENDBRANCH 111 113
ENDBRANCH 107 109
BRANCH 107 201
ATOM    201  CB  ARG d   1      -7.660  -3.122   6.429  0.00  0.00    -0.036 C 
ATOM    202  H67 ARG d   1      -7.549  -2.147   6.926  0.00  0.00     0.036 H 
ATOM    203  H68 ARG d   1      -8.378  -3.032   5.601  0.00  0.00     0.036 H 
BRANCH 201 204
ATOM    204  CG  ARG d   1      -6.303  -3.569   5.878  0.00  0.00    -0.048 C 
ATOM    205  H69 ARG d   1      -6.452  -4.359   5.127  0.00  0.00     0.035 H 
ATOM    206  H70 ARG d   1      -5.681  -3.956   6.699  0.00  0.00     0.035 H 
BRANCH 204 207
ATOM    207  CD  ARG d   1      -5.608  -2.370   5.230  0.00  0.00     0.009 C 
ATOM    208  H71 ARG d   1      -5.384  -1.618   6.000  0.00  0.00     0.064 H 
ATOM    209  H72 ARG d   1      -6.271  -1.931   4.470  0.00  0.00     0.064 H 
BRANCH 207 210
ATOM    210  NE  ARG d   1      -4.340  -2.810   4.585  0.00  0.00    -0.227 N 
ATOM    211  CZ  ARG d   1      -3.379  -1.949   4.390  0.00  0.00     0.665 C 
ATOM    212  NH1 ARG d   1      -2.268  -2.326   3.819  0.00  0.00    -0.235 N 
ATOM    213  NH2 ARG d   1      -3.529  -0.708   4.766  0.00  0.00    -0.235 N 
ATOM    214  H74 ARG d   1      -1.511  -1.645   3.666  0.00  0.00     0.174 HD
ATOM    215  H75 ARG d   1      -2.148  -3.305   3.521  0.00  0.00     0.174 HD
ATOM    216  H76 ARG d   1      -4.405  -0.409   5.217  0.00  0.00     0.174 HD
ATOM    217  H77 ARG d   1      -2.771  -0.028   4.612  0.00  0.00     0.174 HD
ATOM    218  H73 ARG d   1      -4.222  -3.791   4.294  0.00  0.00     0.177 HD
ENDBRANCH 207 210
ENDBRANCH 204 207
ENDBRANCH 201 204
ENDBRANCH 107 201
ENDBRANCH 105 107
ENDBRANCH   1 103
BRANCH   1 219
ATOM    219  CB  LYS d   1      -5.985  -5.921  10.937  0.00  0.00    -0.038 C 
ATOM    220  H54 LYS d   1      -5.546  -6.102   9.945  0.00  0.00     0.036 H 
ATOM    221  H55 LYS d   1      -6.700  -6.723  11.173  0.00  0.00     0.036 H 
BRANCH 219 222
ATOM    222  CG  LYS d   1      -4.877  -5.901  11.989  0.00  0.00    -0.061 C 
ATOM    223  H56 LYS d   1      -5.324  -5.818  12.991  0.00  0.00     0.033 H 
ATOM    224  H57 LYS d   1      -4.216  -5.040  11.809  0.00  0.00     0.033 H 
BRANCH 222 225
ATOM    225  CD  LYS d   1      -4.066  -7.193  11.899  0.00  0.00    -0.043 C 
ATOM    226  H58 LYS d   1      -3.579  -7.254  10.914  0.00  0.00     0.035 H 
ATOM    227  H59 LYS d   1      -4.734  -8.056  12.032  0.00  0.00     0.035 H 
BRANCH 225 228
ATOM    228  CE  LYS d   1      -3.002  -7.198  12.995  0.00  0.00     0.080 C 
ATOM    229  H60 LYS d   1      -3.431  -7.612  13.920  0.00  0.00     0.075 H 
ATOM    230  H61 LYS d   1      -2.659  -6.169  13.178  0.00  0.00     0.075 H 
BRANCH 228 231
ATOM    231  NZ  LYS d   1      -1.848  -8.036  12.565  0.00  0.00    -0.079 N 
ATOM    232  H62 LYS d   1      -1.147  -8.039  13.289  0.00  0.00     0.274 HD
ATOM    233  H63 LYS d   1      -1.455  -7.657  11.718  0.00  0.00     0.274 HD
ATOM    234  H64 LYS d   1      -2.162  -8.979  12.398  0.00  0.00     0.274 HD
ENDBRANCH 228 231
ENDBRANCH 225 228
ENDBRANCH 222 225
ENDBRANCH 219 222
ENDBRANCH   1 219
TORSDOF 65
