REMARK WARNING: 32 MAX_TORS EXCEEDED!!!
REMARK  53 active torsions:
REMARK  status: ('A' for Active; 'I' for Inactive)
REMARK    1  A    between atoms: N_1  and  CA_2 
REMARK    2  A    between atoms: CA_2  and  C_3 
REMARK    3  A    between atoms: CA_2  and  CB_5 
REMARK       I    between atoms: C_3  and  N_9 
REMARK    4  A    between atoms: CB_5  and  CG_6 
REMARK       I    between atoms: CG_6  and  ND2_8 
REMARK    5  A    between atoms: N_9  and  CA_10 
REMARK    6  A    between atoms: CA_10  and  C_11 
REMARK    7  A    between atoms: CA_10  and  CB_13 
REMARK       I    between atoms: C_11  and  N_14 
REMARK    8  A    between atoms: N_14  and  CA_15 
REMARK    9  A    between atoms: CA_15  and  C_16 
REMARK   10  A    between atoms: CA_15  and  CB_18 
REMARK       I    between atoms: C_16  and  N_22 
REMARK   11  A    between atoms: CB_18  and  CG_19 
REMARK   12  A    between atoms: CG_19  and  CD1_20 
REMARK   13  A    between atoms: CG_19  and  CD2_21 
REMARK   14  A    between atoms: N_22  and  CA_23 
REMARK   15  A    between atoms: CA_23  and  C_24 
REMARK   16  A    between atoms: CA_23  and  CB_26 
REMARK       I    between atoms: C_24  and  N_30 
REMARK   17  A    between atoms: CB_26  and  CG_27 
REMARK   18  A    between atoms: CG_27  and  CD1_28 
REMARK   19  A    between atoms: CG_27  and  CD2_29 
REMARK   20  A    between atoms: N_30  and  CA_31 
REMARK   21  A    between atoms: CA_31  and  C_32 
REMARK   22  A    between atoms: CA_31  and  CB_34 
REMARK       I    between atoms: C_32  and  N_41 
REMARK   23  A    between atoms: CB_34  and  CG_35 
REMARK   24  A    between atoms: CG_35  and  CD_36 
REMARK   25  A    between atoms: CD_36  and  NE_37 
REMARK       I    between atoms: NE_37  and  CZ_38 
REMARK       I    between atoms: CZ_38  and  NH1_39 
REMARK   26  A    between atoms: N_41  and  CA_42 
REMARK   27  A    between atoms: CA_42  and  C_43 
REMARK   28  A    between atoms: CA_42  and  CB_45 
REMARK       I    between atoms: C_43  and  N_53 
REMARK   29  A    between atoms: CB_45  and  CG_46 
REMARK   30  A    between atoms: CZ_51  and  OH_52 
REMARK   31  A    between atoms: N_53  and  CA_54 
REMARK   32  A    between atoms: CA_54  and  C_55 
REMARK   33  A    between atoms: CA_54  and  CB_57 
REMARK       I    between atoms: C_55  and  N_61 
REMARK   34  A    between atoms: CB_57  and  CG_58 
REMARK   35  A    between atoms: CG_58  and  CD1_59 
REMARK   36  A    between atoms: CG_58  and  CD2_60 
REMARK   37  A    between atoms: N_61  and  CA_62 
REMARK   38  A    between atoms: CA_62  and  C_63 
REMARK   39  A    between atoms: CA_62  and  CB_65 
REMARK       I    between atoms: C_63  and  N_69 
REMARK   40  A    between atoms: CB_65  and  CG_66 
REMARK   41  A    between atoms: CG_66  and  CD1_67 
REMARK   42  A    between atoms: CG_66  and  CD2_68 
REMARK   43  A    between atoms: N_69  and  CA_70 
REMARK   44  A    between atoms: CA_70  and  C_71 
REMARK   45  A    between atoms: CA_70  and  CB_73 
REMARK       I    between atoms: C_71  and  N_77 
REMARK   46  A    between atoms: CB_73  and  CG_74 
REMARK   47  A    between atoms: N_77  and  CA_78 
REMARK   48  A    between atoms: CA_78  and  C_79 
REMARK   49  A    between atoms: CA_78  and  CB_81 
REMARK   50  A    between atoms: CB_81  and  CG_82 
REMARK   51  A    between atoms: CG_82  and  CD_83 
REMARK   52  A    between atoms: CD_83  and  CE_84 
REMARK   53  A    between atoms: CE_84  and  NZ_85 
ROOT
ATOM      1  CA  ASN d   1      22.641  -4.871  69.841  0.00  0.00     0.093 C 
ATOM      2  H50 ASN d   1      22.296  -4.683  70.868  0.00  0.00     0.088 H 
ENDROOT
BRANCH   1   3
ATOM      3  N   ASN d   1      21.991  -6.053  69.359  0.00  0.00    -0.346 N 
ATOM      4  C   ASN d   1      20.672  -6.147  69.245  0.00  0.00     0.241 C 
ATOM      5  O   ASN d   1      19.900  -5.241  69.555  0.00  0.00    -0.271 OA
ATOM      6  H49 ASN d   1      22.553  -6.838  69.098  0.00  0.00     0.163 HD
BRANCH   4   7
ATOM      7  CA  ASN d   1      20.152  -7.456  68.643  0.00  0.00     0.089 C 
ATOM      8  H37 ASN d   1      19.124  -7.273  68.297  0.00  0.00     0.087 H 
BRANCH   7   9
ATOM      9  N   ASN d   1      20.947  -7.897  67.460  0.00  0.00    -0.346 N 
ATOM     10  C   ASN d   1      20.995  -7.112  66.398  0.00  0.00     0.241 C 
ATOM     11  O   ASN d   1      20.418  -6.049  66.381  0.00  0.00    -0.271 OA
ATOM     12  H36 ASN d   1      21.434  -8.770  67.471  0.00  0.00     0.163 HD
BRANCH  10  13
ATOM     13  CA  ASN d   1      21.842  -7.546  65.207  0.00  0.00     0.089 C 
ATOM     14  H26 ASN d   1      22.127  -6.646  64.642  0.00  0.00     0.087 H 
BRANCH  13  15
ATOM     15  N   ASN d   1      23.062  -8.174  65.711  0.00  0.00    -0.346 N 
ATOM     16  C   ASN d   1      23.966  -7.430  66.337  0.00  0.00     0.241 C 
ATOM     17  O   ASN d   1      23.809  -6.231  66.478  0.00  0.00    -0.271 OA
ATOM     18  H25 ASN d   1      23.214  -9.154  65.585  0.00  0.00     0.163 HD
BRANCH  16  19
ATOM     19  CA  ASN d   1      25.230  -8.100  66.888  0.00  0.00     0.089 C 
ATOM     20  H15 ASN d   1      25.656  -7.406  67.628  0.00  0.00     0.087 H 
BRANCH  19  21
ATOM     21  N   ASN d   1      24.981  -9.372  67.598  0.00  0.00    -0.346 N 
ATOM     22  C   ASN d   1      24.264  -9.391  68.728  0.00  0.00     0.240 C 
ATOM     23  O   ASN d   1      23.785  -8.373  69.249  0.00  0.00    -0.271 OA
ATOM     24  H14 ASN d   1      25.351 -10.225  67.231  0.00  0.00     0.163 HD
BRANCH  22  25
ATOM     25  CA  ASN d   1      24.009 -10.767  69.335  0.00  0.00     0.086 C 
ATOM     26  H10 ASN d   1      23.114 -10.713  69.973  0.00  0.00     0.086 H 
BRANCH  25  27
ATOM     27  N   ASN d   1      23.766 -11.698  68.264  0.00  0.00    -0.346 N 
ATOM     28  C   ASN d   1      22.656 -11.655  67.534  0.00  0.00     0.249 C 
ATOM     29  O   ASN d   1      21.809 -10.769  67.650  0.00  0.00    -0.271 OA
ATOM     30  H9  ASN d   1      24.452 -12.397  68.064  0.00  0.00     0.163 HD
BRANCH  28  31
ATOM     31  CA  ASN d   1      22.463 -12.796  66.542  0.00  0.00     0.183 C 
ATOM     32  H4  ASN d   1      22.977 -12.548  65.601  0.00  0.00     0.099 H 
BRANCH  31  33
ATOM     33  N   ASN d   1      23.038 -14.099  67.086  0.00  0.00    -0.066 N 
ATOM     34  H1  ASN d   1      22.898 -14.835  66.412  0.00  0.00     0.275 HD
ATOM     35  H2  ASN d   1      22.572 -14.338  67.947  0.00  0.00     0.275 HD
ATOM     36  H3  ASN d   1      24.025 -13.985  67.258  0.00  0.00     0.275 HD
ENDBRANCH  31  33
BRANCH  31  37
ATOM     37  CB  ASN d   1      20.962 -12.948  66.276  0.00  0.00     0.044 C 
ATOM     38  H5  ASN d   1      20.565 -11.978  65.942  0.00  0.00     0.051 H 
ATOM     39  H6  ASN d   1      20.468 -13.244  67.213  0.00  0.00     0.051 H 
BRANCH  37  40
ATOM     40  CG  ASN d   1      20.655 -13.979  65.226  0.00  0.00     0.217 C 
ATOM     41  OD1 ASN d   1      19.776 -14.819  65.417  0.00  0.00    -0.274 OA
ATOM     42  ND2 ASN d   1      21.363 -13.910  64.091  0.00  0.00    -0.370 N 
ATOM     43  H7  ASN d   1      21.200 -14.571  63.359  0.00  0.00     0.159 HD
ATOM     44  H8  ASN d   1      22.055 -13.197  63.976  0.00  0.00     0.159 HD
ENDBRANCH  37  40
ENDBRANCH  31  37
ENDBRANCH  28  31
ENDBRANCH  25  27
BRANCH  25  45
ATOM     45  CB  ASN d   1      25.194 -11.234  70.200  0.00  0.00    -0.049 C 
ATOM     46  H11 ASN d   1      25.363 -10.511  71.011  0.00  0.00     0.030 H 
ATOM     47  H12 ASN d   1      26.098 -11.304  69.577  0.00  0.00     0.030 H 
ATOM     48  H13 ASN d   1      24.968 -12.221  70.630  0.00  0.00     0.030 H 
ENDBRANCH  25  45
ENDBRANCH  22  25
ENDBRANCH  19  21
BRANCH  19  49
ATOM     49  CB  ASN d   1      26.269  -8.282  65.792  0.00  0.00    -0.035 C 
ATOM     50  H16 ASN d   1      25.973  -9.163  65.203  0.00  0.00     0.037 H 
ATOM     51  H17 ASN d   1      27.234  -8.477  66.284  0.00  0.00     0.037 H 
BRANCH  49  52
ATOM     52  CG  ASN d   1      26.481  -7.132  64.815  0.00  0.00    -0.059 C 
ATOM     53  H18 ASN d   1      25.548  -6.976  64.254  0.00  0.00     0.038 H 
BRANCH  52  54
ATOM     54  CD1 ASN d   1      26.821  -5.845  65.513  0.00  0.00    -0.073 C 
ATOM     55  H19 ASN d   1      26.964  -5.050  64.767  0.00  0.00     0.028 H 
ATOM     56  H20 ASN d   1      27.747  -5.975  66.091  0.00  0.00     0.028 H 
ATOM     57  H21 ASN d   1      26.001  -5.568  66.192  0.00  0.00     0.028 H 
ENDBRANCH  52  54
BRANCH  52  58
ATOM     58  CD2 ASN d   1      27.580  -7.533  63.833  0.00  0.00    -0.073 C 
ATOM     59  H22 ASN d   1      27.304  -8.476  63.339  0.00  0.00     0.028 H 
ATOM     60  H23 ASN d   1      28.526  -7.668  64.377  0.00  0.00     0.028 H 
ATOM     61  H24 ASN d   1      27.701  -6.744  63.076  0.00  0.00     0.028 H 
ENDBRANCH  52  58
ENDBRANCH  49  52
ENDBRANCH  19  49
ENDBRANCH  16  19
ENDBRANCH  13  15
BRANCH  13  62
ATOM     62  CB  ASN d   1      21.082  -8.452  64.265  0.00  0.00    -0.035 C 
ATOM     63  H27 ASN d   1      20.187  -7.915  63.919  0.00  0.00     0.037 H 
ATOM     64  H28 ASN d   1      20.778  -9.350  64.822  0.00  0.00     0.037 H 
BRANCH  62  65
ATOM     65  CG  ASN d   1      21.881  -8.900  63.030  0.00  0.00    -0.059 C 
ATOM     66  H29 ASN d   1      22.776  -9.430  63.389  0.00  0.00     0.038 H 
BRANCH  65  67
ATOM     67  CD1 ASN d   1      21.004  -9.861  62.250  0.00  0.00    -0.073 C 
ATOM     68  H30 ASN d   1      21.543 -10.205  61.355  0.00  0.00     0.028 H 
ATOM     69  H31 ASN d   1      20.079  -9.349  61.947  0.00  0.00     0.028 H 
ATOM     70  H32 ASN d   1      20.754 -10.725  62.883  0.00  0.00     0.028 H 
ENDBRANCH  65  67
BRANCH  65  71
ATOM     71  CD2 ASN d   1      22.346  -7.821  62.075  0.00  0.00    -0.073 C 
ATOM     72  H33 ASN d   1      22.986  -7.106  62.613  0.00  0.00     0.028 H 
ATOM     73  H34 ASN d   1      21.473  -7.294  61.664  0.00  0.00     0.028 H 
ATOM     74  H35 ASN d   1      22.917  -8.279  61.254  0.00  0.00     0.028 H 
ENDBRANCH  65  71
ENDBRANCH  62  65
ENDBRANCH  13  62
ENDBRANCH  10  13
ENDBRANCH   7   9
BRANCH   7  75
ATOM     75  CB  ASN d   1      20.096  -8.559  69.713  0.00  0.00    -0.036 C 
ATOM     76  H38 ASN d   1      21.130  -8.823  69.979  0.00  0.00     0.036 H 
ATOM     77  H39 ASN d   1      19.597  -9.433  69.270  0.00  0.00     0.036 H 
BRANCH  75  78
ATOM     78  CG  ASN d   1      19.354  -8.201  71.010  0.00  0.00    -0.048 C 
ATOM     79  H40 ASN d   1      19.989  -7.502  71.574  0.00  0.00     0.035 H 
ATOM     80  H41 ASN d   1      19.228  -9.129  71.587  0.00  0.00     0.035 H 
BRANCH  78  81
ATOM     81  CD  ASN d   1      17.975  -7.557  70.866  0.00  0.00     0.009 C 
ATOM     82  H42 ASN d   1      18.103  -6.591  70.356  0.00  0.00     0.064 H 
ATOM     83  H43 ASN d   1      17.572  -7.388  71.875  0.00  0.00     0.064 H 
BRANCH  81  84
ATOM     84  NE  ASN d   1      16.992  -8.341  70.111  0.00  0.00    -0.227 N 
ATOM     85  CZ  ASN d   1      15.892  -7.811  69.565  0.00  0.00     0.665 C 
ATOM     86  NH1 ASN d   1      15.625  -6.512  69.674  0.00  0.00    -0.235 N 
ATOM     87  NH2 ASN d   1      15.037  -8.567  68.902  0.00  0.00    -0.235 N 
ATOM     88  H45 ASN d   1      14.772  -6.124  69.246  0.00  0.00     0.174 HD
ATOM     89  H46 ASN d   1      16.271  -5.895  70.186  0.00  0.00     0.174 HD
ATOM     90  H47 ASN d   1      15.214  -9.576  68.799  0.00  0.00     0.174 HD
ATOM     91  H48 ASN d   1      14.193  -8.148  68.487  0.00  0.00     0.174 HD
ATOM     92  H44 ASN d   1      17.157  -9.351  69.995  0.00  0.00     0.177 HD
ENDBRANCH  81  84
ENDBRANCH  78  81
ENDBRANCH  75  78
ENDBRANCH   7  75
ENDBRANCH   4   7
ENDBRANCH   1   3
BRANCH   1  93
ATOM     93  C   ASN d   1      22.296  -3.651  69.004  0.00  0.00     0.241 C 
ATOM     94  O   ASN d   1      22.016  -2.583  69.537  0.00  0.00    -0.271 OA
ATOM     95  N   ASN d   1      22.352  -3.794  67.691  0.00  0.00    -0.346 N 
ATOM     96  H58 ASN d   1      22.636  -4.671  67.303  0.00  0.00     0.163 HD
BRANCH  95  97
ATOM     97  CA  ASN d   1      22.005  -2.688  66.795  0.00  0.00     0.089 C 
ATOM     98  H59 ASN d   1      22.572  -1.806  67.127  0.00  0.00     0.087 H 
BRANCH  97  99
ATOM     99  C   ASN d   1      20.530  -2.338  66.861  0.00  0.00     0.241 C 
ATOM    100  O   ASN d   1      20.177  -1.144  66.790  0.00  0.00    -0.271 OA
ATOM    101  N   ASN d   1      19.673  -3.337  67.066  0.00  0.00    -0.346 N 
ATOM    102  H69 ASN d   1      19.994  -4.284  67.058  0.00  0.00     0.163 HD
BRANCH 101 103
ATOM    103  CA  ASN d   1      18.235  -3.036  67.307  0.00  0.00     0.089 C 
ATOM    104  H70 ASN d   1      17.926  -2.389  66.473  0.00  0.00     0.087 H 
BRANCH 103 105
ATOM    105  C   ASN d   1      17.958  -2.225  68.586  0.00  0.00     0.241 C 
ATOM    106  O   ASN d   1      17.136  -1.305  68.565  0.00  0.00    -0.271 OA
ATOM    107  N   ASN d   1      18.693  -2.478  69.662  0.00  0.00    -0.346 N 
ATOM    108  H80 ASN d   1      19.459  -3.118  69.605  0.00  0.00     0.163 HD
BRANCH 107 109
ATOM    109  CA  ASN d   1      18.382  -1.820  70.931  0.00  0.00     0.098 C 
ATOM    110  H81 ASN d   1      17.297  -1.637  70.924  0.00  0.00     0.088 H 
BRANCH 109 111
ATOM    111  C   ASN d   1      19.043  -0.474  71.241  0.00  0.00     0.241 C 
ATOM    112  O   ASN d   1      18.535   0.241  72.088  0.00  0.00    -0.271 OA
ATOM    113  N   ASN d   1      20.162  -0.123  70.618  0.00  0.00    -0.345 N 
ATOM    114  H84 ASN d   1      20.397  -0.545  69.742  0.00  0.00     0.163 HD
BRANCH 113 115
ATOM    115  CA  ASN d   1      21.066   0.893  71.215  0.00  0.00     0.096 C 
ATOM    116  H85 ASN d   1      21.225   0.569  72.254  0.00  0.00     0.089 H 
BRANCH 115 117
ATOM    117  C   ASN d   1      20.501   2.324  71.308  0.00  0.00     0.196 C 
ATOM    118  O   ASN d   1      19.657   2.704  70.504  0.00  0.00    -0.646 OA
ATOM    119  OXT ASN d   1      20.895   3.084  72.186  0.00  0.00    -0.646 OA
ENDBRANCH 115 117
BRANCH 115 120
ATOM    120  CB  ASN d   1      22.456   0.897  70.541  0.00  0.00    -0.037 C 
ATOM    121  H86 ASN d   1      22.845  -0.132  70.566  0.00  0.00     0.036 H 
ATOM    122  H87 ASN d   1      23.114   1.552  71.131  0.00  0.00     0.036 H 
BRANCH 120 123
ATOM    123  CG  ASN d   1      22.498   1.374  69.098  0.00  0.00    -0.061 C 
ATOM    124  H88 ASN d   1      21.931   2.313  69.012  0.00  0.00     0.033 H 
ATOM    125  H89 ASN d   1      22.041   0.610  68.452  0.00  0.00     0.033 H 
BRANCH 123 126
ATOM    126  CD  ASN d   1      23.931   1.614  68.649  0.00  0.00    -0.043 C 
ATOM    127  H90 ASN d   1      24.603   1.022  69.288  0.00  0.00     0.035 H 
ATOM    128  H91 ASN d   1      24.161   2.683  68.766  0.00  0.00     0.035 H 
BRANCH 126 129
ATOM    129  CE  ASN d   1      24.174   1.218  67.184  0.00  0.00     0.080 C 
ATOM    130  H92 ASN d   1      23.515   0.365  66.964  0.00  0.00     0.075 H 
ATOM    131  H93 ASN d   1      25.224   0.900  67.103  0.00  0.00     0.075 H 
BRANCH 129 132
ATOM    132  NZ  ASN d   1      23.939   2.244  66.119  0.00  0.00    -0.079 N 
ATOM    133  H94 ASN d   1      24.138   1.843  65.216  0.00  0.00     0.274 HD
ATOM    134  H95 ASN d   1      24.543   3.035  66.275  0.00  0.00     0.274 HD
ATOM    135  H96 ASN d   1      22.977   2.545  66.148  0.00  0.00     0.274 HD
ENDBRANCH 129 132
ENDBRANCH 126 129
ENDBRANCH 123 126
ENDBRANCH 120 123
ENDBRANCH 115 120
ENDBRANCH 113 115
ENDBRANCH 109 111
BRANCH 109 136
ATOM    136  CB  ASN d   1      18.698  -2.781  72.072  0.00  0.00     0.043 C 
ATOM    137  H82 ASN d   1      18.392  -2.314  73.020  0.00  0.00     0.052 H 
ATOM    138  H83 ASN d   1      19.782  -2.965  72.087  0.00  0.00     0.052 H 
BRANCH 136 139
ATOM    139  CG  ASN d   1      17.988  -4.099  71.934  0.00  0.00     0.175 C 
ATOM    140  OD1 ASN d   1      16.850  -4.134  71.436  0.00  0.00    -0.648 OA
ATOM    141  OD2 ASN d   1      18.578  -5.116  72.326  0.00  0.00    -0.648 OA
ENDBRANCH 136 139
ENDBRANCH 109 136
ENDBRANCH 107 109
ENDBRANCH 103 105
BRANCH 103 142
ATOM    142  CB  ASN d   1      17.346  -4.301  67.219  0.00  0.00    -0.035 C 
ATOM    143  H71 ASN d   1      16.312  -4.031  67.480  0.00  0.00     0.037 H 
ATOM    144  H72 ASN d   1      17.720  -5.051  67.931  0.00  0.00     0.037 H 
BRANCH 142 145
ATOM    145  CG  ASN d   1      17.365  -4.910  65.784  0.00  0.00    -0.059 C 
ATOM    146  H73 ASN d   1      18.424  -4.992  65.498  0.00  0.00     0.038 H 
BRANCH 145 147
ATOM    147  CD1 ASN d   1      16.785  -6.311  65.697  0.00  0.00    -0.073 C 
ATOM    148  H74 ASN d   1      16.836  -6.665  64.657  0.00  0.00     0.028 H 
ATOM    149  H75 ASN d   1      15.736  -6.295  66.028  0.00  0.00     0.028 H 
ATOM    150  H76 ASN d   1      17.363  -6.988  66.343  0.00  0.00     0.028 H 
ENDBRANCH 145 147
BRANCH 145 151
ATOM    151  CD2 ASN d   1      16.699  -3.987  64.765  0.00  0.00    -0.073 C 
ATOM    152  H77 ASN d   1      17.133  -2.979  64.845  0.00  0.00     0.028 H 
ATOM    153  H78 ASN d   1      15.619  -3.938  64.966  0.00  0.00     0.028 H 
ATOM    154  H79 ASN d   1      16.866  -4.379  63.751  0.00  0.00     0.028 H 
ENDBRANCH 145 151
ENDBRANCH 142 145
ENDBRANCH 103 142
ENDBRANCH 101 103
ENDBRANCH  97  99
BRANCH  97 155
ATOM    155  CB  ASN d   1      22.414  -2.991  65.347  0.00  0.00    -0.035 C 
ATOM    156  H60 ASN d   1      21.964  -2.223  64.701  0.00  0.00     0.037 H 
ATOM    157  H61 ASN d   1      22.008  -3.978  65.080  0.00  0.00     0.037 H 
BRANCH 155 158
ATOM    158  CG  ASN d   1      23.921  -3.012  65.075  0.00  0.00    -0.059 C 
ATOM    159  H62 ASN d   1      24.361  -3.852  65.632  0.00  0.00     0.038 H 
BRANCH 158 160
ATOM    160  CD1 ASN d   1      24.136  -3.231  63.588  0.00  0.00    -0.073 C 
ATOM    161  H63 ASN d   1      25.215  -3.249  63.372  0.00  0.00     0.028 H 
ATOM    162  H64 ASN d   1      23.663  -2.413  63.025  0.00  0.00     0.028 H 
ATOM    163  H65 ASN d   1      23.686  -4.189  63.290  0.00  0.00     0.028 H 
ENDBRANCH 158 160
BRANCH 158 164
ATOM    164  CD2 ASN d   1      24.634  -1.734  65.500  0.00  0.00    -0.073 C 
ATOM    165  H66 ASN d   1      24.482  -1.570  66.577  0.00  0.00     0.028 H 
ATOM    166  H67 ASN d   1      24.225  -0.882  64.938  0.00  0.00     0.028 H 
ATOM    167  H68 ASN d   1      25.710  -1.828  65.292  0.00  0.00     0.028 H 
ENDBRANCH 158 164
ENDBRANCH 155 158
ENDBRANCH  97 155
ENDBRANCH  95  97
ENDBRANCH   1  93
BRANCH   1 168
ATOM    168  CB  ASN d   1      24.162  -5.109  69.876  0.00  0.00    -0.014 C 
ATOM    169  H51 ASN d   1      24.482  -5.454  68.882  0.00  0.00     0.043 H 
ATOM    170  H52 ASN d   1      24.373  -5.891  70.621  0.00  0.00     0.043 H 
BRANCH 168 171
ATOM    171  CG  ASN d   1      24.959  -3.890  70.232  0.00  0.00    -0.056 A 
ATOM    172  CD1 ASN d   1      25.382  -3.016  69.240  0.00  0.00    -0.074 A 
ATOM    173  CE1 ASN d   1      26.088  -1.867  69.558  0.00  0.00    -0.051 A 
ATOM    174  H53 ASN d   1      25.157  -3.235  68.203  0.00  0.00     0.084 H 
ATOM    175  CZ  ASN d   1      26.403  -1.586  70.907  0.00  0.00     0.065 A 
ATOM    176  H55 ASN d   1      26.398  -1.185  68.774  0.00  0.00     0.087 H 
ATOM    177  CE2 ASN d   1      25.999  -2.450  71.915  0.00  0.00    -0.051 A 
ATOM    178  CD2 ASN d   1      25.271  -3.596  71.580  0.00  0.00    -0.074 A 
ATOM    179  H56 ASN d   1      26.245  -2.239  72.950  0.00  0.00     0.087 H 
ATOM    180  H54 ASN d   1      24.941  -4.268  72.364  0.00  0.00     0.084 H 
BRANCH 175 181
ATOM    181  OH  ASN d   1      27.137  -0.470  71.209  0.00  0.00    -0.361 OA
ATOM    182  H57 ASN d   1      27.328   0.007  70.410  0.00  0.00     0.217 HD
ENDBRANCH 175 181
ENDBRANCH 168 171
ENDBRANCH   1 168
TORSDOF 53
