REMARK  3 active torsions:
REMARK  status: ('A' for Active; 'I' for Inactive)
REMARK    1  A    between atoms: C8_7  and  C5_4 
REMARK       I    between atoms: C14_16  and  N13_10 
REMARK    2  A    between atoms: C16_11  and  C14_16 
REMARK    3  A    between atoms: C22_22  and  C23_13 
ROOT
ATOM      1  C8  69Z d   1       4.000  12.302  10.772  0.00  0.00     0.040 C 
ATOM      2  C11 69Z d   1       2.762  14.297  11.199  0.00  0.00    -0.048 C 
ATOM      3  C12 69Z d   1       4.103  14.364  11.977  0.00  0.00    -0.001 C 
ATOM      4  N13 69Z d   1       4.872  13.151  11.621  0.00  0.00    -0.337 N 
ATOM      5  C10 69Z d   1       2.556  12.767  11.048  0.00  0.00    -0.041 C 
ATOM      6  C14 69Z d   1       6.143  12.910  12.038  0.00  0.00     0.281 C 
ATOM      7  O15 69Z d   1       6.709  13.714  12.750  0.00  0.00    -0.265 OA
ATOM      8  H5  69Z d   1       4.120  11.252  11.078  0.00  0.00     0.080 H 
ATOM      9  H6  69Z d   1       2.843  14.788  10.218  0.00  0.00     0.035 H 
ATOM     10  H7  69Z d   1       1.943  14.756  11.773  0.00  0.00     0.035 H 
ATOM     11  H8  69Z d   1       3.911  14.385  13.060  0.00  0.00     0.064 H 
ATOM     12  H9  69Z d   1       4.663  15.265  11.687  0.00  0.00     0.064 H 
ATOM     13  H13 69Z d   1       2.157  12.320  11.970  0.00  0.00     0.036 H 
ATOM     14  H14 69Z d   1       1.888  12.530  10.207  0.00  0.00     0.036 H 
ENDROOT
BRANCH   1  15
ATOM     15  C5  69Z d   1       4.286  12.398   9.285  0.00  0.00    -0.035 A 
ATOM     16  C4  69Z d   1       5.020  13.441   8.720  0.00  0.00    -0.073 A 
ATOM     17  C3  69Z d   1       5.254  13.462   7.352  0.00  0.00    -0.061 A 
ATOM     18  H2  69Z d   1       5.407  14.235   9.349  0.00  0.00     0.084 H 
ATOM     19  C2  69Z d   1       4.759  12.454   6.531  0.00  0.00     0.034 A 
ATOM     20  H1  69Z d   1       5.829  14.273   6.919  0.00  0.00     0.086 H 
ATOM     21  C7  69Z d   1       4.024  11.417   7.091  0.00  0.00    -0.061 A 
ATOM     22 CL1  69Z d   1       5.046  12.481   4.816  0.00  0.00    -0.084 Cl
ATOM     23  C6  69Z d   1       3.793  11.394   8.458  0.00  0.00    -0.073 A 
ATOM     24  H4  69Z d   1       3.632  10.627   6.461  0.00  0.00     0.086 H 
ATOM     25  H3  69Z d   1       3.220  10.581   8.889  0.00  0.00     0.084 H 
ENDBRANCH   1  15
BRANCH   6  26
ATOM     26  C16 69Z d   1       6.844  11.677  11.635  0.00  0.00     0.188 A 
ATOM     27  N17 69Z d   1       6.869  11.244  10.426  0.00  0.00    -0.152 NA
ATOM     28  N18 69Z d   1       7.543  10.069  10.188  0.00  0.00    -0.210 N 
ATOM     29  C19 69Z d   1       8.106   9.562  11.322  0.00  0.00     0.120 A 
ATOM     30  C22 69Z d   1       7.847   9.211   9.158  0.00  0.00     0.124 A 
ATOM     31  C20 69Z d   1       8.733   8.418  10.959  0.00  0.00     0.039 A 
ATOM     32  S24 69Z d   1       7.759  10.614  12.697  0.00  0.00    -0.042 SA
ATOM     33  N21 69Z d   1       8.547   8.224   9.641  0.00  0.00    -0.243 NA
ATOM     34  H15 69Z d   1       9.295   7.763  11.624  0.00  0.00     0.119 H 
BRANCH  30  35
ATOM     35  C23 69Z d   1       7.421   9.378   7.718  0.00  0.00    -0.019 C 
ATOM     36  H10 69Z d   1       7.810   8.540   7.121  0.00  0.00     0.037 H 
ATOM     37  H11 69Z d   1       7.821  10.324   7.325  0.00  0.00     0.037 H 
ATOM     38  H12 69Z d   1       6.323   9.391   7.660  0.00  0.00     0.037 H 
ENDBRANCH  30  35
ENDBRANCH   6  26
TORSDOF 3
