REMARK WARNING: 32 MAX_TORS EXCEEDED!!!
REMARK  47 active torsions:
REMARK  status: ('A' for Active; 'I' for Inactive)
REMARK    1  A    between atoms: N_1  and  CA_2 
REMARK       I    between atoms: C2_80  and  N_1 
REMARK    2  A    between atoms: CA_2  and  C_3 
REMARK    3  A    between atoms: CA_2  and  CB_5 
REMARK       I    between atoms: C_3  and  N_9 
REMARK    4  A    between atoms: CB_5  and  CG_6 
REMARK    5  A    between atoms: CG_6  and  SD_7 
REMARK    6  A    between atoms: SD_7  and  CE_8 
REMARK    7  A    between atoms: N_9  and  CA_10 
REMARK    8  A    between atoms: CA_10  and  C_11 
REMARK    9  A    between atoms: CA_10  and  CB_13 
REMARK       I    between atoms: C_11  and  N_18 
REMARK   10  A    between atoms: CB_13  and  CG_14 
REMARK   11  A    between atoms: CG_14  and  CD_15 
REMARK   12  A    between atoms: CD_15  and  CE_16 
REMARK   13  A    between atoms: CE_16  and  NZ_17 
REMARK   14  A    between atoms: N_18  and  CA_19 
REMARK   15  A    between atoms: CA_19  and  C_20 
REMARK   16  A    between atoms: CA_19  and  CB_22 
REMARK       I    between atoms: C_20  and  N_23 
REMARK   17  A    between atoms: N_23  and  CA_24 
REMARK   18  A    between atoms: CA_24  and  C_25 
REMARK   19  A    between atoms: CA_24  and  CB_27 
REMARK   20  A    between atoms: CB_27  and  CG1_28 
REMARK   21  A    between atoms: CB_27  and  CG2_29 
REMARK   22  A    between atoms: C6A_36  and  N6A_37 
REMARK   23  A    between atoms: C1B_41  and  N9A_40 
REMARK   24  A    between atoms: C2B_42  and  O2B_43 
REMARK   25  A    between atoms: C3B_44  and  O3B_45 
REMARK   26  A    between atoms: O3B_45  and  P3B_46 
REMARK   27  A    between atoms: C5B_52  and  C4B_50 
REMARK   28  A    between atoms: O5B_53  and  C5B_52 
REMARK   29  A    between atoms: P1A_54  and  O5B_53 
REMARK   30  A    between atoms: O3A_57  and  P1A_54 
REMARK   31  A    between atoms: P2A_58  and  O3A_57 
REMARK   32  A    between atoms: O6A_61  and  P2A_58 
REMARK   33  A    between atoms: CCP_63  and  O6A_61 
REMARK   34  A    between atoms: CBP_62  and  CCP_63 
REMARK   35  A    between atoms: CBP_62  and  CDP_64 
REMARK   36  A    between atoms: CBP_62  and  CEP_65 
REMARK   37  A    between atoms: CAP_66  and  CBP_62 
REMARK   38  A    between atoms: CAP_66  and  OAP_67 
REMARK   39  A    between atoms: C9P_68  and  CAP_66 
REMARK       I    between atoms: N8P_70  and  C9P_68 
REMARK   40  A    between atoms: C7P_71  and  N8P_70 
REMARK   41  A    between atoms: C6P_72  and  C7P_71 
REMARK   42  A    between atoms: C5P_73  and  C6P_72 
REMARK       I    between atoms: N4P_75  and  C5P_73 
REMARK   43  A    between atoms: C3P_76  and  N4P_75 
REMARK   44  A    between atoms: C2P_77  and  C3P_76 
REMARK   45  A    between atoms: S1P_78  and  C2P_77 
REMARK   46  A    between atoms: C1_79  and  S1P_78 
REMARK   47  A    between atoms: C1_79  and  C2_80 
ROOT
ATOM      1  H62 MET d   1      10.633  62.941  10.303  0.00  0.00     0.051 H 
ATOM      2  H63 MET d   1      10.268  61.184  10.378  0.00  0.00     0.051 H 
ATOM      3  C2P 1XE d   1      10.150  62.149  10.893  0.00  0.00    -0.008 C 
ENDROOT
BRANCH   3   4
ATOM      4  C3P 1XE d   1       8.697  62.454  10.974  0.00  0.00     0.003 C 
ATOM      5  H60 MET d   1       8.256  61.837  11.771  0.00  0.00     0.065 H 
ATOM      6  H61 MET d   1       8.579  63.518  11.227  0.00  0.00     0.065 H 
BRANCH   4   7
ATOM      7  N4P 1XE d   1       7.960  62.187   9.711  0.00  0.00    -0.360 N 
ATOM      8  C5P 1XE d   1       8.168  63.043   8.543  0.00  0.00     0.219 C 
ATOM      9  O5P 1XE d   1       8.975  64.028   8.565  0.00  0.00    -0.274 OA
ATOM     10  H59 MET d   1       7.320  61.420   9.660  0.00  0.00     0.162 HD
BRANCH   8  11
ATOM     11  C6P 1XE d   1       7.392  62.734   7.292  0.00  0.00     0.024 C 
ATOM     12  H57 MET d   1       8.101  62.426   6.509  0.00  0.00     0.049 H 
ATOM     13  H58 MET d   1       6.700  61.906   7.506  0.00  0.00     0.049 H 
BRANCH  11  14
ATOM     14  C7P 1XE d   1       6.608  63.882   6.789  0.00  0.00     0.003 C 
ATOM     15  H55 MET d   1       7.312  64.639   6.414  0.00  0.00     0.064 H 
ATOM     16  H56 MET d   1       5.976  63.528   5.962  0.00  0.00     0.064 H 
BRANCH  14  17
ATOM     17  N8P 1XE d   1       5.742  64.518   7.785  0.00  0.00    -0.358 N 
ATOM     18  C9P 1XE d   1       4.547  63.815   8.268  0.00  0.00     0.247 C 
ATOM     19  O9P 1XE d   1       4.267  62.662   7.854  0.00  0.00    -0.271 OA
ATOM     20  H54 MET d   1       5.964  65.428   8.135  0.00  0.00     0.162 HD
BRANCH  18  21
ATOM     21  CAP 1XE d   1       3.686  64.526   9.279  0.00  0.00     0.120 C 
ATOM     22  H52 1XE d   1       2.638  64.326   9.012  0.00  0.00     0.099 H 
BRANCH  21  23
ATOM     23  CBP 1XE d   1       3.875  64.118  10.766  0.00  0.00     0.009 C 
BRANCH  23  24
ATOM     24  CCP 1XE d   1       2.614  64.569  11.482  0.00  0.00     0.041 C 
ATOM     25  H44 1XE d   1       2.713  64.370  12.559  0.00  0.00     0.076 H 
ATOM     26  H45 1XE d   1       2.467  65.647  11.321  0.00  0.00     0.076 H 
BRANCH  24  27
ATOM     27  O6A 1XE d   1       1.483  63.849  10.964  0.00  0.00    -0.289 OA
BRANCH  27  28
ATOM     28  P2A 1XE d   1       0.018  64.465  11.010  0.00  0.00     0.417 P 
ATOM     29  O4A 1XE d   1      -0.106  65.816  10.205  0.00  0.00    -0.624 OA
ATOM     30  O5A 1XE d   1      -0.976  63.347  10.618  0.00  0.00    -0.624 OA
BRANCH  28  31
ATOM     31  O3A 1XE d   1      -0.136  64.777  12.555  0.00  0.00    -0.180 OA
BRANCH  31  32
ATOM     32  P1A 1XE d   1      -1.445  65.381  13.244  0.00  0.00     0.418 P 
ATOM     33  O1A 1XE d   1      -2.538  65.684  12.177  0.00  0.00    -0.624 OA
ATOM     34  O2A 1XE d   1      -1.947  64.537  14.331  0.00  0.00    -0.624 OA
BRANCH  32  35
ATOM     35  O5B 1XE d   1      -0.822  66.733  13.884  0.00  0.00    -0.283 OA
BRANCH  35  36
ATOM     36  C5B 1XE d   1      -0.302  67.874  13.146  0.00  0.00     0.078 C 
ATOM     37  H42 1XE d   1       0.720  68.138  13.457  0.00  0.00     0.085 H 
ATOM     38  H43 1XE d   1      -0.324  67.709  12.059  0.00  0.00     0.085 H 
BRANCH  36  39
ATOM     39  C4B 1XE d   1      -1.281  68.872  13.571  0.00  0.00     0.116 A 
ATOM     40  C3B 1XE d   1      -1.224  69.578  14.769  0.00  0.00     0.152 A 
ATOM     41  C2B 1XE d   1      -2.445  70.340  14.793  0.00  0.00     0.155 A 
ATOM     42  C1B 1XE d   1      -3.079  70.004  13.599  0.00  0.00     0.194 A 
ATOM     43  O4B 1XE d   1      -2.385  69.107  12.939  0.00  0.00    -0.290 OA
BRANCH  40  44
ATOM     44  O3B 1XE d   1      -0.204  69.492  15.648  0.00  0.00    -0.234 OA
BRANCH  44  45
ATOM     45  P3B 1XE d   1       0.912  70.543  15.963  0.00  0.00     0.427 P 
ATOM     46  O7A 1XE d   1       2.266  70.108  15.253  0.00  0.00    -0.617 OA
ATOM     47  O8A 1XE d   1       1.028  70.436  17.432  0.00  0.00    -0.617 OA
ATOM     48  O9A 1XE d   1       0.540  71.907  15.583  0.00  0.00    -0.617 OA
ENDBRANCH  44  45
ENDBRANCH  40  44
BRANCH  41  49
ATOM     49  O2B 1XE d   1      -2.884  71.269  15.796  0.00  0.00    -0.354 OA
ATOM     50  H41 1XE d   1      -2.249  71.294  16.502  0.00  0.00     0.218 HD
ENDBRANCH  41  49
BRANCH  42  51
ATOM     51  N9A 1XE d   1      -4.324  70.413  13.167  0.00  0.00    -0.265 N 
ATOM     52  C4A 1XE d   1      -5.316  69.535  13.455  0.00  0.00     0.171 A 
ATOM     53  N3A 1XE d   1      -5.275  68.344  14.106  0.00  0.00    -0.221 NA
ATOM     54  C5A 1XE d   1      -6.483  70.061  12.962  0.00  0.00     0.149 A 
ATOM     55  C2A 1XE d   1      -6.416  67.652  14.283  0.00  0.00     0.091 A 
ATOM     56  N1A 1XE d   1      -7.590  68.111  13.826  0.00  0.00    -0.222 NA
ATOM     57  H37 1XE d   1      -6.385  66.703  14.806  0.00  0.00     0.146 H 
ATOM     58  C6A 1XE d   1      -7.669  69.284  13.174  0.00  0.00     0.155 A 
ATOM     59  N7A 1XE d   1      -6.141  71.251  12.366  0.00  0.00    -0.236 NA
ATOM     60  C8A 1XE d   1      -4.807  71.459  12.490  0.00  0.00     0.075 A 
ATOM     61  H40 1XE d   1      -4.241  72.310  12.113  0.00  0.00     0.144 H 
BRANCH  58  62
ATOM     62  N6A 1XE d   1      -8.953  69.744  12.697  0.00  0.00    -0.382 N 
ATOM     63  H38 1XE d   1      -9.025  70.641  12.196  0.00  0.00     0.157 HD
ATOM     64  H39 1XE d   1      -9.796  69.175  12.858  0.00  0.00     0.157 HD
ENDBRANCH  58  62
ENDBRANCH  42  51
ENDBRANCH  36  39
ENDBRANCH  35  36
ENDBRANCH  32  35
ENDBRANCH  31  32
ENDBRANCH  28  31
ENDBRANCH  27  28
ENDBRANCH  24  27
ENDBRANCH  23  24
BRANCH  23  65
ATOM     65  CDP 1XE d   1       5.084  64.718  11.354  0.00  0.00    -0.065 C 
ATOM     66  H46 1XE d   1       5.971  64.366  10.807  0.00  0.00     0.028 H 
ATOM     67  H47 1XE d   1       5.163  64.422  12.411  0.00  0.00     0.028 H 
ATOM     68  H48 1XE d   1       5.021  65.814  11.284  0.00  0.00     0.028 H 
ENDBRANCH  23  65
BRANCH  23  69
ATOM     69  CEP 1XE d   1       3.995  62.598  10.860  0.00  0.00    -0.065 C 
ATOM     70  H49 1XE d   1       3.099  62.132  10.425  0.00  0.00     0.028 H 
ATOM     71  H50 1XE d   1       4.086  62.302  11.915  0.00  0.00     0.028 H 
ATOM     72  H51 1XE d   1       4.886  62.266  10.308  0.00  0.00     0.028 H 
ENDBRANCH  23  69
ENDBRANCH  21  23
BRANCH  21  73
ATOM     73  OAP 1XE d   1       3.931  65.920   9.187  0.00  0.00    -0.385 OA
ATOM     74  H53 1XE d   1       3.316  66.386   9.741  0.00  0.00     0.210 HD
ENDBRANCH  21  73
ENDBRANCH  18  21
ENDBRANCH  14  17
ENDBRANCH  11  14
ENDBRANCH   8  11
ENDBRANCH   4   7
ENDBRANCH   3   4
BRANCH   3  75
ATOM     75  S1P 1XE d   1      10.959  62.047  12.419  0.00  0.00    -0.159 SA
BRANCH  75  76
ATOM     76  C1  1XE d   1      10.773  60.418  13.051  0.00  0.00     0.038 C 
ATOM     77  H64 MET d   1       9.702  60.239  13.228  0.00  0.00     0.061 H 
ATOM     78  H65 MET d   1      11.317  60.357  14.005  0.00  0.00     0.061 H 
BRANCH  76  79
ATOM     79  C2  1XE d   1      11.299  59.303  12.126  0.00  0.00     0.161 C 
ATOM     80  N   MET d   1      12.691  59.029  12.005  0.00  0.00    -0.358 N 
ATOM     81  H1  MET d   1      13.268  59.102  12.818  0.00  0.00     0.162 HD
ATOM     82  O21 1XE d   1      10.523  58.782  11.146  0.00  0.00    -0.177 OA
BRANCH  80  83
ATOM     83  CA  MET d   1      13.299  58.651  10.754  0.00  0.00     0.089 C 
ATOM     84  H2  MET d   1      12.709  57.852  10.281  0.00  0.00     0.087 H 
BRANCH  83  85
ATOM     85  C   MET d   1      14.679  58.122  11.069  0.00  0.00     0.241 C 
ATOM     86  O   MET d   1      15.584  58.882  11.401  0.00  0.00    -0.271 OA
ATOM     87  N   LYS d   1      14.828  56.803  11.057  0.00  0.00    -0.346 N 
ATOM     88  H10 LYS d   1      14.059  56.212  10.814  0.00  0.00     0.163 HD
BRANCH  87  89
ATOM     89  CA  LYS d   1      16.113  56.224  11.398  0.00  0.00     0.089 C 
ATOM     90  H11 LYS d   1      16.478  56.707  12.316  0.00  0.00     0.087 H 
BRANCH  89  91
ATOM     91  C   LYS d   1      17.109  56.506  10.277  0.00  0.00     0.241 C 
ATOM     92  O   LYS d   1      16.726  56.634   9.111  0.00  0.00    -0.271 OA
ATOM     93  N   ALA d   1      18.374  56.651  10.655  0.00  0.00    -0.346 N 
ATOM     94  H23 ALA d   1      18.602  56.610  11.628  0.00  0.00     0.163 HD
BRANCH  93  95
ATOM     95  CA  ALA d   1      19.435  56.868   9.685  0.00  0.00     0.086 C 
ATOM     96  H24 ALA d   1      19.045  57.483   8.861  0.00  0.00     0.086 H 
BRANCH  95  97
ATOM     97  C   ALA d   1      19.879  55.524   9.129  0.00  0.00     0.240 C 
ATOM     98  O   ALA d   1      19.619  54.487   9.729  0.00  0.00    -0.271 OA
ATOM     99  N   VAL d   1      20.552  55.544   7.987  0.00  0.00    -0.344 N 
ATOM    100  H28 VAL d   1      20.710  56.418   7.528  0.00  0.00     0.163 HD
BRANCH  99 101
ATOM    101  CA  VAL d   1      21.068  54.317   7.385  0.00  0.00     0.099 C 
ATOM    102  H29 VAL d   1      20.582  53.465   7.883  0.00  0.00     0.090 H 
BRANCH 101 103
ATOM    103  C   VAL d   1      22.579  54.186   7.577  0.00  0.00     0.197 C 
ATOM    104  O   VAL d   1      23.328  55.140   7.366  0.00  0.00    -0.646 OA
ATOM    105  OXT VAL d   1      23.079  53.124   7.947  0.00  0.00    -0.646 OA
ENDBRANCH 101 103
BRANCH 101 106
ATOM    106  CB  VAL d   1      20.735  54.255   5.885  0.00  0.00    -0.032 C 
ATOM    107  H30 VAL d   1      20.824  55.269   5.467  0.00  0.00     0.042 H 
BRANCH 106 108
ATOM    108  CG1 VAL d   1      21.714  53.346   5.147  0.00  0.00    -0.071 C 
ATOM    109  H31 VAL d   1      21.455  53.319   4.078  0.00  0.00     0.028 H 
ATOM    110  H32 VAL d   1      21.657  52.330   5.564  0.00  0.00     0.028 H 
ATOM    111  H33 VAL d   1      22.736  53.734   5.266  0.00  0.00     0.028 H 
ENDBRANCH 106 108
BRANCH 106 112
ATOM    112  CG2 VAL d   1      19.319  53.783   5.692  0.00  0.00    -0.071 C 
ATOM    113  H34 VAL d   1      18.633  54.452   6.232  0.00  0.00     0.028 H 
ATOM    114  H35 VAL d   1      19.217  52.760   6.083  0.00  0.00     0.028 H 
ATOM    115  H36 VAL d   1      19.072  53.792   4.620  0.00  0.00     0.028 H 
ENDBRANCH 106 112
ENDBRANCH 101 106
ENDBRANCH  99 101
ENDBRANCH  95  97
BRANCH  95 116
ATOM    116  CB  ALA d   1      20.603  57.601  10.325  0.00  0.00    -0.049 C 
ATOM    117  H25 ALA d   1      21.394  57.755   9.576  0.00  0.00     0.030 H 
ATOM    118  H26 ALA d   1      20.999  57.002  11.159  0.00  0.00     0.030 H 
ATOM    119  H27 ALA d   1      20.261  58.576  10.703  0.00  0.00     0.030 H 
ENDBRANCH  95 116
ENDBRANCH  93  95
ENDBRANCH  89  91
BRANCH  89 120
ATOM    120  CB  LYS d   1      15.993  54.725  11.668  0.00  0.00    -0.038 C 
ATOM    121  H12 LYS d   1      15.058  54.553  12.222  0.00  0.00     0.036 H 
ATOM    122  H13 LYS d   1      16.849  54.421  12.289  0.00  0.00     0.036 H 
BRANCH 120 123
ATOM    123  CG  LYS d   1      15.975  53.854  10.443  0.00  0.00    -0.061 C 
ATOM    124  H14 LYS d   1      16.875  54.051   9.842  0.00  0.00     0.033 H 
ATOM    125  H15 LYS d   1      15.079  54.080   9.847  0.00  0.00     0.033 H 
BRANCH 123 126
ATOM    126  CD  LYS d   1      15.952  52.391  10.853  0.00  0.00    -0.043 C 
ATOM    127  H16 LYS d   1      16.194  51.768   9.979  0.00  0.00     0.035 H 
ATOM    128  H17 LYS d   1      14.947  52.135  11.219  0.00  0.00     0.035 H 
BRANCH 126 129
ATOM    129  CE  LYS d   1      16.967  52.118  11.955  0.00  0.00     0.080 C 
ATOM    130  H18 LYS d   1      16.851  51.079  12.297  0.00  0.00     0.075 H 
ATOM    131  H19 LYS d   1      16.775  52.803  12.794  0.00  0.00     0.075 H 
BRANCH 129 132
ATOM    132  NZ  LYS d   1      18.367  52.317  11.479  0.00  0.00    -0.079 N 
ATOM    133  H20 LYS d   1      19.008  52.128  12.233  0.00  0.00     0.274 HD
ATOM    134  H21 LYS d   1      18.484  53.269  11.169  0.00  0.00     0.274 HD
ATOM    135  H22 LYS d   1      18.554  51.689  10.713  0.00  0.00     0.274 HD
ENDBRANCH 129 132
ENDBRANCH 126 129
ENDBRANCH 123 126
ENDBRANCH 120 123
ENDBRANCH  89 120
ENDBRANCH  87  89
ENDBRANCH  83  85
BRANCH  83 136
ATOM    136  CB  MET d   1      13.325  59.862   9.813  0.00  0.00    -0.030 C 
ATOM    137  H3  MET d   1      13.556  60.749  10.422  0.00  0.00     0.037 H 
ATOM    138  H4  MET d   1      12.319  59.966   9.380  0.00  0.00     0.037 H 
BRANCH 136 139
ATOM    139  CG  MET d   1      14.301  59.829   8.679  0.00  0.00    -0.021 C 
ATOM    140  H5  MET d   1      14.170  58.903   8.101  0.00  0.00     0.049 H 
ATOM    141  H6  MET d   1      15.328  59.875   9.069  0.00  0.00     0.049 H 
BRANCH 139 142
ATOM    142  SD  MET d   1      13.978  61.277   7.612  0.00  0.00    -0.173 SA
BRANCH 142 143
ATOM    143  CE  MET d   1      13.263  62.409   8.845  0.00  0.00    -0.035 C 
ATOM    144  H7  MET d   1      13.002  63.361   8.361  0.00  0.00     0.041 H 
ATOM    145  H8  MET d   1      13.997  62.593   9.643  0.00  0.00     0.041 H 
ATOM    146  H9  MET d   1      12.358  61.957   9.276  0.00  0.00     0.041 H 
ENDBRANCH 142 143
ENDBRANCH 139 142
ENDBRANCH 136 139
ENDBRANCH  83 136
ENDBRANCH  80  83
ENDBRANCH  76  79
ENDBRANCH  75  76
ENDBRANCH   3  75
TORSDOF 47
