REMARK  31 active torsions:
REMARK  status: ('A' for Active; 'I' for Inactive)
REMARK    1  A    between atoms: CA_3  and  N_4 
REMARK    2  A    between atoms: CA_8  and  CB_11 
REMARK    3  A    between atoms: CB_11  and  CG_12 
REMARK    4  A    between atoms: CG_12  and  CD_13 
REMARK       I    between atoms: CD_13  and  NE2_15 
REMARK    5  A    between atoms: CA_17  and  CB_20 
REMARK    6  A    between atoms: CB_20  and  CG_21 
REMARK    7  A    between atoms: CA_28  and  CB_31 
REMARK    8  A    between atoms: CB_31  and  CG_32 
REMARK    9  A    between atoms: CA_36  and  CB_39 
REMARK   10  A    between atoms: CB_39  and  CG_40 
REMARK   11  A    between atoms: CG_40  and  CD1_41 
REMARK   12  A    between atoms: CG_40  and  CD2_42 
REMARK   13  A    between atoms: CA_44  and  CB_47 
REMARK   14  A    between atoms: CB_47  and  OG_48 
REMARK   15  A    between atoms: CA_50  and  CB_53 
REMARK   16  A    between atoms: CB_53  and  OG1_54 
REMARK   17  A    between atoms: CB_53  and  CG2_55 
REMARK   18  A    between atoms: CA_57  and  CB_60 
REMARK   19  A    between atoms: CB_60  and  CG_61 
REMARK   20  A    between atoms: CG_61  and  CD_62 
REMARK   21  A    between atoms: CD_62  and  NE_63 
REMARK       I    between atoms: NE_63  and  CZ_64 
REMARK       I    between atoms: CZ_64  and  NH1_65 
REMARK       I    between atoms: CZ_64  and  NH2_66 
REMARK   22  A    between atoms: CA_68  and  CB_71 
REMARK   23  A    between atoms: CB_71  and  CG_72 
REMARK   24  A    between atoms: CG_72  and  CD_73 
REMARK   25  A    between atoms: CD_73  and  NE_74 
REMARK       I    between atoms: NE_74  and  CZ_75 
REMARK       I    between atoms: CZ_75  and  NH1_76 
REMARK   26  A    between atoms: CA_79  and  CB_82 
REMARK   27  A    between atoms: CB_82  and  CG_83 
REMARK   28  A    between atoms: CG_83  and  CD1_84 
REMARK   29  A    between atoms: CG_83  and  CD2_85 
REMARK   30  A    between atoms: CA_87  and  CB_90 
REMARK   31  A    between atoms: CA_92  and  C_93 
ROOT
ATOM      1  C   SC2 d   1      16.787  34.466  28.204  0.00  0.00     0.249 C 
ATOM      2  CB  SC2 d   1      17.208  32.031  27.798  0.00  0.00     0.021 C 
ATOM      3  CA  SC2 d   1      16.138  33.094  28.047  0.00  0.00     0.184 C 
ATOM      4  O   SC2 d   1      16.663  35.323  27.329  0.00  0.00    -0.271 OA
ATOM      5  SG  SC2 d   1      17.422  30.860  29.157  0.00  0.00    -0.095 SA
ATOM      6  H1  SC2 d   1      18.168  32.541  27.628  0.00  0.00     0.054 H 
ATOM      7  H2  SC2 d   1      16.929  31.466  26.897  0.00  0.00     0.054 H 
ATOM      8  H3  SC2 d   1      15.614  32.849  28.983  0.00  0.00     0.100 H 
ATOM      9  N   GLN d   1      17.477  34.670  29.322  0.00  0.00    -0.346 N 
ATOM     10  CA  GLN d   1      18.134  35.945  29.585  0.00  0.00     0.090 C 
ATOM     11  C   GLN d   1      19.642  35.772  29.713  0.00  0.00     0.241 C 
ATOM     12  O   GLN d   1      20.122  34.946  30.489  0.00  0.00    -0.271 OA
ATOM     13  H7  GLN d   1      17.547  33.934  29.996  0.00  0.00     0.163 HD
ATOM     14  H8  GLN d   1      17.938  36.610  28.731  0.00  0.00     0.087 H 
ATOM     15  N   PHE d   1      20.382  36.550  28.932  0.00  0.00    -0.346 N 
ATOM     16  CA  PHE d   1      21.835  36.544  28.989  0.00  0.00     0.093 C 
ATOM     17  C   PHE d   1      22.314  37.205  30.279  0.00  0.00     0.241 C 
ATOM     18  O   PHE d   1      21.798  38.247  30.681  0.00  0.00    -0.271 OA
ATOM     19  H15 PHE d   1      19.925  37.160  28.284  0.00  0.00     0.163 HD
ATOM     20  H16 PHE d   1      22.187  35.502  28.975  0.00  0.00     0.088 H 
ATOM     21  N   ASP d   1      23.297  36.586  30.926  0.00  0.00    -0.345 N 
ATOM     22  CA  ASP d   1      23.863  37.113  32.161  0.00  0.00     0.098 C 
ATOM     23  C   ASP d   1      25.197  37.785  31.856  0.00  0.00     0.241 C 
ATOM     24  O   ASP d   1      26.116  37.147  31.346  0.00  0.00    -0.271 OA
ATOM     25  H24 ASP d   1      23.659  35.732  30.553  0.00  0.00     0.163 HD
ATOM     26  H25 ASP d   1      23.173  37.857  32.587  0.00  0.00     0.088 H 
ATOM     27  N   LEU d   1      25.301  39.072  32.174  0.00  0.00    -0.346 N 
ATOM     28  CA  LEU d   1      26.511  39.837  31.886  0.00  0.00     0.089 C 
ATOM     29  C   LEU d   1      27.683  39.426  32.773  0.00  0.00     0.241 C 
ATOM     30  O   LEU d   1      28.843  39.649  32.427  0.00  0.00    -0.271 OA
ATOM     31  N   LEU d   1      23.673  31.920  29.487  0.00  0.00    -0.346 N 
ATOM     32  CA  LEU d   1      22.224  32.055  29.499  0.00  0.00     0.089 C 
ATOM     33  C   LEU d   1      21.663  31.598  30.838  0.00  0.00     0.241 C 
ATOM     34  O   LEU d   1      22.044  30.547  31.353  0.00  0.00    -0.271 OA
ATOM     35  H28 LEU d   1      24.531  39.527  32.622  0.00  0.00     0.163 HD
ATOM     36  H29 LEU d   1      26.793  39.640  30.841  0.00  0.00     0.087 H 
ATOM     37  H77 LEU d   1      24.088  31.142  29.015  0.00  0.00     0.163 HD
ATOM     38  H78 LEU d   1      21.970  33.115  29.352  0.00  0.00     0.087 H 
ATOM     39  N   SER d   1      27.374  38.822  33.916  0.00  0.00    -0.344 N 
ATOM     40  CA  SER d   1      28.403  38.430  34.873  0.00  0.00     0.109 C 
ATOM     41  C   SER d   1      29.131  37.153  34.460  0.00  0.00     0.243 C 
ATOM     42  O   SER d   1      30.359  37.090  34.500  0.00  0.00    -0.271 OA
ATOM     43  H39 SER d   1      26.415  38.632  34.125  0.00  0.00     0.163 HD
ATOM     44  H40 SER d   1      29.145  39.240  34.917  0.00  0.00     0.090 H 
ATOM     45  N   THR d   1      28.368  36.138  34.062  0.00  0.00    -0.344 N 
ATOM     46  CA  THR d   1      28.935  34.833  33.738  0.00  0.00     0.113 C 
ATOM     47  C   THR d   1      29.051  34.600  32.236  0.00  0.00     0.243 C 
ATOM     48  O   THR d   1      29.641  33.609  31.802  0.00  0.00    -0.271 OA
ATOM     49  H44 THR d   1      27.380  36.273  33.983  0.00  0.00     0.163 HD
ATOM     50  H45 THR d   1      29.945  34.791  34.171  0.00  0.00     0.091 H 
ATOM     51  N   ARG d   1      28.486  35.517  31.454  0.00  0.00    -0.346 N 
ATOM     52  CA  ARG d   1      28.422  35.383  29.998  0.00  0.00     0.089 C 
ATOM     53  C   ARG d   1      27.709  34.103  29.575  0.00  0.00     0.241 C 
ATOM     54  O   ARG d   1      28.055  33.487  28.567  0.00  0.00    -0.271 OA
ATOM     55  N   ARG d   1      26.709  33.713  30.356  0.00  0.00    -0.346 N 
ATOM     56  CA  ARG d   1      25.945  32.506  30.082  0.00  0.00     0.089 C 
ATOM     57  C   ARG d   1      24.455  32.808  30.090  0.00  0.00     0.241 C 
ATOM     58  O   ARG d   1      24.022  33.828  30.629  0.00  0.00    -0.271 OA
ATOM     59  N   ARG d   1      20.764  32.398  31.400  0.00  0.00    -0.346 N 
ATOM     60  CA  ARG d   1      20.079  32.036  32.634  0.00  0.00     0.086 C 
ATOM     61  C   ARG d   1      18.596  31.843  32.350  0.00  0.00     0.240 C 
ATOM     62  O   ARG d   1      17.892  32.794  32.007  0.00  0.00    -0.271 OA
ATOM     63  H51 ARG d   1      28.089  36.331  31.879  0.00  0.00     0.163 HD
ATOM     64  H52 ARG d   1      27.837  36.232  29.614  0.00  0.00     0.087 H 
ATOM     65  H64 ARG d   1      26.474  34.265  31.156  0.00  0.00     0.163 HD
ATOM     66  H65 ARG d   1      26.225  32.129  29.087  0.00  0.00     0.087 H 
ATOM     67  H88 ARG d   1      20.552  33.273  30.964  0.00  0.00     0.163 HD
ATOM     68  H89 ARG d   1      20.496  31.088  33.005  0.00  0.00     0.086 H 
ATOM     69  N   CYS d   1      18.121  30.611  32.501  0.00  0.00    -0.344 N 
ATOM     70  CA  CYS d   1      16.727  30.291  32.219  0.00  0.00     0.105 C 
ATOM     71  CB  CYS d   1      16.632  28.995  31.414  0.00  0.00     0.015 C 
ATOM     72  SG  CYS d   1      17.630  28.984  29.905  0.00  0.00    -0.095 SA
ATOM     73  H93 CYS d   1      18.734  29.886  32.816  0.00  0.00     0.163 HD
ATOM     74  H94 CYS d   1      16.305  31.107  31.614  0.00  0.00     0.090 H 
ATOM     75  H95 CYS d   1      15.580  28.840  31.133  0.00  0.00     0.054 H 
ATOM     76  H96 CYS d   1      16.966  28.166  32.055  0.00  0.00     0.054 H 
ENDROOT
BRANCH  52  77
ATOM     77  CB  ARG d   1      29.815  35.456  29.368  0.00  0.00    -0.036 C 
ATOM     78  H53 ARG d   1      29.710  35.337  28.279  0.00  0.00     0.036 H 
ATOM     79  H54 ARG d   1      30.422  34.631  29.771  0.00  0.00     0.036 H 
BRANCH  77  80
ATOM     80  CG  ARG d   1      30.539  36.757  29.638  0.00  0.00    -0.048 C 
ATOM     81  H55 ARG d   1      30.938  36.740  30.663  0.00  0.00     0.035 H 
ATOM     82  H56 ARG d   1      29.830  37.591  29.534  0.00  0.00     0.035 H 
BRANCH  80  83
ATOM     83  CD  ARG d   1      31.682  36.955  28.666  0.00  0.00     0.009 C 
ATOM     84  H57 ARG d   1      31.279  36.978  27.643  0.00  0.00     0.064 H 
ATOM     85  H58 ARG d   1      32.384  36.114  28.765  0.00  0.00     0.064 H 
BRANCH  83  86
ATOM     86  NE  ARG d   1      32.398  38.200  28.920  0.00  0.00    -0.227 N 
ATOM     87  CZ  ARG d   1      33.417  38.634  28.188  0.00  0.00     0.665 C 
ATOM     88  NH1 ARG d   1      33.838  37.923  27.152  0.00  0.00    -0.235 N 
ATOM     89  NH2 ARG d   1      34.012  39.779  28.490  0.00  0.00    -0.235 N 
ATOM     90  H60 ARG d   1      34.629  38.259  26.584  0.00  0.00     0.174 HD
ATOM     91  H61 ARG d   1      33.375  37.034  26.915  0.00  0.00     0.174 HD
ATOM     92  H62 ARG d   1      33.685  40.332  29.295  0.00  0.00     0.174 HD
ATOM     93  H63 ARG d   1      34.801  40.115  27.920  0.00  0.00     0.174 HD
ATOM     94  H59 ARG d   1      32.094  38.778  29.716  0.00  0.00     0.177 HD
ENDBRANCH  83  86
ENDBRANCH  80  83
ENDBRANCH  77  80
ENDBRANCH  52  77
BRANCH  46  95
ATOM     95  CB  THR d   1      28.095  33.690  34.345  0.00  0.00     0.060 C 
ATOM     96  H46 THR d   1      28.580  32.730  34.115  0.00  0.00     0.086 H 
BRANCH  95  97
ATOM     97  OG1 THR d   1      26.779  33.702  33.775  0.00  0.00    -0.393 OA
ATOM     98  H47 THR d   1      26.266  32.997  34.151  0.00  0.00     0.210 HD
ENDBRANCH  95  97
BRANCH  95  99
ATOM     99  CG2 THR d   1      27.993  33.844  35.854  0.00  0.00    -0.050 C 
ATOM    100  H48 THR d   1      27.391  33.021  36.267  0.00  0.00     0.031 H 
ATOM    101  H49 THR d   1      27.513  34.804  36.093  0.00  0.00     0.031 H 
ATOM    102  H50 THR d   1      29.001  33.818  36.294  0.00  0.00     0.031 H 
ENDBRANCH  95  99
ENDBRANCH  46  95
BRANCH  56 103
ATOM    103  CB  ARG d   1      26.264  31.434  31.124  0.00  0.00    -0.036 C 
ATOM    104  H66 ARG d   1      25.581  30.586  30.968  0.00  0.00     0.036 H 
ATOM    105  H67 ARG d   1      26.096  31.862  32.123  0.00  0.00     0.036 H 
BRANCH 103 106
ATOM    106  CG  ARG d   1      27.688  30.916  31.061  0.00  0.00    -0.048 C 
ATOM    107  H68 ARG d   1      27.850  30.204  31.883  0.00  0.00     0.035 H 
ATOM    108  H69 ARG d   1      28.384  31.761  31.166  0.00  0.00     0.035 H 
BRANCH 106 109
ATOM    109  CD  ARG d   1      27.948  30.217  29.738  0.00  0.00     0.009 C 
ATOM    110  H70 ARG d   1      28.904  29.677  29.800  0.00  0.00     0.064 H 
ATOM    111  H71 ARG d   1      28.004  30.972  28.940  0.00  0.00     0.064 H 
BRANCH 109 112
ATOM    112  NE  ARG d   1      26.887  29.267  29.419  0.00  0.00    -0.227 N 
ATOM    113  CZ  ARG d   1      26.801  28.044  29.929  0.00  0.00     0.665 C 
ATOM    114  NH1 ARG d   1      27.715  27.616  30.790  0.00  0.00    -0.235 N 
ATOM    115  NH2 ARG d   1      25.799  27.248  29.581  0.00  0.00    -0.235 N 
ATOM    116  H73 ARG d   1      27.646  26.667  31.184  0.00  0.00     0.174 HD
ATOM    117  H74 ARG d   1      28.493  28.233  31.064  0.00  0.00     0.174 HD
ATOM    118  H75 ARG d   1      25.088  27.577  28.913  0.00  0.00     0.174 HD
ATOM    119  H76 ARG d   1      25.732  26.300  29.979  0.00  0.00     0.174 HD
ATOM    120  H72 ARG d   1      26.158  29.564  28.755  0.00  0.00     0.177 HD
ENDBRANCH 109 112
ENDBRANCH 106 109
ENDBRANCH 103 106
ENDBRANCH  56 103
BRANCH  40 121
ATOM    121  CB  SER d   1      27.797  38.261  36.267  0.00  0.00     0.044 C 
ATOM    122  H41 SER d   1      28.584  37.937  36.964  0.00  0.00     0.077 H 
ATOM    123  H42 SER d   1      27.007  37.497  36.225  0.00  0.00     0.077 H 
BRANCH 121 124
ATOM    124  OG  SER d   1      27.240  39.478  36.730  0.00  0.00    -0.398 OA
ATOM    125  H43 SER d   1      27.920  40.141  36.771  0.00  0.00     0.209 HD
ENDBRANCH 121 124
ENDBRANCH  40 121
BRANCH  32 126
ATOM    126  CB  LEU d   1      21.595  31.240  28.368  0.00  0.00    -0.035 C 
ATOM    127  H79 LEU d   1      20.506  31.240  28.526  0.00  0.00     0.037 H 
ATOM    128  H80 LEU d   1      21.977  30.212  28.449  0.00  0.00     0.037 H 
BRANCH 126 129
ATOM    129  CG  LEU d   1      21.852  31.715  26.938  0.00  0.00    -0.059 C 
ATOM    130  H81 LEU d   1      22.938  31.712  26.761  0.00  0.00     0.038 H 
BRANCH 129 131
ATOM    131  CD1 LEU d   1      21.203  30.764  25.948  0.00  0.00    -0.073 C 
ATOM    132  H82 LEU d   1      21.394  31.115  24.923  0.00  0.00     0.028 H 
ATOM    133  H83 LEU d   1      20.118  30.731  26.128  0.00  0.00     0.028 H 
ATOM    134  H84 LEU d   1      21.627  29.757  26.076  0.00  0.00     0.028 H 
ENDBRANCH 129 131
BRANCH 129 135
ATOM    135  CD2 LEU d   1      21.342  33.134  26.742  0.00  0.00    -0.073 C 
ATOM    136  H85 LEU d   1      21.827  33.801  27.470  0.00  0.00     0.028 H 
ATOM    137  H86 LEU d   1      20.253  33.156  26.893  0.00  0.00     0.028 H 
ATOM    138  H87 LEU d   1      21.578  33.471  25.722  0.00  0.00     0.028 H 
ENDBRANCH 129 135
ENDBRANCH 126 129
ENDBRANCH  32 126
BRANCH  28 139
ATOM    139  CB  LEU d   1      26.244  41.335  32.037  0.00  0.00    -0.035 C 
ATOM    140  H30 LEU d   1      27.206  41.859  31.935  0.00  0.00     0.037 H 
ATOM    141  H31 LEU d   1      25.840  41.503  33.046  0.00  0.00     0.037 H 
BRANCH 139 142
ATOM    142  CG  LEU d   1      25.269  41.953  31.036  0.00  0.00    -0.059 C 
ATOM    143  H32 LEU d   1      24.343  41.360  31.040  0.00  0.00     0.038 H 
BRANCH 142 144
ATOM    144  CD1 LEU d   1      24.928  43.378  31.436  0.00  0.00    -0.073 C 
ATOM    145  H33 LEU d   1      24.226  43.806  30.705  0.00  0.00     0.028 H 
ATOM    146  H34 LEU d   1      25.847  43.982  31.459  0.00  0.00     0.028 H 
ATOM    147  H35 LEU d   1      24.464  43.378  32.433  0.00  0.00     0.028 H 
ENDBRANCH 142 144
BRANCH 142 148
ATOM    148  CD2 LEU d   1      25.858  41.917  29.636  0.00  0.00    -0.073 C 
ATOM    149  H36 LEU d   1      26.098  40.878  29.366  0.00  0.00     0.028 H 
ATOM    150  H37 LEU d   1      26.775  42.524  29.608  0.00  0.00     0.028 H 
ATOM    151  H38 LEU d   1      25.128  42.323  28.920  0.00  0.00     0.028 H 
ENDBRANCH 142 148
ENDBRANCH 139 142
ENDBRANCH  28 139
BRANCH  60 152
ATOM    152  CB  ARG d   1      20.282  33.109  33.707  0.00  0.00    -0.049 C 
ATOM    153  H90 ARG d   1      19.756  32.812  34.626  0.00  0.00     0.030 H 
ATOM    154  H91 ARG d   1      19.880  34.068  33.348  0.00  0.00     0.030 H 
ATOM    155  H92 ARG d   1      21.356  33.218  33.918  0.00  0.00     0.030 H 
ENDBRANCH  60 152
BRANCH  22 156
ATOM    156  CB  ASP d   1      24.060  35.980  33.172  0.00  0.00     0.043 C 
ATOM    157  H26 ASP d   1      24.900  35.353  32.837  0.00  0.00     0.052 H 
ATOM    158  H27 ASP d   1      23.142  35.376  33.205  0.00  0.00     0.052 H 
BRANCH 156 159
ATOM    159  CG  ASP d   1      24.360  36.482  34.577  0.00  0.00     0.175 C 
ATOM    160  OD1 ASP d   1      24.848  37.621  34.728  0.00  0.00    -0.648 OA
ATOM    161  OD2 ASP d   1      24.110  35.724  35.538  0.00  0.00    -0.648 OA
ENDBRANCH 156 159
ENDBRANCH  22 156
BRANCH  70 162
ATOM    162  C   CYS d   1      15.906  30.175  33.499  0.00  0.00     0.197 C 
ATOM    163  O   CYS d   1      16.441  30.277  34.603  0.00  0.00    -0.646 OA
ATOM    164  OXT CYS d   1      14.692  29.977  33.454  0.00  0.00    -0.646 OA
ENDBRANCH  70 162
BRANCH  16 165
ATOM    165  CB  PHE d   1      22.404  37.272  27.771  0.00  0.00    -0.014 C 
ATOM    166  H17 PHE d   1      22.002  38.296  27.761  0.00  0.00     0.043 H 
ATOM    167  H18 PHE d   1      22.076  36.740  26.866  0.00  0.00     0.043 H 
BRANCH 165 168
ATOM    168  CG  PHE d   1      23.901  37.354  27.753  0.00  0.00    -0.056 A 
ATOM    169  CD1 PHE d   1      24.667  36.230  27.484  0.00  0.00    -0.077 A 
ATOM    170  CE1 PHE d   1      26.045  36.304  27.459  0.00  0.00    -0.082 A 
ATOM    171  H19 PHE d   1      24.178  35.282  27.291  0.00  0.00     0.084 H 
ATOM    172  CZ  PHE d   1      26.674  37.512  27.695  0.00  0.00    -0.083 A 
ATOM    173  H21 PHE d   1      26.633  35.416  27.255  0.00  0.00     0.083 H 
ATOM    174  CE2 PHE d   1      25.923  38.642  27.957  0.00  0.00    -0.082 A 
ATOM    175  H23 PHE d   1      27.756  37.573  27.675  0.00  0.00     0.083 H 
ATOM    176  CD2 PHE d   1      24.543  38.559  27.984  0.00  0.00    -0.077 A 
ATOM    177  H22 PHE d   1      26.414  39.591  28.141  0.00  0.00     0.083 H 
ATOM    178  H20 PHE d   1      23.957  39.448  28.188  0.00  0.00     0.084 H 
ENDBRANCH 165 168
ENDBRANCH  16 165
BRANCH   3 179
ATOM    179  N   SC2 d   1      15.162  33.098  26.964  0.00  0.00    -0.066 N 
ATOM    180  H4  SC2 d   1      14.464  33.803  27.143  0.00  0.00     0.275 HD
ATOM    181  H5  SC2 d   1      14.719  32.194  26.907  0.00  0.00     0.275 HD
ATOM    182  H6  SC2 d   1      15.627  33.299  26.093  0.00  0.00     0.275 HD
ENDBRANCH   3 179
BRANCH  10 183
ATOM    183  CB  GLN d   1      17.563  36.604  30.843  0.00  0.00    -0.030 C 
ATOM    184  H9  GLN d   1      18.286  37.353  31.198  0.00  0.00     0.037 H 
ATOM    185  H10 GLN d   1      17.433  35.827  31.611  0.00  0.00     0.037 H 
BRANCH 183 186
ATOM    186  CG  GLN d   1      16.224  37.295  30.631  0.00  0.00     0.011 C 
ATOM    187  H11 GLN d   1      15.533  36.975  31.425  0.00  0.00     0.047 H 
ATOM    188  H12 GLN d   1      15.823  36.993  29.652  0.00  0.00     0.047 H 
BRANCH 186 189
ATOM    189  CD  GLN d   1      16.335  38.807  30.665  0.00  0.00     0.215 C 
ATOM    190  OE1 GLN d   1      17.093  39.367  31.458  0.00  0.00    -0.274 OA
ATOM    191  NE2 GLN d   1      15.580  39.475  29.801  0.00  0.00    -0.370 N 
ATOM    192  H13 GLN d   1      15.611  40.474  29.778  0.00  0.00     0.159 HD
ATOM    193  H14 GLN d   1      14.980  38.979  29.174  0.00  0.00     0.159 HD
ENDBRANCH 186 189
ENDBRANCH 183 186
ENDBRANCH  10 183
TORSDOF 31
