REMARK WARNING: 32 MAX_TORS EXCEEDED!!!
REMARK  57 active torsions:
REMARK  status: ('A' for Active; 'I' for Inactive)
REMARK    1  A    between atoms: N_1  and  CA_2 
REMARK    2  A    between atoms: CA_2  and  C_3 
REMARK    3  A    between atoms: CA_2  and  CB_5 
REMARK       I    between atoms: C_3  and  N_7 
REMARK    4  A    between atoms: CB_5  and  OG_6 
REMARK    5  A    between atoms: N_7  and  CA_8 
REMARK    6  A    between atoms: CA_8  and  C_9 
REMARK    7  A    between atoms: CA_8  and  CB_11 
REMARK       I    between atoms: C_9  and  N_16 
REMARK    8  A    between atoms: CB_11  and  CG_12 
REMARK    9  A    between atoms: CG_12  and  CD_13 
REMARK       I    between atoms: CD_13  and  NE2_15 
REMARK   10  A    between atoms: N_16  and  CA_17 
REMARK   11  A    between atoms: CA_17  and  C_18 
REMARK   12  A    between atoms: CA_17  and  CB_20 
REMARK       I    between atoms: C_18  and  N_27 
REMARK   13  A    between atoms: CB_20  and  CG_21 
REMARK   14  A    between atoms: N_27  and  CA_28 
REMARK   15  A    between atoms: CA_28  and  C_29 
REMARK   16  A    between atoms: CA_28  and  CB_31 
REMARK       I    between atoms: C_29  and  N_35 
REMARK   17  A    between atoms: CB_31  and  CG_32 
REMARK   18  A    between atoms: N_35  and  CA_36 
REMARK   19  A    between atoms: CA_36  and  C_37 
REMARK   20  A    between atoms: CA_36  and  CB_39 
REMARK       I    between atoms: C_37  and  N_43 
REMARK   21  A    between atoms: CB_39  and  CG_40 
REMARK   22  A    between atoms: CG_40  and  CD1_41 
REMARK   23  A    between atoms: CG_40  and  CD2_42 
REMARK   24  A    between atoms: N_43  and  CA_44 
REMARK   25  A    between atoms: CA_44  and  C_45 
REMARK   26  A    between atoms: CA_44  and  CB_47 
REMARK       I    between atoms: C_45  and  N_49 
REMARK   27  A    between atoms: CB_47  and  OG_48 
REMARK   28  A    between atoms: N_49  and  CA_50 
REMARK   29  A    between atoms: CA_50  and  C_51 
REMARK   30  A    between atoms: CA_50  and  CB_53 
REMARK       I    between atoms: C_51  and  N_56 
REMARK   31  A    between atoms: CB_53  and  OG1_54 
REMARK   32  A    between atoms: CB_53  and  CG2_55 
REMARK   33  A    between atoms: N_56  and  CA_57 
REMARK   34  A    between atoms: CA_57  and  C_58 
REMARK   35  A    between atoms: CA_57  and  CB_60 
REMARK       I    between atoms: C_58  and  N_67 
REMARK   36  A    between atoms: CB_60  and  CG_61 
REMARK   37  A    between atoms: CG_61  and  CD_62 
REMARK   38  A    between atoms: CD_62  and  NE_63 
REMARK       I    between atoms: NE_63  and  CZ_64 
REMARK       I    between atoms: CZ_64  and  NH1_65 
REMARK       I    between atoms: CZ_64  and  NH2_66 
REMARK   39  A    between atoms: N_67  and  CA_68 
REMARK   40  A    between atoms: CA_68  and  C_69 
REMARK   41  A    between atoms: CA_68  and  CB_71 
REMARK       I    between atoms: C_69  and  N_78 
REMARK   42  A    between atoms: CB_71  and  CG_72 
REMARK   43  A    between atoms: CG_72  and  CD_73 
REMARK   44  A    between atoms: CD_73  and  NE_74 
REMARK       I    between atoms: NE_74  and  CZ_75 
REMARK       I    between atoms: CZ_75  and  NH1_76 
REMARK   45  A    between atoms: N_78  and  CA_79 
REMARK   46  A    between atoms: CA_79  and  C_80 
REMARK   47  A    between atoms: CA_79  and  CB_82 
REMARK       I    between atoms: C_80  and  N_86 
REMARK   48  A    between atoms: CB_82  and  CG_83 
REMARK   49  A    between atoms: CG_83  and  CD1_84 
REMARK   50  A    between atoms: CG_83  and  CD2_85 
REMARK   51  A    between atoms: N_86  and  CA_87 
REMARK   52  A    between atoms: CA_87  and  C_88 
REMARK   53  A    between atoms: CA_87  and  CB_90 
REMARK   54  A    between atoms: CB_90  and  CG_91 
REMARK   55  A    between atoms: CG_91  and  CD_92 
REMARK   56  A    between atoms: CD_92  and  CE_93 
REMARK   57  A    between atoms: CE_93  and  NZ_94 
ROOT
ATOM      1  CA  THR d   1     -28.895  35.053 -33.721  0.00  0.00     0.113 C 
ATOM      2  H46 THR d   1     -29.886  34.973 -34.192  0.00  0.00     0.091 H 
ENDROOT
BRANCH   1   3
ATOM      3  N   THR d   1     -28.340  36.360 -34.052  0.00  0.00    -0.344 N 
ATOM      4  C   SER d   1     -29.081  37.365 -34.516  0.00  0.00     0.243 C 
ATOM      5  O   SER d   1     -30.316  37.323 -34.603  0.00  0.00    -0.271 OA
ATOM      6  H45 THR d   1     -27.359  36.509 -33.925  0.00  0.00     0.163 HD
BRANCH   4   7
ATOM      7  CA  SER d   1     -28.311  38.616 -34.948  0.00  0.00     0.109 C 
ATOM      8  H41 SER d   1     -29.030  39.446 -35.015  0.00  0.00     0.090 H 
BRANCH   7   9
ATOM      9  N   SER d   1     -27.264  39.009 -34.007  0.00  0.00    -0.344 N 
ATOM     10  C   LEU d   1     -27.556  39.529 -32.818  0.00  0.00     0.241 C 
ATOM     11  O   LEU d   1     -28.712  39.675 -32.412  0.00  0.00    -0.271 OA
ATOM     12  H40 SER d   1     -26.305  38.884 -34.263  0.00  0.00     0.163 HD
BRANCH  10  13
ATOM     13  CA  LEU d   1     -26.375  39.953 -31.956  0.00  0.00     0.089 C 
ATOM     14  H30 LEU d   1     -26.647  39.769 -30.906  0.00  0.00     0.087 H 
BRANCH  13  15
ATOM     15  N   LEU d   1     -25.141  39.208 -32.224  0.00  0.00    -0.346 N 
ATOM     16  C   ASP d   1     -25.029  37.906 -31.958  0.00  0.00     0.241 C 
ATOM     17  O   ASP d   1     -25.971  37.208 -31.570  0.00  0.00    -0.271 OA
ATOM     18  H29 LEU d   1     -24.359  39.691 -32.618  0.00  0.00     0.163 HD
BRANCH  16  19
ATOM     19  CA  ASP d   1     -23.665  37.280 -32.189  0.00  0.00     0.098 C 
ATOM     20  H26 ASP d   1     -22.974  38.042 -32.578  0.00  0.00     0.088 H 
BRANCH  19  21
ATOM     21  N   ASP d   1     -23.147  36.746 -30.926  0.00  0.00    -0.345 N 
ATOM     22  C   PHE d   1     -22.192  37.351 -30.224  0.00  0.00     0.241 C 
ATOM     23  O   PHE d   1     -21.726  38.451 -30.531  0.00  0.00    -0.271 OA
ATOM     24  H25 ASP d   1     -23.528  35.890 -30.577  0.00  0.00     0.163 HD
BRANCH  22  25
ATOM     25  CA  PHE d   1     -21.699  36.609 -28.973  0.00  0.00     0.093 C 
ATOM     26  H17 PHE d   1     -22.067  35.574 -29.033  0.00  0.00     0.088 H 
BRANCH  25  27
ATOM     27  N   PHE d   1     -20.249  36.559 -28.896  0.00  0.00    -0.346 N 
ATOM     28  C   GLN d   1     -19.549  35.713 -29.639  0.00  0.00     0.241 C 
ATOM     29  O   GLN d   1     -20.071  34.921 -30.423  0.00  0.00    -0.271 OA
ATOM     30  H16 PHE d   1     -19.770  37.175 -28.270  0.00  0.00     0.163 HD
BRANCH  28  31
ATOM     31  CA  GLN d   1     -18.036  35.769 -29.462  0.00  0.00     0.090 C 
ATOM     32  H9  GLN d   1     -17.803  36.547 -28.720  0.00  0.00     0.087 H 
BRANCH  31  33
ATOM     33  N   GLN d   1     -17.525  34.499 -28.965  0.00  0.00    -0.346 N 
ATOM     34  C   SER d   1     -16.886  34.398 -27.803  0.00  0.00     0.251 C 
ATOM     35  O   SER d   1     -16.647  35.369 -27.083  0.00  0.00    -0.271 OA
ATOM     36  H8  GLN d   1     -17.659  33.675 -29.516  0.00  0.00     0.163 HD
BRANCH  34  37
ATOM     37  CA  SER d   1     -16.466  33.004 -27.378  0.00  0.00     0.195 C 
ATOM     38  H4  SER d   1     -17.088  32.278 -27.922  0.00  0.00     0.102 H 
BRANCH  37  39
ATOM     39  N   SER d   1     -15.065  32.734 -27.709  0.00  0.00    -0.064 N 
ATOM     40  H1  SER d   1     -14.823  31.801 -27.412  0.00  0.00     0.275 HD
ATOM     41  H2  SER d   1     -14.474  33.400 -27.237  0.00  0.00     0.275 HD
ATOM     42  H3  SER d   1     -14.934  32.814 -28.705  0.00  0.00     0.275 HD
ENDBRANCH  37  39
BRANCH  37  43
ATOM     43  CB  SER d   1     -16.721  32.827 -25.870  0.00  0.00     0.051 C 
ATOM     44  H5  SER d   1     -16.017  33.466 -25.316  0.00  0.00     0.077 H 
ATOM     45  H6  SER d   1     -16.548  31.774 -25.604  0.00  0.00     0.077 H 
BRANCH  43  46
ATOM     46  OG  SER d   1     -18.051  33.180 -25.495  0.00  0.00    -0.398 OA
ATOM     47  H7  SER d   1     -18.159  33.054 -24.559  0.00  0.00     0.209 HD
ENDBRANCH  43  46
ENDBRANCH  37  43
ENDBRANCH  34  37
ENDBRANCH  31  33
BRANCH  31  48
ATOM     48  CB  GLN d   1     -17.366  36.150 -30.785  0.00  0.00    -0.030 C 
ATOM     49  H10 GLN d   1     -18.025  36.855 -31.314  0.00  0.00     0.037 H 
ATOM     50  H11 GLN d   1     -17.248  35.236 -31.386  0.00  0.00     0.037 H 
BRANCH  48  51
ATOM     51  CG  GLN d   1     -16.000  36.799 -30.634  0.00  0.00     0.011 C 
ATOM     52  H12 GLN d   1     -15.573  36.962 -31.634  0.00  0.00     0.047 H 
ATOM     53  H13 GLN d   1     -15.348  36.122 -30.063  0.00  0.00     0.047 H 
BRANCH  51  54
ATOM     54  CD  GLN d   1     -16.074  38.133 -29.910  0.00  0.00     0.215 C 
ATOM     55  OE1 GLN d   1     -15.316  38.382 -28.977  0.00  0.00    -0.274 OA
ATOM     56  NE2 GLN d   1     -16.994  38.983 -30.344  0.00  0.00    -0.370 N 
ATOM     57  H14 GLN d   1     -17.093  39.878 -29.909  0.00  0.00     0.159 HD
ATOM     58  H15 GLN d   1     -17.589  38.729 -31.107  0.00  0.00     0.159 HD
ENDBRANCH  51  54
ENDBRANCH  48  51
ENDBRANCH  31  48
ENDBRANCH  28  31
ENDBRANCH  25  27
BRANCH  25  59
ATOM     59  CB  PHE d   1     -22.274  37.244 -27.704  0.00  0.00    -0.014 C 
ATOM     60  H18 PHE d   1     -21.858  38.257 -27.602  0.00  0.00     0.043 H 
ATOM     61  H19 PHE d   1     -21.970  36.634 -26.841  0.00  0.00     0.043 H 
BRANCH  59  62
ATOM     62  CG  PHE d   1     -23.765  37.344 -27.711  0.00  0.00    -0.056 A 
ATOM     63  CD1 PHE d   1     -24.551  36.212 -27.501  0.00  0.00    -0.077 A 
ATOM     64  CE1 PHE d   1     -25.935  36.295 -27.507  0.00  0.00    -0.082 A 
ATOM     65  H20 PHE d   1     -24.074  35.254 -27.331  0.00  0.00     0.084 H 
ATOM     66  CZ  PHE d   1     -26.556  37.518 -27.740  0.00  0.00    -0.083 A 
ATOM     67  H22 PHE d   1     -26.532  35.408 -27.330  0.00  0.00     0.083 H 
ATOM     68  CE2 PHE d   1     -25.787  38.652 -27.960  0.00  0.00    -0.082 A 
ATOM     69  H24 PHE d   1     -27.638  37.585 -27.750  0.00  0.00     0.083 H 
ATOM     70  CD2 PHE d   1     -24.391  38.560 -27.948  0.00  0.00    -0.077 A 
ATOM     71  H23 PHE d   1     -26.267  39.607 -28.141  0.00  0.00     0.083 H 
ATOM     72  H21 PHE d   1     -23.793  39.446 -28.125  0.00  0.00     0.084 H 
ENDBRANCH  59  62
ENDBRANCH  25  59
ENDBRANCH  22  25
ENDBRANCH  19  21
BRANCH  19  73
ATOM     73  CB  ASP d   1     -23.789  36.135 -33.200  0.00  0.00     0.043 C 
ATOM     74  H27 ASP d   1     -24.560  35.437 -32.842  0.00  0.00     0.052 H 
ATOM     75  H28 ASP d   1     -22.821  35.615 -33.257  0.00  0.00     0.052 H 
BRANCH  73  76
ATOM     76  CG  ASP d   1     -24.172  36.599 -34.605  0.00  0.00     0.175 C 
ATOM     77  OD1 ASP d   1     -24.788  37.673 -34.776  0.00  0.00    -0.648 OA
ATOM     78  OD2 ASP d   1     -23.854  35.857 -35.557  0.00  0.00    -0.648 OA
ENDBRANCH  73  76
ENDBRANCH  19  73
ENDBRANCH  16  19
ENDBRANCH  13  15
BRANCH  13  79
ATOM     79  CB  LEU d   1     -26.140  41.448 -32.135  0.00  0.00    -0.035 C 
ATOM     80  H31 LEU d   1     -27.105  41.966 -32.035  0.00  0.00     0.037 H 
ATOM     81  H32 LEU d   1     -25.736  41.618 -33.144  0.00  0.00     0.037 H 
BRANCH  79  82
ATOM     82  CG  LEU d   1     -25.168  42.040 -31.121  0.00  0.00    -0.059 C 
ATOM     83  H33 LEU d   1     -24.314  41.355 -31.012  0.00  0.00     0.038 H 
BRANCH  82  84
ATOM     84  CD1 LEU d   1     -24.648  43.376 -31.617  0.00  0.00    -0.073 C 
ATOM     85  H34 LEU d   1     -23.948  43.794 -30.878  0.00  0.00     0.028 H 
ATOM     86  H35 LEU d   1     -25.491  44.069 -31.756  0.00  0.00     0.028 H 
ATOM     87  H36 LEU d   1     -24.128  43.234 -32.576  0.00  0.00     0.028 H 
ENDBRANCH  82  84
BRANCH  82  88
ATOM     88  CD2 LEU d   1     -25.849  42.176 -29.767  0.00  0.00    -0.073 C 
ATOM     89  H37 LEU d   1     -26.213  41.191 -29.439  0.00  0.00     0.028 H 
ATOM     90  H38 LEU d   1     -26.698  42.871 -29.852  0.00  0.00     0.028 H 
ATOM     91  H39 LEU d   1     -25.129  42.564 -29.032  0.00  0.00     0.028 H 
ENDBRANCH  82  88
ENDBRANCH  79  82
ENDBRANCH  13  79
ENDBRANCH  10  13
ENDBRANCH   7   9
BRANCH   7  92
ATOM     92  CB  SER d   1     -27.705  38.388 -36.329  0.00  0.00     0.044 C 
ATOM     93  H42 SER d   1     -28.500  38.097 -37.031  0.00  0.00     0.077 H 
ATOM     94  H43 SER d   1     -26.956  37.584 -36.269  0.00  0.00     0.077 H 
BRANCH  92  95
ATOM     95  OG  SER d   1     -27.084  39.570 -36.792  0.00  0.00    -0.398 OA
ATOM     96  H44 SER d   1     -27.729  40.265 -36.846  0.00  0.00     0.209 HD
ENDBRANCH  92  95
ENDBRANCH   7  92
ENDBRANCH   4   7
ENDBRANCH   1   3
BRANCH   1  97
ATOM     97  C   THR d   1     -29.047  34.844 -32.217  0.00  0.00     0.243 C 
ATOM     98  O   THR d   1     -29.721  33.909 -31.781  0.00  0.00    -0.271 OA
ATOM     99  N   ARG d   1     -28.413  35.710 -31.434  0.00  0.00    -0.346 N 
ATOM    100  H52 ARG d   1     -28.006  36.525 -31.846  0.00  0.00     0.163 HD
BRANCH  99 101
ATOM    101  CA  ARG d   1     -28.290  35.512 -29.993  0.00  0.00     0.089 C 
ATOM    102  H53 ARG d   1     -27.659  36.328 -29.611  0.00  0.00     0.087 H 
BRANCH 101 103
ATOM    103  C   ARG d   1     -27.582  34.197 -29.635  0.00  0.00     0.241 C 
ATOM    104  O   ARG d   1     -27.922  33.537 -28.659  0.00  0.00    -0.271 OA
ATOM    105  N   ARG d   1     -26.587  33.826 -30.430  0.00  0.00    -0.346 N 
ATOM    106  H65 ARG d   1     -26.344  34.402 -31.211  0.00  0.00     0.163 HD
BRANCH 105 107
ATOM    107  CA  ARG d   1     -25.843  32.602 -30.191  0.00  0.00     0.089 C 
ATOM    108  H66 ARG d   1     -26.118  32.211 -29.200  0.00  0.00     0.087 H 
BRANCH 107 109
ATOM    109  C   ARG d   1     -24.345  32.868 -30.207  0.00  0.00     0.241 C 
ATOM    110  O   ARG d   1     -23.883  33.811 -30.858  0.00  0.00    -0.271 OA
ATOM    111  N   LEU d   1     -23.588  32.051 -29.475  0.00  0.00    -0.346 N 
ATOM    112  H78 LEU d   1     -24.024  31.377 -28.879  0.00  0.00     0.163 HD
BRANCH 111 113
ATOM    113  CA  LEU d   1     -22.133  32.127 -29.531  0.00  0.00     0.089 C 
ATOM    114  H79 LEU d   1     -21.824  33.177 -29.419  0.00  0.00     0.087 H 
BRANCH 113 115
ATOM    115  C   LEU d   1     -21.676  31.607 -30.877  0.00  0.00     0.241 C 
ATOM    116  O   LEU d   1     -22.306  30.722 -31.451  0.00  0.00    -0.271 OA
ATOM    117  N   LYS d   1     -20.578  32.151 -31.381  0.00  0.00    -0.345 N 
ATOM    118  H89 LYS d   1     -20.084  32.846 -30.860  0.00  0.00     0.163 HD
BRANCH 117 119
ATOM    119  CA  LYS d   1     -20.088  31.744 -32.685  0.00  0.00     0.096 C 
ATOM    120  H90 LYS d   1     -20.957  31.485 -33.307  0.00  0.00     0.089 H 
BRANCH 119 121
ATOM    121  C   LYS d   1     -19.192  30.519 -32.606  0.00  0.00     0.196 C 
ATOM    122  O   LYS d   1     -17.969  30.645 -32.602  0.00  0.00    -0.646 OA
ATOM    123  OXT LYS d   1     -19.684  29.394 -32.546  0.00  0.00    -0.646 OA
ENDBRANCH 119 121
BRANCH 119 124
ATOM    124  CB  LYS d   1     -19.352  32.901 -33.350  0.00  0.00    -0.037 C 
ATOM    125  H91 LYS d   1     -18.657  32.488 -34.096  0.00  0.00     0.036 H 
ATOM    126  H92 LYS d   1     -18.783  33.441 -32.578  0.00  0.00     0.036 H 
BRANCH 124 127
ATOM    127  CG  LYS d   1     -20.279  33.894 -34.050  0.00  0.00    -0.061 C 
ATOM    128  H93 LYS d   1     -21.044  34.236 -33.338  0.00  0.00     0.033 H 
ATOM    129  H94 LYS d   1     -20.766  33.394 -34.900  0.00  0.00     0.033 H 
BRANCH 127 130
ATOM    130  CD  LYS d   1     -19.494  35.107 -34.564  0.00  0.00    -0.043 C 
ATOM    131  H95 LYS d   1     -18.864  34.790 -35.408  0.00  0.00     0.035 H 
ATOM    132  H96 LYS d   1     -18.856  35.487 -33.752  0.00  0.00     0.035 H 
BRANCH 130 133
ATOM    133  CE  LYS d   1     -20.417  36.230 -35.032  0.00  0.00     0.080 C 
ATOM    134  H97 LYS d   1     -21.188  36.402 -34.267  0.00  0.00     0.075 H 
ATOM    135  H98 LYS d   1     -20.897  35.930 -35.975  0.00  0.00     0.075 H 
BRANCH 133 136
ATOM    136  NZ  LYS d   1     -19.662  37.494 -35.253  0.00  0.00    -0.079 N 
ATOM    137  H99 LYS d   1     -20.296  38.215 -35.560  0.00  0.00     0.274 HD
ATOM    138 0H10 LYS d   1     -18.956  37.345 -35.957  0.00  0.00     0.274 HD
ATOM    139 1H10 LYS d   1     -19.223  37.778 -34.391  0.00  0.00     0.274 HD
ENDBRANCH 133 136
ENDBRANCH 130 133
ENDBRANCH 127 130
ENDBRANCH 124 127
ENDBRANCH 119 124
ENDBRANCH 117 119
ENDBRANCH 113 115
BRANCH 113 140
ATOM    140  CB  LEU d   1     -21.488  31.303 -28.427  0.00  0.00    -0.035 C 
ATOM    141  H80 LEU d   1     -20.402  31.313 -28.603  0.00  0.00     0.037 H 
ATOM    142  H81 LEU d   1     -21.865  30.274 -28.524  0.00  0.00     0.037 H 
BRANCH 140 143
ATOM    143  CG  LEU d   1     -21.716  31.734 -26.985  0.00  0.00    -0.059 C 
ATOM    144  H82 LEU d   1     -22.792  31.670 -26.765  0.00  0.00     0.038 H 
BRANCH 143 145
ATOM    145  CD1 LEU d   1     -20.976  30.786 -26.052  0.00  0.00    -0.073 C 
ATOM    146  H83 LEU d   1     -21.140  31.096 -25.009  0.00  0.00     0.028 H 
ATOM    147  H84 LEU d   1     -19.900  30.814 -26.278  0.00  0.00     0.028 H 
ATOM    148  H85 LEU d   1     -21.354  29.763 -26.194  0.00  0.00     0.028 H 
ENDBRANCH 143 145
BRANCH 143 149
ATOM    149  CD2 LEU d   1     -21.274  33.173 -26.779  0.00  0.00    -0.073 C 
ATOM    150  H86 LEU d   1     -21.827  33.829 -27.467  0.00  0.00     0.028 H 
ATOM    151  H87 LEU d   1     -20.196  33.258 -26.979  0.00  0.00     0.028 H 
ATOM    152  H88 LEU d   1     -21.479  33.475 -25.741  0.00  0.00     0.028 H 
ENDBRANCH 143 149
ENDBRANCH 140 143
ENDBRANCH 113 140
ENDBRANCH 111 113
ENDBRANCH 107 109
BRANCH 107 153
ATOM    153  CB  ARG d   1     -26.205  31.561 -31.246  0.00  0.00    -0.036 C 
ATOM    154  H67 ARG d   1     -25.574  30.673 -31.091  0.00  0.00     0.036 H 
ATOM    155  H68 ARG d   1     -26.002  31.986 -32.240  0.00  0.00     0.036 H 
BRANCH 153 156
ATOM    156  CG  ARG d   1     -27.668  31.130 -31.193  0.00  0.00    -0.048 C 
ATOM    157  H69 ARG d   1     -27.859  30.421 -32.012  0.00  0.00     0.035 H 
ATOM    158  H70 ARG d   1     -28.304  32.018 -31.320  0.00  0.00     0.035 H 
BRANCH 156 159
ATOM    159  CD  ARG d   1     -28.021  30.457 -29.867  0.00  0.00     0.009 C 
ATOM    160  H71 ARG d   1     -29.014  29.991 -29.956  0.00  0.00     0.064 H 
ATOM    161  H72 ARG d   1     -28.044  31.219 -29.074  0.00  0.00     0.064 H 
BRANCH 159 162
ATOM    162  NE  ARG d   1     -27.045  29.430 -29.510  0.00  0.00    -0.227 N 
ATOM    163  CZ  ARG d   1     -27.024  28.201 -30.024  0.00  0.00     0.665 C 
ATOM    164  NH1 ARG d   1     -27.936  27.833 -30.918  0.00  0.00    -0.235 N 
ATOM    165  NH2 ARG d   1     -26.089  27.338 -29.646  0.00  0.00    -0.235 N 
ATOM    166  H74 ARG d   1     -27.916  26.882 -31.313  0.00  0.00     0.174 HD
ATOM    167  H75 ARG d   1     -28.663  28.499 -31.216  0.00  0.00     0.174 HD
ATOM    168  H76 ARG d   1     -25.380  27.618 -28.953  0.00  0.00     0.174 HD
ATOM    169  H77 ARG d   1     -26.073  26.389 -30.045  0.00  0.00     0.174 HD
ATOM    170  H73 ARG d   1     -26.325  29.672 -28.814  0.00  0.00     0.177 HD
ENDBRANCH 159 162
ENDBRANCH 156 159
ENDBRANCH 153 156
ENDBRANCH 107 153
ENDBRANCH 105 107
ENDBRANCH 101 103
BRANCH 101 171
ATOM    171  CB  ARG d   1     -29.650  35.627 -29.291  0.00  0.00    -0.036 C 
ATOM    172  H54 ARG d   1     -29.491  35.541 -28.206  0.00  0.00     0.036 H 
ATOM    173  H55 ARG d   1     -30.291  34.802 -29.634  0.00  0.00     0.036 H 
BRANCH 171 174
ATOM    174  CG  ARG d   1     -30.365  36.944 -29.572  0.00  0.00    -0.048 C 
ATOM    175  H56 ARG d   1     -30.740  36.933 -30.606  0.00  0.00     0.035 H 
ATOM    176  H57 ARG d   1     -29.651  37.771 -29.450  0.00  0.00     0.035 H 
BRANCH 174 177
ATOM    177  CD  ARG d   1     -31.530  37.157 -28.628  0.00  0.00     0.009 C 
ATOM    178  H58 ARG d   1     -31.143  37.283 -27.606  0.00  0.00     0.064 H 
ATOM    179  H59 ARG d   1     -32.186  36.275 -28.666  0.00  0.00     0.064 H 
BRANCH 177 180
ATOM    180  NE  ARG d   1     -32.304  38.339 -28.991  0.00  0.00    -0.227 N 
ATOM    181  CZ  ARG d   1     -33.402  38.746 -28.355  0.00  0.00     0.665 C 
ATOM    182  NH1 ARG d   1     -33.858  38.067 -27.304  0.00  0.00    -0.235 N 
ATOM    183  NH2 ARG d   1     -34.041  39.840 -28.767  0.00  0.00    -0.235 N 
ATOM    184  H61 ARG d   1     -34.707  38.384 -26.815  0.00  0.00     0.174 HD
ATOM    185  H62 ARG d   1     -33.362  37.224 -26.980  0.00  0.00     0.174 HD
ATOM    186  H63 ARG d   1     -33.690  40.366 -29.580  0.00  0.00     0.174 HD
ATOM    187  H64 ARG d   1     -34.886  40.160 -28.273  0.00  0.00     0.174 HD
ATOM    188  H60 ARG d   1     -31.980  38.897 -29.794  0.00  0.00     0.177 HD
ENDBRANCH 177 180
ENDBRANCH 174 177
ENDBRANCH 171 174
ENDBRANCH 101 171
ENDBRANCH  99 101
ENDBRANCH   1  97
BRANCH   1 189
ATOM    189  CB  THR d   1     -27.986  33.918 -34.253  0.00  0.00     0.060 C 
ATOM    190  H47 THR d   1     -28.402  32.953 -33.928  0.00  0.00     0.086 H 
BRANCH 189 191
ATOM    191  OG1 THR d   1     -26.654  34.055 -33.714  0.00  0.00    -0.393 OA
ATOM    192  H48 THR d   1     -26.105  33.354 -34.047  0.00  0.00     0.210 HD
ENDBRANCH 189 191
BRANCH 189 193
ATOM    193  CG2 THR d   1     -27.937  33.940 -35.787  0.00  0.00    -0.050 C 
ATOM    194  H49 THR d   1     -27.287  33.128 -36.145  0.00  0.00     0.031 H 
ATOM    195  H50 THR d   1     -27.537  34.906 -36.127  0.00  0.00     0.031 H 
ATOM    196  H51 THR d   1     -28.952  33.802 -36.188  0.00  0.00     0.031 H 
ENDBRANCH 189 193
ENDBRANCH   1 189
TORSDOF 57
