REMARK WARNING: 32 MAX_TORS EXCEEDED!!!
REMARK  33 active torsions:
REMARK  status: ('A' for Active; 'I' for Inactive)
REMARK    1  A    between atoms: CA_6  and  CB_9 
REMARK    2  A    between atoms: CB_9  and  CG_10 
REMARK    3  A    between atoms: CG_10  and  CD_11 
REMARK       I    between atoms: CD_11  and  NE2_13 
REMARK    4  A    between atoms: CA_15  and  CB_18 
REMARK    5  A    between atoms: CB_18  and  CG_19 
REMARK    6  A    between atoms: CA_26  and  CB_29 
REMARK    7  A    between atoms: CB_29  and  CG_30 
REMARK    8  A    between atoms: CA_34  and  CB_37 
REMARK    9  A    between atoms: CB_37  and  CG_38 
REMARK   10  A    between atoms: CG_38  and  CD1_39 
REMARK   11  A    between atoms: CG_38  and  CD2_40 
REMARK   12  A    between atoms: CA_42  and  CB_45 
REMARK   13  A    between atoms: CB_45  and  OG_46 
REMARK   14  A    between atoms: CA_48  and  CB_51 
REMARK   15  A    between atoms: CB_51  and  OG1_52 
REMARK   16  A    between atoms: CB_51  and  CG2_53 
REMARK   17  A    between atoms: CA_55  and  CB_58 
REMARK   18  A    between atoms: CB_58  and  CG_59 
REMARK   19  A    between atoms: CG_59  and  CD_60 
REMARK   20  A    between atoms: CD_60  and  NE_61 
REMARK       I    between atoms: NE_61  and  CZ_62 
REMARK       I    between atoms: CZ_62  and  NH1_63 
REMARK       I    between atoms: CZ_62  and  NH2_64 
REMARK   21  A    between atoms: CA_66  and  CB_69 
REMARK   22  A    between atoms: CB_69  and  CG_70 
REMARK   23  A    between atoms: CG_70  and  CD_71 
REMARK   24  A    between atoms: CD_71  and  NE_72 
REMARK       I    between atoms: NE_72  and  CZ_73 
REMARK       I    between atoms: CZ_73  and  NH1_74 
REMARK   25  A    between atoms: CA_77  and  CB_80 
REMARK   26  A    between atoms: CB_80  and  CG_81 
REMARK   27  A    between atoms: CG_81  and  CD1_82 
REMARK   28  A    between atoms: CG_81  and  CD2_83 
REMARK   29  A    between atoms: CA_85  and  CB_88 
REMARK   30  A    between atoms: CB_88  and  CG_89 
REMARK   31  A    between atoms: CG_89  and  CD_90 
REMARK   32  A    between atoms: CD_90  and  CE_91 
REMARK   33  A    between atoms: CE_91  and  NZ_92 
ROOT
ATOM      1  N   GLY d   1     -16.563  32.140 -29.642  0.00  0.00    -0.084 NA
ATOM      2  CA  GLY d   1     -16.293  32.623 -28.298  0.00  0.00     0.215 A 
ATOM      3  C   GLY d   1     -17.015  33.914 -27.962  0.00  0.00     0.266 C 
ATOM      4  O   GLY d   1     -17.177  34.255 -26.790  0.00  0.00    -0.269 OA
ATOM      5  N   GLY d   1     -17.686  31.715 -32.151  0.00  0.00    -0.351 N 
ATOM      6  CA  GLY d   1     -16.263  31.979 -32.037  0.00  0.00     0.066 C 
ATOM      7  C   GLY d   1     -15.902  32.600 -30.700  0.00  0.00     0.243 C 
ATOM      8  O   GLY d   1     -15.048  33.485 -30.626  0.00  0.00    -0.276 OA
ATOM      9  OXT GLY d   1     -16.456  32.231 -29.663  0.00  0.00    -0.260 OA
ATOM     10  H1  GLY d   1     -15.691  32.185 -27.488  0.00  0.00     0.131 H 
ATOM     11  H96 GLY d   1     -18.009  30.768 -32.150  0.00  0.00     0.163 HD
ATOM     12  H97 GLY d   1     -15.965  32.669 -32.840  0.00  0.00     0.077 H 
ATOM     13  H98 GLY d   1     -15.717  31.031 -32.147  0.00  0.00     0.077 H 
ATOM     14  N   GLN d   1     -17.449  34.634 -28.992  0.00  0.00    -0.344 N 
ATOM     15  CA  GLN d   1     -18.130  35.908 -28.799  0.00  0.00     0.090 C 
ATOM     16  C   GLN d   1     -19.637  35.802 -28.990  0.00  0.00     0.241 C 
ATOM     17  O   GLN d   1     -20.130  34.933 -29.710  0.00  0.00    -0.271 OA
ATOM     18  H2  GLN d   1     -17.305  34.293 -29.921  0.00  0.00     0.163 HD
ATOM     19  H3  GLN d   1     -17.943  36.231 -27.764  0.00  0.00     0.087 H 
ATOM     20  N   PHE d   1     -20.360  36.706 -28.336  0.00  0.00    -0.346 N 
ATOM     21  CA  PHE d   1     -21.809  36.780 -28.454  0.00  0.00     0.093 C 
ATOM     22  C   PHE d   1     -22.205  37.474 -29.756  0.00  0.00     0.241 C 
ATOM     23  O   PHE d   1     -21.701  38.551 -30.074  0.00  0.00    -0.271 OA
ATOM     24  H10 PHE d   1     -19.891  37.359 -27.741  0.00  0.00     0.163 HD
ATOM     25  H11 PHE d   1     -22.213  35.757 -28.466  0.00  0.00     0.088 H 
ATOM     26  N   ASP d   1     -23.106  36.848 -30.504  0.00  0.00    -0.345 N 
ATOM     27  CA  ASP d   1     -23.559  37.385 -31.780  0.00  0.00     0.098 C 
ATOM     28  C   ASP d   1     -24.958  37.976 -31.635  0.00  0.00     0.241 C 
ATOM     29  O   ASP d   1     -25.914  37.258 -31.347  0.00  0.00    -0.271 OA
ATOM     30  H19 ASP d   1     -23.485  35.981 -30.181  0.00  0.00     0.163 HD
ATOM     31  H20 ASP d   1     -22.872  38.186 -32.091  0.00  0.00     0.088 H 
ATOM     32  N   LEU d   1     -25.064  39.287 -31.837  0.00  0.00    -0.346 N 
ATOM     33  CA  LEU d   1     -26.326  40.010 -31.680  0.00  0.00     0.089 C 
ATOM     34  C   LEU d   1     -27.414  39.530 -32.633  0.00  0.00     0.241 C 
ATOM     35  O   LEU d   1     -28.601  39.630 -32.327  0.00  0.00    -0.271 OA
ATOM     36  N   LEU d   1     -23.576  32.163 -29.141  0.00  0.00    -0.346 N 
ATOM     37  CA  LEU d   1     -22.126  32.296 -29.140  0.00  0.00     0.089 C 
ATOM     38  C   LEU d   1     -21.553  31.814 -30.467  0.00  0.00     0.241 C 
ATOM     39  O   LEU d   1     -21.891  30.729 -30.940  0.00  0.00    -0.271 OA
ATOM     40  H23 LEU d   1     -24.248  39.798 -32.107  0.00  0.00     0.163 HD
ATOM     41  H24 LEU d   1     -26.679  39.850 -30.651  0.00  0.00     0.087 H 
ATOM     42  H72 LEU d   1     -23.993  31.378 -28.682  0.00  0.00     0.163 HD
ATOM     43  H73 LEU d   1     -21.872  33.359 -29.013  0.00  0.00     0.087 H 
ATOM     44  N   SER d   1     -27.007  39.022 -33.791  0.00  0.00    -0.344 N 
ATOM     45  CA  SER d   1     -27.956  38.601 -34.817  0.00  0.00     0.109 C 
ATOM     46  C   SER d   1     -28.714  37.332 -34.436  0.00  0.00     0.243 C 
ATOM     47  O   SER d   1     -29.881  37.172 -34.789  0.00  0.00    -0.271 OA
ATOM     48  H34 SER d   1     -26.027  38.926 -33.964  0.00  0.00     0.163 HD
ATOM     49  H35 SER d   1     -28.693  39.408 -34.940  0.00  0.00     0.090 H 
ATOM     50  N   THR d   1     -28.051  36.434 -33.714  0.00  0.00    -0.344 N 
ATOM     51  CA  THR d   1     -28.649  35.146 -33.383  0.00  0.00     0.113 C 
ATOM     52  C   THR d   1     -28.845  34.948 -31.886  0.00  0.00     0.243 C 
ATOM     53  O   THR d   1     -29.518  34.005 -31.465  0.00  0.00    -0.271 OA
ATOM     54  H39 THR d   1     -27.128  36.645 -33.393  0.00  0.00     0.163 HD
ATOM     55  H40 THR d   1     -29.639  35.110 -33.861  0.00  0.00     0.091 H 
ATOM     56  N   ARG d   1     -28.261  35.843 -31.094  0.00  0.00    -0.346 N 
ATOM     57  CA  ARG d   1     -28.232  35.707 -29.638  0.00  0.00     0.089 C 
ATOM     58  C   ARG d   1     -27.554  34.413 -29.211  0.00  0.00     0.241 C 
ATOM     59  O   ARG d   1     -27.888  33.835 -28.180  0.00  0.00    -0.271 OA
ATOM     60  N   ARG d   1     -26.599  33.963 -30.015  0.00  0.00    -0.346 N 
ATOM     61  CA  ARG d   1     -25.849  32.758 -29.707  0.00  0.00     0.089 C 
ATOM     62  C   ARG d   1     -24.360  33.056 -29.735  0.00  0.00     0.241 C 
ATOM     63  O   ARG d   1     -23.932  34.077 -30.279  0.00  0.00    -0.271 OA
ATOM     64  H46 ARG d   1     -27.825  36.640 -31.511  0.00  0.00     0.163 HD
ATOM     65  H47 ARG d   1     -27.641  36.545 -29.239  0.00  0.00     0.087 H 
ATOM     66  H59 ARG d   1     -26.391  34.466 -30.854  0.00  0.00     0.163 HD
ATOM     67  H60 ARG d   1     -26.125  32.416 -28.699  0.00  0.00     0.087 H 
ATOM     68  N   LYS d   1     -20.697  32.636 -31.067  0.00  0.00    -0.346 N 
ATOM     69  CA  LYS d   1     -20.035  32.292 -32.322  0.00  0.00     0.089 C 
ATOM     70  C   LYS d   1     -18.570  32.702 -32.257  0.00  0.00     0.240 C 
ATOM     71  O   LYS d   1     -18.248  33.890 -32.296  0.00  0.00    -0.271 OA
ATOM     72  H83 LYS d   1     -20.500  33.520 -30.644  0.00  0.00     0.163 HD
ATOM     73  H84 LYS d   1     -20.090  31.202 -32.461  0.00  0.00     0.087 H 
ENDROOT
BRANCH  57  74
ATOM     74  CB  ARG d   1     -29.632  35.793 -29.029  0.00  0.00    -0.036 C 
ATOM     75  H48 ARG d   1     -29.544  35.656 -27.941  0.00  0.00     0.036 H 
ATOM     76  H49 ARG d   1     -30.243  34.982 -29.452  0.00  0.00     0.036 H 
BRANCH  74  77
ATOM     77  CG  ARG d   1     -30.338  37.098 -29.285  0.00  0.00    -0.048 C 
ATOM     78  H50 ARG d   1     -30.686  37.124 -30.328  0.00  0.00     0.035 H 
ATOM     79  H51 ARG d   1     -29.639  37.929 -29.110  0.00  0.00     0.035 H 
BRANCH  77  80
ATOM     80  CD  ARG d   1     -31.522  37.240 -28.362  0.00  0.00     0.009 C 
ATOM     81  H52 ARG d   1     -31.159  37.281 -27.325  0.00  0.00     0.064 H 
ATOM     82  H53 ARG d   1     -32.175  36.364 -28.488  0.00  0.00     0.064 H 
BRANCH  80  83
ATOM     83  NE  ARG d   1     -32.296  38.445 -28.635  0.00  0.00    -0.227 N 
ATOM     84  CZ  ARG d   1     -33.334  38.839 -27.907  0.00  0.00     0.665 C 
ATOM     85  NH1 ARG d   1     -33.716  38.123 -26.858  0.00  0.00    -0.235 N 
ATOM     86  NH2 ARG d   1     -33.985  39.949 -28.224  0.00  0.00    -0.235 N 
ATOM     87  H55 ARG d   1     -34.521  38.427 -26.292  0.00  0.00     0.174 HD
ATOM     88  H56 ARG d   1     -33.208  37.263 -26.609  0.00  0.00     0.174 HD
ATOM     89  H57 ARG d   1     -33.688  40.505 -29.039  0.00  0.00     0.174 HD
ATOM     90  H58 ARG d   1     -34.788  40.255 -27.656  0.00  0.00     0.174 HD
ATOM     91  H54 ARG d   1     -32.021  39.025 -29.441  0.00  0.00     0.177 HD
ENDBRANCH  80  83
ENDBRANCH  77  80
ENDBRANCH  74  77
ENDBRANCH  57  74
BRANCH  51  92
ATOM     92  CB  THR d   1     -27.806  33.978 -33.932  0.00  0.00     0.060 C 
ATOM     93  H41 THR d   1     -28.236  33.028 -33.582  0.00  0.00     0.086 H 
BRANCH  92  94
ATOM     94  OG1 THR d   1     -26.458  34.090 -33.458  0.00  0.00    -0.393 OA
ATOM     95  H42 THR d   1     -26.087  34.913 -33.754  0.00  0.00     0.210 HD
ENDBRANCH  92  94
BRANCH  92  96
ATOM     96  CG2 THR d   1     -27.806  33.995 -35.451  0.00  0.00    -0.050 C 
ATOM     97  H43 THR d   1     -27.201  33.157 -35.827  0.00  0.00     0.031 H 
ATOM     98  H44 THR d   1     -27.379  34.944 -35.807  0.00  0.00     0.031 H 
ATOM     99  H45 THR d   1     -28.838  33.896 -35.819  0.00  0.00     0.031 H 
ENDBRANCH  92  96
ENDBRANCH  51  92
BRANCH  61 100
ATOM    100  CB  ARG d   1     -26.178  31.654 -30.709  0.00  0.00    -0.036 C 
ATOM    101  H61 ARG d   1     -25.517  30.798 -30.509  0.00  0.00     0.036 H 
ATOM    102  H62 ARG d   1     -25.985  32.038 -31.721  0.00  0.00     0.036 H 
BRANCH 100 103
ATOM    103  CG  ARG d   1     -27.613  31.170 -30.650  0.00  0.00    -0.048 C 
ATOM    104  H63 ARG d   1     -27.790  30.470 -31.480  0.00  0.00     0.035 H 
ATOM    105  H64 ARG d   1     -28.287  32.034 -30.749  0.00  0.00     0.035 H 
BRANCH 103 106
ATOM    106  CD  ARG d   1     -27.902  30.464 -29.337  0.00  0.00     0.009 C 
ATOM    107  H65 ARG d   1     -28.896  29.997 -29.394  0.00  0.00     0.064 H 
ATOM    108  H66 ARG d   1     -27.892  31.205 -28.524  0.00  0.00     0.064 H 
BRANCH 106 109
ATOM    109  NE  ARG d   1     -26.910  29.433 -29.051  0.00  0.00    -0.227 N 
ATOM    110  CZ  ARG d   1     -26.908  28.223 -29.601  0.00  0.00     0.665 C 
ATOM    111  NH1 ARG d   1     -27.844  27.885 -30.478  0.00  0.00    -0.235 N 
ATOM    112  NH2 ARG d   1     -25.962  27.353 -29.277  0.00  0.00    -0.235 N 
ATOM    113  H68 ARG d   1     -27.838  26.946 -30.901  0.00  0.00     0.174 HD
ATOM    114  H69 ARG d   1     -28.577  28.561 -30.736  0.00  0.00     0.174 HD
ATOM    115  H70 ARG d   1     -25.234  27.613 -28.596  0.00  0.00     0.174 HD
ATOM    116  H71 ARG d   1     -25.955  26.417 -29.706  0.00  0.00     0.174 HD
ATOM    117  H67 ARG d   1     -26.162  29.657 -28.379  0.00  0.00     0.177 HD
ENDBRANCH 106 109
ENDBRANCH 103 106
ENDBRANCH 100 103
ENDBRANCH  61 100
BRANCH  45 118
ATOM    118  CB  SER d   1     -27.244  38.397 -36.155  0.00  0.00     0.044 C 
ATOM    119  H36 SER d   1     -27.973  38.043 -36.899  0.00  0.00     0.077 H 
ATOM    120  H37 SER d   1     -26.452  37.644 -36.029  0.00  0.00     0.077 H 
BRANCH 118 121
ATOM    121  OG  SER d   1     -26.664  39.605 -36.614  0.00  0.00    -0.398 OA
ATOM    122  H38 SER d   1     -27.344  40.258 -36.728  0.00  0.00     0.209 HD
ENDBRANCH 118 121
ENDBRANCH  45 118
BRANCH  37 123
ATOM    123  CB  LEU d   1     -21.516  31.508 -27.979  0.00  0.00    -0.035 C 
ATOM    124  H74 LEU d   1     -20.423  31.519 -28.104  0.00  0.00     0.037 H 
ATOM    125  H75 LEU d   1     -21.882  30.473 -28.047  0.00  0.00     0.037 H 
BRANCH 123 126
ATOM    126  CG  LEU d   1     -21.830  32.022 -26.572  0.00  0.00    -0.059 C 
ATOM    127  H76 LEU d   1     -22.917  32.172 -26.497  0.00  0.00     0.038 H 
BRANCH 126 128
ATOM    128  CD1 LEU d   1     -21.417  31.012 -25.512  0.00  0.00    -0.073 C 
ATOM    129  H77 LEU d   1     -21.655  31.410 -24.514  0.00  0.00     0.028 H 
ATOM    130  H78 LEU d   1     -20.335  30.826 -25.584  0.00  0.00     0.028 H 
ATOM    131  H79 LEU d   1     -21.962  30.070 -25.671  0.00  0.00     0.028 H 
ENDBRANCH 126 128
BRANCH 126 132
ATOM    132  CD2 LEU d   1     -21.148  33.357 -26.329  0.00  0.00    -0.073 C 
ATOM    133  H80 LEU d   1     -21.458  34.074 -27.104  0.00  0.00     0.028 H 
ATOM    134  H81 LEU d   1     -20.057  33.224 -26.368  0.00  0.00     0.028 H 
ATOM    135  H82 LEU d   1     -21.435  33.741 -25.339  0.00  0.00     0.028 H 
ENDBRANCH 126 132
ENDBRANCH 123 126
ENDBRANCH  37 123
BRANCH  33 136
ATOM    136  CB  LEU d   1     -26.107  41.507 -31.895  0.00  0.00    -0.035 C 
ATOM    137  H25 LEU d   1     -27.082  42.004 -31.788  0.00  0.00     0.037 H 
ATOM    138  H26 LEU d   1     -25.736  41.645 -32.921  0.00  0.00     0.037 H 
BRANCH 136 139
ATOM    139  CG  LEU d   1     -25.129  42.203 -30.954  0.00  0.00    -0.059 C 
ATOM    140  H27 LEU d   1     -24.236  41.569 -30.844  0.00  0.00     0.038 H 
BRANCH 139 141
ATOM    141  CD1 LEU d   1     -24.703  43.538 -31.540  0.00  0.00    -0.073 C 
ATOM    142  H28 LEU d   1     -23.998  44.031 -30.854  0.00  0.00     0.028 H 
ATOM    143  H29 LEU d   1     -25.588  44.177 -31.678  0.00  0.00     0.028 H 
ATOM    144  H30 LEU d   1     -24.214  43.373 -32.511  0.00  0.00     0.028 H 
ENDBRANCH 139 141
BRANCH 139 145
ATOM    145  CD2 LEU d   1     -25.758  42.389 -29.586  0.00  0.00    -0.073 C 
ATOM    146  H31 LEU d   1     -26.057  41.410 -29.184  0.00  0.00     0.028 H 
ATOM    147  H32 LEU d   1     -26.644  43.035 -29.674  0.00  0.00     0.028 H 
ATOM    148  H33 LEU d   1     -25.029  42.857 -28.908  0.00  0.00     0.028 H 
ENDBRANCH 139 145
ENDBRANCH 136 139
ENDBRANCH  33 136
BRANCH  69 149
ATOM    149  CB  LYS d   1     -20.728  32.967 -33.507  0.00  0.00    -0.038 C 
ATOM    150  H85 LYS d   1     -20.648  34.057 -33.379  0.00  0.00     0.036 H 
ATOM    151  H86 LYS d   1     -21.788  32.674 -33.500  0.00  0.00     0.036 H 
BRANCH 149 152
ATOM    152  CG  LYS d   1     -20.141  32.601 -34.861  0.00  0.00    -0.061 C 
ATOM    153  H87 LYS d   1     -20.189  31.509 -34.989  0.00  0.00     0.033 H 
ATOM    154  H88 LYS d   1     -19.092  32.929 -34.897  0.00  0.00     0.033 H 
BRANCH 152 155
ATOM    155  CD  LYS d   1     -20.905  33.265 -35.993  0.00  0.00    -0.043 C 
ATOM    156  H89 LYS d   1     -20.872  34.356 -35.855  0.00  0.00     0.035 H 
ATOM    157  H90 LYS d   1     -21.950  32.923 -35.968  0.00  0.00     0.035 H 
BRANCH 155 158
ATOM    158  CE  LYS d   1     -20.304  32.919 -37.345  0.00  0.00     0.080 C 
ATOM    159  H91 LYS d   1     -20.337  31.828 -37.480  0.00  0.00     0.075 H 
ATOM    160  H92 LYS d   1     -19.258  33.260 -37.367  0.00  0.00     0.075 H 
BRANCH 158 161
ATOM    161  NZ  LYS d   1     -21.043  33.564 -38.464  0.00  0.00    -0.079 N 
ATOM    162  H93 LYS d   1     -20.614  33.310 -39.340  0.00  0.00     0.274 HD
ATOM    163  H94 LYS d   1     -21.013  34.565 -38.353  0.00  0.00     0.274 HD
ATOM    164  H95 LYS d   1     -22.002  33.253 -38.457  0.00  0.00     0.274 HD
ENDBRANCH 158 161
ENDBRANCH 155 158
ENDBRANCH 152 155
ENDBRANCH 149 152
ENDBRANCH  69 149
BRANCH  27 165
ATOM    165  CB  ASP d   1     -23.539  36.283 -32.845  0.00  0.00     0.043 C 
ATOM    166  H21 ASP d   1     -24.205  35.470 -32.520  0.00  0.00     0.052 H 
ATOM    167  H22 ASP d   1     -22.511  35.902 -32.935  0.00  0.00     0.052 H 
BRANCH 165 168
ATOM    168  CG  ASP d   1     -23.997  36.768 -34.209  0.00  0.00     0.175 C 
ATOM    169  OD1 ASP d   1     -24.021  37.995 -34.442  0.00  0.00    -0.648 OA
ATOM    170  OD2 ASP d   1     -24.325  35.912 -35.057  0.00  0.00    -0.648 OA
ENDBRANCH 165 168
ENDBRANCH  27 165
BRANCH  21 171
ATOM    171  CB  PHE d   1     -22.397  37.524 -27.253  0.00  0.00    -0.014 C 
ATOM    172  H12 PHE d   1     -21.988  38.545 -27.244  0.00  0.00     0.043 H 
ATOM    173  H13 PHE d   1     -22.092  36.998 -26.336  0.00  0.00     0.043 H 
BRANCH 171 174
ATOM    174  CG  PHE d   1     -23.893  37.615 -27.269  0.00  0.00    -0.056 A 
ATOM    175  CD1 PHE d   1     -24.671  36.489 -27.047  0.00  0.00    -0.077 A 
ATOM    176  CE1 PHE d   1     -26.049  36.569 -27.058  0.00  0.00    -0.082 A 
ATOM    177  H14 PHE d   1     -24.191  35.535 -26.863  0.00  0.00     0.084 H 
ATOM    178  CZ  PHE d   1     -26.668  37.785 -27.285  0.00  0.00    -0.083 A 
ATOM    179  H16 PHE d   1     -26.645  35.680 -26.889  0.00  0.00     0.083 H 
ATOM    180  CE2 PHE d   1     -25.906  38.914 -27.503  0.00  0.00    -0.082 A 
ATOM    181  H18 PHE d   1     -27.750  37.851 -27.292  0.00  0.00     0.083 H 
ATOM    182  CD2 PHE d   1     -24.525  38.827 -27.493  0.00  0.00    -0.077 A 
ATOM    183  H17 PHE d   1     -26.388  39.868 -27.682  0.00  0.00     0.083 H 
ATOM    184  H15 PHE d   1     -23.931  39.718 -27.662  0.00  0.00     0.084 H 
ENDBRANCH 171 174
ENDBRANCH  21 171
BRANCH  15 185
ATOM    185  CB  GLN d   1     -17.569  36.973 -29.741  0.00  0.00    -0.030 C 
ATOM    186  H4  GLN d   1     -18.371  37.692 -29.965  0.00  0.00     0.037 H 
ATOM    187  H5  GLN d   1     -17.250  36.478 -30.670  0.00  0.00     0.037 H 
BRANCH 185 188
ATOM    188  CG  GLN d   1     -16.387  37.739 -29.181  0.00  0.00     0.011 C 
ATOM    189  H6  GLN d   1     -15.471  37.156 -29.358  0.00  0.00     0.047 H 
ATOM    190  H7  GLN d   1     -16.533  37.873 -28.099  0.00  0.00     0.047 H 
BRANCH 188 191
ATOM    191  CD  GLN d   1     -16.228  39.104 -29.825  0.00  0.00     0.215 C 
ATOM    192  OE1 GLN d   1     -15.532  39.973 -29.299  0.00  0.00    -0.274 OA
ATOM    193  NE2 GLN d   1     -16.880  39.302 -30.969  0.00  0.00    -0.370 N 
ATOM    194  H8  GLN d   1     -16.811  40.183 -31.438  0.00  0.00     0.159 HD
ATOM    195  H9  GLN d   1     -17.438  38.570 -31.360  0.00  0.00     0.159 HD
ENDBRANCH 188 191
ENDBRANCH 185 188
ENDBRANCH  15 185
TORSDOF 33
