REMARK WARNING: 32 MAX_TORS EXCEEDED!!!
REMARK  33 active torsions:
REMARK  status: ('A' for Active; 'I' for Inactive)
REMARK    1  A    between atoms: CA_2  and  CB_5 
REMARK    2  A    between atoms: CB_5  and  CG_6 
REMARK    3  A    between atoms: CG_6  and  CD_7 
REMARK       I    between atoms: CD_7  and  NE2_9 
REMARK    4  A    between atoms: CA_11  and  CB_14 
REMARK    5  A    between atoms: CB_14  and  CG_15 
REMARK    6  A    between atoms: CA_22  and  CB_25 
REMARK    7  A    between atoms: CB_25  and  CG_26 
REMARK    8  A    between atoms: CA_30  and  CB_33 
REMARK    9  A    between atoms: CB_33  and  CG_34 
REMARK   10  A    between atoms: CG_34  and  CD1_35 
REMARK   11  A    between atoms: CG_34  and  CD2_36 
REMARK   12  A    between atoms: CA_38  and  CB_41 
REMARK   13  A    between atoms: CB_41  and  OG_42 
REMARK   14  A    between atoms: CA_44  and  CB_47 
REMARK   15  A    between atoms: CB_47  and  OG1_48 
REMARK   16  A    between atoms: CB_47  and  CG2_49 
REMARK   17  A    between atoms: CA_51  and  CB_54 
REMARK   18  A    between atoms: CB_54  and  CG_55 
REMARK   19  A    between atoms: CG_55  and  CD_56 
REMARK   20  A    between atoms: CD_56  and  NE_57 
REMARK       I    between atoms: NE_57  and  CZ_58 
REMARK       I    between atoms: CZ_58  and  NH1_59 
REMARK       I    between atoms: CZ_58  and  NH2_60 
REMARK   21  A    between atoms: CA_62  and  CB_65 
REMARK   22  A    between atoms: CB_65  and  CG_66 
REMARK   23  A    between atoms: CG_66  and  CD_67 
REMARK   24  A    between atoms: CD_67  and  NE_68 
REMARK       I    between atoms: NE_68  and  CZ_69 
REMARK       I    between atoms: CZ_69  and  NH1_70 
REMARK   25  A    between atoms: CA_73  and  CB_76 
REMARK   26  A    between atoms: CB_76  and  CG_77 
REMARK   27  A    between atoms: CG_77  and  CD1_78 
REMARK   28  A    between atoms: CG_77  and  CD2_79 
REMARK   29  A    between atoms: CA_81  and  CB_84 
REMARK   30  A    between atoms: CB_84  and  CG_85 
REMARK   31  A    between atoms: CG_85  and  CD_86 
REMARK   32  A    between atoms: CD_86  and  CE_87 
REMARK   33  A    between atoms: CE_87  and  NZ_88 
ROOT
ATOM      1  N   GLN d   1     -17.568  34.441 -28.912  0.00  0.00    -0.348 N 
ATOM      2  CA  GLN d   1     -18.186  35.773 -29.024  0.00  0.00     0.089 C 
ATOM      3  C   GLN d   1     -19.673  35.742 -29.367  0.00  0.00     0.241 C 
ATOM      4  O   GLN d   1     -20.114  35.056 -30.294  0.00  0.00    -0.271 OA
ATOM      5  H1  GLN d   1     -17.343  33.932 -29.743  0.00  0.00     0.163 HD
ATOM      6  H2  GLN d   1     -18.097  36.239 -28.031  0.00  0.00     0.087 H 
ATOM      7  N   PHE d   1     -20.429  36.508 -28.592  0.00  0.00    -0.346 N 
ATOM      8  CA  PHE d   1     -21.864  36.628 -28.751  0.00  0.00     0.093 C 
ATOM      9  C   PHE d   1     -22.228  37.350 -30.051  0.00  0.00     0.241 C 
ATOM     10  O   PHE d   1     -21.675  38.406 -30.365  0.00  0.00    -0.271 OA
ATOM     11  H9  PHE d   1     -19.987  37.029 -27.862  0.00  0.00     0.163 HD
ATOM     12  H10 PHE d   1     -22.296  35.617 -28.788  0.00  0.00     0.088 H 
ATOM     13  N   ASP d   1     -23.162  36.774 -30.800  0.00  0.00    -0.345 N 
ATOM     14  CA  ASP d   1     -23.626  37.363 -32.058  0.00  0.00     0.098 C 
ATOM     15  C   ASP d   1     -25.000  37.979 -31.827  0.00  0.00     0.241 C 
ATOM     16  O   ASP d   1     -25.926  37.271 -31.426  0.00  0.00    -0.271 OA
ATOM     17  H18 ASP d   1     -23.561  35.910 -30.495  0.00  0.00     0.163 HD
ATOM     18  H19 ASP d   1     -22.925  38.144 -32.387  0.00  0.00     0.088 H 
ATOM     19  N   LEU d   1     -25.137  39.286 -32.078  0.00  0.00    -0.346 N 
ATOM     20  CA  LEU d   1     -26.405  39.985 -31.837  0.00  0.00     0.089 C 
ATOM     21  C   LEU d   1     -27.509  39.557 -32.786  0.00  0.00     0.241 C 
ATOM     22  O   LEU d   1     -28.693  39.647 -32.449  0.00  0.00    -0.271 OA
ATOM     23  N   LEU d   1     -23.436  32.189 -29.349  0.00  0.00    -0.346 N 
ATOM     24  CA  LEU d   1     -21.992  32.277 -29.434  0.00  0.00     0.089 C 
ATOM     25  C   LEU d   1     -21.558  31.777 -30.803  0.00  0.00     0.241 C 
ATOM     26  O   LEU d   1     -22.102  30.799 -31.324  0.00  0.00    -0.271 OA
ATOM     27  H22 LEU d   1     -24.358  39.798 -32.438  0.00  0.00     0.163 HD
ATOM     28  H23 LEU d   1     -26.727  39.744 -30.813  0.00  0.00     0.087 H 
ATOM     29  H71 LEU d   1     -23.854  31.520 -28.734  0.00  0.00     0.163 HD
ATOM     30  H72 LEU d   1     -21.688  33.328 -29.318  0.00  0.00     0.087 H 
ATOM     31  N   SER d   1     -27.130  39.095 -33.974  0.00  0.00    -0.344 N 
ATOM     32  CA  SER d   1     -28.119  38.634 -34.949  0.00  0.00     0.109 C 
ATOM     33  C   SER d   1     -28.887  37.386 -34.492  0.00  0.00     0.243 C 
ATOM     34  O   SER d   1     -30.114  37.319 -34.629  0.00  0.00    -0.271 OA
ATOM     35  H33 SER d   1     -26.157  39.062 -34.204  0.00  0.00     0.163 HD
ATOM     36  H34 SER d   1     -28.854  39.443 -35.075  0.00  0.00     0.090 H 
ATOM     37  N   THR d   1     -28.163  36.418 -33.932  0.00  0.00    -0.344 N 
ATOM     38  CA  THR d   1     -28.739  35.120 -33.584  0.00  0.00     0.113 C 
ATOM     39  C   THR d   1     -28.843  34.886 -32.080  0.00  0.00     0.243 C 
ATOM     40  O   THR d   1     -29.496  33.939 -31.639  0.00  0.00    -0.271 OA
ATOM     41  H38 THR d   1     -27.195  36.584 -33.744  0.00  0.00     0.163 HD
ATOM     42  H39 THR d   1     -29.745  35.065 -34.024  0.00  0.00     0.091 H 
ATOM     43  N   ARG d   1     -28.179  35.732 -31.304  0.00  0.00    -0.346 N 
ATOM     44  CA  ARG d   1     -28.090  35.552 -29.862  0.00  0.00     0.089 C 
ATOM     45  C   ARG d   1     -27.395  34.235 -29.508  0.00  0.00     0.241 C 
ATOM     46  O   ARG d   1     -27.699  33.588 -28.502  0.00  0.00    -0.271 OA
ATOM     47  N   ARG d   1     -26.453  33.836 -30.344  0.00  0.00    -0.346 N 
ATOM     48  CA  ARG d   1     -25.687  32.648 -30.064  0.00  0.00     0.089 C 
ATOM     49  C   ARG d   1     -24.213  32.986 -30.078  0.00  0.00     0.241 C 
ATOM     50  O   ARG d   1     -23.789  33.966 -30.716  0.00  0.00    -0.271 OA
ATOM     51  H45 ARG d   1     -27.725  36.519 -31.723  0.00  0.00     0.163 HD
ATOM     52  H46 ARG d   1     -27.471  36.370 -29.465  0.00  0.00     0.087 H 
ATOM     53  H58 ARG d   1     -26.271  34.361 -31.175  0.00  0.00     0.163 HD
ATOM     54  H59 ARG d   1     -25.960  32.269 -29.068  0.00  0.00     0.087 H 
ATOM     55  N   LYS d   1     -20.587  32.472 -31.388  0.00  0.00    -0.346 N 
ATOM     56  CA  LYS d   1     -20.046  32.100 -32.689  0.00  0.00     0.089 C 
ATOM     57  C   LYS d   1     -18.536  31.994 -32.544  0.00  0.00     0.240 C 
ATOM     58  O   LYS d   1     -17.900  32.900 -32.000  0.00  0.00    -0.271 OA
ATOM     59  H82 LYS d   1     -20.216  33.275 -30.921  0.00  0.00     0.163 HD
ATOM     60  H83 LYS d   1     -20.453  31.122 -32.986  0.00  0.00     0.087 H 
ATOM     61  C5  011 d   1     -16.056  30.538 -30.796  0.00  0.00    -0.064 C 
ATOM     62  C4  011 d   1     -15.953  30.941 -29.359  0.00  0.00    -0.065 C 
ATOM     63  O   011 d   1     -17.493  34.523 -26.640  0.00  0.00    -0.274 OA
ATOM     64  C6  011 d   1     -17.353  29.836 -31.042  0.00  0.00    -0.050 C 
ATOM     65  C3  011 d   1     -17.091  31.827 -28.970  0.00  0.00    -0.057 C 
ATOM     66  C7  011 d   1     -17.597  29.703 -32.513  0.00  0.00    -0.005 C 
ATOM     67  C2  011 d   1     -16.735  32.525 -27.706  0.00  0.00     0.009 C 
ATOM     68  N   011 d   1     -17.949  30.956 -33.148  0.00  0.00    -0.359 N 
ATOM     69  C1  011 d   1     -17.302  33.900 -27.721  0.00  0.00     0.218 C 
ATOM     70  H95 011 d   1     -15.224  29.863 -31.045  0.00  0.00     0.033 H 
ATOM     71  H96 011 d   1     -16.002  31.435 -31.430  0.00  0.00     0.033 H 
ATOM     72  H97 011 d   1     -15.007  31.481 -29.203  0.00  0.00     0.033 H 
ATOM     73  H98 011 d   1     -15.968  30.039 -28.730  0.00  0.00     0.033 H 
ATOM     74  H99 011 d   1     -18.171  30.415 -30.589  0.00  0.00     0.035 H 
ATOM     75 0H10 011 d   1     -17.316  28.835 -30.588  0.00  0.00     0.035 H 
ATOM     76 1H10 011 d   1     -17.997  31.222 -28.817  0.00  0.00     0.033 H 
ATOM     77 2H10 011 d   1     -17.273  32.567 -29.764  0.00  0.00     0.033 H 
ATOM     78 3H10 011 d   1     -18.420  28.989 -32.668  0.00  0.00     0.064 H 
ATOM     79 4H10 011 d   1     -16.682  29.316 -32.986  0.00  0.00     0.064 H 
ATOM     80 5H10 011 d   1     -15.640  32.581 -27.614  0.00  0.00     0.047 H 
ATOM     81 6H10 011 d   1     -17.147  31.968 -26.851  0.00  0.00     0.047 H 
ATOM     82 7H10 011 d   1     -17.735  31.053 -34.120  0.00  0.00     0.162 HD
ENDROOT
BRANCH  44  83
ATOM     83  CB  ARG d   1     -29.470  35.653 -29.196  0.00  0.00    -0.036 C 
ATOM     84  H47 ARG d   1     -29.329  35.608 -28.106  0.00  0.00     0.036 H 
ATOM     85  H48 ARG d   1     -30.073  34.794 -29.524  0.00  0.00     0.036 H 
BRANCH  83  86
ATOM     86  CG  ARG d   1     -30.237  36.922 -29.522  0.00  0.00    -0.048 C 
ATOM     87  H49 ARG d   1     -30.652  36.844 -30.538  0.00  0.00     0.035 H 
ATOM     88  H50 ARG d   1     -29.554  37.782 -29.470  0.00  0.00     0.035 H 
BRANCH  86  89
ATOM     89  CD  ARG d   1     -31.367  37.121 -28.534  0.00  0.00     0.009 C 
ATOM     90  H51 ARG d   1     -30.942  37.280 -27.532  0.00  0.00     0.064 H 
ATOM     91  H52 ARG d   1     -31.999  36.221 -28.526  0.00  0.00     0.064 H 
BRANCH  89  92
ATOM     92  NE  ARG d   1     -32.187  38.273 -28.890  0.00  0.00    -0.227 N 
ATOM     93  CZ  ARG d   1     -33.256  38.688 -28.214  0.00  0.00     0.665 C 
ATOM     94  NH1 ARG d   1     -33.644  38.049 -27.123  0.00  0.00    -0.235 N 
ATOM     95  NH2 ARG d   1     -33.929  39.757 -28.635  0.00  0.00    -0.235 N 
ATOM     96  H54 ARG d   1     -34.472  38.373 -26.603  0.00  0.00     0.174 HD
ATOM     97  H55 ARG d   1     -33.118  37.227 -26.793  0.00  0.00     0.174 HD
ATOM     98  H56 ARG d   1     -33.626  40.254 -29.485  0.00  0.00     0.174 HD
ATOM     99  H57 ARG d   1     -34.752  40.087 -28.111  0.00  0.00     0.174 HD
ATOM    100  H53 ARG d   1     -31.918  38.807 -29.729  0.00  0.00     0.177 HD
ENDBRANCH  89  92
ENDBRANCH  86  89
ENDBRANCH  83  86
ENDBRANCH  44  83
BRANCH  38 101
ATOM    101  CB  THR d   1     -27.877  33.979 -34.134  0.00  0.00     0.060 C 
ATOM    102  H40 THR d   1     -28.335  33.019 -33.855  0.00  0.00     0.086 H 
BRANCH 101 103
ATOM    103  OG1 THR d   1     -26.560  34.058 -33.552  0.00  0.00    -0.393 OA
ATOM    104  H41 THR d   1     -26.022  33.352 -33.891  0.00  0.00     0.210 HD
ENDBRANCH 101 103
BRANCH 101 105
ATOM    105  CG2 THR d   1     -27.790  34.056 -35.664  0.00  0.00    -0.050 C 
ATOM    106  H42 THR d   1     -27.168  33.230 -36.038  0.00  0.00     0.031 H 
ATOM    107  H43 THR d   1     -27.340  35.016 -35.958  0.00  0.00     0.031 H 
ATOM    108  H44 THR d   1     -28.800  33.978 -36.093  0.00  0.00     0.031 H 
ENDBRANCH 101 105
ENDBRANCH  38 101
BRANCH  48 109
ATOM    109  CB  ARG d   1     -25.992  31.579 -31.100  0.00  0.00    -0.036 C 
ATOM    110  H60 ARG d   1     -25.370  30.698 -30.884  0.00  0.00     0.036 H 
ATOM    111  H61 ARG d   1     -25.735  31.974 -32.094  0.00  0.00     0.036 H 
BRANCH 109 112
ATOM    112  CG  ARG d   1     -27.434  31.151 -31.116  0.00  0.00    -0.048 C 
ATOM    113  H62 ARG d   1     -27.581  30.430 -31.934  0.00  0.00     0.035 H 
ATOM    114  H63 ARG d   1     -28.065  32.035 -31.288  0.00  0.00     0.035 H 
BRANCH 112 115
ATOM    115  CD  ARG d   1     -27.853  30.495 -29.799  0.00  0.00     0.009 C 
ATOM    116  H64 ARG d   1     -28.851  30.050 -29.927  0.00  0.00     0.064 H 
ATOM    117  H65 ARG d   1     -27.893  31.267 -29.017  0.00  0.00     0.064 H 
BRANCH 115 118
ATOM    118  NE  ARG d   1     -26.927  29.453 -29.381  0.00  0.00    -0.227 N 
ATOM    119  CZ  ARG d   1     -26.864  28.240 -29.920  0.00  0.00     0.665 C 
ATOM    120  NH1 ARG d   1     -27.681  27.897 -30.907  0.00  0.00    -0.235 N 
ATOM    121  NH2 ARG d   1     -25.973  27.368 -29.470  0.00  0.00    -0.235 N 
ATOM    122  H67 ARG d   1     -27.625  26.954 -31.318  0.00  0.00     0.174 HD
ATOM    123  H68 ARG d   1     -28.372  28.573 -31.262  0.00  0.00     0.174 HD
ATOM    124  H69 ARG d   1     -25.337  27.631 -28.704  0.00  0.00     0.174 HD
ATOM    125  H70 ARG d   1     -25.917  26.428 -29.887  0.00  0.00     0.174 HD
ATOM    126  H66 ARG d   1     -26.275  29.671 -28.614  0.00  0.00     0.177 HD
ENDBRANCH 115 118
ENDBRANCH 112 115
ENDBRANCH 109 112
ENDBRANCH  48 109
BRANCH  32 127
ATOM    127  CB  SER d   1     -27.464  38.383 -36.302  0.00  0.00     0.044 C 
ATOM    128  H35 SER d   1     -28.193  37.912 -36.978  0.00  0.00     0.077 H 
ATOM    129  H36 SER d   1     -26.601  37.714 -36.170  0.00  0.00     0.077 H 
BRANCH 127 130
ATOM    130  OG  SER d   1     -27.028  39.605 -36.863  0.00  0.00    -0.398 OA
ATOM    131  H37 SER d   1     -27.773  40.183 -36.978  0.00  0.00     0.209 HD
ENDBRANCH 127 130
ENDBRANCH  32 127
BRANCH  24 132
ATOM    132  CB  LEU d   1     -21.330  31.452 -28.341  0.00  0.00    -0.035 C 
ATOM    133  H73 LEU d   1     -20.241  31.534 -28.473  0.00  0.00     0.037 H 
ATOM    134  H74 LEU d   1     -21.638  30.405 -28.479  0.00  0.00     0.037 H 
BRANCH 132 135
ATOM    135  CG  LEU d   1     -21.654  31.846 -26.902  0.00  0.00    -0.059 C 
ATOM    136  H75 LEU d   1     -22.740  31.758 -26.750  0.00  0.00     0.038 H 
BRANCH 135 137
ATOM    137  CD1 LEU d   1     -20.954  30.902 -25.958  0.00  0.00    -0.073 C 
ATOM    138  H76 LEU d   1     -21.185  31.183 -24.920  0.00  0.00     0.028 H 
ATOM    139  H77 LEU d   1     -19.868  30.960 -26.120  0.00  0.00     0.028 H 
ATOM    140  H78 LEU d   1     -21.298  29.874 -26.145  0.00  0.00     0.028 H 
ENDBRANCH 135 137
BRANCH 135 141
ATOM    141  CD2 LEU d   1     -21.246  33.277 -26.617  0.00  0.00    -0.073 C 
ATOM    142  H79 LEU d   1     -21.765  33.952 -27.314  0.00  0.00     0.028 H 
ATOM    143  H80 LEU d   1     -20.159  33.381 -26.747  0.00  0.00     0.028 H 
ATOM    144  H81 LEU d   1     -21.518  33.537 -25.583  0.00  0.00     0.028 H 
ENDBRANCH 135 141
ENDBRANCH 132 135
ENDBRANCH  24 132
BRANCH  20 145
ATOM    145  CB  LEU d   1     -26.224  41.490 -31.940  0.00  0.00    -0.035 C 
ATOM    146  H24 LEU d   1     -27.198  41.971 -31.766  0.00  0.00     0.037 H 
ATOM    147  H25 LEU d   1     -25.873  41.730 -32.955  0.00  0.00     0.037 H 
BRANCH 145 148
ATOM    148  CG  LEU d   1     -25.224  42.051 -30.939  0.00  0.00    -0.059 C 
ATOM    149  H26 LEU d   1     -24.399  41.334 -30.817  0.00  0.00     0.038 H 
BRANCH 148 150
ATOM    150  CD1 LEU d   1     -24.662  43.357 -31.478  0.00  0.00    -0.073 C 
ATOM    151  H27 LEU d   1     -23.938  43.769 -30.759  0.00  0.00     0.028 H 
ATOM    152  H28 LEU d   1     -25.482  44.076 -31.625  0.00  0.00     0.028 H 
ATOM    153  H29 LEU d   1     -24.160  43.171 -32.439  0.00  0.00     0.028 H 
ENDBRANCH 148 150
BRANCH 148 154
ATOM    154  CD2 LEU d   1     -25.890  42.253 -29.593  0.00  0.00    -0.073 C 
ATOM    155  H30 LEU d   1     -26.285  41.292 -29.232  0.00  0.00     0.028 H 
ATOM    156  H31 LEU d   1     -26.715  42.973 -29.697  0.00  0.00     0.028 H 
ATOM    157  H32 LEU d   1     -25.153  42.640 -28.874  0.00  0.00     0.028 H 
ENDBRANCH 148 154
ENDBRANCH 145 148
ENDBRANCH  20 145
BRANCH  56 158
ATOM    158  CB  LYS d   1     -20.426  33.141 -33.765  0.00  0.00    -0.038 C 
ATOM    159  H84 LYS d   1     -19.640  33.910 -33.791  0.00  0.00     0.036 H 
ATOM    160  H85 LYS d   1     -21.381  33.603 -33.473  0.00  0.00     0.036 H 
BRANCH 158 161
ATOM    161  CG  LYS d   1     -20.585  32.564 -35.192  0.00  0.00    -0.061 C 
ATOM    162  H86 LYS d   1     -21.166  31.632 -35.129  0.00  0.00     0.033 H 
ATOM    163  H87 LYS d   1     -19.584  32.345 -35.593  0.00  0.00     0.033 H 
BRANCH 161 164
ATOM    164  CD  LYS d   1     -21.303  33.524 -36.164  0.00  0.00    -0.043 C 
ATOM    165  H88 LYS d   1     -20.564  34.212 -36.599  0.00  0.00     0.035 H 
ATOM    166  H89 LYS d   1     -22.057  34.100 -35.607  0.00  0.00     0.035 H 
BRANCH 164 167
ATOM    167  CE  LYS d   1     -21.996  32.756 -37.294  0.00  0.00     0.080 C 
ATOM    168  H90 LYS d   1     -22.431  31.837 -36.875  0.00  0.00     0.075 H 
ATOM    169  H91 LYS d   1     -21.242  32.493 -38.050  0.00  0.00     0.075 H 
BRANCH 167 170
ATOM    170  NZ  LYS d   1     -23.098  33.545 -37.969  0.00  0.00    -0.079 N 
ATOM    171  H92 LYS d   1     -23.512  32.987 -38.699  0.00  0.00     0.274 HD
ATOM    172  H93 LYS d   1     -22.713  34.387 -38.367  0.00  0.00     0.274 HD
ATOM    173  H94 LYS d   1     -23.803  33.786 -37.290  0.00  0.00     0.274 HD
ENDBRANCH 167 170
ENDBRANCH 164 167
ENDBRANCH 161 164
ENDBRANCH 158 161
ENDBRANCH  56 158
BRANCH  14 174
ATOM    174  CB  ASP d   1     -23.695  36.262 -33.118  0.00  0.00     0.043 C 
ATOM    175  H20 ASP d   1     -24.398  35.490 -32.772  0.00  0.00     0.052 H 
ATOM    176  H21 ASP d   1     -22.693  35.822 -33.228  0.00  0.00     0.052 H 
BRANCH 174 177
ATOM    177  CG  ASP d   1     -24.154  36.753 -34.475  0.00  0.00     0.175 C 
ATOM    178  OD1 ASP d   1     -24.698  37.864 -34.590  0.00  0.00    -0.648 OA
ATOM    179  OD2 ASP d   1     -23.985  35.989 -35.446  0.00  0.00    -0.648 OA
ENDBRANCH 174 177
ENDBRANCH  14 174
BRANCH   8 180
ATOM    180  CB  PHE d   1     -22.443  37.362 -27.541  0.00  0.00    -0.014 C 
ATOM    181  H11 PHE d   1     -22.027  38.380 -27.521  0.00  0.00     0.043 H 
ATOM    182  H12 PHE d   1     -22.139  36.824 -26.631  0.00  0.00     0.043 H 
BRANCH 180 183
ATOM    183  CG  PHE d   1     -23.925  37.461 -27.554  0.00  0.00    -0.056 A 
ATOM    184  CD1 PHE d   1     -24.709  36.340 -27.289  0.00  0.00    -0.077 A 
ATOM    185  CE1 PHE d   1     -26.090  36.427 -27.281  0.00  0.00    -0.082 A 
ATOM    186  H13 PHE d   1     -24.231  35.388 -27.087  0.00  0.00     0.084 H 
ATOM    187  CZ  PHE d   1     -26.717  37.653 -27.549  0.00  0.00    -0.083 A 
ATOM    188  H15 PHE d   1     -26.687  35.548 -27.068  0.00  0.00     0.083 H 
ATOM    189  CE2 PHE d   1     -25.954  38.775 -27.825  0.00  0.00    -0.082 A 
ATOM    190  H17 PHE d   1     -27.799  37.722 -27.540  0.00  0.00     0.083 H 
ATOM    191  CD2 PHE d   1     -24.553  38.676 -27.825  0.00  0.00    -0.077 A 
ATOM    192  H16 PHE d   1     -26.434  39.723 -28.040  0.00  0.00     0.083 H 
ATOM    193  H14 PHE d   1     -23.953  39.554 -28.038  0.00  0.00     0.084 H 
ENDBRANCH 180 183
ENDBRANCH   8 180
BRANCH   2 194
ATOM    194  CB  GLN d   1     -17.454  36.678 -30.014  0.00  0.00    -0.030 C 
ATOM    195  H3  GLN d   1     -18.077  37.564 -30.207  0.00  0.00     0.037 H 
ATOM    196  H4  GLN d   1     -17.304  36.123 -30.952  0.00  0.00     0.037 H 
BRANCH 194 197
ATOM    197  CG  GLN d   1     -16.118  37.134 -29.509  0.00  0.00     0.011 C 
ATOM    198  H5  GLN d   1     -15.331  36.627 -30.087  0.00  0.00     0.047 H 
ATOM    199  H6  GLN d   1     -16.029  36.858 -28.448  0.00  0.00     0.047 H 
BRANCH 197 200
ATOM    200  CD  GLN d   1     -15.929  38.625 -29.639  0.00  0.00     0.215 C 
ATOM    201  OE1 GLN d   1     -16.565  39.274 -30.476  0.00  0.00    -0.274 OA
ATOM    202  NE2 GLN d   1     -15.051  39.184 -28.809  0.00  0.00    -0.370 N 
ATOM    203  H7  GLN d   1     -14.883  40.169 -28.848  0.00  0.00     0.159 HD
ATOM    204  H8  GLN d   1     -14.559  38.619 -28.146  0.00  0.00     0.159 HD
ENDBRANCH 197 200
ENDBRANCH 194 197
ENDBRANCH   2 194
TORSDOF 33
