REMARK WARNING: 32 MAX_TORS EXCEEDED!!!
REMARK  34 active torsions:
REMARK  status: ('A' for Active; 'I' for Inactive)
REMARK    1  A    between atoms: CA_7  and  CB_10 
REMARK    2  A    between atoms: CB_10  and  CG_11 
REMARK    3  A    between atoms: CG_11  and  CD_12 
REMARK       I    between atoms: CD_12  and  NE2_14 
REMARK    4  A    between atoms: CA_16  and  CB_19 
REMARK    5  A    between atoms: CB_19  and  CG_20 
REMARK    6  A    between atoms: CA_27  and  CB_30 
REMARK    7  A    between atoms: CB_30  and  CG_31 
REMARK    8  A    between atoms: CA_35  and  CB_38 
REMARK    9  A    between atoms: CB_38  and  CG_39 
REMARK   10  A    between atoms: CG_39  and  CD1_40 
REMARK   11  A    between atoms: CG_39  and  CD2_41 
REMARK   12  A    between atoms: CA_43  and  CB_46 
REMARK   13  A    between atoms: CB_46  and  OG_47 
REMARK   14  A    between atoms: CA_49  and  CB_52 
REMARK   15  A    between atoms: CB_52  and  OG1_53 
REMARK   16  A    between atoms: CB_52  and  CG2_54 
REMARK   17  A    between atoms: CA_56  and  CB_59 
REMARK   18  A    between atoms: CB_59  and  CG_60 
REMARK   19  A    between atoms: CG_60  and  CD_61 
REMARK   20  A    between atoms: CD_61  and  NE_62 
REMARK       I    between atoms: NE_62  and  CZ_63 
REMARK       I    between atoms: CZ_63  and  NH1_64 
REMARK       I    between atoms: CZ_63  and  NH2_65 
REMARK   21  A    between atoms: CA_67  and  CB_70 
REMARK   22  A    between atoms: CB_70  and  CG_71 
REMARK   23  A    between atoms: CG_71  and  CD_72 
REMARK   24  A    between atoms: CD_72  and  NE_73 
REMARK       I    between atoms: NE_73  and  CZ_74 
REMARK       I    between atoms: CZ_74  and  NH1_75 
REMARK   25  A    between atoms: CA_78  and  CB_81 
REMARK   26  A    between atoms: CB_81  and  CG_82 
REMARK   27  A    between atoms: CG_82  and  CD1_83 
REMARK   28  A    between atoms: CG_82  and  CD2_84 
REMARK   29  A    between atoms: CA_86  and  CB_89 
REMARK   30  A    between atoms: CB_89  and  CG_90 
REMARK   31  A    between atoms: CG_90  and  CD_91 
REMARK   32  A    between atoms: CD_91  and  CE_92 
REMARK   33  A    between atoms: CE_92  and  NZ_93 
REMARK   34  A    between atoms: CA_95  and  C_96 
ROOT
ATOM      1  CA  MPT d   1      17.001  32.026  28.237  0.00  0.00     0.018 C 
ATOM      2  C   MPT d   1      17.456  33.401  27.797  0.00  0.00     0.219 C 
ATOM      3  O   MPT d   1      17.462  33.712  26.609  0.00  0.00    -0.274 OA
ATOM      4  CB  MPT d   1      15.742  32.147  29.095  0.00  0.00    -0.006 C 
ATOM      5  SG  MPT d   1      15.066  30.559  29.612  0.00  0.00    -0.097 SA
ATOM      6  H1  MPT d   1      17.799  31.548  28.825  0.00  0.00     0.048 H 
ATOM      7  H2  MPT d   1      16.781  31.413  27.351  0.00  0.00     0.048 H 
ATOM      8  H3  MPT d   1      14.975  32.679  28.513  0.00  0.00     0.050 H 
ATOM      9  H4  MPT d   1      15.989  32.729  29.995  0.00  0.00     0.050 H 
ATOM     10  N   GLN d   1      17.828  34.222  28.771  0.00  0.00    -0.348 N 
ATOM     11  CA  GLN d   1      18.249  35.586  28.504  0.00  0.00     0.089 C 
ATOM     12  C   GLN d   1      19.720  35.797  28.877  0.00  0.00     0.241 C 
ATOM     13  O   GLN d   1      20.186  35.310  29.912  0.00  0.00    -0.271 OA
ATOM     14  H5  GLN d   1      17.818  33.892  29.715  0.00  0.00     0.163 HD
ATOM     15  H6  GLN d   1      18.136  35.782  27.428  0.00  0.00     0.087 H 
ATOM     16  N   PHE d   1      20.435  36.529  28.028  0.00  0.00    -0.346 N 
ATOM     17  CA  PHE d   1      21.864  36.777  28.209  0.00  0.00     0.093 C 
ATOM     18  C   PHE d   1      22.159  37.534  29.498  0.00  0.00     0.241 C 
ATOM     19  O   PHE d   1      21.510  38.541  29.795  0.00  0.00    -0.271 OA
ATOM     20  H13 PHE d   1      19.976  36.926  27.233  0.00  0.00     0.163 HD
ATOM     21  H14 PHE d   1      22.377  35.805  28.254  0.00  0.00     0.088 H 
ATOM     22  N   ASP d   1      23.153  37.052  30.247  0.00  0.00    -0.345 N 
ATOM     23  CA  ASP d   1      23.522  37.652  31.526  0.00  0.00     0.098 C 
ATOM     24  C   ASP d   1      24.907  38.283  31.396  0.00  0.00     0.241 C 
ATOM     25  O   ASP d   1      25.871  37.588  31.102  0.00  0.00    -0.271 OA
ATOM     26  H22 ASP d   1      23.661  36.255  29.922  0.00  0.00     0.163 HD
ATOM     27  H23 ASP d   1      22.794  38.437  31.781  0.00  0.00     0.088 H 
ATOM     28  N   LEU d   1      25.002  39.596  31.617  0.00  0.00    -0.346 N 
ATOM     29  CA  LEU d   1      26.261  40.323  31.434  0.00  0.00     0.089 C 
ATOM     30  C   LEU d   1      27.368  39.895  32.384  0.00  0.00     0.241 C 
ATOM     31  O   LEU d   1      28.550  40.077  32.087  0.00  0.00    -0.271 OA
ATOM     32  N   LEU d   1      23.580  32.379  29.015  0.00  0.00    -0.346 N 
ATOM     33  CA  LEU d   1      22.124  32.481  29.060  0.00  0.00     0.089 C 
ATOM     34  C   LEU d   1      21.663  32.060  30.437  0.00  0.00     0.241 C 
ATOM     35  O   LEU d   1      22.236  31.149  31.026  0.00  0.00    -0.271 OA
ATOM     36  H26 LEU d   1      24.191  40.098  31.916  0.00  0.00     0.163 HD
ATOM     37  H27 LEU d   1      26.603  40.139  30.405  0.00  0.00     0.087 H 
ATOM     38  H75 LEU d   1      24.012  31.647  28.488  0.00  0.00     0.163 HD
ATOM     39  H76 LEU d   1      21.832  33.527  28.886  0.00  0.00     0.087 H 
ATOM     40  N   SER d   1      26.991  39.359  33.538  0.00  0.00    -0.344 N 
ATOM     41  CA  SER d   1      27.979  39.023  34.550  0.00  0.00     0.109 C 
ATOM     42  C   SER d   1      28.760  37.784  34.158  0.00  0.00     0.243 C 
ATOM     43  O   SER d   1      29.950  37.694  34.432  0.00  0.00    -0.271 OA
ATOM     44  H37 SER d   1      26.022  39.185  33.712  0.00  0.00     0.163 HD
ATOM     45  H38 SER d   1      28.683  39.864  34.634  0.00  0.00     0.090 H 
ATOM     46  N   THR d   1      28.088  36.847  33.496  0.00  0.00    -0.344 N 
ATOM     47  CA  THR d   1      28.676  35.551  33.171  0.00  0.00     0.113 C 
ATOM     48  C   THR d   1      28.798  35.296  31.666  0.00  0.00     0.243 C 
ATOM     49  O   THR d   1      29.417  34.311  31.243  0.00  0.00    -0.271 OA
ATOM     50  H42 THR d   1      27.148  37.036  33.211  0.00  0.00     0.163 HD
ATOM     51  H43 THR d   1      29.688  35.530  33.601  0.00  0.00     0.091 H 
ATOM     52  N   ARG d   1      28.211  36.185  30.873  0.00  0.00    -0.346 N 
ATOM     53  CA  ARG d   1      28.116  36.024  29.421  0.00  0.00     0.089 C 
ATOM     54  C   ARG d   1      27.454  34.714  29.047  0.00  0.00     0.241 C 
ATOM     55  O   ARG d   1      27.788  34.114  28.035  0.00  0.00    -0.271 OA
ATOM     56  N   ARG d   1      26.527  34.269  29.879  0.00  0.00    -0.346 N 
ATOM     57  CA  ARG d   1      25.831  33.026  29.642  0.00  0.00     0.089 C 
ATOM     58  C   ARG d   1      24.332  33.254  29.670  0.00  0.00     0.241 C 
ATOM     59  O   ARG d   1      23.855  34.219  30.270  0.00  0.00    -0.271 OA
ATOM     60  H49 ARG d   1      27.815  37.004  31.288  0.00  0.00     0.163 HD
ATOM     61  H50 ARG d   1      27.492  36.844  29.036  0.00  0.00     0.087 H 
ATOM     62  H62 ARG d   1      26.303  34.806  30.692  0.00  0.00     0.163 HD
ATOM     63  H63 ARG d   1      26.115  32.639  28.653  0.00  0.00     0.087 H 
ATOM     64  N   LYS d   1      20.636  32.690  30.939  0.00  0.00    -0.346 N 
ATOM     65  CA  LYS d   1      20.124  32.398  32.249  0.00  0.00     0.089 C 
ATOM     66  C   LYS d   1      18.646  32.394  32.228  0.00  0.00     0.241 C 
ATOM     67  O   LYS d   1      18.030  33.303  31.814  0.00  0.00    -0.271 OA
ATOM     68  H86 LYS d   1      20.191  33.400  30.393  0.00  0.00     0.163 HD
ATOM     69  H87 LYS d   1      20.470  31.394  32.537  0.00  0.00     0.087 H 
ATOM     70  N   CYS d   1      18.076  31.316  32.696  0.00  0.00    -0.344 N 
ATOM     71  CA  CYS d   1      16.613  31.167  32.667  0.00  0.00     0.105 C 
ATOM     72  CB  CYS d   1      16.226  29.794  32.197  0.00  0.00     0.015 C 
ATOM     73  SG  CYS d   1      16.580  29.639  30.480  0.00  0.00    -0.095 SA
ATOM     74  H99 CYS d   1      18.640  30.584  33.078  0.00  0.00     0.163 HD
ATOM     75 0H10 CYS d   1      16.235  31.887  31.926  0.00  0.00     0.090 H 
ATOM     76 1H10 CYS d   1      15.150  29.639  32.365  0.00  0.00     0.054 H 
ATOM     77 2H10 CYS d   1      16.797  29.040  32.758  0.00  0.00     0.054 H 
ENDROOT
BRANCH  53  78
ATOM     78  CB  ARG d   1      29.484  36.115  28.745  0.00  0.00    -0.036 C 
ATOM     79  H51 ARG d   1      29.337  36.111  27.655  0.00  0.00     0.036 H 
ATOM     80  H52 ARG d   1      30.078  35.237  29.038  0.00  0.00     0.036 H 
BRANCH  78  81
ATOM     81  CG  ARG d   1      30.246  37.353  29.119  0.00  0.00    -0.048 C 
ATOM     82  H53 ARG d   1      30.587  37.269  30.161  0.00  0.00     0.035 H 
ATOM     83  H54 ARG d   1      29.589  38.229  29.018  0.00  0.00     0.035 H 
BRANCH  81  84
ATOM     84  CD  ARG d   1      31.428  37.516  28.224  0.00  0.00     0.009 C 
ATOM     85  H55 ARG d   1      31.079  37.564  27.182  0.00  0.00     0.064 H 
ATOM     86  H56 ARG d   1      32.090  36.646  28.350  0.00  0.00     0.064 H 
BRANCH  84  87
ATOM     87  NE  ARG d   1      32.182  38.726  28.522  0.00  0.00    -0.227 N 
ATOM     88  CZ  ARG d   1      33.266  39.110  27.852  0.00  0.00     0.665 C 
ATOM     89  NH1 ARG d   1      33.723  38.370  26.844  0.00  0.00    -0.235 N 
ATOM     90  NH2 ARG d   1      33.892  40.231  28.188  0.00  0.00    -0.235 N 
ATOM     91  H58 ARG d   1      34.562  38.667  26.326  0.00  0.00     0.174 HD
ATOM     92  H59 ARG d   1      33.238  37.500  26.582  0.00  0.00     0.174 HD
ATOM     93  H60 ARG d   1      33.539  40.804  28.968  0.00  0.00     0.174 HD
ATOM     94  H61 ARG d   1      34.731  40.528  27.669  0.00  0.00     0.174 HD
ATOM     95  H57 ARG d   1      31.857  39.320  29.298  0.00  0.00     0.177 HD
ENDBRANCH  84  87
ENDBRANCH  81  84
ENDBRANCH  78  81
ENDBRANCH  53  78
BRANCH  47  96
ATOM     96  CB  THR d   1      27.856  34.408  33.799  0.00  0.00     0.060 C 
ATOM     97  H44 THR d   1      28.322  33.445  33.544  0.00  0.00     0.086 H 
BRANCH  96  98
ATOM     98  OG1 THR d   1      26.513  34.441  33.287  0.00  0.00    -0.393 OA
ATOM     99  H45 THR d   1      26.113  35.275  33.505  0.00  0.00     0.210 HD
ENDBRANCH  96  98
BRANCH  96 100
ATOM    100  CG2 THR d   1      27.816  34.564  35.312  0.00  0.00    -0.050 C 
ATOM    101  H46 THR d   1      27.229  33.743  35.750  0.00  0.00     0.031 H 
ATOM    102  H47 THR d   1      27.350  35.526  35.569  0.00  0.00     0.031 H 
ATOM    103  H48 THR d   1      28.841  34.535  35.711  0.00  0.00     0.031 H 
ENDBRANCH  96 100
ENDBRANCH  47  96
BRANCH  57 104
ATOM    104  CB  ARG d   1      26.224  32.005  30.710  0.00  0.00    -0.036 C 
ATOM    105  H64 ARG d   1      25.602  31.107  30.576  0.00  0.00     0.036 H 
ATOM    106  H65 ARG d   1      26.026  32.444  31.699  0.00  0.00     0.036 H 
BRANCH 104 107
ATOM    107  CG  ARG d   1      27.690  31.586  30.656  0.00  0.00    -0.048 C 
ATOM    108  H66 ARG d   1      27.891  30.907  31.497  0.00  0.00     0.035 H 
ATOM    109  H67 ARG d   1      28.315  32.486  30.754  0.00  0.00     0.035 H 
BRANCH 107 110
ATOM    110  CD  ARG d   1      28.066  30.869  29.347  0.00  0.00     0.009 C 
ATOM    111  H68 ARG d   1      29.052  30.398  29.467  0.00  0.00     0.064 H 
ATOM    112  H69 ARG d   1      28.109  31.608  28.533  0.00  0.00     0.064 H 
BRANCH 110 113
ATOM    113  NE  ARG d   1      27.090  29.846  29.007  0.00  0.00    -0.227 N 
ATOM    114  CZ  ARG d   1      27.003  28.650  29.584  0.00  0.00     0.665 C 
ATOM    115  NH1 ARG d   1      27.851  28.283  30.539  0.00  0.00    -0.235 N 
ATOM    116  NH2 ARG d   1      26.054  27.813  29.190  0.00  0.00    -0.235 N 
ATOM    117  H71 ARG d   1      27.767  27.353  30.973  0.00  0.00     0.174 HD
ATOM    118  H72 ARG d   1      28.593  28.929  30.845  0.00  0.00     0.174 HD
ATOM    119  H73 ARG d   1      25.395  28.093  28.450  0.00  0.00     0.174 HD
ATOM    120  H74 ARG d   1      25.976  26.882  29.624  0.00  0.00     0.174 HD
ATOM    121  H70 ARG d   1      26.413  30.064  28.262  0.00  0.00     0.177 HD
ENDBRANCH 110 113
ENDBRANCH 107 110
ENDBRANCH 104 107
ENDBRANCH  57 104
BRANCH  41 122
ATOM    122  CB  SER d   1      27.315  38.812  35.913  0.00  0.00     0.044 C 
ATOM    123  H39 SER d   1      28.081  38.516  36.645  0.00  0.00     0.077 H 
ATOM    124  H40 SER d   1      26.563  38.014  35.827  0.00  0.00     0.077 H 
BRANCH 122 125
ATOM    125  OG  SER d   1      26.680  40.004  36.360  0.00  0.00    -0.398 OA
ATOM    126  H41 SER d   1      27.327  40.695  36.439  0.00  0.00     0.209 HD
ENDBRANCH 122 125
ENDBRANCH  41 122
BRANCH  33 127
ATOM    127  CB  LEU d   1      21.479  31.612  27.985  0.00  0.00    -0.035 C 
ATOM    128  H77 LEU d   1      20.387  31.643  28.116  0.00  0.00     0.037 H 
ATOM    129  H78 LEU d   1      21.834  30.578  28.109  0.00  0.00     0.037 H 
BRANCH 127 130
ATOM    130  CG  LEU d   1      21.815  32.078  26.567  0.00  0.00    -0.059 C 
ATOM    131  H79 LEU d   1      22.910  32.112  26.466  0.00  0.00     0.038 H 
BRANCH 130 132
ATOM    132  CD1 LEU d   1      21.276  31.119  25.518  0.00  0.00    -0.073 C 
ATOM    133  H80 LEU d   1      21.537  31.488  24.515  0.00  0.00     0.028 H 
ATOM    134  H81 LEU d   1      20.182  31.052  25.610  0.00  0.00     0.028 H 
ATOM    135  H82 LEU d   1      21.719  30.123  25.669  0.00  0.00     0.028 H 
ENDBRANCH 130 132
BRANCH 130 136
ATOM    136  CD2 LEU d   1      21.270  33.480  26.351  0.00  0.00    -0.073 C 
ATOM    137  H83 LEU d   1      21.674  34.153  27.121  0.00  0.00     0.028 H 
ATOM    138  H84 LEU d   1      20.172  33.461  26.420  0.00  0.00     0.028 H 
ATOM    139  H85 LEU d   1      21.569  33.840  25.356  0.00  0.00     0.028 H 
ENDBRANCH 130 136
ENDBRANCH 127 130
ENDBRANCH  33 127
BRANCH  29 140
ATOM    140  CB  LEU d   1      26.048  41.816  31.621  0.00  0.00    -0.035 C 
ATOM    141  H28 LEU d   1      27.028  42.305  31.518  0.00  0.00     0.037 H 
ATOM    142  H29 LEU d   1      25.666  41.971  32.641  0.00  0.00     0.037 H 
BRANCH 140 143
ATOM    143  CG  LEU d   1      25.093  42.504  30.668  0.00  0.00    -0.059 C 
ATOM    144  H30 LEU d   1      24.198  41.882  30.519  0.00  0.00     0.038 H 
BRANCH 143 145
ATOM    145  CD1 LEU d   1      24.690  43.825  31.287  0.00  0.00    -0.073 C 
ATOM    146  H31 LEU d   1      23.994  44.348  30.614  0.00  0.00     0.028 H 
ATOM    147  H32 LEU d   1      25.585  44.445  31.443  0.00  0.00     0.028 H 
ATOM    148  H33 LEU d   1      24.198  43.642  32.254  0.00  0.00     0.028 H 
ENDBRANCH 143 145
BRANCH 143 149
ATOM    149  CD2 LEU d   1      25.785  42.706  29.343  0.00  0.00    -0.073 C 
ATOM    150  H34 LEU d   1      26.064  41.729  28.922  0.00  0.00     0.028 H 
ATOM    151  H35 LEU d   1      26.690  43.313  29.491  0.00  0.00     0.028 H 
ATOM    152  H36 LEU d   1      25.106  43.224  28.650  0.00  0.00     0.028 H 
ENDBRANCH 143 149
ENDBRANCH 140 143
ENDBRANCH  29 140
BRANCH  65 153
ATOM    153  CB  LYS d   1      20.638  33.389  33.281  0.00  0.00    -0.038 C 
ATOM    154  H88 LYS d   1      20.294  34.395  33.000  0.00  0.00     0.036 H 
ATOM    155  H89 LYS d   1      21.738  33.362  33.273  0.00  0.00     0.036 H 
BRANCH 153 156
ATOM    156  CG  LYS d   1      20.164  33.095  34.677  0.00  0.00    -0.061 C 
ATOM    157  H90 LYS d   1      20.378  32.042  34.911  0.00  0.00     0.033 H 
ATOM    158  H91 LYS d   1      19.079  33.269  34.728  0.00  0.00     0.033 H 
BRANCH 156 159
ATOM    159  CD  LYS d   1      20.849  33.973  35.702  0.00  0.00    -0.043 C 
ATOM    160  H92 LYS d   1      20.232  34.868  35.868  0.00  0.00     0.035 H 
ATOM    161  H93 LYS d   1      21.832  34.273  35.309  0.00  0.00     0.035 H 
BRANCH 159 162
ATOM    162  CE  LYS d   1      21.048  33.274  37.016  0.00  0.00     0.080 C 
ATOM    163  H94 LYS d   1      22.072  32.875  37.065  0.00  0.00     0.075 H 
ATOM    164  H95 LYS d   1      20.327  32.447  37.102  0.00  0.00     0.075 H 
BRANCH 162 165
ATOM    165  NZ  LYS d   1      20.840  34.219  38.127  0.00  0.00    -0.079 N 
ATOM    166  H96 LYS d   1      20.976  33.741  39.004  0.00  0.00     0.274 HD
ATOM    167  H97 LYS d   1      19.902  34.585  38.085  0.00  0.00     0.274 HD
ATOM    168  H98 LYS d   1      21.500  34.977  38.052  0.00  0.00     0.274 HD
ENDBRANCH 162 165
ENDBRANCH 159 162
ENDBRANCH 156 159
ENDBRANCH 153 156
ENDBRANCH  65 153
BRANCH  23 169
ATOM    169  CB  ASP d   1      23.502  36.585  32.626  0.00  0.00     0.043 C 
ATOM    170  H24 ASP d   1      24.193  35.778  32.343  0.00  0.00     0.052 H 
ATOM    171  H25 ASP d   1      22.481  36.183  32.705  0.00  0.00     0.052 H 
BRANCH 169 172
ATOM    172  CG  ASP d   1      23.919  37.125  33.993  0.00  0.00     0.175 C 
ATOM    173  OD1 ASP d   1      23.970  38.356  34.182  0.00  0.00    -0.648 OA
ATOM    174  OD2 ASP d   1      24.187  36.308  34.893  0.00  0.00    -0.648 OA
ENDBRANCH 169 172
ENDBRANCH  23 169
BRANCH  71 175
ATOM    175  C   CYS d   1      15.942  31.490  33.965  0.00  0.00     0.197 C 
ATOM    176  O   CYS d   1      16.420  32.233  34.806  0.00  0.00    -0.646 OA
ATOM    177  OXT CYS d   1      14.851  31.006  34.187  0.00  0.00    -0.646 OA
ENDBRANCH  71 175
BRANCH  17 178
ATOM    178  CB  PHE d   1      22.414  37.567  27.023  0.00  0.00    -0.014 C 
ATOM    179  H15 PHE d   1      21.886  38.531  26.974  0.00  0.00     0.043 H 
ATOM    180  H16 PHE d   1      22.219  36.994  26.105  0.00  0.00     0.043 H 
BRANCH 178 181
ATOM    181  CG  PHE d   1      23.886  37.839  27.106  0.00  0.00    -0.056 A 
ATOM    182  CD1 PHE d   1      24.805  36.824  26.868  0.00  0.00    -0.077 A 
ATOM    183  CE1 PHE d   1      26.168  37.067  26.934  0.00  0.00    -0.082 A 
ATOM    184  H17 PHE d   1      24.451  35.828  26.627  0.00  0.00     0.084 H 
ATOM    185  CZ  PHE d   1      26.635  38.340  27.239  0.00  0.00    -0.083 A 
ATOM    186  H19 PHE d   1      26.871  36.263  26.747  0.00  0.00     0.083 H 
ATOM    187  CE2 PHE d   1      25.728  39.365  27.477  0.00  0.00    -0.082 A 
ATOM    188  H21 PHE d   1      27.701  38.532  27.291  0.00  0.00     0.083 H 
ATOM    189  CD2 PHE d   1      24.358  39.109  27.408  0.00  0.00    -0.077 A 
ATOM    190  H20 PHE d   1      26.084  40.361  27.716  0.00  0.00     0.083 H 
ATOM    191  H18 PHE d   1      23.654  39.912  27.593  0.00  0.00     0.084 H 
ENDBRANCH 178 181
ENDBRANCH  17 178
BRANCH  11 192
ATOM    192  CB  GLN d   1      17.350  36.553  29.273  0.00  0.00    -0.030 C 
ATOM    193  H7  GLN d   1      17.711  36.608  30.311  0.00  0.00     0.037 H 
ATOM    194  H8  GLN d   1      16.325  36.154  29.262  0.00  0.00     0.037 H 
BRANCH 192 195
ATOM    195  CG  GLN d   1      17.320  37.944  28.710  0.00  0.00     0.011 C 
ATOM    196  H9  GLN d   1      16.782  37.925  27.751  0.00  0.00     0.047 H 
ATOM    197  H10 GLN d   1      18.354  38.280  28.544  0.00  0.00     0.047 H 
BRANCH 195 198
ATOM    198  CD  GLN d   1      16.630  38.931  29.636  0.00  0.00     0.215 C 
ATOM    199  OE1 GLN d   1      17.064  39.143  30.772  0.00  0.00    -0.274 OA
ATOM    200  NE2 GLN d   1      15.551  39.543  29.154  0.00  0.00    -0.370 N 
ATOM    201  H11 GLN d   1      15.056  40.203  29.719  0.00  0.00     0.159 HD
ATOM    202  H12 GLN d   1      15.235  39.343  28.227  0.00  0.00     0.159 HD
ENDBRANCH 195 198
ENDBRANCH 192 195
ENDBRANCH  11 192
TORSDOF 34
