REMARK  3 active torsions:
REMARK  status: ('A' for Active; 'I' for Inactive)
REMARK    1  A    between atoms: C8_7  and  C5_4 
REMARK       I    between atoms: C14_20  and  N13_10 
REMARK    2  A    between atoms: C16_11  and  C14_20 
REMARK    3  A    between atoms: C24_17  and  C25_24 
ROOT
ATOM      1  C8  6A7 d   1      -4.917  12.923 -11.293  0.00  0.00     0.040 C 
ATOM      2  C11 6A7 d   1      -3.773  14.905 -11.945  0.00  0.00    -0.048 C 
ATOM      3  C12 6A7 d   1      -5.161  14.873 -12.634  0.00  0.00    -0.001 C 
ATOM      4  N13 6A7 d   1      -5.859  13.644 -12.180  0.00  0.00    -0.339 N 
ATOM      5  C10 6A7 d   1      -3.507  13.405 -11.669  0.00  0.00    -0.041 C 
ATOM      6  C14 6A7 d   1      -7.130  13.304 -12.566  0.00  0.00     0.255 C 
ATOM      7  O15 6A7 d   1      -7.726  14.045 -13.332  0.00  0.00    -0.267 OA
ATOM      8  H5  6A7 d   1      -4.996  11.846 -11.504  0.00  0.00     0.080 H 
ATOM      9  H6  6A7 d   1      -3.806  15.482 -11.009  0.00  0.00     0.035 H 
ATOM     10  H7  6A7 d   1      -3.007  15.329 -12.611  0.00  0.00     0.035 H 
ATOM     11  H8  6A7 d   1      -5.037  14.852 -13.727  0.00  0.00     0.064 H 
ATOM     12  H9  6A7 d   1      -5.742  15.762 -12.348  0.00  0.00     0.064 H 
ATOM     13  H13 6A7 d   1      -3.129  12.890 -12.565  0.00  0.00     0.036 H 
ATOM     14  H14 6A7 d   1      -2.798  13.266 -10.840  0.00  0.00     0.036 H 
ENDROOT
BRANCH   1  15
ATOM     15  C5  6A7 d   1      -5.184  13.120  -9.812  0.00  0.00    -0.035 A 
ATOM     16  C4  6A7 d   1      -5.851  14.229  -9.291  0.00  0.00    -0.073 A 
ATOM     17  C3  6A7 d   1      -6.090  14.319  -7.924  0.00  0.00    -0.061 A 
ATOM     18  H2  6A7 d   1      -6.183  15.021  -9.952  0.00  0.00     0.084 H 
ATOM     19  C2  6A7 d   1      -5.673  13.304  -7.067  0.00  0.00     0.034 A 
ATOM     20  H1  6A7 d   1      -6.604  15.185  -7.523  0.00  0.00     0.086 H 
ATOM     21  C7  6A7 d   1      -5.014  12.201  -7.586  0.00  0.00    -0.061 A 
ATOM     22 CL1  6A7 d   1      -5.968  13.400  -5.357  0.00  0.00    -0.084 Cl
ATOM     23  C6  6A7 d   1      -4.781  12.110  -8.947  0.00  0.00    -0.073 A 
ATOM     24  H4  6A7 d   1      -4.681  11.409  -6.925  0.00  0.00     0.086 H 
ATOM     25  H3  6A7 d   1      -4.276  11.237  -9.345  0.00  0.00     0.084 H 
ENDBRANCH   1  15
BRANCH   6  26
ATOM     26  C16 6A7 d   1      -7.845  12.072 -12.141  0.00  0.00     0.050 A 
ATOM     27  C17 6A7 d   1      -7.969  11.676 -10.786  0.00  0.00    -0.051 A 
ATOM     28  C18 6A7 d   1      -8.655  10.508 -10.465  0.00  0.00     0.038 A 
ATOM     29  H10 6A7 d   1      -7.530  12.281 -10.001  0.00  0.00     0.086 H 
ATOM     30  C19 6A7 d   1      -9.251   9.717 -11.552  0.00  0.00     0.155 A 
ATOM     31  C24 6A7 d   1      -8.976   9.784  -9.300  0.00  0.00     0.065 A 
ATOM     32  N22 6A7 d   1      -9.819   8.687 -10.964  0.00  0.00    -0.260 N 
ATOM     33  N20 6A7 d   1      -9.111  10.166 -12.843  0.00  0.00    -0.240 NA
ATOM     34  N23 6A7 d   1      -9.654   8.728  -9.691  0.00  0.00    -0.177 NA
ATOM     35  H12 6A7 d   1     -10.330   7.943 -11.460  0.00  0.00     0.191 HD
ATOM     36  C21 6A7 d   1      -8.444  11.292 -13.131  0.00  0.00     0.020 A 
ATOM     37  H11 6A7 d   1      -8.367  11.607 -14.165  0.00  0.00     0.116 H 
BRANCH  31  38
ATOM     38  C25 6A7 d   1      -8.601  10.139  -7.883  0.00  0.00    -0.033 C 
ATOM     39  H15 6A7 d   1      -8.998   9.377  -7.197  0.00  0.00     0.035 H 
ATOM     40  H16 6A7 d   1      -9.026  11.121  -7.626  0.00  0.00     0.035 H 
ATOM     41  H17 6A7 d   1      -7.505  10.179  -7.793  0.00  0.00     0.035 H 
ENDBRANCH  31  38
ENDBRANCH   6  26
TORSDOF 3
