REMARK  3 active torsions:
REMARK  status: ('A' for Active; 'I' for Inactive)
REMARK    1  A    between atoms: C8_7  and  C5_4 
REMARK    2  A    between atoms: C15_10  and  C17_11 
REMARK       I    between atoms: C15_10  and  N14_18 
REMARK    3  A    between atoms: C25_24  and  N26_25 
ROOT
ATOM      1  C8  6A6 d   1      -3.466 -12.811  10.630  0.00  0.00     0.040 C 
ATOM      2  C11 6A6 d   1      -1.926 -13.687  12.396  0.00  0.00    -0.061 C 
ATOM      3  C12 6A6 d   1      -2.091 -15.115  11.878  0.00  0.00    -0.050 C 
ATOM      4  C15 6A6 d   1      -5.439 -13.904  11.854  0.00  0.00     0.254 C 
ATOM      5  C10 6A6 d   1      -2.062 -12.711  11.258  0.00  0.00    -0.042 C 
ATOM      6  C13 6A6 d   1      -3.459 -15.263  11.201  0.00  0.00    -0.001 C 
ATOM      7  N14 6A6 d   1      -4.198 -13.974  11.245  0.00  0.00    -0.339 N 
ATOM      8  O16 6A6 d   1      -5.945 -14.896  12.353  0.00  0.00    -0.267 OA
ATOM      9  H5  6A6 d   1      -4.026 -11.901  10.892  0.00  0.00     0.080 H 
ATOM     10  H6  6A6 d   1      -0.932 -13.578  12.854  0.00  0.00     0.033 H 
ATOM     11  H7  6A6 d   1      -2.701 -13.480  13.149  0.00  0.00     0.033 H 
ATOM     12  H8  6A6 d   1      -2.021 -15.820  12.720  0.00  0.00     0.035 H 
ATOM     13  H9  6A6 d   1      -1.297 -15.334  11.149  0.00  0.00     0.035 H 
ATOM     14  H12 6A6 d   1      -1.906 -11.690  11.636  0.00  0.00     0.036 H 
ATOM     15  H13 6A6 d   1      -1.305 -12.939  10.493  0.00  0.00     0.036 H 
ATOM     16  H14 6A6 d   1      -4.042 -16.034  11.726  0.00  0.00     0.064 H 
ATOM     17  H15 6A6 d   1      -3.315 -15.563  10.153  0.00  0.00     0.064 H 
ENDROOT
BRANCH   1  18
ATOM     18  C5  6A6 d   1      -3.350 -12.841   9.103  0.00  0.00    -0.035 A 
ATOM     19  C4  6A6 d   1      -4.228 -13.591   8.323  0.00  0.00    -0.072 A 
ATOM     20  C3  6A6 d   1      -4.111 -13.598   6.936  0.00  0.00    -0.045 A 
ATOM     21  H2  6A6 d   1      -5.008 -14.173   8.800  0.00  0.00     0.084 H 
ATOM     22  C2  6A6 d   1      -3.121 -12.853   6.303  0.00  0.00     0.116 A 
ATOM     23  H1  6A6 d   1      -4.798 -14.190   6.343  0.00  0.00     0.088 H 
ATOM     24  C7  6A6 d   1      -2.245 -12.097   7.064  0.00  0.00    -0.045 A 
ATOM     25  F1  6A6 d   1      -3.003 -12.861   4.959  0.00  0.00    -0.206 F 
ATOM     26  C6  6A6 d   1      -2.367 -12.086   8.444  0.00  0.00    -0.072 A 
ATOM     27  H4  6A6 d   1      -1.467 -11.516   6.582  0.00  0.00     0.088 H 
ATOM     28  H3  6A6 d   1      -1.686 -11.479   9.030  0.00  0.00     0.084 H 
ENDBRANCH   1  18
BRANCH   4  29
ATOM     29  C17 6A6 d   1      -6.239 -12.654  11.939  0.00  0.00     0.033 A 
ATOM     30  C18 6A6 d   1      -6.415 -11.901  10.781  0.00  0.00    -0.052 A 
ATOM     31  C19 6A6 d   1      -7.131 -10.722  10.803  0.00  0.00     0.040 A 
ATOM     32  H10 6A6 d   1      -5.983 -12.246   9.849  0.00  0.00     0.086 H 
ATOM     33  C20 6A6 d   1      -7.726 -10.274  12.000  0.00  0.00     0.064 A 
ATOM     34  C25 6A6 d   1      -7.440  -9.756   9.764  0.00  0.00     0.153 A 
ATOM     35  C21 6A6 d   1      -7.572 -11.046  13.166  0.00  0.00    -0.054 A 
ATOM     36  N23 6A6 d   1      -8.353  -9.098  11.683  0.00  0.00    -0.276 N 
ATOM     37  C22 6A6 d   1      -6.842 -12.212  13.139  0.00  0.00    -0.065 A 
ATOM     38  H11 6A6 d   1      -8.032 -10.720  14.092  0.00  0.00     0.087 H 
ATOM     39  H16 6A6 d   1      -6.728 -12.796  14.045  0.00  0.00     0.085 H 
ATOM     40  N24 6A6 d   1      -8.149  -8.813  10.323  0.00  0.00    -0.156 NA
ATOM     41  H17 6A6 d   1      -8.890  -8.514  12.340  0.00  0.00     0.189 HD
BRANCH  34  42
ATOM     42  N26 6A6 d   1      -7.018  -9.848   8.437  0.00  0.00    -0.382 N 
ATOM     43  H18 6A6 d   1      -7.282  -9.117   7.761  0.00  0.00     0.157 HD
ATOM     44  H19 6A6 d   1      -6.443 -10.647   8.134  0.00  0.00     0.157 HD
ENDBRANCH  34  42
ENDBRANCH   4  29
TORSDOF 3
