REMARK  5 active torsions:
REMARK  status: ('A' for Active; 'I' for Inactive)
REMARK    1  A    between atoms: C2_2  and  O2_3 
REMARK    2  A    between atoms: C3_4  and  O3_5 
REMARK    3  A    between atoms: C4_6  and  O4_7 
REMARK    4  A    between atoms: C5_8  and  C6_10 
REMARK    5  A    between atoms: C6_10  and  O6_11 
ROOT
ATOM      1  C1  NOJ d   1       4.166  15.272   7.878  0.00  0.00     0.108 C 
ATOM      2  C2  NOJ d   1       5.453  15.227   7.070  0.00  0.00     0.086 C 
ATOM      3  C3  NOJ d   1       5.366  14.160   5.989  0.00  0.00     0.088 C 
ATOM      4  C4  NOJ d   1       5.062  12.791   6.597  0.00  0.00     0.092 C 
ATOM      5  C5  NOJ d   1       3.781  12.840   7.428  0.00  0.00     0.149 C 
ATOM      6  N5  NOJ d   1       3.839  13.943   8.398  0.00  0.00    -0.064 N 
ATOM      7  H1  NOJ d   1       3.346  15.620   7.233  0.00  0.00     0.079 H 
ATOM      8  H2  NOJ d   1       4.291  15.969   8.720  0.00  0.00     0.079 H 
ATOM      9  H3  NOJ d   1       6.278  14.955   7.745  0.00  0.00     0.089 H 
ATOM     10  H5  NOJ d   1       4.548  14.418   5.300  0.00  0.00     0.091 H 
ATOM     11  H7  NOJ d   1       5.900  12.506   7.250  0.00  0.00     0.090 H 
ATOM     12  H9  NOJ d   1       2.951  13.044   6.736  0.00  0.00     0.091 H 
ATOM     13  H10 NOJ d   1       2.936  14.004   8.842  0.00  0.00     0.277 HD
ATOM     14  H11 NOJ d   1       4.537  13.706   9.086  0.00  0.00     0.277 HD
ENDROOT
BRANCH   5  15
ATOM     15  C6  NOJ d   1       3.468  11.523   8.136  0.00  0.00     0.046 C 
ATOM     16  H12 NOJ d   1       3.420  10.714   7.392  0.00  0.00     0.077 H 
ATOM     17  H13 NOJ d   1       2.498  11.609   8.648  0.00  0.00     0.077 H 
BRANCH  15  18
ATOM     18  O6  NOJ d   1       4.479  11.220   9.093  0.00  0.00    -0.399 OA
ATOM     19  H14 NOJ d   1       4.521  11.916   9.738  0.00  0.00     0.209 HD
ENDBRANCH  15  18
ENDBRANCH   5  15
BRANCH   4  20
ATOM     20  O4  NOJ d   1       4.913  11.800   5.578  0.00  0.00    -0.391 OA
ATOM     21  H8  NOJ d   1       5.718  11.739   5.077  0.00  0.00     0.210 HD
ENDBRANCH   4  20
BRANCH   3  22
ATOM     22  O3  NOJ d   1       6.596  14.161   5.259  0.00  0.00    -0.390 OA
ATOM     23  H6  NOJ d   1       6.728  15.015   4.865  0.00  0.00     0.210 HD
ENDBRANCH   3  22
BRANCH   2  24
ATOM     24  O2  NOJ d   1       5.727  16.521   6.540  0.00  0.00    -0.391 OA
ATOM     25  H4  NOJ d   1       5.010  16.791   5.979  0.00  0.00     0.210 HD
ENDBRANCH   2  24
TORSDOF 5
