REMARK  16 active torsions:
REMARK  status: ('A' for Active; 'I' for Inactive)
REMARK    1  A    between atoms: C10_1  and  C9_19 
REMARK    2  A    between atoms: C11_20  and  C10_1 
REMARK    3  A    between atoms: C12_2  and  C11_20 
REMARK    4  A    between atoms: C13_21  and  C12_2 
REMARK    5  A    between atoms: O4_22  and  C14_3 
REMARK    6  A    between atoms: C4_6  and  O3_5 
REMARK    7  A    between atoms: C3_7  and  C4_6 
REMARK    8  A    between atoms: C2_8  and  O2_9 
REMARK    9  A    between atoms: C1_10  and  O1_11 
REMARK   10  A    between atoms: C5_15  and  N_12 
REMARK   11  A    between atoms: C_13  and  O_14 
REMARK   12  A    between atoms: C6_16  and  C5_15 
REMARK   13  A    between atoms: C7_17  and  C6_16 
REMARK   14  A    between atoms: C8_18  and  C7_17 
REMARK   15  A    between atoms: C9_19  and  C8_18 
REMARK   16  A    between atoms: C13_21  and  O4_22 
ROOT
ATOM      1  C6  6A9 d   1       1.305  13.303   8.800  0.00  0.00    -0.042 C 
ATOM      2  H23 6A9 d   1       1.199  12.412   8.163  0.00  0.00     0.035 H 
ATOM      3  H24 6A9 d   1       1.244  14.208   8.178  0.00  0.00     0.035 H 
ENDROOT
BRANCH   1   4
ATOM      4  C5  6A9 d   1       2.686  13.263   9.464  0.00  0.00     0.084 C 
ATOM      5  H21 6A9 d   1       2.764  14.142  10.121  0.00  0.00     0.076 H 
ATOM      6  H22 6A9 d   1       2.736  12.347  10.070  0.00  0.00     0.076 H 
BRANCH   4   7
ATOM      7  N   6A9 d   1       3.866  13.270   8.566  0.00  0.00    -0.060 N 
ATOM      8  C15 6A9 d   1       4.074  14.605   7.972  0.00  0.00     0.110 C 
ATOM      9  C   6A9 d   1       5.427  14.673   7.274  0.00  0.00     0.086 C 
ATOM     10  H8  6A9 d   1       4.038  15.365   8.767  0.00  0.00     0.080 H 
ATOM     11  H9  6A9 d   1       3.278  14.803   7.239  0.00  0.00     0.080 H 
ATOM     12  C1  6A9 d   1       5.504  13.616   6.179  0.00  0.00     0.088 C 
ATOM     13  H19 6A9 d   1       6.205  14.435   8.014  0.00  0.00     0.089 H 
ATOM     14  C2  6A9 d   1       5.255  12.229   6.767  0.00  0.00     0.092 C 
ATOM     15  H16 6A9 d   1       4.713  13.829   5.445  0.00  0.00     0.091 H 
ATOM     16  C3  6A9 d   1       3.921  12.177   7.562  0.00  0.00     0.150 C 
ATOM     17  H14 6A9 d   1       6.079  11.996   7.458  0.00  0.00     0.090 H 
ATOM     18  H13 6A9 d   1       3.090  12.325   6.857  0.00  0.00     0.092 H 
ATOM     19  H18 6A9 d   1       4.659  13.110   9.168  0.00  0.00     0.280 HD
BRANCH   9  20
ATOM     20  O   6A9 d   1       5.671  16.001   6.811  0.00  0.00    -0.391 OA
ATOM     21  H20 6A9 d   1       5.026  16.229   6.152  0.00  0.00     0.210 HD
ENDBRANCH   9  20
BRANCH  12  22
ATOM     22  O1  6A9 d   1       6.760  13.639   5.496  0.00  0.00    -0.390 OA
ATOM     23  H17 6A9 d   1       6.906  14.505   5.134  0.00  0.00     0.210 HD
ENDBRANCH  12  22
BRANCH  14  24
ATOM     24  O2  6A9 d   1       5.237  11.246   5.734  0.00  0.00    -0.391 OA
ATOM     25  H15 6A9 d   1       6.054  11.281   5.251  0.00  0.00     0.210 HD
ENDBRANCH  14  24
BRANCH  16  26
ATOM     26  C4  6A9 d   1       3.766  10.797   8.197  0.00  0.00     0.046 C 
ATOM     27  H11 6A9 d   1       2.732  10.679   8.553  0.00  0.00     0.077 H 
ATOM     28  H12 6A9 d   1       3.984  10.027   7.442  0.00  0.00     0.077 H 
BRANCH  26  29
ATOM     29  O3  6A9 d   1       4.665  10.636   9.304  0.00  0.00    -0.399 OA
ATOM     30  H10 6A9 d   1       4.479  11.297   9.961  0.00  0.00     0.209 HD
ENDBRANCH  26  29
ENDBRANCH  16  26
ENDBRANCH   4   7
ENDBRANCH   1   4
BRANCH   1  31
ATOM     31  C7  6A9 d   1       0.150  13.324   9.795  0.00  0.00    -0.064 C 
ATOM     32  H25 6A9 d   1       0.353  14.074  10.574  0.00  0.00     0.033 H 
ATOM     33  H26 6A9 d   1       0.050  12.332  10.259  0.00  0.00     0.033 H 
BRANCH  31  34
ATOM     34  C8  6A9 d   1      -1.146  13.679   9.078  0.00  0.00    -0.065 C 
ATOM     35  H27 6A9 d   1      -1.280  12.961   8.255  0.00  0.00     0.033 H 
ATOM     36  H28 6A9 d   1      -1.033  14.693   8.666  0.00  0.00     0.033 H 
BRANCH  34  37
ATOM     37  C9  6A9 d   1      -2.418  13.661   9.919  0.00  0.00    -0.065 C 
ATOM     38  H29 6A9 d   1      -2.538  12.655  10.348  0.00  0.00     0.033 H 
ATOM     39  H30 6A9 d   1      -2.310  14.396  10.731  0.00  0.00     0.033 H 
BRANCH  37  40
ATOM     40  C10 6A9 d   1      -3.676  14.001   9.123  0.00  0.00    -0.065 C 
ATOM     41  H1  6A9 d   1      -4.545  13.677   9.714  0.00  0.00     0.033 H 
ATOM     42  H2  6A9 d   1      -3.641  13.434   8.181  0.00  0.00     0.033 H 
BRANCH  40  43
ATOM     43  C11 6A9 d   1      -3.874  15.473   8.773  0.00  0.00    -0.063 C 
ATOM     44  H31 6A9 d   1      -2.923  15.873   8.392  0.00  0.00     0.033 H 
ATOM     45  H32 6A9 d   1      -4.160  16.014   9.687  0.00  0.00     0.033 H 
BRANCH  43  46
ATOM     46  C12 6A9 d   1      -4.951  15.700   7.719  0.00  0.00    -0.045 C 
ATOM     47  H3  6A9 d   1      -5.510  14.760   7.597  0.00  0.00     0.036 H 
ATOM     48  H4  6A9 d   1      -4.451  15.955   6.773  0.00  0.00     0.036 H 
BRANCH  46  49
ATOM     49  C13 6A9 d   1      -5.946  16.798   8.032  0.00  0.00     0.019 C 
ATOM     50  H33 6A9 d   1      -6.424  16.577   8.998  0.00  0.00     0.074 H 
ATOM     51  H34 6A9 d   1      -6.710  16.819   7.241  0.00  0.00     0.074 H 
BRANCH  49  52
ATOM     52  O4  6A9 d   1      -5.338  18.067   8.108  0.00  0.00    -0.396 OA
BRANCH  52  53
ATOM     53  C14 6A9 d   1      -6.285  19.122   8.154  0.00  0.00     0.004 C 
ATOM     54  H5  6A9 d   1      -5.758  20.086   8.213  0.00  0.00     0.066 H 
ATOM     55  H6  6A9 d   1      -6.926  19.001   9.039  0.00  0.00     0.066 H 
ATOM     56  H7  6A9 d   1      -6.905  19.098   7.246  0.00  0.00     0.066 H 
ENDBRANCH  52  53
ENDBRANCH  49  52
ENDBRANCH  46  49
ENDBRANCH  43  46
ENDBRANCH  40  43
ENDBRANCH  37  40
ENDBRANCH  34  37
ENDBRANCH  31  34
ENDBRANCH   1  31
TORSDOF 16
