REMARK  12 active torsions:
REMARK  status: ('A' for Active; 'I' for Inactive)
REMARK    1  A    between atoms: C3_5  and  O1_1 
REMARK    2  A    between atoms: C25_27  and  O2_2 
REMARK    3  A    between atoms: C7_9  and  C6_8 
REMARK    4  A    between atoms: C13_15  and  C18_20 
REMARK    5  A    between atoms: C20_22  and  C17_19 
REMARK    6  A    between atoms: C20_22  and  C21_23 
REMARK    7  A    between atoms: C22_24  and  C20_22 
REMARK    8  A    between atoms: C23_25  and  C22_24 
REMARK    9  A    between atoms: C24_26  and  C23_25 
REMARK   10  A    between atoms: C24_26  and  C25_27 
REMARK   11  A    between atoms: C25_27  and  C26_28 
REMARK   12  A    between atoms: C25_27  and  C27_29 
ROOT
ATOM      1  C7  VDY d   1       4.398   0.518  -5.845  0.00  0.00    -0.080 C 
ATOM      2  C8  VDY d   1       4.743   0.288  -7.095  0.00  0.00    -0.075 C 
ATOM      3  C9  VDY d   1       5.713  -0.795  -7.450  0.00  0.00    -0.044 C 
ATOM      4  C11 VDY d   1       5.307  -1.403  -8.755  0.00  0.00    -0.061 C 
ATOM      5  C12 VDY d   1       5.100  -0.365  -9.852  0.00  0.00    -0.057 C 
ATOM      6  C13 VDY d   1       4.104   0.662  -9.440  0.00  0.00    -0.033 C 
ATOM      7  C14 VDY d   1       4.647   1.323  -8.158  0.00  0.00    -0.025 C 
ATOM      8  C15 VDY d   1       3.631   2.415  -7.916  0.00  0.00    -0.057 C 
ATOM      9  C16 VDY d   1       3.342   2.908  -9.330  0.00  0.00    -0.060 C 
ATOM     10  C17 VDY d   1       3.907   1.875 -10.312  0.00  0.00    -0.043 C 
ATOM     11  H11 VDY d   1       4.032   1.505  -5.566  0.00  0.00     0.083 H 
ATOM     12  H12 VDY d   1       5.708  -1.567  -6.666  0.00  0.00     0.039 H 
ATOM     13  H13 VDY d   1       6.724  -0.370  -7.540  0.00  0.00     0.039 H 
ATOM     14  H14 VDY d   1       4.365  -1.952  -8.609  0.00  0.00     0.033 H 
ATOM     15  H15 VDY d   1       6.093  -2.102  -9.077  0.00  0.00     0.033 H 
ATOM     16  H16 VDY d   1       4.740  -0.870 -10.761  0.00  0.00     0.034 H 
ATOM     17  H17 VDY d   1       6.059   0.130 -10.063  0.00  0.00     0.034 H 
ATOM     18  H18 VDY d   1       5.643   1.761  -8.319  0.00  0.00     0.048 H 
ATOM     19  H19 VDY d   1       4.050   3.218  -7.292  0.00  0.00     0.034 H 
ATOM     20  H20 VDY d   1       2.723   2.016  -7.440  0.00  0.00     0.034 H 
ATOM     21  H21 VDY d   1       3.826   3.882  -9.493  0.00  0.00     0.033 H 
ATOM     22  H22 VDY d   1       2.256   3.009  -9.476  0.00  0.00     0.033 H 
ATOM     23  H23 VDY d   1       4.877   2.196 -10.720  0.00  0.00     0.041 H 
ENDROOT
BRANCH  10  24
ATOM     24  C20 VDY d   1       2.913   1.738 -11.467  0.00  0.00    -0.053 C 
ATOM     25  H29 VDY d   1       1.922   1.481 -11.065  0.00  0.00     0.040 H 
BRANCH  24  26
ATOM     26  C21 VDY d   1       3.358   0.655 -12.413  0.00  0.00    -0.072 C 
ATOM     27  H30 VDY d   1       2.635   0.568 -13.237  0.00  0.00     0.028 H 
ATOM     28  H31 VDY d   1       3.416  -0.302 -11.874  0.00  0.00     0.028 H 
ATOM     29  H32 VDY d   1       4.348   0.907 -12.820  0.00  0.00     0.028 H 
ENDBRANCH  24  26
BRANCH  24  30
ATOM     30  C22 VDY d   1       2.829   3.063 -12.206  0.00  0.00    -0.061 C 
ATOM     31  H33 VDY d   1       3.856   3.409 -12.393  0.00  0.00     0.033 H 
ATOM     32  H34 VDY d   1       2.313   3.781 -11.551  0.00  0.00     0.033 H 
BRANCH  30  33
ATOM     33  C23 VDY d   1       2.099   3.041 -13.535  0.00  0.00    -0.062 C 
ATOM     34  H35 VDY d   1       2.357   2.113 -14.066  0.00  0.00     0.033 H 
ATOM     35  H36 VDY d   1       2.422   3.907 -14.132  0.00  0.00     0.033 H 
BRANCH  33  36
ATOM     36  C24 VDY d   1       0.610   3.102 -13.361  0.00  0.00    -0.037 C 
ATOM     37  H37 VDY d   1       0.370   3.981 -12.745  0.00  0.00     0.037 H 
ATOM     38  H38 VDY d   1       0.285   2.189 -12.840  0.00  0.00     0.037 H 
BRANCH  36  39
ATOM     39  C25 VDY d   1      -0.164   3.208 -14.665  0.00  0.00     0.051 C 
BRANCH  39  40
ATOM     40  O2  VDY d   1       0.439   2.553 -15.738  0.00  0.00    -0.391 OA
ATOM     41  H2  VDY d   1       0.524   1.629 -15.536  0.00  0.00     0.210 HD
ENDBRANCH  39  40
BRANCH  39  42
ATOM     42  C26 VDY d   1      -1.486   2.517 -14.472  0.00  0.00    -0.048 C 
ATOM     43  H39 VDY d   1      -2.025   2.983 -13.634  0.00  0.00     0.031 H 
ATOM     44  H40 VDY d   1      -1.315   1.453 -14.251  0.00  0.00     0.031 H 
ATOM     45  H41 VDY d   1      -2.085   2.609 -15.390  0.00  0.00     0.031 H 
ENDBRANCH  39  42
BRANCH  39  46
ATOM     46  C27 VDY d   1      -0.401   4.670 -15.017  0.00  0.00    -0.048 C 
ATOM     47  H42 VDY d   1      -0.877   5.179 -14.166  0.00  0.00     0.031 H 
ATOM     48  H43 VDY d   1      -1.059   4.734 -15.896  0.00  0.00     0.031 H 
ATOM     49  H44 VDY d   1       0.561   5.153 -15.243  0.00  0.00     0.031 H 
ENDBRANCH  39  46
ENDBRANCH  36  39
ENDBRANCH  33  36
ENDBRANCH  30  33
ENDBRANCH  24  30
ENDBRANCH  10  24
BRANCH   6  50
ATOM     50  C18 VDY d   1       2.793  -0.011  -9.154  0.00  0.00    -0.068 C 
ATOM     51  H24 VDY d   1       2.964  -0.891  -8.517  0.00  0.00     0.028 H 
ATOM     52  H25 VDY d   1       2.329  -0.327 -10.100  0.00  0.00     0.028 H 
ATOM     53  H26 VDY d   1       2.125   0.693  -8.635  0.00  0.00     0.028 H 
ENDBRANCH   6  50
BRANCH   1  54
ATOM     54  C6  VDY d   1       4.495  -0.515  -4.833  0.00  0.00    -0.076 C 
ATOM     55  C5  VDY d   1       4.079  -0.321  -3.585  0.00  0.00    -0.050 C 
ATOM     56  C4  VDY d   1       4.284  -1.380  -2.573  0.00  0.00    -0.017 C 
ATOM     57  C10 VDY d   1       3.061   0.640  -3.192  0.00  0.00    -0.061 C 
ATOM     58  C3  VDY d   1       4.632  -0.739  -1.259  0.00  0.00     0.039 C 
ATOM     59  H8  VDY d   1       3.361  -1.969  -2.463  0.00  0.00     0.043 H 
ATOM     60  H9  VDY d   1       5.105  -2.040  -2.890  0.00  0.00     0.043 H 
ATOM     61  C2  VDY d   1       3.513   0.151  -0.813  0.00  0.00    -0.037 C 
ATOM     62  H7  VDY d   1       4.846  -1.506  -0.500  0.00  0.00     0.083 H 
ATOM     63  C1  VDY d   1       3.262   1.235  -1.841  0.00  0.00    -0.039 C 
ATOM     64  H5  VDY d   1       2.600  -0.449  -0.688  0.00  0.00     0.037 H 
ATOM     65  H6  VDY d   1       3.780   0.616   0.147  0.00  0.00     0.037 H 
ATOM     66  H3  VDY d   1       4.128   1.913  -1.870  0.00  0.00     0.040 H 
ATOM     67  H4  VDY d   1       2.362   1.801  -1.558  0.00  0.00     0.040 H 
ATOM     68  C19 VDY d   1       2.107   1.064  -3.969  0.00  0.00    -0.115 C 
ATOM     69  H27 VDY d   1       1.970   0.621  -4.954  0.00  0.00     0.067 H 
ATOM     70  H28 VDY d   1       1.446   1.862  -3.634  0.00  0.00     0.067 H 
ATOM     71  H10 VDY d   1       4.922  -1.480  -5.103  0.00  0.00     0.084 H 
BRANCH  58  72
ATOM     72  O1  VDY d   1       5.719   0.072  -1.464  0.00  0.00    -0.395 OA
ATOM     73  H1  VDY d   1       6.456  -0.455  -1.750  0.00  0.00     0.210 HD
ENDBRANCH  58  72
ENDBRANCH   1  54
TORSDOF 12
