REMARK  13 active torsions:
REMARK  status: ('A' for Active; 'I' for Inactive)
REMARK    1  A    between atoms: C3_5  and  O1_1 
REMARK    2  A    between atoms: C25_27  and  O2_2 
REMARK    3  A    between atoms: C7_9  and  C6_8 
REMARK    4  A    between atoms: C10_12  and  C19_21 
REMARK    5  A    between atoms: C13_15  and  C18_20 
REMARK    6  A    between atoms: C20_22  and  C17_19 
REMARK    7  A    between atoms: C20_22  and  C21_23 
REMARK    8  A    between atoms: C22_24  and  C20_22 
REMARK    9  A    between atoms: C23_25  and  C22_24 
REMARK   10  A    between atoms: C24_26  and  C23_25 
REMARK   11  A    between atoms: C24_26  and  C25_27 
REMARK   12  A    between atoms: C25_27  and  C26_28 
REMARK   13  A    between atoms: C25_27  and  C27_29 
ROOT
ATOM      1  C7  VDY d   1      17.188  65.106  -3.892  0.00  0.00    -0.080 C 
ATOM      2  C8  VDY d   1      16.356  65.932  -3.287  0.00  0.00    -0.075 C 
ATOM      3  C9  VDY d   1      14.893  65.790  -3.456  0.00  0.00    -0.044 C 
ATOM      4  C11 VDY d   1      14.163  66.357  -2.276  0.00  0.00    -0.061 C 
ATOM      5  C12 VDY d   1      14.613  67.770  -1.947  0.00  0.00    -0.057 C 
ATOM      6  C13 VDY d   1      16.061  67.786  -1.656  0.00  0.00    -0.033 C 
ATOM      7  C14 VDY d   1      16.767  67.320  -2.956  0.00  0.00    -0.025 C 
ATOM      8  C15 VDY d   1      18.234  67.508  -2.605  0.00  0.00    -0.057 C 
ATOM      9  C16 VDY d   1      18.241  68.727  -1.659  0.00  0.00    -0.060 C 
ATOM     10  C17 VDY d   1      16.770  69.094  -1.429  0.00  0.00    -0.043 C 
ATOM     11  H11 VDY d   1      18.249  65.350  -3.930  0.00  0.00     0.083 H 
ATOM     12  H12 VDY d   1      14.643  64.723  -3.556  0.00  0.00     0.039 H 
ATOM     13  H13 VDY d   1      14.581  66.326  -4.364  0.00  0.00     0.039 H 
ATOM     14  H15 VDY d   1      14.348  65.714  -1.403  0.00  0.00     0.033 H 
ATOM     15  H16 VDY d   1      13.086  66.371  -2.499  0.00  0.00     0.033 H 
ATOM     16  H17 VDY d   1      14.061  68.132  -1.067  0.00  0.00     0.034 H 
ATOM     17  H18 VDY d   1      14.407  68.427  -2.805  0.00  0.00     0.034 H 
ATOM     18  H19 VDY d   1      16.501  67.969  -3.803  0.00  0.00     0.048 H 
ATOM     19  H20 VDY d   1      18.829  67.711  -3.508  0.00  0.00     0.034 H 
ATOM     20  H21 VDY d   1      18.631  66.617  -2.097  0.00  0.00     0.034 H 
ATOM     21  H22 VDY d   1      18.776  69.568  -2.124  0.00  0.00     0.033 H 
ATOM     22  H23 VDY d   1      18.724  68.468  -0.705  0.00  0.00     0.033 H 
ATOM     23  H24 VDY d   1      16.435  69.821  -2.184  0.00  0.00     0.041 H 
ENDROOT
BRANCH  10  24
ATOM     24  C20 VDY d   1      16.588  69.730  -0.069  0.00  0.00    -0.053 C 
ATOM     25  H31 VDY d   1      16.987  69.075   0.720  0.00  0.00     0.040 H 
BRANCH  24  26
ATOM     26  C21 VDY d   1      15.137  69.956   0.130  0.00  0.00    -0.072 C 
ATOM     27  H32 VDY d   1      14.970  70.419   1.113  0.00  0.00     0.028 H 
ATOM     28  H33 VDY d   1      14.606  68.994   0.083  0.00  0.00     0.028 H 
ATOM     29  H34 VDY d   1      14.758  70.623  -0.659  0.00  0.00     0.028 H 
ENDBRANCH  24  26
BRANCH  24  30
ATOM     30  C22 VDY d   1      17.305  71.060  -0.055  0.00  0.00    -0.061 C 
ATOM     31  H35 VDY d   1      17.124  71.548  -1.024  0.00  0.00     0.033 H 
ATOM     32  H36 VDY d   1      18.380  70.859   0.060  0.00  0.00     0.033 H 
BRANCH  30  33
ATOM     33  C23 VDY d   1      16.899  72.032   1.033  0.00  0.00    -0.062 C 
ATOM     34  H37 VDY d   1      15.805  72.007   1.145  0.00  0.00     0.033 H 
ATOM     35  H38 VDY d   1      17.215  73.045   0.744  0.00  0.00     0.033 H 
BRANCH  33  36
ATOM     36  C24 VDY d   1      17.534  71.678   2.351  0.00  0.00    -0.037 C 
ATOM     37  H39 VDY d   1      18.626  71.774   2.257  0.00  0.00     0.037 H 
ATOM     38  H40 VDY d   1      17.277  70.638   2.602  0.00  0.00     0.037 H 
BRANCH  36  39
ATOM     39  C25 VDY d   1      17.055  72.587   3.470  0.00  0.00     0.051 C 
BRANCH  39  40
ATOM     40  O2  VDY d   1      15.700  72.823   3.368  0.00  0.00    -0.391 OA
ATOM     41  H2  VDY d   1      15.231  71.999   3.422  0.00  0.00     0.210 HD
ENDBRANCH  39  40
BRANCH  39  42
ATOM     42  C26 VDY d   1      17.372  71.888   4.763  0.00  0.00    -0.048 C 
ATOM     43  H41 VDY d   1      18.455  71.708   4.827  0.00  0.00     0.031 H 
ATOM     44  H42 VDY d   1      16.838  70.927   4.801  0.00  0.00     0.031 H 
ATOM     45  H43 VDY d   1      17.055  72.517   5.607  0.00  0.00     0.031 H 
ENDBRANCH  39  42
BRANCH  39  46
ATOM     46  C27 VDY d   1      17.759  73.915   3.423  0.00  0.00    -0.048 C 
ATOM     47  H44 VDY d   1      18.845  73.757   3.503  0.00  0.00     0.031 H 
ATOM     48  H45 VDY d   1      17.417  74.541   4.260  0.00  0.00     0.031 H 
ATOM     49  H46 VDY d   1      17.530  74.418   2.472  0.00  0.00     0.031 H 
ENDBRANCH  39  46
ENDBRANCH  36  39
ENDBRANCH  33  36
ENDBRANCH  30  33
ENDBRANCH  24  30
ENDBRANCH  10  24
BRANCH   6  50
ATOM     50  C18 VDY d   1      16.381  66.831  -0.540  0.00  0.00    -0.068 C 
ATOM     51  H25 VDY d   1      15.860  65.878  -0.712  0.00  0.00     0.028 H 
ATOM     52  H26 VDY d   1      16.051  67.261   0.417  0.00  0.00     0.028 H 
ATOM     53  H27 VDY d   1      17.466  66.655  -0.508  0.00  0.00     0.028 H 
ENDBRANCH   6  50
BRANCH   1  54
ATOM     54  C6  VDY d   1      16.716  63.872  -4.511  0.00  0.00    -0.080 C 
ATOM     55  C5  VDY d   1      17.430  63.257  -5.451  0.00  0.00    -0.074 C 
ATOM     56  C4  VDY d   1      16.900  62.093  -6.236  0.00  0.00    -0.020 C 
ATOM     57  C10 VDY d   1      18.856  63.527  -5.623  0.00  0.00    -0.035 C 
ATOM     58  C3  VDY d   1      17.802  60.901  -5.932  0.00  0.00     0.039 C 
ATOM     59  H8  VDY d   1      15.866  61.872  -5.932  0.00  0.00     0.043 H 
ATOM     60  H9  VDY d   1      16.925  62.321  -7.312  0.00  0.00     0.043 H 
ATOM     61  C2  VDY d   1      19.173  61.245  -6.469  0.00  0.00    -0.040 C 
ATOM     62  H7  VDY d   1      17.848  60.752  -4.843  0.00  0.00     0.083 H 
ATOM     63  C1  VDY d   1      19.775  62.334  -5.608  0.00  0.00    -0.056 C 
ATOM     64  H5  VDY d   1      19.816  60.353  -6.440  0.00  0.00     0.036 H 
ATOM     65  H6  VDY d   1      19.085  61.600  -7.506  0.00  0.00     0.036 H 
ATOM     66  H3  VDY d   1      20.759  62.620  -6.008  0.00  0.00     0.034 H 
ATOM     67  H4  VDY d   1      19.890  61.969  -4.577  0.00  0.00     0.034 H 
ATOM     68  H14 VDY d   1      19.045  63.854  -4.590  0.00  0.00     0.046 H 
ATOM     69  H10 VDY d   1      15.763  63.447  -4.199  0.00  0.00     0.083 H 
BRANCH  58  70
ATOM     70  O1  VDY d   1      17.367  59.694  -6.542  0.00  0.00    -0.395 OA
ATOM     71  H1  VDY d   1      16.506  59.467  -6.213  0.00  0.00     0.210 HD
ENDBRANCH  58  70
BRANCH  57  72
ATOM     72  C19 VDY d   1      19.273  64.628  -6.195  0.00  0.00    -0.069 C 
ATOM     73  H28 VDY d   1      18.491  65.398  -6.122  0.00  0.00     0.028 H 
ATOM     74  H29 VDY d   1      19.494  64.430  -7.254  0.00  0.00     0.028 H 
ATOM     75  H30 VDY d   1      20.184  64.981  -5.690  0.00  0.00     0.028 H 
ENDBRANCH  57  72
ENDBRANCH   1  54
TORSDOF 13
