REMARK  14 active torsions:
REMARK  status: ('A' for Active; 'I' for Inactive)
REMARK    1  A    between atoms: C3_5  and  O1_1 
REMARK    2  A    between atoms: C25_27  and  O2_2 
REMARK    3  A    between atoms: C6_8  and  C5_7 
REMARK    4  A    between atoms: C7_9  and  C6_8 
REMARK    5  A    between atoms: C10_12  and  C19_21 
REMARK    6  A    between atoms: C13_15  and  C18_20 
REMARK    7  A    between atoms: C20_22  and  C17_19 
REMARK    8  A    between atoms: C20_22  and  C21_23 
REMARK    9  A    between atoms: C22_24  and  C20_22 
REMARK   10  A    between atoms: C23_25  and  C22_24 
REMARK   11  A    between atoms: C24_26  and  C23_25 
REMARK   12  A    between atoms: C24_26  and  C25_27 
REMARK   13  A    between atoms: C25_27  and  C26_28 
REMARK   14  A    between atoms: C25_27  and  C27_29 
ROOT
ATOM      1  C7  VDY d   1      17.708  -5.437  -3.912  0.00  0.00    -0.100 C 
ATOM      2  C8  VDY d   1      16.889  -4.594  -3.312  0.00  0.00    -0.079 C 
ATOM      3  C9  VDY d   1      15.430  -4.609  -3.634  0.00  0.00    -0.044 C 
ATOM      4  C11 VDY d   1      14.677  -4.163  -2.432  0.00  0.00    -0.061 C 
ATOM      5  C12 VDY d   1      15.106  -2.778  -2.017  0.00  0.00    -0.057 C 
ATOM      6  C13 VDY d   1      16.542  -2.783  -1.639  0.00  0.00    -0.033 C 
ATOM      7  C14 VDY d   1      17.336  -3.233  -2.886  0.00  0.00    -0.025 C 
ATOM      8  C15 VDY d   1      18.759  -3.119  -2.404  0.00  0.00    -0.057 C 
ATOM      9  C16 VDY d   1      18.711  -1.902  -1.456  0.00  0.00    -0.060 C 
ATOM     10  C17 VDY d   1      17.246  -1.484  -1.362  0.00  0.00    -0.043 C 
ATOM     11  H13 VDY d   1      18.761  -5.187  -4.030  0.00  0.00     0.077 H 
ATOM     12  H14 VDY d   1      15.121  -5.628  -3.908  0.00  0.00     0.039 H 
ATOM     13  H15 VDY d   1      15.228  -3.926  -4.473  0.00  0.00     0.039 H 
ATOM     14  H17 VDY d   1      14.869  -4.863  -1.605  0.00  0.00     0.033 H 
ATOM     15  H18 VDY d   1      13.601  -4.154  -2.663  0.00  0.00     0.033 H 
ATOM     16  H19 VDY d   1      14.504  -2.453  -1.156  0.00  0.00     0.034 H 
ATOM     17  H20 VDY d   1      14.953  -2.083  -2.855  0.00  0.00     0.034 H 
ATOM     18  H21 VDY d   1      17.174  -2.542  -3.726  0.00  0.00     0.048 H 
ATOM     19  H22 VDY d   1      19.447  -2.939  -3.243  0.00  0.00     0.034 H 
ATOM     20  H23 VDY d   1      19.067  -4.027  -1.865  0.00  0.00     0.034 H 
ATOM     21  H24 VDY d   1      19.316  -1.079  -1.864  0.00  0.00     0.033 H 
ATOM     22  H25 VDY d   1      19.092  -2.179  -0.462  0.00  0.00     0.033 H 
ATOM     23  H26 VDY d   1      16.991  -0.750  -2.141  0.00  0.00     0.041 H 
ENDROOT
BRANCH  10  24
ATOM     24  C20 VDY d   1      16.986  -0.855  -0.020  0.00  0.00    -0.053 C 
ATOM     25  H33 VDY d   1      17.365  -1.503   0.784  0.00  0.00     0.040 H 
BRANCH  24  26
ATOM     26  C21 VDY d   1      15.500  -0.678   0.130  0.00  0.00    -0.072 C 
ATOM     27  H34 VDY d   1      15.282  -0.219   1.105  0.00  0.00     0.028 H 
ATOM     28  H35 VDY d   1      15.006  -1.659   0.068  0.00  0.00     0.028 H 
ATOM     29  H36 VDY d   1      15.125  -0.027  -0.674  0.00  0.00     0.028 H 
ENDBRANCH  24  26
BRANCH  24  30
ATOM     30  C22 VDY d   1      17.704   0.488   0.024  0.00  0.00    -0.061 C 
ATOM     31  H37 VDY d   1      17.500   1.018  -0.918  0.00  0.00     0.033 H 
ATOM     32  H38 VDY d   1      18.784   0.298   0.112  0.00  0.00     0.033 H 
BRANCH  30  33
ATOM     33  C23 VDY d   1      17.285   1.390   1.176  0.00  0.00    -0.062 C 
ATOM     34  H39 VDY d   1      16.195   1.319   1.306  0.00  0.00     0.033 H 
ATOM     35  H40 VDY d   1      17.559   2.428   0.935  0.00  0.00     0.033 H 
BRANCH  33  36
ATOM     36  C24 VDY d   1      17.960   0.992   2.467  0.00  0.00    -0.037 C 
ATOM     37  H41 VDY d   1      19.047   1.091   2.334  0.00  0.00     0.037 H 
ATOM     38  H42 VDY d   1      17.710  -0.058   2.679  0.00  0.00     0.037 H 
BRANCH  36  39
ATOM     39  C25 VDY d   1      17.546   1.832   3.659  0.00  0.00     0.051 C 
BRANCH  39  40
ATOM     40  O2  VDY d   1      16.177   2.056   3.706  0.00  0.00    -0.391 OA
ATOM     41  H2  VDY d   1      15.723   1.224   3.764  0.00  0.00     0.210 HD
ENDBRANCH  39  40
BRANCH  39  42
ATOM     42  C26 VDY d   1      17.900   1.099   4.914  0.00  0.00    -0.048 C 
ATOM     43  H43 VDY d   1      18.981   0.895   4.927  0.00  0.00     0.031 H 
ATOM     44  H44 VDY d   1      17.347   0.149   4.952  0.00  0.00     0.031 H 
ATOM     45  H45 VDY d   1      17.632   1.714   5.786  0.00  0.00     0.031 H 
ENDBRANCH  39  42
BRANCH  39  46
ATOM     46  C27 VDY d   1      18.269   3.158   3.678  0.00  0.00    -0.048 C 
ATOM     47  H46 VDY d   1      19.355   2.984   3.641  0.00  0.00     0.031 H 
ATOM     48  H47 VDY d   1      18.016   3.700   4.601  0.00  0.00     0.031 H 
ATOM     49  H48 VDY d   1      17.963   3.755   2.806  0.00  0.00     0.031 H 
ENDBRANCH  39  46
ENDBRANCH  36  39
ENDBRANCH  33  36
ENDBRANCH  30  33
ENDBRANCH  24  30
ENDBRANCH  10  24
BRANCH   6  50
ATOM     50  C18 VDY d   1      16.725  -3.725  -0.492  0.00  0.00    -0.068 C 
ATOM     51  H27 VDY d   1      16.206  -4.670  -0.708  0.00  0.00     0.028 H 
ATOM     52  H28 VDY d   1      16.306  -3.277   0.421  0.00  0.00     0.028 H 
ATOM     53  H29 VDY d   1      17.797  -3.921  -0.346  0.00  0.00     0.028 H 
ENDBRANCH   6  50
BRANCH   1  54
ATOM     54  C6  VDY d   1      17.195  -6.706  -4.416  0.00  0.00    -0.046 C 
ATOM     55  H11 VDY d   1      17.161  -7.395  -3.559  0.00  0.00     0.039 H 
ATOM     56  H12 VDY d   1      16.172  -6.513  -4.773  0.00  0.00     0.039 H 
BRANCH  54  57
ATOM     57  C5  VDY d   1      17.826  -7.348  -5.396  0.00  0.00    -0.046 C 
ATOM     58  C4  VDY d   1      17.182  -8.496  -6.131  0.00  0.00    -0.037 C 
ATOM     59  C3  VDY d   1      17.984  -9.766  -5.905  0.00  0.00     0.036 C 
ATOM     60  H8  VDY d   1      16.157  -8.640  -5.758  0.00  0.00     0.037 H 
ATOM     61  H9  VDY d   1      17.152  -8.270  -7.207  0.00  0.00     0.037 H 
ATOM     62  C2  VDY d   1      19.488  -9.549  -6.124  0.00  0.00    -0.041 C 
ATOM     63  H7  VDY d   1      17.823 -10.118  -4.875  0.00  0.00     0.082 H 
ATOM     64  C1  VDY d   1      20.073  -8.430  -5.260  0.00  0.00    -0.059 C 
ATOM     65  H5  VDY d   1      20.014 -10.485  -5.885  0.00  0.00     0.036 H 
ATOM     66  H6  VDY d   1      19.653  -9.296  -7.182  0.00  0.00     0.036 H 
ATOM     67  C10 VDY d   1      19.266  -7.202  -5.527  0.00  0.00    -0.054 C 
ATOM     68  H3  VDY d   1      21.125  -8.256  -5.529  0.00  0.00     0.033 H 
ATOM     69  H4  VDY d   1      20.007  -8.701  -4.196  0.00  0.00     0.033 H 
ATOM     70  H16 VDY d   1      19.442  -6.714  -4.557  0.00  0.00     0.040 H 
ATOM     71  H10 VDY d   1      17.578  -6.598  -6.162  0.00  0.00     0.041 H 
BRANCH  59  72
ATOM     72  O1  VDY d   1      17.502 -10.738  -6.827  0.00  0.00    -0.396 OA
ATOM     73  H1  VDY d   1      16.571 -10.870  -6.689  0.00  0.00     0.210 HD
ENDBRANCH  59  72
BRANCH  67  74
ATOM     74  C19 VDY d   1      19.752  -6.239  -6.259  0.00  0.00    -0.073 C 
ATOM     75  H30 VDY d   1      20.851  -6.284  -6.241  0.00  0.00     0.028 H 
ATOM     76  H31 VDY d   1      19.418  -5.270  -5.859  0.00  0.00     0.028 H 
ATOM     77  H32 VDY d   1      19.397  -6.350  -7.294  0.00  0.00     0.028 H 
ENDBRANCH  67  74
ENDBRANCH  54  57
ENDBRANCH   1  54
TORSDOF 14
