REMARK  5 active torsions:
REMARK  status: ('A' for Active; 'I' for Inactive)
REMARK    1  A    between atoms: CAP_16  and  CAA_1 
REMARK    2  A    between atoms: CAV_22  and  CAB_2 
REMARK    3  A    between atoms: CAW_23  and  CAC_3 
REMARK    4  A    between atoms: CAX_24  and  OAF_6 
REMARK    5  A    between atoms: CAX_24  and  CAP_16 
ROOT
ATOM      1  OAE 3QZ d   1     -39.525  16.456  41.416  0.00  0.00    -0.293 OA
ATOM      2  CAG 3QZ d   1     -38.629  14.694  40.162  0.00  0.00    -0.036 C 
ATOM      3  CAH 3QZ d   1     -38.142  12.675  38.847  0.00  0.00    -0.043 C 
ATOM      4  CAI 3QZ d   1     -38.673  14.637  42.729  0.00  0.00    -0.005 C 
ATOM      5  CAJ 3QZ d   1     -36.823  11.951  38.618  0.00  0.00    -0.058 C 
ATOM      6  CAK 3QZ d   1     -35.985  10.916  42.303  0.00  0.00    -0.060 C 
ATOM      7  CAL 3QZ d   1     -35.132   9.333  38.318  0.00  0.00    -0.058 C 
ATOM      8  CAM 3QZ d   1     -37.517  13.662  42.555  0.00  0.00    -0.048 C 
ATOM      9  CAN 3QZ d   1     -34.714  10.103  41.993  0.00  0.00    -0.054 C 
ATOM     10  CAO 3QZ d   1     -34.017   8.321  38.654  0.00  0.00    -0.028 C 
ATOM     11  CAQ 3QZ d   1     -38.983  15.352  41.438  0.00  0.00     0.149 C 
ATOM     12  CAR 3QZ d   1     -38.121  13.451  40.138  0.00  0.00    -0.068 C 
ATOM     13  CAS 3QZ d   1     -36.543  10.997  39.785  0.00  0.00    -0.045 C 
ATOM     14  CAT 3QZ d   1     -36.449  11.808  41.117  0.00  0.00    -0.040 C 
ATOM     15  CAU 3QZ d   1     -35.242  10.215  39.561  0.00  0.00    -0.040 C 
ATOM     16  CAV 3QZ d   1     -37.755  12.654  41.395  0.00  0.00    -0.016 C 
ATOM     17  CAW 3QZ d   1     -34.868   9.256  40.718  0.00  0.00    -0.002 C 
ATOM     18  CAX 3QZ d   1     -33.571   8.675  40.092  0.00  0.00     0.125 C 
ATOM     19  H11 3QZ d   1     -38.783  15.227  39.225  0.00  0.00     0.089 H 
ATOM     20  H12 3QZ d   1     -38.955  11.935  38.886  0.00  0.00     0.039 H 
ATOM     21  H13 3QZ d   1     -38.319  13.370  38.013  0.00  0.00     0.039 H 
ATOM     22  H14 3QZ d   1     -38.404  15.380  43.495  0.00  0.00     0.044 H 
ATOM     23  H15 3QZ d   1     -39.565  14.082  43.054  0.00  0.00     0.044 H 
ATOM     24  H16 3QZ d   1     -36.010  12.688  38.546  0.00  0.00     0.034 H 
ATOM     25  H17 3QZ d   1     -36.880  11.376  37.682  0.00  0.00     0.034 H 
ATOM     26  H18 3QZ d   1     -35.783  11.564  43.169  0.00  0.00     0.033 H 
ATOM     27  H19 3QZ d   1     -36.796  10.215  42.551  0.00  0.00     0.033 H 
ATOM     28  H20 3QZ d   1     -36.082   8.814  38.126  0.00  0.00     0.033 H 
ATOM     29  H21 3QZ d   1     -34.858   9.934  37.439  0.00  0.00     0.033 H 
ATOM     30  H22 3QZ d   1     -37.388  13.098  43.491  0.00  0.00     0.035 H 
ATOM     31  H23 3QZ d   1     -36.602  14.235  42.342  0.00  0.00     0.035 H 
ATOM     32  H24 3QZ d   1     -34.505   9.434  42.841  0.00  0.00     0.034 H 
ATOM     33  H25 3QZ d   1     -33.872  10.798  41.858  0.00  0.00     0.034 H 
ATOM     34  H26 3QZ d   1     -33.176   8.426  37.952  0.00  0.00     0.038 H 
ATOM     35  H27 3QZ d   1     -34.404   7.292  38.612  0.00  0.00     0.038 H 
ATOM     36  H28 3QZ d   1     -37.375  10.281  39.861  0.00  0.00     0.041 H 
ATOM     37  H29 3QZ d   1     -35.646  12.546  40.970  0.00  0.00     0.042 H 
ATOM     38  H30 3QZ d   1     -34.456  10.981  39.486  0.00  0.00     0.042 H 
ENDROOT
BRANCH  18  39
ATOM     39  OAF 3QZ d   1     -32.550   9.663  40.015  0.00  0.00    -0.381 OA
ATOM     40  H10 3QZ d   1     -31.815   9.319  39.521  0.00  0.00     0.211 HD
ENDBRANCH  18  39
BRANCH  18  41
ATOM     41  CAP 3QZ d   1     -32.949   7.534  40.846  0.00  0.00     0.158 C 
ATOM     42  OAD 3QZ d   1     -33.269   6.367  40.628  0.00  0.00    -0.295 OA
BRANCH  41  43
ATOM     43  CAA 3QZ d   1     -31.909   7.883  41.877  0.00  0.00    -0.018 C 
ATOM     44  H1  3QZ d   1     -31.777   8.975  41.910  0.00  0.00     0.037 H 
ATOM     45  H2  3QZ d   1     -30.954   7.406  41.611  0.00  0.00     0.037 H 
ATOM     46  H3  3QZ d   1     -32.236   7.524  42.864  0.00  0.00     0.037 H 
ENDBRANCH  41  43
ENDBRANCH  18  41
BRANCH  17  47
ATOM     47  CAC 3QZ d   1     -35.904   8.121  40.971  0.00  0.00    -0.065 C 
ATOM     48  H7  3QZ d   1     -36.816   8.549  41.414  0.00  0.00     0.028 H 
ATOM     49  H8  3QZ d   1     -35.474   7.379  41.661  0.00  0.00     0.028 H 
ATOM     50  H9  3QZ d   1     -36.154   7.633  40.017  0.00  0.00     0.028 H 
ENDBRANCH  17  47
BRANCH  16  51
ATOM     51  CAB 3QZ d   1     -38.950  11.749  41.769  0.00  0.00    -0.065 C 
ATOM     52  H4  3QZ d   1     -39.838  12.372  41.955  0.00  0.00     0.028 H 
ATOM     53  H5  3QZ d   1     -38.707  11.177  42.677  0.00  0.00     0.028 H 
ATOM     54  H6  3QZ d   1     -39.156  11.054  40.942  0.00  0.00     0.028 H 
ENDBRANCH  16  51
TORSDOF 5
