REMARK  14 active torsions:
REMARK  status: ('A' for Active; 'I' for Inactive)
REMARK    1  A    between atoms: C15_2  and  C16_21 
REMARK    2  A    between atoms: C21_3  and  C22_4 
REMARK    3  A    between atoms: C22_4  and  C23_26 
REMARK    4  A    between atoms: C23_26  and  C24_5 
REMARK    5  A    between atoms: C24_5  and  O25_27 
REMARK    6  A    between atoms: O25_27  and  C26_6 
REMARK    7  A    between atoms: C28_7  and  C29_29 
REMARK    8  A    between atoms: C09_16  and  C08_15 
REMARK       I    between atoms: N10_17  and  C09_16 
REMARK    9  A    between atoms: C11_18  and  N10_17 
REMARK   10  A    between atoms: C31_31  and  C32_32 
REMARK   11  A    between atoms: C35_35  and  C36_36 
REMARK   12  A    between atoms: C37_37  and  C38_38 
REMARK   13  A    between atoms: N39_39  and  C40_40 
REMARK   14  A    between atoms: C42_42  and  C43_43 
ROOT
ATOM      1  C21 6AL d   1      11.016 -10.752  25.088  0.00  0.00    -0.013 A 
ATOM      2 CL   6AL d   1       7.385 -14.653  27.857  0.00  0.00    -0.083 Cl
ATOM      3  C02 6AL d   1       8.447 -13.469  27.079  0.00  0.00     0.047 A 
ATOM      4  C03 6AL d   1       8.690 -12.287  27.766  0.00  0.00    -0.060 A 
ATOM      5  C04 6AL d   1       9.524 -11.314  27.202  0.00  0.00    -0.069 A 
ATOM      6  C05 6AL d   1      10.126 -11.502  25.952  0.00  0.00     0.000 A 
ATOM      7  C06 6AL d   1       9.869 -12.688  25.277  0.00  0.00     0.056 A 
ATOM      8  N07 6AL d   1      10.523 -12.673  24.125  0.00  0.00    -0.350 N 
ATOM      9  C08 6AL d   1      11.194 -11.536  23.980  0.00  0.00     0.108 A 
ATOM     10  C35 6AL d   1       9.037 -13.681  25.827  0.00  0.00     0.028 A 
ATOM     11  H6  6AL d   1       8.236 -12.118  28.736  0.00  0.00     0.086 H 
ATOM     12  H7  6AL d   1       9.708 -10.394  27.745  0.00  0.00     0.085 H 
ATOM     13  H8  6AL d   1      10.512 -13.438  23.436  0.00  0.00     0.166 HD
ENDROOT
BRANCH   1  14
ATOM     14  C22 6AL d   1      11.641  -9.372  25.249  0.00  0.00    -0.036 C 
ATOM     15  H2  6AL d   1      10.859  -8.663  25.558  0.00  0.00     0.040 H 
ATOM     16  H3  6AL d   1      12.059  -9.057  24.282  0.00  0.00     0.040 H 
BRANCH  14  17
ATOM     17  C23 6AL d   1      12.774  -9.362  26.311  0.00  0.00    -0.041 C 
ATOM     18  H13 6AL d   1      13.525  -8.584  26.111  0.00  0.00     0.036 H 
ATOM     19  H14 6AL d   1      13.272 -10.339  26.397  0.00  0.00     0.036 H 
BRANCH  17  20
ATOM     20  C24 6AL d   1      11.927  -9.042  27.525  0.00  0.00     0.026 C 
ATOM     21  H4  6AL d   1      10.874  -9.306  27.349  0.00  0.00     0.075 H 
ATOM     22  H5  6AL d   1      11.999  -7.975  27.784  0.00  0.00     0.075 H 
BRANCH  20  23
ATOM     23  O25 6AL d   1      12.483  -9.843  28.539  0.00  0.00    -0.351 OA
BRANCH  23  24
ATOM     24  C26 6AL d   1      11.957  -9.923  29.884  0.00  0.00     0.069 A 
ATOM     25  C27 6AL d   1      11.389  -8.848  30.623  0.00  0.00    -0.043 A 
ATOM     26  C28 6AL d   1      10.972  -9.121  31.934  0.00  0.00    -0.037 A 
ATOM     27  H15 6AL d   1      11.283  -7.859  30.191  0.00  0.00     0.088 H 
ATOM     28  C33 6AL d   1      11.127 -10.392  32.486  0.00  0.00     0.046 A 
ATOM     29  C31 6AL d   1      11.692 -11.433  31.748  0.00  0.00    -0.037 A 
ATOM     30 CL2  6AL d   1      10.600 -10.711  34.128  0.00  0.00    -0.083 Cl
ATOM     31  C30 6AL d   1      12.094 -11.190  30.466  0.00  0.00    -0.043 A 
ATOM     32  H19 6AL d   1      12.529 -11.995  29.885  0.00  0.00     0.088 H 
BRANCH  26  33
ATOM     33  C29 6AL d   1      10.336  -8.078  32.837  0.00  0.00    -0.050 C 
ATOM     34  H16 6AL d   1      10.265  -7.121  32.299  0.00  0.00     0.033 H 
ATOM     35  H17 6AL d   1      10.954  -7.947  33.738  0.00  0.00     0.033 H 
ATOM     36  H18 6AL d   1       9.329  -8.410  33.128  0.00  0.00     0.033 H 
ENDBRANCH  26  33
BRANCH  29  37
ATOM     37  C32 6AL d   1      11.832 -12.835  32.375  0.00  0.00    -0.050 C 
ATOM     38  H20 6AL d   1      12.296 -13.517  31.647  0.00  0.00     0.033 H 
ATOM     39  H21 6AL d   1      10.837 -13.214  32.651  0.00  0.00     0.033 H 
ATOM     40  H22 6AL d   1      12.463 -12.773  33.274  0.00  0.00     0.033 H 
ENDBRANCH  29  37
ENDBRANCH  23  24
ENDBRANCH  20  23
ENDBRANCH  17  20
ENDBRANCH  14  17
ENDBRANCH   1  14
BRANCH   9  41
ATOM     41  C09 6AL d   1      12.071 -11.228  22.803  0.00  0.00     0.273 C 
ATOM     42  N10 6AL d   1      11.690 -11.585  21.476  0.00  0.00    -0.322 N 
ATOM     43  H9  6AL d   1      10.799 -12.013  21.324  0.00  0.00     0.169 HD
ATOM     44  O20 6AL d   1      13.125 -10.737  23.056  0.00  0.00    -0.266 OA
BRANCH  42  45
ATOM     45  C11 6AL d   1      12.561 -11.344  20.338  0.00  0.00     0.036 A 
ATOM     46  C12 6AL d   1      12.203 -10.580  19.233  0.00  0.00    -0.057 A 
ATOM     47  C13 6AL d   1      13.102 -10.435  18.184  0.00  0.00    -0.080 A 
ATOM     48  H10 6AL d   1      11.231 -10.102  19.190  0.00  0.00     0.086 H 
ATOM     49  C14 6AL d   1      14.353 -11.060  18.240  0.00  0.00    -0.066 A 
ATOM     50  H1  6AL d   1      12.834  -9.837  17.321  0.00  0.00     0.083 H 
ATOM     51  C15 6AL d   1      14.714 -11.834  19.338  0.00  0.00     0.043 A 
ATOM     52  H11 6AL d   1      15.049 -10.940  17.418  0.00  0.00     0.085 H 
ATOM     53  C19 6AL d   1      13.808 -11.975  20.381  0.00  0.00    -0.041 A 
ATOM     54  H12 6AL d   1      14.071 -12.582  21.240  0.00  0.00     0.088 H 
BRANCH  51  55
ATOM     55  C16 6AL d   1      16.086 -12.525  19.424  0.00  0.00     0.209 C 
ATOM     56  O17 6AL d   1      16.243 -13.565  20.118  0.00  0.00    -0.644 OA
ATOM     57  O18 6AL d   1      17.078 -12.025  18.794  0.00  0.00    -0.644 OA
ENDBRANCH  51  55
ENDBRANCH  42  45
ENDBRANCH   9  41
BRANCH  10  58
ATOM     58  C36 6AL d   1       8.792 -14.978  24.989  0.00  0.00     0.028 A 
ATOM     59  C37 6AL d   1       9.404 -16.242  25.126  0.00  0.00     0.039 A 
ATOM     60  N39 6AL d   1       8.875 -17.030  24.207  0.00  0.00    -0.278 N 
ATOM     61  N41 6AL d   1       7.985 -16.383  23.508  0.00  0.00    -0.177 NA
ATOM     62  C42 6AL d   1       7.876 -15.159  23.922  0.00  0.00     0.064 A 
BRANCH  59  63
ATOM     63  C38 6AL d   1      10.486 -16.666  26.121  0.00  0.00    -0.035 C 
ATOM     64  H23 6AL d   1      10.742 -15.815  26.769  0.00  0.00     0.035 H 
ATOM     65  H24 6AL d   1      11.382 -16.991  25.572  0.00  0.00     0.035 H 
ATOM     66  H25 6AL d   1      10.112 -17.497  26.737  0.00  0.00     0.035 H 
ENDBRANCH  59  63
BRANCH  60  67
ATOM     67  C40 6AL d   1       9.264 -18.417  24.047  0.00  0.00     0.003 C 
ATOM     68  H26 6AL d   1       8.690 -18.866  23.223  0.00  0.00     0.059 H 
ATOM     69  H27 6AL d   1       9.058 -18.965  24.978  0.00  0.00     0.059 H 
ATOM     70  H28 6AL d   1      10.339 -18.473  23.819  0.00  0.00     0.059 H 
ENDBRANCH  60  67
BRANCH  62  71
ATOM     71  C43 6AL d   1       6.943 -14.145  23.324  0.00  0.00    -0.033 C 
ATOM     72  H29 6AL d   1       6.368 -14.611  22.510  0.00  0.00     0.035 H 
ATOM     73  H30 6AL d   1       7.525 -13.301  22.925  0.00  0.00     0.035 H 
ATOM     74  H31 6AL d   1       6.253 -13.780  24.099  0.00  0.00     0.035 H 
ENDBRANCH  62  71
ENDBRANCH  10  58
TORSDOF 14
