REMARK  14 active torsions:
REMARK  status: ('A' for Active; 'I' for Inactive)
REMARK    1  A    between atoms: C09_15  and  C10_3 
REMARK    2  A    between atoms: C10_3  and  O01_16 
REMARK    3  A    between atoms: C02_7  and  C19_25 
REMARK    4  A    between atoms: C07_13  and  C08_14 
REMARK    5  A    between atoms: C08_14  and  C09_15 
REMARK    6  A    between atoms: O01_16  and  C26_34 
REMARK    7  A    between atoms: C34_44  and  N01_18 
REMARK    8  A    between atoms: N03_21  and  C16_22 
REMARK    9  A    between atoms: C17_23  and  C18_24 
REMARK   10  A    between atoms: C20_26  and  C21_27 
REMARK   11  A    between atoms: C23_31  and  C24_32 
REMARK   12  A    between atoms: C28_36  and  C29_37 
REMARK   13  A    between atoms: C31_39  and  C32_40 
REMARK   14  A    between atoms: N05_47  and  C37_48 
ROOT
ATOM      1  C14 6AK d   1      -2.531  -9.236  21.188  0.00  0.00     0.002 C 
ATOM      2  C11 6AK d   1      -2.713  -7.510  19.368  0.00  0.00     0.111 A 
ATOM      3  C12 6AK d   1      -3.530  -6.661  20.215  0.00  0.00     0.275 C 
ATOM      4  C13 6AK d   1      -1.836  -7.091  22.095  0.00  0.00     0.005 C 
ATOM      5  C01 6AK d   1      -1.434  -9.314  18.905  0.00  0.00     0.059 A 
ATOM      6  C02 6AK d   1      -0.658 -10.516  18.930  0.00  0.00     0.028 A 
ATOM      7  C03 6AK d   1      -0.003 -10.853  17.731  0.00  0.00     0.047 A 
ATOM      8 CL   6AK d   1       0.935 -12.295  17.683  0.00  0.00    -0.083 Cl
ATOM      9  C04 6AK d   1      -0.094 -10.082  16.555  0.00  0.00    -0.060 A 
ATOM     10  C05 6AK d   1      -0.860  -8.908  16.561  0.00  0.00    -0.069 A 
ATOM     11  C06 6AK d   1      -1.538  -8.522  17.741  0.00  0.00     0.001 A 
ATOM     12  C07 6AK d   1      -2.372  -7.410  18.027  0.00  0.00    -0.013 A 
ATOM     13  O02 6AK d   1      -4.574  -6.143  19.801  0.00  0.00    -0.265 OA
ATOM     14  N01 6AK d   1      -3.050  -6.493  21.541  0.00  0.00    -0.312 N 
ATOM     15  N02 6AK d   1      -2.205  -8.687  19.855  0.00  0.00    -0.340 N 
ATOM     16  C15 6AK d   1      -1.861  -8.583  22.380  0.00  0.00    -0.034 C 
ATOM     17  H1  6AK d   1      -2.248 -10.299  21.188  0.00  0.00     0.065 H 
ATOM     18  H2  6AK d   1      -3.618  -9.146  21.328  0.00  0.00     0.065 H 
ATOM     19  H5  6AK d   1      -1.618  -6.577  23.043  0.00  0.00     0.065 H 
ATOM     20  H6  6AK d   1      -1.020  -6.905  21.381  0.00  0.00     0.065 H 
ATOM     21  H7  6AK d   1       0.423 -10.394  15.655  0.00  0.00     0.086 H 
ATOM     22  H8  6AK d   1      -0.932  -8.300  15.667  0.00  0.00     0.085 H 
ATOM     23  H13 6AK d   1      -0.836  -8.965  22.497  0.00  0.00     0.037 H 
ATOM     24  H14 6AK d   1      -2.434  -8.785  23.297  0.00  0.00     0.037 H 
ENDROOT
BRANCH  12  25
ATOM     25  C08 6AK d   1      -2.741  -6.336  17.040  0.00  0.00    -0.036 C 
ATOM     26  H9  6AK d   1      -1.977  -6.302  16.249  0.00  0.00     0.040 H 
ATOM     27  H10 6AK d   1      -2.771  -5.368  17.562  0.00  0.00     0.040 H 
BRANCH  25  28
ATOM     28  C09 6AK d   1      -4.106  -6.595  16.399  0.00  0.00    -0.041 C 
ATOM     29  H11 6AK d   1      -4.832  -6.848  17.185  0.00  0.00     0.036 H 
ATOM     30  H12 6AK d   1      -4.437  -5.687  15.873  0.00  0.00     0.036 H 
BRANCH  28  31
ATOM     31  C10 6AK d   1      -4.021  -7.748  15.404  0.00  0.00     0.026 C 
ATOM     32  H3  6AK d   1      -5.013  -7.961  14.978  0.00  0.00     0.075 H 
ATOM     33  H4  6AK d   1      -3.632  -8.651  15.896  0.00  0.00     0.075 H 
BRANCH  31  34
ATOM     34  O01 6AK d   1      -3.126  -7.314  14.384  0.00  0.00    -0.351 OA
BRANCH  34  35
ATOM     35  C26 6AK d   1      -2.967  -8.049  13.257  0.00  0.00     0.069 A 
ATOM     36  C25 6AK d   1      -2.353  -7.535  12.118  0.00  0.00    -0.043 A 
ATOM     37  C23 6AK d   1      -2.200  -8.326  10.964  0.00  0.00    -0.037 A 
ATOM     38  H27 6AK d   1      -1.989  -6.514  12.120  0.00  0.00     0.088 H 
ATOM     39  C22 6AK d   1      -2.684  -9.648  11.011  0.00  0.00     0.046 A 
ATOM     40 CL2  6AK d   1      -2.510 -10.652   9.634  0.00  0.00    -0.083 Cl
ATOM     41  C28 6AK d   1      -3.314 -10.209  12.142  0.00  0.00    -0.037 A 
ATOM     42  C27 6AK d   1      -3.449  -9.378  13.284  0.00  0.00    -0.043 A 
ATOM     43  H28 6AK d   1      -3.923  -9.763  14.180  0.00  0.00     0.088 H 
BRANCH  37  44
ATOM     44  C24 6AK d   1      -1.525  -7.773   9.725  0.00  0.00    -0.050 C 
ATOM     45  H24 6AK d   1      -1.227  -6.729   9.905  0.00  0.00     0.033 H 
ATOM     46  H25 6AK d   1      -2.225  -7.814   8.877  0.00  0.00     0.033 H 
ATOM     47  H26 6AK d   1      -0.633  -8.374   9.494  0.00  0.00     0.033 H 
ENDBRANCH  37  44
BRANCH  41  48
ATOM     48  C29 6AK d   1      -3.815 -11.644  12.091  0.00  0.00    -0.050 C 
ATOM     49  H29 6AK d   1      -3.594 -12.075  11.103  0.00  0.00     0.033 H 
ATOM     50  H30 6AK d   1      -4.901 -11.659  12.263  0.00  0.00     0.033 H 
ATOM     51  H31 6AK d   1      -3.312 -12.236  12.870  0.00  0.00     0.033 H 
ENDBRANCH  41  48
ENDBRANCH  34  35
ENDBRANCH  31  34
ENDBRANCH  28  31
ENDBRANCH  25  28
ENDBRANCH  12  25
BRANCH  14  52
ATOM     52  C34 6AK d   1      -3.827  -5.713  22.441  0.00  0.00     0.051 A 
ATOM     53  C33 6AK d   1      -5.046  -6.379  22.753  0.00  0.00    -0.040 A 
ATOM     54  C31 6AK d   1      -5.976  -5.849  23.606  0.00  0.00     0.045 A 
ATOM     55  H33 6AK d   1      -5.245  -7.342  22.298  0.00  0.00     0.088 H 
ATOM     56  C30 6AK d   1      -5.747  -4.598  24.201  0.00  0.00    -0.040 A 
ATOM     57  C36 6AK d   1      -4.530  -3.918  23.903  0.00  0.00     0.047 A 
ATOM     58  H32 6AK d   1      -6.478  -4.160  24.871  0.00  0.00     0.088 H 
ATOM     59  C35 6AK d   1      -3.554  -4.442  23.035  0.00  0.00     0.019 A 
ATOM     60  N05 6AK d   1      -4.053  -2.687  24.354  0.00  0.00    -0.360 N 
ATOM     61  C39 6AK d   1      -2.501  -3.464  23.008  0.00  0.00    -0.054 A 
ATOM     62  C38 6AK d   1      -2.827  -2.395  23.822  0.00  0.00    -0.019 A 
ATOM     63  H38 6AK d   1      -1.581  -3.552  22.431  0.00  0.00     0.087 H 
ATOM     64  H37 6AK d   1      -2.230  -1.503  24.003  0.00  0.00     0.111 H 
BRANCH  54  65
ATOM     65  C32 6AK d   1      -7.203  -6.622  23.840  0.00  0.00     0.209 C 
ATOM     66  O03 6AK d   1      -7.368  -7.809  23.608  0.00  0.00    -0.644 OA
ATOM     67  O04 6AK d   1      -8.169  -5.836  24.329  0.00  0.00    -0.644 OA
ENDBRANCH  54  65
BRANCH  60  68
ATOM     68  C37 6AK d   1      -4.786  -1.842  25.271  0.00  0.00    -0.014 C 
ATOM     69  H34 6AK d   1      -4.205  -0.931  25.474  0.00  0.00     0.057 H 
ATOM     70  H35 6AK d   1      -4.958  -2.385  26.212  0.00  0.00     0.057 H 
ATOM     71  H36 6AK d   1      -5.753  -1.568  24.824  0.00  0.00     0.057 H 
ENDBRANCH  60  68
ENDBRANCH  14  52
BRANCH   6  72
ATOM     72  C19 6AK d   1      -0.515 -11.385  20.093  0.00  0.00     0.028 A 
ATOM     73  C17 6AK d   1       0.427 -11.079  21.078  0.00  0.00     0.039 A 
ATOM     74  N03 6AK d   1       0.309 -12.053  22.018  0.00  0.00    -0.278 N 
ATOM     75  N04 6AK d   1      -0.649 -12.971  21.732  0.00  0.00    -0.177 NA
ATOM     76  C20 6AK d   1      -1.167 -12.561  20.545  0.00  0.00     0.064 A 
BRANCH  73  77
ATOM     77  C18 6AK d   1       1.421  -9.982  21.239  0.00  0.00    -0.035 C 
ATOM     78  H18 6AK d   1       1.359  -9.301  20.377  0.00  0.00     0.035 H 
ATOM     79  H19 6AK d   1       2.433 -10.409  21.296  0.00  0.00     0.035 H 
ATOM     80  H20 6AK d   1       1.206  -9.425  22.163  0.00  0.00     0.035 H 
ENDBRANCH  73  77
BRANCH  74  81
ATOM     81  C16 6AK d   1       1.115 -12.122  23.225  0.00  0.00     0.003 C 
ATOM     82  H15 6AK d   1       0.820 -13.004  23.813  0.00  0.00     0.059 H 
ATOM     83  H16 6AK d   1       0.957 -11.213  23.824  0.00  0.00     0.059 H 
ATOM     84  H17 6AK d   1       2.178 -12.202  22.952  0.00  0.00     0.059 H 
ENDBRANCH  74  81
BRANCH  76  85
ATOM     85  C21 6AK d   1      -2.263 -13.309  19.867  0.00  0.00    -0.033 C 
ATOM     86  H21 6AK d   1      -2.548 -14.177  20.479  0.00  0.00     0.035 H 
ATOM     87  H22 6AK d   1      -1.917 -13.653  18.881  0.00  0.00     0.035 H 
ATOM     88  H23 6AK d   1      -3.134 -12.649  19.740  0.00  0.00     0.035 H 
ENDBRANCH  76  85
ENDBRANCH   6  72
TORSDOF 14
