REMARK  5 active torsions:
REMARK  status: ('A' for Active; 'I' for Inactive)
REMARK    1  A    between atoms: CAP_16  and  CAA_1 
REMARK    2  A    between atoms: CAV_22  and  CAB_2 
REMARK    3  A    between atoms: CAW_23  and  CAC_3 
REMARK    4  A    between atoms: CAX_24  and  OAF_6 
REMARK    5  A    between atoms: CAX_24  and  CAP_16 
ROOT
ATOM      1  OAE 3QZ d   1       1.921  29.490  28.963  0.00  0.00    -0.293 OA
ATOM      2  CAG 3QZ d   1       2.738  28.228  27.232  0.00  0.00    -0.036 C 
ATOM      3  CAH 3QZ d   1       3.934  27.116  25.490  0.00  0.00    -0.043 C 
ATOM      4  CAI 3QZ d   1       2.447  27.253  29.527  0.00  0.00    -0.005 C 
ATOM      5  CAJ 3QZ d   1       5.345  26.662  25.298  0.00  0.00    -0.058 C 
ATOM      6  CAK 3QZ d   1       5.579  24.241  28.208  0.00  0.00    -0.060 C 
ATOM      7  CAL 3QZ d   1       7.481  24.437  24.431  0.00  0.00    -0.058 C 
ATOM      8  CAM 3QZ d   1       3.660  26.409  29.230  0.00  0.00    -0.048 C 
ATOM      9  CAN 3QZ d   1       7.025  23.822  28.011  0.00  0.00    -0.054 C 
ATOM     10  CAO 3QZ d   1       8.868  23.919  24.741  0.00  0.00    -0.028 C 
ATOM     11  CAQ 3QZ d   1       2.340  28.411  28.612  0.00  0.00     0.149 C 
ATOM     12  CAR 3QZ d   1       3.616  27.298  26.922  0.00  0.00    -0.068 C 
ATOM     13  CAS 3QZ d   1       5.558  25.332  25.970  0.00  0.00    -0.045 C 
ATOM     14  CAT 3QZ d   1       5.263  25.529  27.465  0.00  0.00    -0.040 C 
ATOM     15  CAU 3QZ d   1       6.985  24.830  25.795  0.00  0.00    -0.040 C 
ATOM     16  CAV 3QZ d   1       3.834  26.063  27.746  0.00  0.00    -0.016 C 
ATOM     17  CAW 3QZ d   1       7.301  23.551  26.555  0.00  0.00    -0.002 C 
ATOM     18  CAX 3QZ d   1       8.777  23.403  26.170  0.00  0.00     0.125 C 
ATOM     19  H11 3QZ d   1       2.312  28.858  26.453  0.00  0.00     0.089 H 
ATOM     20  H12 3QZ d   1       3.255  26.362  25.066  0.00  0.00     0.039 H 
ATOM     21  H13 3QZ d   1       3.792  28.073  24.967  0.00  0.00     0.039 H 
ATOM     22  H14 3QZ d   1       2.516  27.622  30.561  0.00  0.00     0.044 H 
ATOM     23  H15 3QZ d   1       1.546  26.631  29.419  0.00  0.00     0.044 H 
ATOM     24  H16 3QZ d   1       6.029  27.404  25.736  0.00  0.00     0.034 H 
ATOM     25  H17 3QZ d   1       5.552  26.563  24.222  0.00  0.00     0.034 H 
ATOM     26  H18 3QZ d   1       5.395  24.394  29.282  0.00  0.00     0.033 H 
ATOM     27  H19 3QZ d   1       4.922  23.442  27.833  0.00  0.00     0.033 H 
ATOM     28  H20 3QZ d   1       6.851  23.652  23.987  0.00  0.00     0.033 H 
ATOM     29  H21 3QZ d   1       7.519  25.303  23.754  0.00  0.00     0.033 H 
ATOM     30  H22 3QZ d   1       3.574  25.470  29.796  0.00  0.00     0.035 H 
ATOM     31  H23 3QZ d   1       4.553  26.958  29.564  0.00  0.00     0.035 H 
ATOM     32  H24 3QZ d   1       7.220  22.909  28.593  0.00  0.00     0.034 H 
ATOM     33  H25 3QZ d   1       7.687  24.628  28.361  0.00  0.00     0.034 H 
ATOM     34  H26 3QZ d   1       9.610  24.728  24.667  0.00  0.00     0.038 H 
ATOM     35  H27 3QZ d   1       9.142  23.107  24.052  0.00  0.00     0.038 H 
ATOM     36  H28 3QZ d   1       4.864  24.592  25.545  0.00  0.00     0.041 H 
ATOM     37  H29 3QZ d   1       5.959  26.297  27.835  0.00  0.00     0.042 H 
ATOM     38  H30 3QZ d   1       7.626  25.642  26.170  0.00  0.00     0.042 H 
ENDROOT
BRANCH  18  39
ATOM     39  OAF 3QZ d   1       9.574  24.200  26.999  0.00  0.00    -0.381 OA
ATOM     40  H10 3QZ d   1       9.519  23.880  27.892  0.00  0.00     0.211 HD
ENDBRANCH  18  39
BRANCH  18  41
ATOM     41  CAP 3QZ d   1       9.283  22.022  26.285  0.00  0.00     0.158 C 
ATOM     42  OAD 3QZ d   1       9.278  21.282  25.328  0.00  0.00    -0.295 OA
BRANCH  41  43
ATOM     43  CAA 3QZ d   1       9.769  21.574  27.616  0.00  0.00    -0.018 C 
ATOM     44  H1  3QZ d   1       9.684  22.402  28.335  0.00  0.00     0.037 H 
ATOM     45  H2  3QZ d   1      10.821  21.263  27.537  0.00  0.00     0.037 H 
ATOM     46  H3  3QZ d   1       9.161  20.725  27.962  0.00  0.00     0.037 H 
ENDBRANCH  41  43
ENDBRANCH  18  41
BRANCH  17  47
ATOM     47  CAC 3QZ d   1       6.460  22.357  26.099  0.00  0.00    -0.065 C 
ATOM     48  H7  3QZ d   1       5.413  22.511  26.398  0.00  0.00     0.028 H 
ATOM     49  H8  3QZ d   1       6.844  21.438  26.567  0.00  0.00     0.028 H 
ATOM     50  H9  3QZ d   1       6.519  22.264  25.005  0.00  0.00     0.028 H 
ENDBRANCH  17  47
BRANCH  16  51
ATOM     51  CAB 3QZ d   1       2.809  25.025  27.352  0.00  0.00    -0.065 C 
ATOM     52  H4  3QZ d   1       1.799  25.412  27.554  0.00  0.00     0.028 H 
ATOM     53  H5  3QZ d   1       2.974  24.107  27.935  0.00  0.00     0.028 H 
ATOM     54  H6  3QZ d   1       2.908  24.801  26.280  0.00  0.00     0.028 H 
ENDBRANCH  16  51
TORSDOF 5
