REMARK  9 active torsions:
REMARK  status: ('A' for Active; 'I' for Inactive)
REMARK    1  A    between atoms: S2_6  and  N9_9 
REMARK    2  A    between atoms: C18_18  and  S2_6 
REMARK    3  A    between atoms: C28_28  and  O7_7 
REMARK    4  A    between atoms: O7_7  and  C33_33 
REMARK    5  A    between atoms: N8_8  and  C11_11 
REMARK       I    between atoms: C17_17  and  N8_8 
REMARK       I    between atoms: N9_9  and  C17_17 
REMARK    6  A    between atoms: N10_10  and  C25_25 
REMARK       I    between atoms: C26_26  and  N10_10 
REMARK    7  A    between atoms: C20_20  and  C19_19 
REMARK    8  A    between atoms: C25_25  and  C20_20 
REMARK    9  A    between atoms: C27_27  and  C26_26 
ROOT
ATOM      1  C18 GBM d   1     -35.597   2.074  21.698  0.00  0.00     0.080 A 
ATOM      2  C19 GBM d   1     -37.715   3.387  20.497  0.00  0.00    -0.057 A 
ATOM      3  C21 GBM d   1     -36.534   1.355  20.975  0.00  0.00    -0.060 A 
ATOM      4  C22 GBM d   1     -35.716   3.450  21.825  0.00  0.00    -0.060 A 
ATOM      5  C23 GBM d   1     -37.591   2.013  20.375  0.00  0.00    -0.075 A 
ATOM      6  C24 GBM d   1     -36.777   4.108  21.223  0.00  0.00    -0.075 A 
ATOM      7  H17 GBM d   1     -36.439   0.279  20.880  0.00  0.00     0.085 H 
ATOM      8  H18 GBM d   1     -34.981   4.009  22.393  0.00  0.00     0.085 H 
ATOM      9  H19 GBM d   1     -38.325   1.452  19.808  0.00  0.00     0.084 H 
ATOM     10  H20 GBM d   1     -36.874   5.183  21.319  0.00  0.00     0.084 H 
ENDROOT
BRANCH   1  11
ATOM     11  S2  GBM d   1     -34.223   1.180  22.478  0.00  0.00     0.266 S 
ATOM     12  O4  GBM d   1     -34.198  -0.206  22.013  0.00  0.00    -0.200 OA
ATOM     13  O5  GBM d   1     -32.924   1.644  21.985  0.00  0.00    -0.200 OA
BRANCH  11  14
ATOM     14  N9  GBM d   1     -34.338   1.284  24.189  0.00  0.00    -0.232 N 
ATOM     15  C17 GBM d   1     -35.255   0.398  24.892  0.00  0.00     0.330 C 
ATOM     16  O3  GBM d   1     -35.898  -0.362  24.263  0.00  0.00    -0.246 OA
ATOM     17  N8  GBM d   1     -35.424   0.410  26.336  0.00  0.00    -0.338 N 
ATOM     18  H1  GBM d   1     -34.906   1.045  26.910  0.00  0.00     0.164 HD
ATOM     19  H2  GBM d   1     -33.783   1.944  24.695  0.00  0.00     0.183 HD
BRANCH  17  20
ATOM     20  C11 GBM d   1     -36.370  -0.530  26.923  0.00  0.00     0.014 C 
ATOM     21  C12 GBM d   1     -37.783   0.035  26.822  0.00  0.00    -0.046 C 
ATOM     22  C14 GBM d   1     -38.801  -0.938  27.420  0.00  0.00    -0.063 C 
ATOM     23  H5  GBM d   1     -38.028   0.207  25.764  0.00  0.00     0.035 H 
ATOM     24  H6  GBM d   1     -37.830   0.988  27.369  0.00  0.00     0.035 H 
ATOM     25  C16 GBM d   1     -38.465  -1.363  28.852  0.00  0.00    -0.065 C 
ATOM     26  H9  GBM d   1     -38.837  -1.838  26.788  0.00  0.00     0.033 H 
ATOM     27  H10 GBM d   1     -39.788  -0.453  27.423  0.00  0.00     0.033 H 
ATOM     28  C15 GBM d   1     -37.012  -1.811  29.016  0.00  0.00    -0.063 C 
ATOM     29  H13 GBM d   1     -39.123  -2.198  29.134  0.00  0.00     0.033 H 
ATOM     30  H14 GBM d   1     -38.647  -0.510  29.523  0.00  0.00     0.033 H 
ATOM     31  C13 GBM d   1     -36.019  -0.831  28.382  0.00  0.00    -0.046 C 
ATOM     32  H11 GBM d   1     -36.788  -1.895  30.090  0.00  0.00     0.033 H 
ATOM     33  H12 GBM d   1     -36.890  -2.794  28.538  0.00  0.00     0.033 H 
ATOM     34  H7  GBM d   1     -36.033   0.109  28.953  0.00  0.00     0.035 H 
ATOM     35  H8  GBM d   1     -35.011  -1.270  28.422  0.00  0.00     0.035 H 
ATOM     36  H4  GBM d   1     -36.325  -1.471  26.355  0.00  0.00     0.072 H 
ENDBRANCH  17  20
ENDBRANCH  11  14
ENDBRANCH   1  11
BRANCH   2  37
ATOM     37  C20 GBM d   1     -38.894   4.094  19.823  0.00  0.00    -0.026 C 
ATOM     38  H15 GBM d   1     -38.544   5.043  19.390  0.00  0.00     0.042 H 
ATOM     39  H16 GBM d   1     -39.669   4.298  20.576  0.00  0.00     0.042 H 
BRANCH  37  40
ATOM     40  C25 GBM d   1     -39.492   3.227  18.712  0.00  0.00    -0.001 C 
ATOM     41  H21 GBM d   1     -38.711   2.557  18.323  0.00  0.00     0.064 H 
ATOM     42  H22 GBM d   1     -40.314   2.628  19.130  0.00  0.00     0.064 H 
BRANCH  40  43
ATOM     43  N10 GBM d   1     -40.006   4.036  17.620  0.00  0.00    -0.356 N 
ATOM     44  C26 GBM d   1     -39.075   4.689  16.715  0.00  0.00     0.254 C 
ATOM     45  O6  GBM d   1     -37.912   4.565  16.878  0.00  0.00    -0.268 OA
ATOM     46  H3  GBM d   1     -40.992   4.143  17.492  0.00  0.00     0.162 HD
BRANCH  44  47
ATOM     47  C27 GBM d   1     -39.586   5.540  15.556  0.00  0.00     0.066 A 
ATOM     48  C28 GBM d   1     -39.380   6.911  15.547  0.00  0.00     0.084 A 
ATOM     49  C30 GBM d   1     -39.849   7.671  14.486  0.00  0.00    -0.048 A 
ATOM     50  C32 GBM d   1     -40.516   7.060  13.436  0.00  0.00    -0.059 A 
ATOM     51  H24 GBM d   1     -39.694   8.744  14.478  0.00  0.00     0.087 H 
ATOM     52  C31 GBM d   1     -40.717   5.687  13.446  0.00  0.00     0.035 A 
ATOM     53  H25 GBM d   1     -40.881   7.655  12.607  0.00  0.00     0.086 H 
ATOM     54 CL1  GBM d   1     -41.576   4.893  12.097  0.00  0.00    -0.084 Cl
ATOM     55  C29 GBM d   1     -40.249   4.928  14.505  0.00  0.00    -0.044 A 
ATOM     56  H23 GBM d   1     -40.401   3.855  14.512  0.00  0.00     0.087 H 
BRANCH  48  57
ATOM     57  O7  GBM d   1     -38.706   7.531  16.608  0.00  0.00    -0.355 OA
BRANCH  57  58
ATOM     58  C33 GBM d   1     -37.402   7.943  16.308  0.00  0.00     0.010 C 
ATOM     59  H26 GBM d   1     -36.954   8.416  17.194  0.00  0.00     0.066 H 
ATOM     60  H27 GBM d   1     -37.427   8.667  15.480  0.00  0.00     0.066 H 
ATOM     61  H28 GBM d   1     -36.800   7.070  16.014  0.00  0.00     0.066 H 
ENDBRANCH  57  58
ENDBRANCH  48  57
ENDBRANCH  44  47
ENDBRANCH  40  43
ENDBRANCH  37  40
ENDBRANCH   2  37
TORSDOF 9
