REMARK  10 active torsions:
REMARK  status: ('A' for Active; 'I' for Inactive)
REMARK    1  A    between atoms: C11_18  and  C10_1 
REMARK    2  A    between atoms: N16_21  and  C15_3 
REMARK       I    between atoms: C17_4  and  N16_21 
REMARK    3  A    between atoms: O18_22  and  C17_4 
REMARK    4  A    between atoms: C19_23  and  C20_5 
REMARK    5  A    between atoms: C25_27  and  C26_7 
REMARK    6  A    between atoms: C02_10  and  C01_9 
REMARK    7  A    between atoms: C03_11  and  N04_12 
REMARK    8  A    between atoms: N04_12  and  S05_13 
REMARK    9  A    between atoms: S05_13  and  C06_14 
REMARK   10  A    between atoms: O18_22  and  C19_23 
ROOT
ATOM      1  N12 BMF d   1       3.461  26.408  28.653  0.00  0.00    -0.164 NA
ATOM      2  C15 BMF d   1       3.066  27.060  26.090  0.00  0.00     0.089 A 
ATOM      3  C22 BMF d   1       2.701  25.776  26.554  0.00  0.00    -0.023 A 
ATOM      4  C11 BMF d   1       2.921  25.413  27.909  0.00  0.00     0.090 A 
ATOM      5  N13 BMF d   1       3.750  27.518  28.201  0.00  0.00    -0.195 N 
ATOM      6  C14 BMF d   1       3.591  27.928  26.971  0.00  0.00     0.201 A 
ATOM      7  N23 BMF d   1       4.040  29.198  26.928  0.00  0.00    -0.126 NA
ATOM      8  N24 BMF d   1       4.437  29.551  27.903  0.00  0.00    -0.133 NA
ATOM      9  C25 BMF d   1       4.284  28.568  28.778  0.00  0.00     0.148 A 
ATOM     10  H4  BMF d   1       2.248  25.061  25.869  0.00  0.00     0.090 H 
ENDROOT
BRANCH   4  11
ATOM     11  C10 BMF d   1       2.586  24.143  28.507  0.00  0.00    -0.003 A 
ATOM     12  C09 BMF d   1       2.859  23.810  29.885  0.00  0.00    -0.044 A 
ATOM     13  C03 BMF d   1       2.517  22.563  30.484  0.00  0.00     0.049 A 
ATOM     14  H16 BMF d   1       3.353  24.553  30.501  0.00  0.00     0.088 H 
ATOM     15  C02 BMF d   1       1.855  21.636  29.641  0.00  0.00    -0.035 A 
ATOM     16  C28 BMF d   1       1.574  21.936  28.310  0.00  0.00    -0.074 A 
ATOM     17  C27 BMF d   1       1.932  23.151  27.753  0.00  0.00    -0.070 A 
ATOM     18  H8  BMF d   1       1.064  21.202  27.697  0.00  0.00     0.084 H 
ATOM     19  H20 BMF d   1       1.703  23.343  26.711  0.00  0.00     0.084 H 
BRANCH  13  20
ATOM     20  N04 BMF d   1       2.725  22.225  31.825  0.00  0.00    -0.284 N 
ATOM     21  H12 BMF d   1       1.962  22.127  32.464  0.00  0.00     0.178 HD
BRANCH  20  22
ATOM     22  S05 BMF d   1       4.328  21.990  32.316  0.00  0.00     0.227 S 
ATOM     23  O07 BMF d   1       4.731  23.121  33.299  0.00  0.00    -0.206 OA
ATOM     24  O08 BMF d   1       5.127  21.951  31.043  0.00  0.00    -0.206 OA
BRANCH  22  25
ATOM     25  C06 BMF d   1       4.317  20.477  33.161  0.00  0.00     0.033 C 
ATOM     26  H13 BMF d   1       5.332  20.248  33.517  0.00  0.00     0.051 H 
ATOM     27  H14 BMF d   1       3.978  19.680  32.482  0.00  0.00     0.051 H 
ATOM     28  H15 BMF d   1       3.633  20.542  34.020  0.00  0.00     0.051 H 
ENDBRANCH  22  25
ENDBRANCH  20  22
ENDBRANCH  13  20
BRANCH  15  29
ATOM     29  C01 BMF d   1       1.442  20.395  30.040  0.00  0.00    -0.049 C 
ATOM     30  H9  BMF d   1       0.958  19.881  29.196  0.00  0.00     0.033 H 
ATOM     31  H10 BMF d   1       0.725  20.496  30.868  0.00  0.00     0.033 H 
ATOM     32  H11 BMF d   1       2.311  19.810  30.377  0.00  0.00     0.033 H 
ENDBRANCH  15  29
ENDBRANCH   4  11
BRANCH   2  33
ATOM     33  N16 BMF d   1       2.923  27.573  24.845  0.00  0.00    -0.299 N 
ATOM     34  C17 BMF d   1       2.965  26.905  23.648  0.00  0.00     0.365 C 
ATOM     35  O21 BMF d   1       3.117  25.684  23.563  0.00  0.00    -0.238 OA
ATOM     36  H17 BMF d   1       2.768  28.559  24.792  0.00  0.00     0.171 HD
BRANCH  34  37
ATOM     37  O18 BMF d   1       2.829  27.644  22.489  0.00  0.00    -0.304 OA
BRANCH  37  38
ATOM     38  C19 BMF d   1       2.088  27.110  21.365  0.00  0.00     0.027 C 
ATOM     39  H18 BMF d   1       2.353  27.642  20.439  0.00  0.00     0.074 H 
ATOM     40  H19 BMF d   1       2.292  26.036  21.242  0.00  0.00     0.074 H 
BRANCH  38  41
ATOM     41  C20 BMF d   1       0.625  27.340  21.715  0.00  0.00    -0.056 C 
ATOM     42  H1  BMF d   1      -0.011  26.958  20.903  0.00  0.00     0.030 H 
ATOM     43  H2  BMF d   1       0.444  28.417  21.846  0.00  0.00     0.030 H 
ATOM     44  H3  BMF d   1       0.384  26.811  22.649  0.00  0.00     0.030 H 
ENDBRANCH  38  41
ENDBRANCH  37  38
ENDBRANCH  34  37
ENDBRANCH   2  33
BRANCH   9  45
ATOM     45  C26 BMF d   1       4.659  28.646  30.241  0.00  0.00    -0.018 C 
ATOM     46  H5  BMF d   1       5.085  29.637  30.458  0.00  0.00     0.038 H 
ATOM     47  H6  BMF d   1       5.402  27.869  30.471  0.00  0.00     0.038 H 
ATOM     48  H7  BMF d   1       3.762  28.490  30.858  0.00  0.00     0.038 H 
ENDBRANCH   9  45
TORSDOF 10
