REMARK WARNING: 32 MAX_TORS EXCEEDED!!!
REMARK  49 active torsions:
REMARK  status: ('A' for Active; 'I' for Inactive)
REMARK    1  A    between atoms: N_1  and  CA_2 
REMARK    2  A    between atoms: CA_2  and  C_3 
REMARK    3  A    between atoms: CA_2  and  CB_5 
REMARK       I    between atoms: C_3  and  N_7 
REMARK    4  A    between atoms: CB_5  and  OG_6 
REMARK    5  A    between atoms: N_7  and  CA_8 
REMARK    6  A    between atoms: CA_8  and  C_9 
REMARK    7  A    between atoms: CA_8  and  CB_11 
REMARK       I    between atoms: C_9  and  N_15 
REMARK    8  A    between atoms: CB_11  and  CG_12 
REMARK    9  A    between atoms: N_15  and  CA_16 
REMARK   10  A    between atoms: CA_16  and  C_17 
REMARK   11  A    between atoms: CA_16  and  CB_19 
REMARK       I    between atoms: C_17  and  N_24 
REMARK   12  A    between atoms: CB_19  and  CG_20 
REMARK   13  A    between atoms: CG_20  and  CD_21 
REMARK       I    between atoms: CD_21  and  NE2_23 
REMARK   14  A    between atoms: N_24  and  CA_25 
REMARK   15  A    between atoms: CA_25  and  C_26 
REMARK   16  A    between atoms: CA_25  and  CB_28 
REMARK       I    between atoms: C_26  and  N_32 
REMARK   17  A    between atoms: CB_28  and  CG1_29 
REMARK   18  A    between atoms: CB_28  and  CG2_30 
REMARK   19  A    between atoms: CG1_29  and  CD1_31 
REMARK   20  A    between atoms: N_32  and  CA_33 
REMARK   21  A    between atoms: CA_33  and  C_34 
REMARK   22  A    between atoms: CA_33  and  CB_36 
REMARK       I    between atoms: C_34  and  N_39 
REMARK   23  A    between atoms: CB_36  and  CG1_37 
REMARK   24  A    between atoms: CB_36  and  CG2_38 
REMARK   25  A    between atoms: CA_40  and  C_41 
REMARK       I    between atoms: C_41  and  N_46 
REMARK   26  A    between atoms: N_46  and  CA_47 
REMARK   27  A    between atoms: CA_47  and  C_48 
REMARK   28  A    between atoms: CA_47  and  CB_50 
REMARK       I    between atoms: C_48  and  N_55 
REMARK   29  A    between atoms: CB_50  and  CG_51 
REMARK   30  A    between atoms: CG_51  and  CD_52 
REMARK   31  A    between atoms: N_55  and  CA_56 
REMARK   32  A    between atoms: CA_56  and  C_57 
REMARK   33  A    between atoms: CA_56  and  CB_59 
REMARK       I    between atoms: C_57  and  N_67 
REMARK   34  A    between atoms: CB_59  and  CG_60 
REMARK   35  A    between atoms: CZ_65  and  OH_66 
REMARK   36  A    between atoms: N_67  and  CA_68 
REMARK   37  A    between atoms: CA_68  and  C_69 
REMARK   38  A    between atoms: CA_68  and  CB_71 
REMARK       I    between atoms: C_69  and  N_76 
REMARK   39  A    between atoms: CB_71  and  CG_72 
REMARK   40  A    between atoms: CG_72  and  CD_73 
REMARK       I    between atoms: CD_73  and  NE2_75 
REMARK   41  A    between atoms: N_76  and  CA_77 
REMARK   42  A    between atoms: CA_77  and  C_78 
REMARK   43  A    between atoms: CA_77  and  CB_80 
REMARK       I    between atoms: C_78  and  N_85 
REMARK   44  A    between atoms: CB_80  and  CG_81 
REMARK   45  A    between atoms: CG_81  and  CD_82 
REMARK   46  A    between atoms: N_85  and  CA_86 
REMARK   47  A    between atoms: CA_86  and  C_87 
REMARK   48  A    between atoms: CA_86  and  CB_89 
REMARK   49  A    between atoms: CB_89  and  CG_90 
ROOT
ATOM      1  C   VAL d   1     -33.758 -68.415  26.798  0.00  0.00     0.243 C 
ATOM      2  O   VAL d   1     -34.603 -67.865  26.076  0.00  0.00    -0.271 OA
ATOM      3  N   PRO d   1     -33.382 -69.694  26.585  0.00  0.00    -0.337 N 
ATOM      4  CA  PRO d   1     -34.065 -70.502  25.567  0.00  0.00     0.091 C 
ATOM      5  CB  PRO d   1     -33.184 -71.758  25.442  0.00  0.00    -0.036 C 
ATOM      6  CG  PRO d   1     -32.028 -71.569  26.358  0.00  0.00    -0.048 C 
ATOM      7  CD  PRO d   1     -32.343 -70.454  27.292  0.00  0.00    -0.001 C 
ATOM      8  H40 PRO d   1     -34.096 -69.960  24.610  0.00  0.00     0.087 H 
ATOM      9  H41 PRO d   1     -32.831 -71.871  24.406  0.00  0.00     0.036 H 
ATOM     10  H42 PRO d   1     -33.756 -72.651  25.734  0.00  0.00     0.036 H 
ATOM     11  H43 PRO d   1     -31.129 -71.322  25.775  0.00  0.00     0.035 H 
ATOM     12  H44 PRO d   1     -31.852 -72.493  26.929  0.00  0.00     0.035 H 
ATOM     13  H45 PRO d   1     -32.722 -70.840  28.250  0.00  0.00     0.064 H 
ATOM     14  H46 PRO d   1     -31.455 -69.831  27.473  0.00  0.00     0.064 H 
ENDROOT
BRANCH   4  15
ATOM     15  C   PRO d   1     -35.487 -70.855  25.972  0.00  0.00     0.241 C 
ATOM     16  O   PRO d   1     -36.025 -70.287  26.926  0.00  0.00    -0.271 OA
ATOM     17  N   GLU d   1     -36.100 -71.794  25.257  0.00  0.00    -0.346 N 
ATOM     18  H47 GLU d   1     -35.618 -72.224  24.493  0.00  0.00     0.163 HD
BRANCH  17  19
ATOM     19  CA  GLU d   1     -37.460 -72.206  25.568  0.00  0.00     0.090 C 
ATOM     20  H48 GLU d   1     -37.565 -72.279  26.661  0.00  0.00     0.087 H 
BRANCH  19  21
ATOM     21  C   GLU d   1     -37.719 -73.576  24.959  0.00  0.00     0.241 C 
ATOM     22  O   GLU d   1     -37.246 -73.872  23.858  0.00  0.00    -0.271 OA
ATOM     23  N   TYR d   1     -38.468 -74.402  25.684  0.00  0.00    -0.346 N 
ATOM     24  H53 TYR d   1     -38.811 -74.084  26.568  0.00  0.00     0.163 HD
BRANCH  23  25
ATOM     25  CA  TYR d   1     -38.810 -75.746  25.250  0.00  0.00     0.093 C 
ATOM     26  H54 TYR d   1     -38.317 -75.951  24.288  0.00  0.00     0.088 H 
BRANCH  25  27
ATOM     27  C   TYR d   1     -40.319 -75.821  25.058  0.00  0.00     0.241 C 
ATOM     28  O   TYR d   1     -41.080 -75.164  25.778  0.00  0.00    -0.271 OA
ATOM     29  N   GLN d   1     -40.755 -76.613  24.078  0.00  0.00    -0.346 N 
ATOM     30  H62 GLN d   1     -40.124 -77.252  23.639  0.00  0.00     0.163 HD
BRANCH  29  31
ATOM     31  CA  GLN d   1     -42.154 -76.553  23.640  0.00  0.00     0.090 C 
ATOM     32  H63 GLN d   1     -42.393 -75.497  23.448  0.00  0.00     0.087 H 
BRANCH  31  33
ATOM     33  C   GLN d   1     -43.111 -77.033  24.778  0.00  0.00     0.241 C 
ATOM     34  O   GLN d   1     -43.757 -76.165  25.362  0.00  0.00    -0.271 OA
ATOM     35  N   GLU d   1     -43.253 -78.323  25.137  0.00  0.00    -0.346 N 
ATOM     36  H70 GLU d   1     -43.706 -78.486  26.013  0.00  0.00     0.163 HD
BRANCH  35  37
ATOM     37  CA  GLU d   1     -42.825 -79.522  24.402  0.00  0.00     0.090 C 
ATOM     38  H71 GLU d   1     -42.147 -79.216  23.592  0.00  0.00     0.087 H 
BRANCH  37  39
ATOM     39  C   GLU d   1     -44.068 -80.178  23.787  0.00  0.00     0.241 C 
ATOM     40  O   GLU d   1     -44.947 -80.653  24.511  0.00  0.00    -0.271 OA
ATOM     41  N   ASP d   1     -44.137 -80.198  22.455  0.00  0.00    -0.344 N 
ATOM     42  H76 ASP d   1     -43.347 -79.879  21.931  0.00  0.00     0.163 HD
BRANCH  41  43
ATOM     43  CA  ASP d   1     -45.321 -80.667  21.723  0.00  0.00     0.105 C 
ATOM     44  H77 ASP d   1     -46.175 -80.043  22.026  0.00  0.00     0.090 H 
BRANCH  43  45
ATOM     45  C   ASP d   1     -45.666 -82.123  22.034  0.00  0.00     0.197 C 
ATOM     46  O   ASP d   1     -46.828 -82.523  21.942  0.00  0.00    -0.646 OA
ATOM     47  OXT ASP d   1     -44.786 -82.913  22.380  0.00  0.00    -0.646 OA
ENDBRANCH  43  45
BRANCH  43  48
ATOM     48  CB  ASP d   1     -45.109 -80.502  20.212  0.00  0.00     0.044 C 
ATOM     49  H78 ASP d   1     -44.863 -81.484  19.782  0.00  0.00     0.053 H 
ATOM     50  H79 ASP d   1     -44.270 -79.809  20.048  0.00  0.00     0.053 H 
BRANCH  48  51
ATOM     51  CG  ASP d   1     -46.341 -79.953  19.500  0.00  0.00     0.175 C 
ATOM     52  OD1 ASP d   1     -47.429 -80.558  19.632  0.00  0.00    -0.648 OA
ATOM     53  OD2 ASP d   1     -46.223 -78.929  18.796  0.00  0.00    -0.648 OA
ENDBRANCH  48  51
ENDBRANCH  43  48
ENDBRANCH  41  43
ENDBRANCH  37  39
BRANCH  37  54
ATOM     54  CB  GLU d   1     -42.075 -80.507  25.306  0.00  0.00    -0.029 C 
ATOM     55  H72 GLU d   1     -41.069 -80.104  25.492  0.00  0.00     0.037 H 
ATOM     56  H73 GLU d   1     -41.993 -81.466  24.774  0.00  0.00     0.037 H 
BRANCH  54  57
ATOM     57  CG  GLU d   1     -42.742 -80.766  26.657  0.00  0.00     0.018 C 
ATOM     58  H74 GLU d   1     -43.797 -81.025  26.484  0.00  0.00     0.049 H 
ATOM     59  H75 GLU d   1     -42.684 -79.847  27.259  0.00  0.00     0.049 H 
BRANCH  57  60
ATOM     60  CD  GLU d   1     -42.084 -81.901  27.435  0.00  0.00     0.172 C 
ATOM     61  OE1 GLU d   1     -41.023 -82.394  26.997  0.00  0.00    -0.648 OA
ATOM     62  OE2 GLU d   1     -42.638 -82.315  28.478  0.00  0.00    -0.648 OA
ENDBRANCH  57  60
ENDBRANCH  54  57
ENDBRANCH  37  54
ENDBRANCH  35  37
ENDBRANCH  31  33
BRANCH  31  63
ATOM     63  CB  GLN d   1     -42.345 -77.300  22.309  0.00  0.00    -0.030 C 
ATOM     64  H64 GLN d   1     -43.424 -77.419  22.134  0.00  0.00     0.037 H 
ATOM     65  H65 GLN d   1     -41.877 -78.291  22.401  0.00  0.00     0.037 H 
BRANCH  63  66
ATOM     66  CG  GLN d   1     -41.741 -76.599  21.100  0.00  0.00     0.011 C 
ATOM     67  H66 GLN d   1     -41.784 -77.282  20.239  0.00  0.00     0.047 H 
ATOM     68  H67 GLN d   1     -40.692 -76.355  21.322  0.00  0.00     0.047 H 
BRANCH  66  69
ATOM     69  CD  GLN d   1     -42.472 -75.319  20.741  0.00  0.00     0.215 C 
ATOM     70  OE1 GLN d   1     -43.696 -75.222  20.870  0.00  0.00    -0.274 OA
ATOM     71  NE2 GLN d   1     -41.717 -74.323  20.284  0.00  0.00    -0.370 N 
ATOM     72  H68 GLN d   1     -42.138 -73.452  20.030  0.00  0.00     0.159 HD
ATOM     73  H69 GLN d   1     -40.728 -74.445  20.195  0.00  0.00     0.159 HD
ENDBRANCH  66  69
ENDBRANCH  63  66
ENDBRANCH  31  63
ENDBRANCH  29  31
ENDBRANCH  25  27
BRANCH  25  74
ATOM     74  CB  TYR d   1     -38.327 -76.777  26.277  0.00  0.00    -0.014 C 
ATOM     75  H55 TYR d   1     -38.991 -76.722  27.152  0.00  0.00     0.043 H 
ATOM     76  H56 TYR d   1     -37.303 -76.507  26.576  0.00  0.00     0.043 H 
BRANCH  74  77
ATOM     77  CG  TYR d   1     -38.310 -78.203  25.793  0.00  0.00    -0.056 A 
ATOM     78  CD1 TYR d   1     -37.844 -78.521  24.523  0.00  0.00    -0.074 A 
ATOM     79  CE1 TYR d   1     -37.819 -79.830  24.083  0.00  0.00    -0.051 A 
ATOM     80  H57 TYR d   1     -37.495 -77.731  23.868  0.00  0.00     0.084 H 
ATOM     81  CZ  TYR d   1     -38.252 -80.835  24.921  0.00  0.00     0.065 A 
ATOM     82  H59 TYR d   1     -37.462 -80.065  23.087  0.00  0.00     0.087 H 
ATOM     83  CE2 TYR d   1     -38.705 -80.543  26.188  0.00  0.00    -0.051 A 
ATOM     84  CD2 TYR d   1     -38.731 -79.236  26.616  0.00  0.00    -0.074 A 
ATOM     85  H60 TYR d   1     -39.039 -81.338  26.844  0.00  0.00     0.087 H 
ATOM     86  H58 TYR d   1     -39.087 -79.010  27.615  0.00  0.00     0.084 H 
BRANCH  81  87
ATOM     87  OH  TYR d   1     -38.233 -82.144  24.499  0.00  0.00    -0.361 OA
ATOM     88  H61 TYR d   1     -37.898 -82.184  23.611  0.00  0.00     0.217 HD
ENDBRANCH  81  87
ENDBRANCH  74  77
ENDBRANCH  25  74
ENDBRANCH  23  25
ENDBRANCH  19  21
BRANCH  19  89
ATOM     89  CB  GLU d   1     -38.482 -71.183  25.051  0.00  0.00    -0.029 C 
ATOM     90  H49 GLU d   1     -38.809 -71.496  24.049  0.00  0.00     0.037 H 
ATOM     91  H50 GLU d   1     -37.988 -70.202  24.985  0.00  0.00     0.037 H 
BRANCH  89  92
ATOM     92  CG  GLU d   1     -39.714 -71.041  25.935  0.00  0.00     0.018 C 
ATOM     93  H51 GLU d   1     -39.501 -70.302  26.722  0.00  0.00     0.049 H 
ATOM     94  H52 GLU d   1     -39.931 -72.016  26.396  0.00  0.00     0.049 H 
BRANCH  92  95
ATOM     95  CD  GLU d   1     -40.934 -70.587  25.161  0.00  0.00     0.172 C 
ATOM     96  OE1 GLU d   1     -40.784 -69.786  24.214  0.00  0.00    -0.648 OA
ATOM     97  OE2 GLU d   1     -42.046 -71.034  25.501  0.00  0.00    -0.648 OA
ENDBRANCH  92  95
ENDBRANCH  89  92
ENDBRANCH  19  89
ENDBRANCH  17  19
ENDBRANCH   4  15
BRANCH   1  98
ATOM     98  CA  VAL d   1     -33.099 -67.615  27.916  0.00  0.00     0.092 C 
ATOM     99  H32 VAL d   1     -32.138 -68.089  28.165  0.00  0.00     0.088 H 
BRANCH  98 100
ATOM    100  N   VAL d   1     -32.850 -66.262  27.427  0.00  0.00    -0.346 N 
ATOM    101  C   ILE d   1     -32.177 -65.983  26.318  0.00  0.00     0.241 C 
ATOM    102  O   ILE d   1     -31.549 -66.832  25.678  0.00  0.00    -0.271 OA
ATOM    103  H31 VAL d   1     -33.209 -65.497  27.962  0.00  0.00     0.163 HD
BRANCH 101 104
ATOM    104  CA  ILE d   1     -32.186 -64.521  25.892  0.00  0.00     0.092 C 
ATOM    105  H21 ILE d   1     -32.826 -63.953  26.583  0.00  0.00     0.088 H 
BRANCH 104 106
ATOM    106  N   ILE d   1     -30.826 -64.010  25.993  0.00  0.00    -0.346 N 
ATOM    107  C   GLN d   1     -30.380 -63.380  27.074  0.00  0.00     0.241 C 
ATOM    108  O   GLN d   1     -31.093 -63.170  28.058  0.00  0.00    -0.271 OA
ATOM    109  H20 ILE d   1     -30.205 -64.138  25.220  0.00  0.00     0.163 HD
BRANCH 107 110
ATOM    110  CA  GLN d   1     -28.924 -62.929  27.037  0.00  0.00     0.090 C 
ATOM    111  H13 GLN d   1     -28.304 -63.783  27.348  0.00  0.00     0.087 H 
BRANCH 110 112
ATOM    112  N   GLN d   1     -28.504 -62.551  25.679  0.00  0.00    -0.346 N 
ATOM    113  C   ASP d   1     -29.110 -61.605  24.949  0.00  0.00     0.241 C 
ATOM    114  O   ASP d   1     -30.065 -60.938  25.367  0.00  0.00    -0.271 OA
ATOM    115  H12 GLN d   1     -27.722 -63.027  25.278  0.00  0.00     0.163 HD
BRANCH 113 116
ATOM    116  CA  ASP d   1     -28.548 -61.396  23.543  0.00  0.00     0.098 C 
ATOM    117  H9  ASP d   1     -28.721 -62.312  22.959  0.00  0.00     0.088 H 
BRANCH 116 118
ATOM    118  N   ASP d   1     -29.263 -60.299  22.903  0.00  0.00    -0.345 N 
ATOM    119  C   SER d   1     -29.842 -60.414  21.710  0.00  0.00     0.251 C 
ATOM    120  O   SER d   1     -29.810 -61.451  21.051  0.00  0.00    -0.271 OA
ATOM    121  H8  ASP d   1     -29.321 -59.422  23.381  0.00  0.00     0.163 HD
BRANCH 119 122
ATOM    122  CA  SER d   1     -30.550 -59.171  21.177  0.00  0.00     0.195 C 
ATOM    123  H4  SER d   1     -29.897 -58.699  20.428  0.00  0.00     0.102 H 
BRANCH 122 124
ATOM    124  N   SER d   1     -31.811 -59.516  20.527  0.00  0.00    -0.064 N 
ATOM    125  H1  SER d   1     -32.254 -58.677  20.186  0.00  0.00     0.275 HD
ATOM    126  H2  SER d   1     -32.418 -59.971  21.191  0.00  0.00     0.275 HD
ATOM    127  H3  SER d   1     -31.632 -60.139  19.755  0.00  0.00     0.275 HD
ENDBRANCH 122 124
BRANCH 122 128
ATOM    128  CB  SER d   1     -30.787 -58.169  22.308  0.00  0.00     0.051 C 
ATOM    129  H5  SER d   1     -29.843 -58.006  22.848  0.00  0.00     0.077 H 
ATOM    130  H6  SER d   1     -31.539 -58.577  22.999  0.00  0.00     0.077 H 
BRANCH 128 131
ATOM    131  OG  SER d   1     -31.250 -56.928  21.798  0.00  0.00    -0.398 OA
ATOM    132  H7  SER d   1     -31.390 -56.324  22.517  0.00  0.00     0.209 HD
ENDBRANCH 128 131
ENDBRANCH 122 128
ENDBRANCH 119 122
ENDBRANCH 116 118
BRANCH 116 133
ATOM    133  CB  ASP d   1     -27.035 -61.133  23.576  0.00  0.00     0.043 C 
ATOM    134  H10 ASP d   1     -26.537 -62.008  24.018  0.00  0.00     0.052 H 
ATOM    135  H11 ASP d   1     -26.846 -60.249  24.202  0.00  0.00     0.052 H 
BRANCH 133 136
ATOM    136  CG  ASP d   1     -26.442 -60.883  22.189  0.00  0.00     0.175 C 
ATOM    137  OD1 ASP d   1     -26.992 -61.381  21.182  0.00  0.00    -0.648 OA
ATOM    138  OD2 ASP d   1     -25.413 -60.181  22.108  0.00  0.00    -0.648 OA
ENDBRANCH 133 136
ENDBRANCH 116 133
ENDBRANCH 113 116
ENDBRANCH 110 112
BRANCH 110 139
ATOM    139  CB  GLN d   1     -28.682 -61.792  28.034  0.00  0.00    -0.030 C 
ATOM    140  H14 GLN d   1     -29.132 -62.078  28.996  0.00  0.00     0.037 H 
ATOM    141  H15 GLN d   1     -29.178 -60.888  27.651  0.00  0.00     0.037 H 
BRANCH 139 142
ATOM    142  CG  GLN d   1     -27.214 -61.463  28.274  0.00  0.00     0.011 C 
ATOM    143  H16 GLN d   1     -27.150 -60.719  29.081  0.00  0.00     0.047 H 
ATOM    144  H17 GLN d   1     -26.796 -61.038  27.350  0.00  0.00     0.047 H 
BRANCH 142 145
ATOM    145  CD  GLN d   1     -26.384 -62.673  28.667  0.00  0.00     0.215 C 
ATOM    146  OE1 GLN d   1     -25.823 -63.363  27.813  0.00  0.00    -0.274 OA
ATOM    147  NE2 GLN d   1     -26.309 -62.940  29.967  0.00  0.00    -0.370 N 
ATOM    148  H18 GLN d   1     -25.777 -63.724  30.287  0.00  0.00     0.159 HD
ATOM    149  H19 GLN d   1     -26.785 -62.357  30.625  0.00  0.00     0.159 HD
ENDBRANCH 142 145
ENDBRANCH 139 142
ENDBRANCH 110 139
ENDBRANCH 107 110
ENDBRANCH 104 106
BRANCH 104 150
ATOM    150  CB  ILE d   1     -32.759 -64.367  24.480  0.00  0.00    -0.030 C 
ATOM    151  H22 ILE d   1     -32.218 -65.046  23.804  0.00  0.00     0.043 H 
BRANCH 150 152
ATOM    152  CG1 ILE d   1     -32.573 -62.933  23.978  0.00  0.00    -0.063 C 
ATOM    153  H23 ILE d   1     -31.721 -62.490  24.514  0.00  0.00     0.033 H 
ATOM    154  H24 ILE d   1     -33.487 -62.367  24.211  0.00  0.00     0.033 H 
BRANCH 152 155
ATOM    155  CD1 ILE d   1     -32.307 -62.810  22.479  0.00  0.00    -0.076 C 
ATOM    156  H28 ILE d   1     -32.188 -61.749  22.214  0.00  0.00     0.027 H 
ATOM    157  H29 ILE d   1     -33.154 -63.235  21.920  0.00  0.00     0.027 H 
ATOM    158  H30 ILE d   1     -31.388 -63.358  22.224  0.00  0.00     0.027 H 
ENDBRANCH 152 155
ENDBRANCH 150 152
BRANCH 150 159
ATOM    159  CG2 ILE d   1     -34.230 -64.750  24.480  0.00  0.00    -0.071 C 
ATOM    160  H25 ILE d   1     -34.340 -65.782  24.844  0.00  0.00     0.028 H 
ATOM    161  H26 ILE d   1     -34.628 -64.677  23.457  0.00  0.00     0.028 H 
ATOM    162  H27 ILE d   1     -34.787 -64.068  25.139  0.00  0.00     0.028 H 
ENDBRANCH 150 159
ENDBRANCH 104 150
ENDBRANCH 101 104
ENDBRANCH  98 100
BRANCH  98 163
ATOM    163  CB  VAL d   1     -33.956 -67.564  29.196  0.00  0.00    -0.033 C 
ATOM    164  H33 VAL d   1     -34.810 -66.897  29.007  0.00  0.00     0.042 H 
BRANCH 163 165
ATOM    165  CG1 VAL d   1     -34.509 -68.927  29.569  0.00  0.00    -0.071 C 
ATOM    166  H34 VAL d   1     -35.111 -68.840  30.485  0.00  0.00     0.028 H 
ATOM    167  H35 VAL d   1     -33.677 -69.625  29.742  0.00  0.00     0.028 H 
ATOM    168  H36 VAL d   1     -35.139 -69.303  28.750  0.00  0.00     0.028 H 
ENDBRANCH 163 165
BRANCH 163 169
ATOM    169  CG2 VAL d   1     -33.131 -66.971  30.344  0.00  0.00    -0.071 C 
ATOM    170  H37 VAL d   1     -32.744 -65.986  30.046  0.00  0.00     0.028 H 
ATOM    171  H38 VAL d   1     -32.290 -67.641  30.575  0.00  0.00     0.028 H 
ATOM    172  H39 VAL d   1     -33.768 -66.861  31.234  0.00  0.00     0.028 H 
ENDBRANCH 163 169
ENDBRANCH  98 163
ENDBRANCH   1  98
TORSDOF 49
