REMARK WARNING: 32 MAX_TORS EXCEEDED!!!
REMARK  48 active torsions:
REMARK  status: ('A' for Active; 'I' for Inactive)
REMARK    1  A    between atoms: C_1  and  CH3_3 
REMARK       I    between atoms: C_1  and  N_4 
REMARK    2  A    between atoms: N_4  and  CA_5 
REMARK    3  A    between atoms: CA_5  and  C_6 
REMARK    4  A    between atoms: CA_5  and  CB_8 
REMARK       I    between atoms: C_6  and  N_16 
REMARK    5  A    between atoms: CB_8  and  CG_9 
REMARK    6  A    between atoms: CZ_14  and  OH_15 
REMARK    7  A    between atoms: N_16  and  CA_17 
REMARK    8  A    between atoms: CA_17  and  C_18 
REMARK    9  A    between atoms: CA_17  and  CB_20 
REMARK       I    between atoms: C_18  and  N_25 
REMARK   10  A    between atoms: CB_20  and  CG_21 
REMARK   11  A    between atoms: CG_21  and  CD_22 
REMARK   12  A    between atoms: N_25  and  CA_26 
REMARK   13  A    between atoms: CA_26  and  C_27 
REMARK   14  A    between atoms: CA_26  and  CB_29 
REMARK       I    between atoms: C_27  and  N_34 
REMARK   15  A    between atoms: CB_29  and  CG_30 
REMARK   16  A    between atoms: CG_30  and  CD_31 
REMARK   17  A    between atoms: CD_31  and  CE_32 
REMARK   18  A    between atoms: CE_32  and  NZ_33 
REMARK   19  A    between atoms: CA_35  and  C_36 
REMARK       I    between atoms: C_36  and  N_41 
REMARK   20  A    between atoms: N_41  and  CA_42 
REMARK   21  A    between atoms: CA_42  and  C_43 
REMARK   22  A    between atoms: CA_42  and  CB_45 
REMARK       I    between atoms: C_43  and  N_46 
REMARK   23  A    between atoms: N_46  and  CA_47 
REMARK   24  A    between atoms: CA_47  and  C_48 
REMARK   25  A    between atoms: CA_47  and  CB_50 
REMARK       I    between atoms: C_48  and  N_54 
REMARK   26  A    between atoms: CB_50  and  CG_51 
REMARK   27  A    between atoms: CG_51  and  CD1_52 
REMARK   28  A    between atoms: CG_51  and  CD2_53 
REMARK   29  A    between atoms: CA_55  and  C_56 
REMARK       I    between atoms: C_56  and  N_61 
REMARK   30  A    between atoms: N_61  and  CA_62 
REMARK   31  A    between atoms: CA_62  and  C_63 
REMARK   32  A    between atoms: CA_62  and  CB_65 
REMARK       I    between atoms: C_63  and  N_72 
REMARK   33  A    between atoms: CB_65  and  CG_66 
REMARK   34  A    between atoms: CG_66  and  CD_67 
REMARK   35  A    between atoms: CD_67  and  NE_68 
REMARK       I    between atoms: NE_68  and  CZ_69 
REMARK       I    between atoms: CZ_69  and  NH1_70 
REMARK       I    between atoms: CZ_69  and  NH2_71 
REMARK   36  A    between atoms: N_72  and  CA_73 
REMARK   37  A    between atoms: CA_73  and  C_74 
REMARK   38  A    between atoms: CA_73  and  CB_76 
REMARK       I    between atoms: C_74  and  N_81 
REMARK   39  A    between atoms: CB_76  and  CG_77 
REMARK   40  A    between atoms: CG_77  and  CD_78 
REMARK   41  A    between atoms: CD_78  and  CE_79 
REMARK   42  A    between atoms: CE_79  and  NZ_80 
REMARK   43  A    between atoms: N_81  and  CA_82 
REMARK   44  A    between atoms: CA_82  and  C_83 
REMARK   45  A    between atoms: CA_82  and  CB_85 
REMARK       I    between atoms: C_83  and  N_92 
REMARK   46  A    between atoms: CB_85  and  CG_86 
REMARK   47  A    between atoms: CG_86  and  CD_87 
REMARK   48  A    between atoms: CD_87  and  NE_88 
REMARK       I    between atoms: NE_88  and  CZ_89 
REMARK       I    between atoms: CZ_89  and  NH1_90 
REMARK       I    between atoms: CZ_89  and  NH2_91 
ROOT
ATOM      1  CA  LEU d   1     -20.577  -0.286  -7.299  0.00  0.00     0.090 C 
ATOM      2  H45 LEU d   1     -19.714  -0.885  -7.625  0.00  0.00     0.087 H 
ENDROOT
BRANCH   1   3
ATOM      3  N   LEU d   1     -21.714  -1.135  -7.042  0.00  0.00    -0.346 N 
ATOM      4  C   ALA d   1     -21.605  -2.234  -6.314  0.00  0.00     0.240 C 
ATOM      5  O   ALA d   1     -20.532  -2.689  -5.941  0.00  0.00    -0.271 OA
ATOM      6  H44 LEU d   1     -22.605  -0.887  -7.423  0.00  0.00     0.163 HD
BRANCH   4   7
ATOM      7  CA  ALA d   1     -22.905  -2.972  -5.970  0.00  0.00     0.086 C 
ATOM      8  H40 ALA d   1     -23.715  -2.636  -6.634  0.00  0.00     0.086 H 
BRANCH   7   9
ATOM      9  N   ALA d   1     -22.671  -4.404  -6.153  0.00  0.00    -0.346 N 
ATOM     10  C   PRO d   1     -22.368  -4.905  -7.338  0.00  0.00     0.241 C 
ATOM     11  O   PRO d   1     -22.310  -4.238  -8.396  0.00  0.00    -0.271 OA
ATOM     12  H39 ALA d   1     -22.742  -5.016  -5.366  0.00  0.00     0.163 HD
BRANCH  10  13
ATOM     13  CA  PRO d   1     -22.047  -6.358  -7.324  0.00  0.00     0.091 C 
ATOM     14  N   PRO d   1     -22.079  -6.917  -8.648  0.00  0.00    -0.337 N 
ATOM     15  C   LYS d   1     -23.209  -6.912  -9.389  0.00  0.00     0.243 C 
ATOM     16  CD  PRO d   1     -20.754  -7.468  -9.014  0.00  0.00    -0.001 C 
ATOM     17  O   LYS d   1     -24.289  -6.558  -8.929  0.00  0.00    -0.271 OA
ATOM     18  CG  PRO d   1     -20.111  -7.610  -7.685  0.00  0.00    -0.048 C 
ATOM     19  H37 PRO d   1     -20.195  -6.774  -9.658  0.00  0.00     0.064 H 
ATOM     20  H38 PRO d   1     -20.850  -8.440  -9.519  0.00  0.00     0.064 H 
ATOM     21  CB  PRO d   1     -20.581  -6.503  -6.914  0.00  0.00    -0.036 C 
ATOM     22  H35 PRO d   1     -20.406  -8.559  -7.215  0.00  0.00     0.035 H 
ATOM     23  H36 PRO d   1     -19.016  -7.574  -7.782  0.00  0.00     0.035 H 
ATOM     24  H33 PRO d   1     -20.495  -6.713  -5.838  0.00  0.00     0.036 H 
ATOM     25  H34 PRO d   1     -20.016  -5.591  -7.156  0.00  0.00     0.036 H 
ATOM     26  H32 PRO d   1     -22.724  -6.897  -6.645  0.00  0.00     0.087 H 
BRANCH  15  27
ATOM     27  CA  LYS d   1     -23.152  -7.395 -10.837  0.00  0.00     0.089 C 
ATOM     28  H20 LYS d   1     -22.194  -7.898 -11.035  0.00  0.00     0.087 H 
BRANCH  27  29
ATOM     29  N   LYS d   1     -24.264  -8.278 -11.025  0.00  0.00    -0.346 N 
ATOM     30  C   GLU d   1     -24.308  -9.506 -10.559  0.00  0.00     0.241 C 
ATOM     31  O   GLU d   1     -23.494  -9.970  -9.742  0.00  0.00    -0.271 OA
ATOM     32  H19 LYS d   1     -25.052  -7.941 -11.540  0.00  0.00     0.163 HD
BRANCH  30  33
ATOM     33  CA  GLU d   1     -25.506 -10.291 -11.093  0.00  0.00     0.090 C 
ATOM     34  H14 GLU d   1     -25.794  -9.781 -12.024  0.00  0.00     0.087 H 
BRANCH  33  35
ATOM     35  N   GLU d   1     -25.127 -11.663 -11.534  0.00  0.00    -0.346 N 
ATOM     36  C   TYR d   1     -24.663 -11.819 -12.786  0.00  0.00     0.241 C 
ATOM     37  O   TYR d   1     -24.663 -10.885 -13.588  0.00  0.00    -0.271 OA
ATOM     38  H13 GLU d   1     -25.215 -12.445 -10.917  0.00  0.00     0.163 HD
BRANCH  36  39
ATOM     39  CA  TYR d   1     -24.185 -13.208 -13.260  0.00  0.00     0.093 C 
ATOM     40  H5  TYR d   1     -23.820 -13.080 -14.290  0.00  0.00     0.088 H 
BRANCH  39  41
ATOM     41  N   TYR d   1     -23.072 -13.810 -12.491  0.00  0.00    -0.348 N 
ATOM     42  C   ACE d   1     -21.664 -13.764 -12.880  0.00  0.00     0.214 C 
ATOM     43  O   ACE d   1     -20.785 -14.380 -12.383  0.00  0.00    -0.274 OA
ATOM     44  H4  TYR d   1     -23.301 -14.284 -11.641  0.00  0.00     0.163 HD
BRANCH  42  45
ATOM     45  CH3 ACE d   1     -21.311 -12.946 -14.081  0.00  0.00    -0.003 C 
ATOM     46  H1  ACE d   1     -22.208 -12.425 -14.447  0.00  0.00     0.040 H 
ATOM     47  H2  ACE d   1     -20.922 -13.604 -14.872  0.00  0.00     0.040 H 
ATOM     48  H3  ACE d   1     -20.543 -12.207 -13.809  0.00  0.00     0.040 H 
ENDBRANCH  42  45
ENDBRANCH  39  41
BRANCH  39  49
ATOM     49  CB  TYR d   1     -25.379 -14.176 -13.302  0.00  0.00    -0.014 C 
ATOM     50  H6  TYR d   1     -25.671 -14.418 -12.269  0.00  0.00     0.043 H 
ATOM     51  H7  TYR d   1     -25.067 -15.095 -13.820  0.00  0.00     0.043 H 
BRANCH  49  52
ATOM     52  CG  TYR d   1     -26.585 -13.598 -14.024  0.00  0.00    -0.056 A 
ATOM     53  CD1 TYR d   1     -26.598 -13.442 -15.429  0.00  0.00    -0.074 A 
ATOM     54  CE1 TYR d   1     -27.710 -12.897 -16.078  0.00  0.00    -0.051 A 
ATOM     55  H8  TYR d   1     -25.736 -13.748 -16.010  0.00  0.00     0.084 H 
ATOM     56  CZ  TYR d   1     -28.827 -12.517 -15.325  0.00  0.00     0.065 A 
ATOM     57  H10 TYR d   1     -27.707 -12.770 -17.154  0.00  0.00     0.087 H 
ATOM     58  CE2 TYR d   1     -28.831 -12.664 -13.951  0.00  0.00    -0.051 A 
ATOM     59  CD2 TYR d   1     -27.718 -13.194 -13.308  0.00  0.00    -0.074 A 
ATOM     60  H11 TYR d   1     -29.700 -12.367 -13.376  0.00  0.00     0.087 H 
ATOM     61  H9  TYR d   1     -27.728 -13.297 -12.229  0.00  0.00     0.084 H 
BRANCH  56  62
ATOM     62  OH  TYR d   1     -29.953 -11.977 -15.906  0.00  0.00    -0.361 OA
ATOM     63  H12 TYR d   1     -30.100 -11.105 -15.558  0.00  0.00     0.217 HD
ENDBRANCH  56  62
ENDBRANCH  49  52
ENDBRANCH  39  49
ENDBRANCH  36  39
ENDBRANCH  33  35
BRANCH  33  64
ATOM     64  CB  GLU d   1     -26.750 -10.137 -10.177  0.00  0.00    -0.029 C 
ATOM     65  H15 GLU d   1     -27.628 -10.093 -10.838  0.00  0.00     0.037 H 
ATOM     66  H16 GLU d   1     -26.640  -9.178  -9.649  0.00  0.00     0.037 H 
BRANCH  64  67
ATOM     67  CG  GLU d   1     -27.048 -11.189  -9.120  0.00  0.00     0.018 C 
ATOM     68  H17 GLU d   1     -26.199 -11.249  -8.423  0.00  0.00     0.049 H 
ATOM     69  H18 GLU d   1     -27.188 -12.163  -9.612  0.00  0.00     0.049 H 
BRANCH  67  70
ATOM     70  CD  GLU d   1     -28.319 -10.837  -8.333  0.00  0.00     0.172 C 
ATOM     71  OE1 GLU d   1     -29.374 -11.484  -8.490  0.00  0.00    -0.648 OA
ATOM     72  OE2 GLU d   1     -28.270  -9.868  -7.579  0.00  0.00    -0.648 OA
ENDBRANCH  67  70
ENDBRANCH  64  67
ENDBRANCH  33  64
ENDBRANCH  30  33
ENDBRANCH  27  29
BRANCH  27  73
ATOM     73  CB  LYS d   1     -23.378  -6.257 -11.828  0.00  0.00    -0.038 C 
ATOM     74  H21 LYS d   1     -24.010  -5.500 -11.341  0.00  0.00     0.036 H 
ATOM     75  H22 LYS d   1     -23.904  -6.665 -12.704  0.00  0.00     0.036 H 
BRANCH  73  76
ATOM     76  CG  LYS d   1     -22.151  -5.594 -12.299  0.00  0.00    -0.061 C 
ATOM     77  H23 LYS d   1     -21.335  -6.331 -12.329  0.00  0.00     0.033 H 
ATOM     78  H24 LYS d   1     -21.890  -4.785 -11.600  0.00  0.00     0.033 H 
BRANCH  76  79
ATOM     79  CD  LYS d   1     -22.337  -5.008 -13.684  0.00  0.00    -0.043 C 
ATOM     80  H25 LYS d   1     -23.292  -4.465 -13.742  0.00  0.00     0.035 H 
ATOM     81  H26 LYS d   1     -22.323  -5.807 -14.440  0.00  0.00     0.035 H 
BRANCH  79  82
ATOM     82  CE  LYS d   1     -21.196  -4.070 -13.903  0.00  0.00     0.080 C 
ATOM     83  H27 LYS d   1     -20.262  -4.598 -13.659  0.00  0.00     0.075 H 
ATOM     84  H28 LYS d   1     -21.319  -3.211 -13.227  0.00  0.00     0.075 H 
BRANCH  82  85
ATOM     85  NZ  LYS d   1     -21.099  -3.573 -15.260  0.00  0.00    -0.079 N 
ATOM     86  H29 LYS d   1     -20.311  -2.949 -15.334  0.00  0.00     0.274 HD
ATOM     87  H30 LYS d   1     -21.944  -3.077 -15.497  0.00  0.00     0.274 HD
ATOM     88  H31 LYS d   1     -20.975  -4.347 -15.893  0.00  0.00     0.274 HD
ENDBRANCH  82  85
ENDBRANCH  79  82
ENDBRANCH  76  79
ENDBRANCH  73  76
ENDBRANCH  27  73
ENDBRANCH  15  27
ENDBRANCH  10  13
ENDBRANCH   7   9
BRANCH   7  89
ATOM     89  CB  ALA d   1     -23.282  -2.697  -4.528  0.00  0.00    -0.049 C 
ATOM     90  H41 ALA d   1     -23.457  -1.619  -4.394  0.00  0.00     0.030 H 
ATOM     91  H42 ALA d   1     -22.464  -3.021  -3.867  0.00  0.00     0.030 H 
ATOM     92  H43 ALA d   1     -24.198  -3.252  -4.276  0.00  0.00     0.030 H 
ENDBRANCH   7  89
ENDBRANCH   4   7
ENDBRANCH   1   3
BRANCH   1  93
ATOM     93  C   LEU d   1     -20.240   0.442  -5.987  0.00  0.00     0.243 C 
ATOM     94  O   LEU d   1     -21.109   1.137  -5.423  0.00  0.00    -0.271 OA
ATOM     95  N   PRO d   1     -19.042   0.256  -5.432  0.00  0.00    -0.337 N 
ATOM     96  CA  PRO d   1     -18.832   0.673  -4.053  0.00  0.00     0.091 C 
ATOM     97  CD  PRO d   1     -17.919  -0.540  -5.931  0.00  0.00    -0.001 C 
ATOM     98  CB  PRO d   1     -17.573  -0.093  -3.625  0.00  0.00    -0.036 C 
ATOM     99  H55 PRO d   1     -19.692   0.359  -3.443  0.00  0.00     0.087 H 
ATOM    100  CG  PRO d   1     -16.875  -0.304  -4.881  0.00  0.00    -0.048 C 
ATOM    101  H56 PRO d   1     -17.835  -1.051  -3.153  0.00  0.00     0.036 H 
ATOM    102  H57 PRO d   1     -16.964   0.504  -2.930  0.00  0.00     0.036 H 
ATOM    103  H58 PRO d   1     -16.214  -1.180  -4.803  0.00  0.00     0.035 H 
ATOM    104  H59 PRO d   1     -16.278   0.585  -5.135  0.00  0.00     0.035 H 
ATOM    105  H60 PRO d   1     -17.583  -0.183  -6.915  0.00  0.00     0.064 H 
ATOM    106  H61 PRO d   1     -18.184  -1.605  -5.998  0.00  0.00     0.064 H 
BRANCH  96 107
ATOM    107  C   PRO d   1     -18.642   2.165  -3.861  0.00  0.00     0.241 C 
ATOM    108  O   PRO d   1     -18.170   2.874  -4.743  0.00  0.00    -0.271 OA
ATOM    109  N   ARG d   1     -18.994   2.654  -2.667  0.00  0.00    -0.346 N 
ATOM    110  H62 ARG d   1     -19.372   2.036  -1.978  0.00  0.00     0.163 HD
BRANCH 109 111
ATOM    111  CA  ARG d   1     -18.841   4.049  -2.353  0.00  0.00     0.089 C 
ATOM    112  H63 ARG d   1     -19.351   4.644  -3.125  0.00  0.00     0.087 H 
BRANCH 111 113
ATOM    113  C   ARG d   1     -17.375   4.433  -2.316  0.00  0.00     0.241 C 
ATOM    114  O   ARG d   1     -16.518   3.650  -1.852  0.00  0.00    -0.271 OA
ATOM    115  N   LYS d   1     -17.109   5.621  -2.812  0.00  0.00    -0.346 N 
ATOM    116  H75 LYS d   1     -17.826   6.124  -3.294  0.00  0.00     0.163 HD
BRANCH 115 117
ATOM    117  CA  LYS d   1     -15.784   6.218  -2.671  0.00  0.00     0.089 C 
ATOM    118  H76 LYS d   1     -15.027   5.420  -2.666  0.00  0.00     0.087 H 
BRANCH 117 119
ATOM    119  C   LYS d   1     -15.672   6.995  -1.370  0.00  0.00     0.241 C 
ATOM    120  O   LYS d   1     -16.667   7.451  -0.791  0.00  0.00    -0.271 OA
ATOM    121  N   ARG d   1     -14.448   7.210  -0.908  0.00  0.00    -0.347 N 
ATOM    122  H88 ARG d   1     -13.655   6.817  -1.374  0.00  0.00     0.163 HD
BRANCH 121 123
ATOM    123  CA  ARG d   1     -14.270   8.042   0.311  0.00  0.00     0.076 C 
ATOM    124  H89 ARG d   1     -14.762   7.518   1.144  0.00  0.00     0.085 H 
BRANCH 123 125
ATOM    125  C   ARG d   1     -14.948   9.433   0.192  0.00  0.00     0.172 C 
ATOM    126  O   ARG d   1     -15.522  10.040   1.189  0.00  0.00    -0.175 OA
ATOM    127  N   NH2 d   1     -14.720  10.156  -1.091  0.00  0.00    -0.379 N 
ATOM    128 1H10 NH2 d   1     -15.127  11.058  -1.236  0.00  0.00     0.158 HD
ATOM    129 2H10 NH2 d   1     -14.160   9.739  -1.807  0.00  0.00     0.158 HD
ENDBRANCH 123 125
BRANCH 123 130
ATOM    130  CB  ARG d   1     -12.779   8.136   0.643  0.00  0.00    -0.037 C 
ATOM    131  H90 ARG d   1     -12.228   8.220  -0.305  0.00  0.00     0.036 H 
ATOM    132  H91 ARG d   1     -12.489   7.206   1.154  0.00  0.00     0.036 H 
BRANCH 130 133
ATOM    133  CG  ARG d   1     -12.361   9.309   1.533  0.00  0.00    -0.048 C 
ATOM    134  H92 ARG d   1     -13.040   9.377   2.396  0.00  0.00     0.035 H 
ATOM    135  H93 ARG d   1     -12.407  10.244   0.956  0.00  0.00     0.035 H 
BRANCH 133 136
ATOM    136  CD  ARG d   1     -10.919   9.077   2.027  0.00  0.00     0.009 C 
ATOM    137  H94 ARG d   1     -10.901   8.173   2.653  0.00  0.00     0.064 H 
ATOM    138  H95 ARG d   1     -10.607   9.945   2.627  0.00  0.00     0.064 H 
BRANCH 136 139
ATOM    139  NE  ARG d   1      -9.963   8.902   0.912  0.00  0.00    -0.227 N 
ATOM    140  CZ  ARG d   1      -9.314   9.873   0.285  0.00  0.00     0.665 C 
ATOM    141  NH1 ARG d   1      -9.477  11.144   0.643  0.00  0.00    -0.235 N 
ATOM    142  NH2 ARG d   1      -8.486   9.574  -0.738  0.00  0.00    -0.235 N 
ATOM    143  H97 ARG d   1      -8.966  11.888   0.147  0.00  0.00     0.174 HD
ATOM    144  H98 ARG d   1     -10.114  11.384   1.416  0.00  0.00     0.174 HD
ATOM    145  H99 ARG d   1      -8.353   8.593  -1.023  0.00  0.00     0.174 HD
ATOM    146 0H10 ARG d   1      -7.987  10.327  -1.234  0.00  0.00     0.174 HD
ATOM    147  H96 ARG d   1      -9.786   7.939   0.594  0.00  0.00     0.177 HD
ENDBRANCH 136 139
ENDBRANCH 133 136
ENDBRANCH 130 133
ENDBRANCH 123 130
ENDBRANCH 121 123
ENDBRANCH 117 119
BRANCH 117 148
ATOM    148  CB  LYS d   1     -15.548   7.126  -3.889  0.00  0.00    -0.038 C 
ATOM    149  H77 LYS d   1     -14.691   7.785  -3.686  0.00  0.00     0.036 H 
ATOM    150  H78 LYS d   1     -16.447   7.736  -4.062  0.00  0.00     0.036 H 
BRANCH 148 151
ATOM    151  CG  LYS d   1     -15.261   6.312  -5.124  0.00  0.00    -0.061 C 
ATOM    152  H79 LYS d   1     -16.175   5.777  -5.422  0.00  0.00     0.033 H 
ATOM    153  H80 LYS d   1     -14.467   5.585  -4.899  0.00  0.00     0.033 H 
BRANCH 151 154
ATOM    154  CD  LYS d   1     -14.816   7.188  -6.254  0.00  0.00    -0.043 C 
ATOM    155  H81 LYS d   1     -13.965   7.802  -5.924  0.00  0.00     0.035 H 
ATOM    156  H82 LYS d   1     -15.647   7.843  -6.554  0.00  0.00     0.035 H 
BRANCH 154 157
ATOM    157  CE  LYS d   1     -14.390   6.337  -7.447  0.00  0.00     0.080 C 
ATOM    158  H83 LYS d   1     -15.246   5.745  -7.803  0.00  0.00     0.075 H 
ATOM    159  H84 LYS d   1     -13.576   5.661  -7.146  0.00  0.00     0.075 H 
BRANCH 157 160
ATOM    160  NZ  LYS d   1     -13.911   7.246  -8.548  0.00  0.00    -0.079 N 
ATOM    161  H85 LYS d   1     -13.627   6.692  -9.341  0.00  0.00     0.274 HD
ATOM    162  H86 LYS d   1     -13.127   7.788  -8.219  0.00  0.00     0.274 HD
ATOM    163  H87 LYS d   1     -14.658   7.866  -8.821  0.00  0.00     0.274 HD
ENDBRANCH 157 160
ENDBRANCH 154 157
ENDBRANCH 151 154
ENDBRANCH 148 151
ENDBRANCH 117 148
ENDBRANCH 115 117
ENDBRANCH 111 113
BRANCH 111 164
ATOM    164  CB  ARG d   1     -19.461   4.360  -0.985  0.00  0.00    -0.036 C 
ATOM    165  H64 ARG d   1     -19.166   5.373  -0.673  0.00  0.00     0.036 H 
ATOM    166  H65 ARG d   1     -19.099   3.629  -0.247  0.00  0.00     0.036 H 
BRANCH 164 167
ATOM    167  CG  ARG d   1     -20.974   4.281  -1.071  0.00  0.00    -0.048 C 
ATOM    168  H66 ARG d   1     -21.377   4.145  -0.057  0.00  0.00     0.035 H 
ATOM    169  H67 ARG d   1     -21.246   3.416  -1.693  0.00  0.00     0.035 H 
BRANCH 167 170
ATOM    170  CD  ARG d   1     -21.598   5.536  -1.680  0.00  0.00     0.009 C 
ATOM    171  H68 ARG d   1     -21.176   5.707  -2.682  0.00  0.00     0.064 H 
ATOM    172  H69 ARG d   1     -21.381   6.402  -1.038  0.00  0.00     0.064 H 
BRANCH 170 173
ATOM    173  NE  ARG d   1     -23.030   5.358  -1.783  0.00  0.00    -0.227 N 
ATOM    174  CZ  ARG d   1     -23.928   5.631  -0.819  0.00  0.00     0.665 C 
ATOM    175  NH1 ARG d   1     -23.596   6.174   0.344  0.00  0.00    -0.235 N 
ATOM    176  NH2 ARG d   1     -25.202   5.355  -1.035  0.00  0.00    -0.235 N 
ATOM    177  H71 ARG d   1     -24.322   6.364   1.050  0.00  0.00     0.174 HD
ATOM    178  H72 ARG d   1     -22.612   6.406   0.542  0.00  0.00     0.174 HD
ATOM    179  H73 ARG d   1     -25.493   4.933  -1.928  0.00  0.00     0.174 HD
ATOM    180  H74 ARG d   1     -25.904   5.562  -0.310  0.00  0.00     0.174 HD
ATOM    181  H70 ARG d   1     -23.394   4.990  -2.673  0.00  0.00     0.177 HD
ENDBRANCH 170 173
ENDBRANCH 167 170
ENDBRANCH 164 167
ENDBRANCH 111 164
ENDBRANCH 109 111
ENDBRANCH  96 107
ENDBRANCH   1  93
BRANCH   1 182
ATOM    182  CB  LEU d   1     -20.961   0.687  -8.387  0.00  0.00    -0.035 C 
ATOM    183  H46 LEU d   1     -21.660   1.417  -7.954  0.00  0.00     0.037 H 
ATOM    184  H47 LEU d   1     -21.469   0.120  -9.181  0.00  0.00     0.037 H 
BRANCH 182 185
ATOM    185  CG  LEU d   1     -19.822   1.458  -9.024  0.00  0.00    -0.059 C 
ATOM    186  H48 LEU d   1     -19.326   2.029  -8.226  0.00  0.00     0.038 H 
BRANCH 185 187
ATOM    187  CD1 LEU d   1     -18.739   0.567  -9.684  0.00  0.00    -0.073 C 
ATOM    188  H49 LEU d   1     -17.955   1.204 -10.119  0.00  0.00     0.028 H 
ATOM    189  H50 LEU d   1     -19.198  -0.042 -10.477  0.00  0.00     0.028 H 
ATOM    190  H51 LEU d   1     -18.295  -0.094  -8.925  0.00  0.00     0.028 H 
ENDBRANCH 185 187
BRANCH 185 191
ATOM    191  CD2 LEU d   1     -20.392   2.451 -10.031  0.00  0.00    -0.073 C 
ATOM    192  H52 LEU d   1     -21.157   3.071  -9.541  0.00  0.00     0.028 H 
ATOM    193  H53 LEU d   1     -20.846   1.903 -10.870  0.00  0.00     0.028 H 
ATOM    194  H54 LEU d   1     -19.584   3.095 -10.408  0.00  0.00     0.028 H 
ENDBRANCH 185 191
ENDBRANCH 182 185
ENDBRANCH   1 182
TORSDOF 48
