REMARK  4 active torsions:
REMARK  status: ('A' for Active; 'I' for Inactive)
REMARK    1  A    between atoms: C02_2  and  N18_18 
REMARK    2  A    between atoms: C06_6  and  N17_17 
REMARK    3  A    between atoms: C08_8  and  N19_19 
REMARK    4  A    between atoms: C09_9  and  C11_11 
ROOT
ATOM      1  N01 AUE d   1     -43.683  18.798   2.721  0.00  0.00    -0.043 NA
ATOM      2  C02 AUE d   1     -44.549  19.805   3.018  0.00  0.00     0.724 A 
ATOM      3  N03 AUE d   1     -44.296  21.069   2.686  0.00  0.00    -0.041 NA
ATOM      4  C04 AUE d   1     -43.135  21.398   1.993  0.00  0.00     0.203 A 
ATOM      5  C05 AUE d   1     -42.224  20.380   1.671  0.00  0.00     0.152 A 
ATOM      6  C06 AUE d   1     -42.509  19.031   2.059  0.00  0.00     0.173 A 
ATOM      7  N07 AUE d   1     -42.877  22.729   1.648  0.00  0.00    -0.207 NA
ATOM      8  C08 AUE d   1     -41.698  23.031   0.990  0.00  0.00     0.153 A 
ATOM      9  C09 AUE d   1     -40.768  21.952   0.709  0.00  0.00     0.113 A 
ATOM     10  N10 AUE d   1     -41.071  20.659   1.025  0.00  0.00    -0.236 NA
ENDROOT
BRANCH   9  11
ATOM     11  C11 AUE d   1     -39.513  22.174  -0.113  0.00  0.00    -0.002 A 
ATOM     12  C12 AUE d   1     -38.552  23.215  -0.080  0.00  0.00    -0.071 A 
ATOM     13  C13 AUE d   1     -37.509  23.201  -1.023  0.00  0.00    -0.081 A 
ATOM     14  H1  AUE d   1     -38.620  24.006   0.658  0.00  0.00     0.084 H 
ATOM     15  C14 AUE d   1     -37.485  22.175  -2.010  0.00  0.00    -0.062 A 
ATOM     16  H2  AUE d   1     -36.735  23.960  -0.999  0.00  0.00     0.083 H 
ATOM     17  C15 AUE d   1     -38.503  21.144  -2.080  0.00  0.00     0.035 A 
ATOM     18  H3  AUE d   1     -36.678  22.164  -2.734  0.00  0.00     0.086 H 
ATOM     19  C16 AUE d   1     -39.483  21.212  -1.121  0.00  0.00    -0.050 A 
ATOM     20 CL   AUE d   1     -38.810  19.735  -3.178  0.00  0.00    -0.084 Cl
ATOM     21  H4  AUE d   1     -40.278  20.476  -1.149  0.00  0.00     0.087 H 
ENDBRANCH   9  11
BRANCH   8  22
ATOM     22  N19 AUE d   1     -41.409  24.415   0.623  0.00  0.00    -0.382 N 
ATOM     23  H9  AUE d   1     -40.533  24.646   0.133  0.00  0.00     0.157 HD
ATOM     24  H10 AUE d   1     -42.081  25.160   0.854  0.00  0.00     0.157 HD
ENDBRANCH   8  22
BRANCH   6  25
ATOM     25  N17 AUE d   1     -41.576  18.047   1.712  0.00  0.00    -0.381 N 
ATOM     26  H5  AUE d   1     -40.714  18.308   1.212  0.00  0.00     0.157 HD
ATOM     27  H6  AUE d   1     -41.751  17.062   1.956  0.00  0.00     0.157 HD
ENDBRANCH   6  25
BRANCH   2  28
ATOM     28  N18 AUE d   1     -45.739  19.563   3.721  0.00  0.00    -0.231 N 
ATOM     29  H7  AUE d   1     -45.984  18.603   4.003  0.00  0.00     0.174 HD
ATOM     30  H8  AUE d   1     -46.367  20.345   3.955  0.00  0.00     0.174 HD
ENDBRANCH   2  28
TORSDOF 4
