REMARK  4 active torsions:
REMARK  status: ('A' for Active; 'I' for Inactive)
REMARK    1  A    between atoms: C02_2  and  N18_18 
REMARK    2  A    between atoms: C06_6  and  N17_17 
REMARK    3  A    between atoms: C08_8  and  N19_19 
REMARK    4  A    between atoms: C09_9  and  C11_11 
ROOT
ATOM      1  N01 AUG d   1     -44.558  19.019   3.045  0.00  0.00    -0.043 NA
ATOM      2  C02 AUG d   1     -45.292  20.128   3.325  0.00  0.00     0.724 A 
ATOM      3  N03 AUG d   1     -44.945  21.339   2.951  0.00  0.00    -0.041 NA
ATOM      4  C04 AUG d   1     -43.781  21.471   2.236  0.00  0.00     0.203 A 
ATOM      5  C05 AUG d   1     -42.992  20.378   1.931  0.00  0.00     0.152 A 
ATOM      6  C06 AUG d   1     -43.395  19.102   2.343  0.00  0.00     0.173 A 
ATOM      7  N07 AUG d   1     -43.438  22.732   1.843  0.00  0.00    -0.207 NA
ATOM      8  C08 AUG d   1     -42.269  22.841   1.140  0.00  0.00     0.153 A 
ATOM      9  C09 AUG d   1     -41.453  21.704   0.879  0.00  0.00     0.113 A 
ATOM     10  N10 AUG d   1     -41.864  20.481   1.211  0.00  0.00    -0.236 NA
ENDROOT
BRANCH   9  11
ATOM     11  C11 AUG d   1     -40.270  21.865   0.009  0.00  0.00    -0.002 A 
ATOM     12  C12 AUG d   1     -39.369  22.912   0.057  0.00  0.00    -0.071 A 
ATOM     13  C13 AUG d   1     -38.363  23.029  -0.911  0.00  0.00    -0.081 A 
ATOM     14  H1  AUG d   1     -39.441  23.648   0.850  0.00  0.00     0.084 H 
ATOM     15  C14 AUG d   1     -38.324  22.108  -1.991  0.00  0.00    -0.066 A 
ATOM     16  H2  AUG d   1     -37.621  23.816  -0.836  0.00  0.00     0.083 H 
ATOM     17  C15 AUG d   1     -39.330  21.077  -2.093  0.00  0.00     0.011 A 
ATOM     18  H3  AUG d   1     -37.541  22.179  -2.737  0.00  0.00     0.085 H 
ATOM     19  C16 AUG d   1     -40.286  20.989  -1.095  0.00  0.00    -0.054 A 
ATOM     20 BR   AUG d   1     -39.514  19.683  -3.510  0.00  0.00    -0.051 Br
ATOM     21  H4  AUG d   1     -41.060  20.233  -1.164  0.00  0.00     0.086 H 
ENDBRANCH   9  11
BRANCH   8  22
ATOM     22  N19 AUG d   1     -41.829  24.151   0.738  0.00  0.00    -0.382 N 
ATOM     23  H9  AUG d   1     -40.953  24.260   0.208  0.00  0.00     0.157 HD
ATOM     24  H10 AUG d   1     -42.391  24.980   0.980  0.00  0.00     0.157 HD
ENDBRANCH   8  22
BRANCH   6  25
ATOM     25  N17 AUG d   1     -42.502  18.045   1.983  0.00  0.00    -0.381 N 
ATOM     26  H5  AUG d   1     -41.649  18.253   1.445  0.00  0.00     0.157 HD
ATOM     27  H6  AUG d   1     -42.712  17.076   2.262  0.00  0.00     0.157 HD
ENDBRANCH   6  25
BRANCH   2  28
ATOM     28  N18 AUG d   1     -46.519  20.097   4.072  0.00  0.00    -0.231 N 
ATOM     29  H7  AUG d   1     -46.889  19.200   4.418  0.00  0.00     0.174 HD
ATOM     30  H8  AUG d   1     -47.029  20.972   4.262  0.00  0.00     0.174 HD
ENDBRANCH   2  28
TORSDOF 4
