REMARK  5 active torsions:
REMARK  status: ('A' for Active; 'I' for Inactive)
REMARK    1  A    between atoms: C7_22  and  C1_1 
REMARK    2  A    between atoms: C11_5  and  C15_9 
REMARK       I    between atoms: C15_9  and  N4_26 
REMARK    3  A    between atoms: C16_10  and  C17_11 
REMARK    4  A    between atoms: N4_26  and  C16_10 
REMARK    5  A    between atoms: N1_16  and  C9_24 
ROOT
ATOM      1  C11 6BJ d   1      -0.272  -9.654  -2.646  0.00  0.00     0.032 A 
ATOM      2  C12 6BJ d   1      -1.096  -8.508  -2.817  0.00  0.00    -0.066 A 
ATOM      3  C13 6BJ d   1      -0.271 -10.308  -1.383  0.00  0.00    -0.066 A 
ATOM      4  C14 6BJ d   1      -1.945  -8.060  -1.782  0.00  0.00    -0.054 A 
ATOM      5  C9  6BJ d   1      -1.954  -8.733  -0.529  0.00  0.00     0.058 A 
ATOM      6  C10 6BJ d   1      -1.092  -9.842  -0.327  0.00  0.00    -0.054 A 
ATOM      7  H3  6BJ d   1      -1.072  -7.970  -3.757  0.00  0.00     0.085 H 
ATOM      8  H4  6BJ d   1       0.365 -11.172  -1.227  0.00  0.00     0.085 H 
ATOM      9  H5  6BJ d   1      -2.590  -7.204  -1.942  0.00  0.00     0.087 H 
ATOM     10  H16 6BJ d   1      -1.062 -10.334   0.638  0.00  0.00     0.087 H 
ENDROOT
BRANCH   1  11
ATOM     11  C15 6BJ d   1       0.666 -10.089  -3.750  0.00  0.00     0.251 C 
ATOM     12  O1  6BJ d   1       1.609 -10.845  -3.503  0.00  0.00    -0.268 OA
ATOM     13  N4  6BJ d   1       0.444  -9.593  -4.977  0.00  0.00    -0.351 N 
ATOM     14  H17 6BJ d   1      -0.357  -9.004  -5.084  0.00  0.00     0.163 HD
BRANCH  13  15
ATOM     15  C16 6BJ d   1       1.246  -9.823  -6.167  0.00  0.00     0.035 C 
ATOM     16  H6  6BJ d   1       1.098  -8.972  -6.848  0.00  0.00     0.073 H 
ATOM     17  H7  6BJ d   1       2.302  -9.870  -5.863  0.00  0.00     0.073 H 
BRANCH  15  18
ATOM     18  C17 6BJ d   1       0.915 -11.102  -6.928  0.00  0.00     0.051 A 
ATOM     19  C18 6BJ d   1       0.582 -12.307  -6.260  0.00  0.00    -0.058 A 
ATOM     20  C19 6BJ d   1       0.291 -13.451  -7.040  0.00  0.00    -0.080 A 
ATOM     21  H8  6BJ d   1       0.551 -12.351  -5.177  0.00  0.00     0.086 H 
ATOM     22  C20 6BJ d   1       0.364 -13.351  -8.447  0.00  0.00    -0.066 A 
ATOM     23  H9  6BJ d   1       0.017 -14.387  -6.566  0.00  0.00     0.083 H 
ATOM     24  C21 6BJ d   1       0.703 -12.112  -9.038  0.00  0.00     0.003 A 
ATOM     25  H10 6BJ d   1       0.162 -14.216  -9.068  0.00  0.00     0.085 H 
ATOM     26  N5  6BJ d   1       0.981 -11.011  -8.294  0.00  0.00    -0.264 NA
ATOM     27  H11 6BJ d   1       0.742 -12.039 -10.119  0.00  0.00     0.114 H 
ENDBRANCH  15  18
ENDBRANCH  13  15
ENDBRANCH   1  11
BRANCH   5  28
ATOM     28  N1  6BJ d   1      -2.774  -8.266   0.533  0.00  0.00    -0.245 N 
ATOM     29  C2  6BJ d   1      -3.273  -8.969   1.610  0.00  0.00     0.016 A 
ATOM     30  C1  6BJ d   1      -4.061  -8.098   2.302  0.00  0.00     0.011 A 
ATOM     31  H1  6BJ d   1      -3.077 -10.011   1.858  0.00  0.00     0.116 H 
ATOM     32  C3  6BJ d   1      -3.993  -6.874   1.592  0.00  0.00     0.034 A 
ATOM     33  N2  6BJ d   1      -3.223  -6.987   0.533  0.00  0.00    -0.179 NA
ATOM     34  H2  6BJ d   1      -4.510  -5.961   1.885  0.00  0.00     0.118 H 
BRANCH  30  35
ATOM     35  C7  6BJ d   1      -4.804  -8.360   3.536  0.00  0.00    -0.020 A 
ATOM     36  C6  6BJ d   1      -4.844  -9.670   4.089  0.00  0.00    -0.055 A 
ATOM     37  C5  6BJ d   1      -5.573  -9.864   5.282  0.00  0.00     0.003 A 
ATOM     38  H14 6BJ d   1      -4.330 -10.495   3.609  0.00  0.00     0.087 H 
ATOM     39  N3  6BJ d   1      -6.207  -8.858   5.924  0.00  0.00    -0.273 NA
ATOM     40  H13 6BJ d   1      -5.627 -10.862   5.701  0.00  0.00     0.114 H 
ATOM     41  C4  6BJ d   1      -6.148  -7.608   5.414  0.00  0.00     0.003 A 
ATOM     42  C8  6BJ d   1      -5.446  -7.306   4.229  0.00  0.00    -0.055 A 
ATOM     43  H12 6BJ d   1      -6.660  -6.807   5.936  0.00  0.00     0.114 H 
ATOM     44  H15 6BJ d   1      -5.399  -6.289   3.857  0.00  0.00     0.087 H 
ENDBRANCH  30  35
ENDBRANCH   5  28
TORSDOF 5
