REMARK  9 active torsions:
REMARK  status: ('A' for Active; 'I' for Inactive)
REMARK    1  A    between atoms: C3_3  and  O1_4 
REMARK    2  A    between atoms: O1_4  and  C20_14 
REMARK    3  A    between atoms: C12_6  and  N4_28 
REMARK    4  A    between atoms: N5_29  and  C19_13 
REMARK    5  A    between atoms: C20_14  and  C21_15 
REMARK    6  A    between atoms: C21_15  and  C22_16 
REMARK    7  A    between atoms: C21_15  and  C23_17 
REMARK    8  A    between atoms: C6_21  and  C4_19 
REMARK    9  A    between atoms: N2_23  and  C9_26 
ROOT
ATOM      1  C6  6BE d   1      -4.697  -8.272   2.105  0.00  0.00     0.014 A 
ATOM      2  C7  6BE d   1      -3.993  -9.162   1.344  0.00  0.00     0.017 A 
ATOM      3  N2  6BE d   1      -3.427  -8.478   0.298  0.00  0.00    -0.245 N 
ATOM      4  N3  6BE d   1      -3.781  -7.166   0.357  0.00  0.00    -0.179 NA
ATOM      5  C8  6BE d   1      -4.526  -7.031   1.435  0.00  0.00     0.034 A 
ATOM      6  H27 6BE d   1      -3.898 -10.230   1.535  0.00  0.00     0.116 H 
ATOM      7  H28 6BE d   1      -4.956  -6.088   1.770  0.00  0.00     0.118 H 
ENDROOT
BRANCH   3   8
ATOM      8  C9  6BE d   1      -2.568  -8.979  -0.720  0.00  0.00     0.058 A 
ATOM      9  C14 6BE d   1      -1.670 -10.055  -0.487  0.00  0.00    -0.053 A 
ATOM     10  C13 6BE d   1      -0.863 -10.574  -1.535  0.00  0.00    -0.055 A 
ATOM     11  H5  6BE d   1      -1.599 -10.486   0.505  0.00  0.00     0.087 H 
ATOM     12  C12 6BE d   1      -0.890  -9.981  -2.833  0.00  0.00     0.030 A 
ATOM     13  H4  6BE d   1      -0.222 -11.427  -1.347  0.00  0.00     0.087 H 
ATOM     14  C11 6BE d   1      -1.788  -8.895  -3.041  0.00  0.00    -0.055 A 
ATOM     15  C10 6BE d   1      -2.603  -8.400  -2.007  0.00  0.00    -0.053 A 
ATOM     16  H3  6BE d   1      -1.845  -8.438  -4.022  0.00  0.00     0.087 H 
ATOM     17  H29 6BE d   1      -3.266  -7.564  -2.201  0.00  0.00     0.087 H 
BRANCH  12  18
ATOM     18  N4  6BE d   1      -0.074 -10.487  -3.886  0.00  0.00    -0.378 N 
ATOM     19  C15 6BE d   1       1.385 -10.526  -3.605  0.00  0.00     0.018 C 
ATOM     20  C16 6BE d   1       2.271 -10.971  -4.805  0.00  0.00     0.098 C 
ATOM     21  H6  6BE d   1       1.702  -9.517  -3.302  0.00  0.00     0.066 H 
ATOM     22  H7  6BE d   1       1.555 -11.229  -2.776  0.00  0.00     0.066 H 
ATOM     23  N5  6BE d   1       1.828 -10.278  -6.026  0.00  0.00    -0.072 N 
ATOM     24  H8  6BE d   1       2.178 -12.058  -4.946  0.00  0.00     0.078 H 
ATOM     25  H9  6BE d   1       3.321 -10.716  -4.600  0.00  0.00     0.078 H 
ATOM     26  C17 6BE d   1       0.478 -10.742  -6.360  0.00  0.00     0.098 C 
ATOM     27  H30 6BE d   1       1.794  -9.288  -5.839  0.00  0.00     0.279 HD
ATOM     28  C18 6BE d   1      -0.489 -10.202  -5.282  0.00  0.00     0.018 C 
ATOM     29  H10 6BE d   1       0.186 -10.361  -7.349  0.00  0.00     0.078 H 
ATOM     30  H11 6BE d   1       0.452 -11.842  -6.369  0.00  0.00     0.078 H 
ATOM     31  H12 6BE d   1      -1.477 -10.658  -5.447  0.00  0.00     0.066 H 
ATOM     32  H13 6BE d   1      -0.564  -9.111  -5.402  0.00  0.00     0.066 H 
BRANCH  23  33
ATOM     33  C19 6BE d   1       2.743 -10.498  -7.138  0.00  0.00     0.066 C 
ATOM     34  H14 6BE d   1       3.747 -10.142  -6.863  0.00  0.00     0.068 H 
ATOM     35  H15 6BE d   1       2.387  -9.946  -8.020  0.00  0.00     0.068 H 
ATOM     36  H16 6BE d   1       2.786 -11.572  -7.371  0.00  0.00     0.068 H 
ENDBRANCH  23  33
ENDBRANCH  12  18
ENDBRANCH   3   8
BRANCH   1  37
ATOM     37  C4  6BE d   1      -5.435  -8.507   3.369  0.00  0.00     0.013 A 
ATOM     38  C3  6BE d   1      -5.328  -9.723   4.117  0.00  0.00     0.097 A 
ATOM     39  C2  6BE d   1      -6.055  -9.812   5.341  0.00  0.00     0.035 A 
ATOM     40  N1  6BE d   1      -6.803  -8.807   5.836  0.00  0.00    -0.270 NA
ATOM     41  H2  6BE d   1      -6.003 -10.738   5.903  0.00  0.00     0.119 H 
ATOM     42  C1  6BE d   1      -6.890  -7.656   5.130  0.00  0.00     0.003 A 
ATOM     43  C5  6BE d   1      -6.209  -7.450   3.920  0.00  0.00    -0.052 A 
ATOM     44  H1  6BE d   1      -7.513  -6.857   5.516  0.00  0.00     0.114 H 
ATOM     45  H26 6BE d   1      -6.273  -6.495   3.411  0.00  0.00     0.087 H 
BRANCH  38  46
ATOM     46  O1  6BE d   1      -4.514 -10.732   3.635  0.00  0.00    -0.348 OA
BRANCH  46  47
ATOM     47  C20 6BE d   1      -4.096 -11.827   4.469  0.00  0.00     0.029 C 
ATOM     48  H17 6BE d   1      -4.961 -12.473   4.680  0.00  0.00     0.075 H 
ATOM     49  H18 6BE d   1      -3.695 -11.431   5.414  0.00  0.00     0.075 H 
BRANCH  47  50
ATOM     50  C21 6BE d   1      -3.008 -12.652   3.763  0.00  0.00    -0.040 C 
ATOM     51  H19 6BE d   1      -2.612 -13.351   4.514  0.00  0.00     0.042 H 
BRANCH  50  52
ATOM     52  C22 6BE d   1      -3.611 -13.501   2.634  0.00  0.00    -0.071 C 
ATOM     53  H20 6BE d   1      -2.814 -14.081   2.146  0.00  0.00     0.028 H 
ATOM     54  H21 6BE d   1      -4.090 -12.842   1.895  0.00  0.00     0.028 H 
ATOM     55  H22 6BE d   1      -4.361 -14.189   3.053  0.00  0.00     0.028 H 
ENDBRANCH  50  52
BRANCH  50  56
ATOM     56  C23 6BE d   1      -1.805 -11.823   3.267  0.00  0.00    -0.071 C 
ATOM     57  H23 6BE d   1      -1.400 -11.229   4.100  0.00  0.00     0.028 H 
ATOM     58  H24 6BE d   1      -2.131 -11.149   2.461  0.00  0.00     0.028 H 
ATOM     59  H25 6BE d   1      -1.026 -12.499   2.886  0.00  0.00     0.028 H 
ENDBRANCH  50  56
ENDBRANCH  47  50
ENDBRANCH  46  47
ENDBRANCH  38  46
ENDBRANCH   1  37
TORSDOF 9
