REMARK  5 active torsions:
REMARK  status: ('A' for Active; 'I' for Inactive)
REMARK    1  A    between atoms: C2_2  and  C1_1 
REMARK    2  A    between atoms: O1_4  and  C6_18 
REMARK    3  A    between atoms: C7_19  and  O1_4 
REMARK    4  A    between atoms: N4_25  and  C15_9 
REMARK    5  A    between atoms: C7_19  and  C8_20 
ROOT
ATOM      1  C2  6BB d   1      -5.648  -8.422   3.301  0.00  0.00     0.013 A 
ATOM      2  C3  6BB d   1      -6.384  -7.302   3.770  0.00  0.00    -0.052 A 
ATOM      3  C4  6BB d   1      -7.120  -7.413   4.959  0.00  0.00     0.003 A 
ATOM      4  N1  6BB d   1      -7.162  -8.536   5.699  0.00  0.00    -0.270 NA
ATOM      5  C5  6BB d   1      -6.463  -9.607   5.274  0.00  0.00     0.035 A 
ATOM      6  C6  6BB d   1      -5.662  -9.613   4.090  0.00  0.00     0.097 A 
ATOM      7  H1  6BB d   1      -6.377  -6.371   3.215  0.00  0.00     0.087 H 
ATOM      8  H12 6BB d   1      -7.683  -6.551   5.299  0.00  0.00     0.114 H 
ATOM      9  H13 6BB d   1      -6.511 -10.515   5.863  0.00  0.00     0.119 H 
ENDROOT
BRANCH   6  10
ATOM     10  O1  6BB d   1      -4.948 -10.716   3.647  0.00  0.00    -0.348 OA
BRANCH  10  11
ATOM     11  C7  6BB d   1      -4.633 -11.789   4.541  0.00  0.00     0.029 C 
ATOM     12  H14 6BB d   1      -5.557 -12.310   4.832  0.00  0.00     0.075 H 
ATOM     13  H15 6BB d   1      -4.139 -11.389   5.439  0.00  0.00     0.075 H 
BRANCH  11  14
ATOM     14  C8  6BB d   1      -3.694 -12.768   3.832  0.00  0.00    -0.030 C 
ATOM     15  C12 6BB d   1      -3.513 -14.045   4.688  0.00  0.00    -0.037 C 
ATOM     16  C11 6BB d   1      -2.467 -14.996   4.059  0.00  0.00     0.082 C 
ATOM     17  H4  6BB d   1      -3.177 -13.757   5.695  0.00  0.00     0.036 H 
ATOM     18  H5  6BB d   1      -4.478 -14.569   4.759  0.00  0.00     0.036 H 
ATOM     19  N2  6BB d   1      -1.195 -14.291   3.866  0.00  0.00    -0.075 N 
ATOM     20  H2  6BB d   1      -2.837 -15.351   3.086  0.00  0.00     0.075 H 
ATOM     21  H3  6BB d   1      -2.309 -15.855   4.727  0.00  0.00     0.075 H 
ATOM     22  C10 6BB d   1      -1.294 -13.133   2.965  0.00  0.00     0.082 C 
ATOM     23  H21 6BB d   1      -0.527 -14.939   3.479  0.00  0.00     0.277 HD
ATOM     24  H22 6BB d   1      -0.870 -13.969   4.764  0.00  0.00     0.277 HD
ATOM     25  C9  6BB d   1      -2.318 -12.117   3.526  0.00  0.00    -0.037 C 
ATOM     26  H19 6BB d   1      -0.309 -12.650   2.881  0.00  0.00     0.075 H 
ATOM     27  H20 6BB d   1      -1.622 -13.471   1.971  0.00  0.00     0.075 H 
ATOM     28  H17 6BB d   1      -1.916 -11.688   4.456  0.00  0.00     0.036 H 
ATOM     29  H18 6BB d   1      -2.463 -11.317   2.785  0.00  0.00     0.036 H 
ATOM     30  H16 6BB d   1      -4.156 -13.055   2.876  0.00  0.00     0.043 H 
ENDBRANCH  11  14
ENDBRANCH  10  11
ENDBRANCH   6  10
BRANCH   1  31
ATOM     31  C1  6BB d   1      -4.856  -8.264   2.059  0.00  0.00     0.014 A 
ATOM     32  C13 6BB d   1      -4.738  -7.107   1.249  0.00  0.00     0.034 A 
ATOM     33  N3  6BB d   1      -3.937  -7.321   0.218  0.00  0.00    -0.179 NA
ATOM     34  H6  6BB d   1      -5.242  -6.163   1.450  0.00  0.00     0.118 H 
ATOM     35  N4  6BB d   1      -3.465  -8.585   0.359  0.00  0.00    -0.241 N 
ATOM     36  C14 6BB d   1      -4.027  -9.176   1.472  0.00  0.00     0.017 A 
ATOM     37  H7  6BB d   1      -3.842 -10.191   1.821  0.00  0.00     0.116 H 
BRANCH  35  38
ATOM     38  C15 6BB d   1      -2.555  -9.132  -0.594  0.00  0.00     0.096 A 
ATOM     39  C16 6BB d   1      -1.549 -10.068  -0.222  0.00  0.00     0.145 A 
ATOM     40  C17 6BB d   1      -0.696 -10.641  -1.194  0.00  0.00    -0.043 A 
ATOM     41  F1  6BB d   1      -1.408 -10.479   1.058  0.00  0.00    -0.204 F 
ATOM     42  C18 6BB d   1      -0.795 -10.242  -2.547  0.00  0.00    -0.080 A 
ATOM     43  H8  6BB d   1       0.034 -11.387  -0.901  0.00  0.00     0.088 H 
ATOM     44  C19 6BB d   1      -1.774  -9.296  -2.926  0.00  0.00    -0.081 A 
ATOM     45  H9  6BB d   1      -0.124 -10.659  -3.289  0.00  0.00     0.083 H 
ATOM     46  C20 6BB d   1      -2.640  -8.736  -1.958  0.00  0.00    -0.052 A 
ATOM     47  H10 6BB d   1      -1.862  -8.998  -3.965  0.00  0.00     0.083 H 
ATOM     48  H11 6BB d   1      -3.375  -7.998  -2.258  0.00  0.00     0.087 H 
ENDBRANCH  35  38
ENDBRANCH   1  31
TORSDOF 5
