REMARK  1 active torsions:
REMARK  status: ('A' for Active; 'I' for Inactive)
REMARK    1  A    between atoms: CAN_1  and  CAL_2 
ROOT
ATOM      1  CAL 6BL d   1      35.875  26.619   0.972  0.00  0.00     0.066 A 
ATOM      2  CAI 6BL d   1      36.262  25.312   1.271  0.00  0.00     0.054 A 
ATOM      3  CAF 6BL d   1      35.825  24.257   2.112  0.00  0.00    -0.003 A 
ATOM      4  CAD 6BL d   1      34.674  24.373   2.906  0.00  0.00    -0.071 A 
ATOM      5  CAB 6BL d   1      34.243  23.335   3.723  0.00  0.00    -0.082 A 
ATOM      6  CAA 6BL d   1      34.970  22.136   3.712  0.00  0.00    -0.082 A 
ATOM      7  CAC 6BL d   1      36.108  21.997   2.930  0.00  0.00    -0.066 A 
ATOM      8  CAE 6BL d   1      36.547  23.045   2.112  0.00  0.00     0.051 A 
ATOM      9  CAH 6BL d   1      37.694  22.940   1.290  0.00  0.00     0.300 A 
ATOM     10  OAG 6BL d   1      38.380  21.931   1.212  0.00  0.00    -0.259 OA
ATOM     11  OAK 6BL d   1      38.116  24.004   0.509  0.00  0.00    -0.255 OA
ATOM     12  CAJ 6BL d   1      37.406  25.169   0.491  0.00  0.00     0.181 A 
ATOM     13  NAO 6BL d   1      37.619  26.314  -0.164  0.00  0.00    -0.256 N 
ATOM     14  NAM 6BL d   1      36.735  27.133   0.109  0.00  0.00    -0.177 NA
ATOM     15  H4  6BL d   1      34.106  25.296   2.881  0.00  0.00     0.084 H 
ATOM     16  H5  6BL d   1      33.368  23.449   4.352  0.00  0.00     0.083 H 
ATOM     17  H6  6BL d   1      34.638  21.305   4.324  0.00  0.00     0.083 H 
ATOM     18  H7  6BL d   1      36.663  21.066   2.953  0.00  0.00     0.085 H 
ATOM     19  H8  6BL d   1      38.407  26.489  -0.804  0.00  0.00     0.191 HD
ENDROOT
BRANCH   1  20
ATOM     20  CAN 6BL d   1      34.692  27.414   1.521  0.00  0.00    -0.033 C 
ATOM     21  H1  6BL d   1      34.683  28.417   1.069  0.00  0.00     0.035 H 
ATOM     22  H2  6BL d   1      34.786  27.505   2.613  0.00  0.00     0.035 H 
ATOM     23  H3  6BL d   1      33.755  26.893   1.276  0.00  0.00     0.035 H 
ENDBRANCH   1  20
TORSDOF 1
