REMARK  7 active torsions:
REMARK  status: ('A' for Active; 'I' for Inactive)
REMARK    1  A    between atoms: C1_1  and  C_31 
REMARK    2  A    between atoms: C6_26  and  C3_3 
REMARK    3  A    between atoms: C11_4  and  C12_5 
REMARK       I    between atoms: N3_20  and  C11_4 
REMARK    4  A    between atoms: C13_6  and  C17_10 
REMARK    5  A    between atoms: C16_9  and  N5_18 
REMARK    6  A    between atoms: C10_21  and  N3_20 
REMARK    7  A    between atoms: C5_28  and  N_29 
ROOT
ATOM      1  C11 6CB d   1     -18.676  36.600   0.431  0.00  0.00     0.277 C 
ATOM      2  O   6CB d   1     -18.268  36.347   1.562  0.00  0.00    -0.266 OA
ATOM      3  N3  6CB d   1     -18.254  35.985  -0.698  0.00  0.00    -0.320 N 
ATOM      4  H10 6CB d   1     -18.715  36.267  -1.540  0.00  0.00     0.169 HD
ENDROOT
BRANCH   3   5
ATOM      5  C10 6CB d   1     -17.248  34.994  -0.855  0.00  0.00     0.064 A 
ATOM      6  C9  6CB d   1     -16.788  34.217   0.208  0.00  0.00     0.028 A 
ATOM      7  N2  6CB d   1     -15.749  33.383   0.138  0.00  0.00    -0.271 NA
ATOM      8  H11 6CB d   1     -17.310  34.296   1.155  0.00  0.00     0.118 H 
ATOM      9  C8  6CB d   1     -15.117  33.301  -1.029  0.00  0.00     0.003 A 
ATOM     10  C7  6CB d   1     -15.491  33.997  -2.158  0.00  0.00    -0.053 A 
ATOM     11  H12 6CB d   1     -14.255  32.647  -1.096  0.00  0.00     0.114 H 
ATOM     12  C6  6CB d   1     -16.591  34.850  -2.091  0.00  0.00     0.004 A 
ATOM     13  H13 6CB d   1     -14.938  33.883  -3.083  0.00  0.00     0.087 H 
BRANCH  12  14
ATOM     14  C3  6CB d   1     -17.056  35.499  -3.350  0.00  0.00    -0.018 A 
ATOM     15  C2  6CB d   1     -18.380  35.389  -3.770  0.00  0.00    -0.049 A 
ATOM     16  C1  6CB d   1     -18.800  36.029  -4.923  0.00  0.00     0.034 A 
ATOM     17  H1  6CB d   1     -19.083  34.800  -3.192  0.00  0.00     0.087 H 
ATOM     18  N1  6CB d   1     -17.952  36.745  -5.685  0.00  0.00    -0.237 NA
ATOM     19  C5  6CB d   1     -16.661  36.869  -5.287  0.00  0.00     0.122 A 
ATOM     20  C4  6CB d   1     -16.177  36.246  -4.130  0.00  0.00    -0.028 A 
ATOM     21  H14 6CB d   1     -15.135  36.344  -3.846  0.00  0.00     0.090 H 
BRANCH  16  22
ATOM     22  C   6CB d   1     -20.237  36.025  -5.342  0.00  0.00    -0.035 C 
ATOM     23  H17 6CB d   1     -20.347  36.589  -6.280  0.00  0.00     0.035 H 
ATOM     24  H18 6CB d   1     -20.849  36.495  -4.558  0.00  0.00     0.035 H 
ATOM     25  H19 6CB d   1     -20.571  34.988  -5.496  0.00  0.00     0.035 H 
ENDBRANCH  16  22
BRANCH  19  26
ATOM     26  N   6CB d   1     -15.874  37.696  -6.025  0.00  0.00    -0.384 N 
ATOM     27  H15 6CB d   1     -16.250  38.144  -6.873  0.00  0.00     0.157 HD
ATOM     28  H16 6CB d   1     -14.902  37.875  -5.736  0.00  0.00     0.157 HD
ENDBRANCH  19  26
ENDBRANCH  12  14
ENDBRANCH   3   5
BRANCH   1  29
ATOM     29  C12 6CB d   1     -19.687  37.683   0.185  0.00  0.00     0.151 A 
ATOM     30  C16 6CB d   1     -20.298  38.397   1.255  0.00  0.00     0.060 A 
ATOM     31  C15 6CB d   1     -21.156  39.434   0.879  0.00  0.00    -0.053 A 
ATOM     32  C14 6CB d   1     -21.379  39.736  -0.451  0.00  0.00    -0.052 A 
ATOM     33  H3  6CB d   1     -21.657  40.013   1.646  0.00  0.00     0.087 H 
ATOM     34  C13 6CB d   1     -20.746  38.978  -1.431  0.00  0.00     0.071 A 
ATOM     35  H2  6CB d   1     -22.038  40.552  -0.727  0.00  0.00     0.087 H 
ATOM     36  N4  6CB d   1     -19.924  37.960  -1.114  0.00  0.00    -0.240 NA
BRANCH  30  37
ATOM     37  N5  6CB d   1     -20.051  38.148   2.596  0.00  0.00    -0.397 N 
ATOM     38  H8  6CB d   1     -19.418  37.383   2.870  0.00  0.00     0.156 HD
ATOM     39  H9  6CB d   1     -20.500  38.728   3.319  0.00  0.00     0.156 HD
ENDBRANCH  30  37
BRANCH  34  40
ATOM     40  C17 6CB d   1     -20.830  39.321  -2.879  0.00  0.00     0.031 A 
ATOM     41  C18 6CB d   1     -19.722  39.116  -3.711  0.00  0.00    -0.068 A 
ATOM     42  C19 6CB d   1     -19.753  39.491  -5.045  0.00  0.00    -0.082 A 
ATOM     43  H4  6CB d   1     -18.827  38.657  -3.306  0.00  0.00     0.085 H 
ATOM     44  C20 6CB d   1     -20.885  40.072  -5.578  0.00  0.00    -0.080 A 
ATOM     45  H5  6CB d   1     -18.884  39.327  -5.672  0.00  0.00     0.083 H 
ATOM     46  C21 6CB d   1     -21.999  40.290  -4.786  0.00  0.00    -0.045 A 
ATOM     47  H6  6CB d   1     -20.902  40.359  -6.623  0.00  0.00     0.083 H 
ATOM     48  C22 6CB d   1     -21.956  39.898  -3.466  0.00  0.00     0.129 A 
ATOM     49  H7  6CB d   1     -22.886  40.759  -5.196  0.00  0.00     0.088 H 
ATOM     50  F   6CB d   1     -23.071  40.069  -2.724  0.00  0.00    -0.205 F 
ENDBRANCH  34  40
ENDBRANCH   1  29
TORSDOF 7
