REMARK  10 active torsions:
REMARK  status: ('A' for Active; 'I' for Inactive)
REMARK    1  A    between atoms: C12_19  and  C13_6 
REMARK    2  A    between atoms: C16_21  and  C20_8 
REMARK    3  A    between atoms: C21_9  and  C22_10 
REMARK    4  A    between atoms: C14_20  and  C21_9 
REMARK    5  A    between atoms: O25_27  and  C26_11 
REMARK    6  A    between atoms: C1_13  and  O25_27 
REMARK    7  A    between atoms: N9_17  and  C12_19 
REMARK       I    between atoms: N29_29  and  C32_32 
REMARK    8  A    between atoms: C32_32  and  C33_33 
REMARK    9  A    between atoms: C33_33  and  C34_34 
REMARK   10  A    between atoms: C33_33  and  O35_35 
ROOT
ATOM      1  C4  6BN d   1      30.362   4.424 203.088  0.00  0.00    -0.017 A 
ATOM      2  C5  6BN d   1      31.308   4.455 204.137  0.00  0.00     0.064 A 
ATOM      3  C6  6BN d   1      31.103   5.324 205.202  0.00  0.00     0.083 A 
ATOM      4  C8  6BN d   1      32.493   3.591 203.968  0.00  0.00     0.256 C 
ATOM      5  C10 6BN d   1      30.995   2.057 202.689  0.00  0.00     0.002 C 
ATOM      6  C1  6BN d   1      30.037   6.225 205.212  0.00  0.00     0.093 A 
ATOM      7  C2  6BN d   1      29.126   6.241 204.170  0.00  0.00    -0.028 A 
ATOM      8  C3  6BN d   1      29.302   5.345 203.133  0.00  0.00     0.044 A 
ATOM      9 CL7  6BN d   1      32.109   5.249 206.598  0.00  0.00    -0.080 Cl
ATOM     10  N9  6BN d   1      32.262   2.379 203.364  0.00  0.00    -0.343 N 
ATOM     11  C11 6BN d   1      30.394   3.302 202.075  0.00  0.00    -0.023 C 
ATOM     12  O23 6BN d   1      33.608   3.946 204.338  0.00  0.00    -0.267 OA
ATOM     13 CL   6BN d   1      28.139   5.368 201.848  0.00  0.00    -0.084 Cl
ATOM     14  H1  6BN d   1      30.290   1.638 203.422  0.00  0.00     0.064 H 
ATOM     15  H2  6BN d   1      31.184   1.317 201.897  0.00  0.00     0.064 H 
ATOM     16  H15 6BN d   1      28.296   6.938 204.168  0.00  0.00     0.090 H 
ATOM     17  H16 6BN d   1      31.002   3.610 201.211  0.00  0.00     0.042 H 
ATOM     18  H17 6BN d   1      29.368   3.084 201.743  0.00  0.00     0.042 H 
ENDROOT
BRANCH   6  19
ATOM     19  O25 6BN d   1      30.028   7.116 206.246  0.00  0.00    -0.344 OA
BRANCH  19  20
ATOM     20  C26 6BN d   1      29.139   8.248 206.325  0.00  0.00     0.048 C 
ATOM     21  C27 6BN d   1      29.880   9.413 205.700  0.00  0.00    -0.025 C 
ATOM     22  C28 6BN d   1      29.154  10.709 205.993  0.00  0.00    -0.000 C 
ATOM     23  H21 6BN d   1      29.937   9.266 204.611  0.00  0.00     0.039 H 
ATOM     24  H22 6BN d   1      30.897   9.463 206.117  0.00  0.00     0.039 H 
ATOM     25  N29 6BN d   1      28.926  10.896 207.438  0.00  0.00    -0.350 N 
ATOM     26  H13 6BN d   1      28.182  10.697 205.478  0.00  0.00     0.064 H 
ATOM     27  H14 6BN d   1      29.758  11.548 205.617  0.00  0.00     0.064 H 
ATOM     28  C30 6BN d   1      28.210   9.769 208.057  0.00  0.00    -0.000 C 
ATOM     29  C32 6BN d   1      29.168  11.994 208.193  0.00  0.00     0.248 C 
ATOM     30  C31 6BN d   1      28.924   8.454 207.807  0.00  0.00    -0.025 C 
ATOM     31  H23 6BN d   1      27.197   9.712 207.632  0.00  0.00     0.064 H 
ATOM     32  H24 6BN d   1      28.144   9.940 209.142  0.00  0.00     0.064 H 
ATOM     33  H25 6BN d   1      29.899   8.468 208.317  0.00  0.00     0.039 H 
ATOM     34  H26 6BN d   1      28.314   7.629 208.203  0.00  0.00     0.039 H 
ATOM     35  O36 6BN d   1      28.982  11.994 209.396  0.00  0.00    -0.270 OA
ATOM     36  H12 6BN d   1      28.186   8.068 205.806  0.00  0.00     0.084 H 
BRANCH  29  37
ATOM     37  C33 6BN d   1      29.689  13.276 207.565  0.00  0.00     0.109 C 
ATOM     38  H27 6BN d   1      30.651  13.083 207.068  0.00  0.00     0.097 H 
BRANCH  37  39
ATOM     39  C34 6BN d   1      28.700  13.824 206.560  0.00  0.00    -0.044 C 
ATOM     40  H28 6BN d   1      29.099  14.750 206.120  0.00  0.00     0.031 H 
ATOM     41  H29 6BN d   1      27.746  14.039 207.064  0.00  0.00     0.031 H 
ATOM     42  H30 6BN d   1      28.536  13.082 205.765  0.00  0.00     0.031 H 
ENDBRANCH  37  39
BRANCH  37  43
ATOM     43  O35 6BN d   1      29.855  14.227 208.605  0.00  0.00    -0.387 OA
ATOM     44  H31 6BN d   1      30.475  13.893 209.243  0.00  0.00     0.210 HD
ENDBRANCH  37  43
ENDBRANCH  29  37
ENDBRANCH  19  20
ENDBRANCH   6  19
BRANCH  10  45
ATOM     45  C12 6BN d   1      33.366   1.458 203.149  0.00  0.00     0.027 C 
ATOM     46  H18 6BN d   1      33.537   1.345 202.068  0.00  0.00     0.072 H 
ATOM     47  H19 6BN d   1      34.272   1.863 203.624  0.00  0.00     0.072 H 
BRANCH  45  48
ATOM     48  C13 6BN d   1      33.055   0.108 203.745  0.00  0.00     0.034 A 
ATOM     49  C14 6BN d   1      33.058  -0.131 205.097  0.00  0.00    -0.043 A 
ATOM     50  C15 6BN d   1      32.663  -1.440 205.551  0.00  0.00    -0.055 A 
ATOM     51  C16 6BN d   1      32.307  -2.418 204.672  0.00  0.00     0.009 A 
ATOM     52  H3  6BN d   1      32.649  -1.652 206.619  0.00  0.00     0.087 H 
ATOM     53  N17 6BN d   1      32.331  -2.154 203.329  0.00  0.00    -0.327 N 
ATOM     54  C18 6BN d   1      32.685  -0.929 202.782  0.00  0.00     0.254 A 
ATOM     55  H20 6BN d   1      32.077  -2.891 202.702  0.00  0.00     0.169 HD
ATOM     56  O19 6BN d   1      32.626  -0.773 201.555  0.00  0.00    -0.268 OA
BRANCH  49  57
ATOM     57  C21 6BN d   1      33.455   0.882 206.148  0.00  0.00    -0.043 C 
ATOM     58  H7  6BN d   1      34.537   1.055 206.054  0.00  0.00     0.039 H 
ATOM     59  H8  6BN d   1      32.914   1.816 205.934  0.00  0.00     0.039 H 
BRANCH  57  60
ATOM     60  C22 6BN d   1      33.168   0.500 207.607  0.00  0.00    -0.073 C 
ATOM     61  H9  6BN d   1      33.499   1.312 208.271  0.00  0.00     0.028 H 
ATOM     62  H10 6BN d   1      33.711  -0.423 207.858  0.00  0.00     0.028 H 
ATOM     63  H11 6BN d   1      32.088   0.337 207.738  0.00  0.00     0.028 H 
ENDBRANCH  57  60
ENDBRANCH  49  57
BRANCH  51  64
ATOM     64  C20 6BN d   1      31.881  -3.793 205.073  0.00  0.00    -0.037 C 
ATOM     65  H4  6BN d   1      31.650  -4.382 204.173  0.00  0.00     0.035 H 
ATOM     66  H5  6BN d   1      30.986  -3.729 205.709  0.00  0.00     0.035 H 
ATOM     67  H6  6BN d   1      32.694  -4.280 205.631  0.00  0.00     0.035 H 
ENDBRANCH  51  64
ENDBRANCH  45  48
ENDBRANCH  10  45
TORSDOF 10
