REMARK  12 active torsions:
REMARK  status: ('A' for Active; 'I' for Inactive)
REMARK    1  A    between atoms: P4_2  and  O14_5 
REMARK    2  A    between atoms: O14_5  and  C4_6 
REMARK    3  A    between atoms: C3_7  and  O13_8 
REMARK    4  A    between atoms: O13_8  and  P3_9 
REMARK    5  A    between atoms: C5_13  and  O15_14 
REMARK    6  A    between atoms: O15_14  and  P5_15 
REMARK    7  A    between atoms: C6_19  and  O16_20 
REMARK    8  A    between atoms: O16_20  and  P6_21 
REMARK    9  A    between atoms: C1_25  and  O11_26 
REMARK   10  A    between atoms: O11_26  and  P1_27 
REMARK   11  A    between atoms: C2_31  and  O12_32 
REMARK   12  A    between atoms: O12_32  and  P2_33 
ROOT
ATOM      1  C4  I6P d   1     -17.293  -7.893  38.205  0.00  0.00     0.107 C 
ATOM      2  C3  I6P d   1     -16.519  -7.513  36.961  0.00  0.00     0.107 C 
ATOM      3  C5  I6P d   1     -17.523  -6.794  39.227  0.00  0.00     0.107 C 
ATOM      4  C6  I6P d   1     -17.006  -5.387  39.018  0.00  0.00     0.107 C 
ATOM      5  C1  I6P d   1     -16.062  -5.186  37.853  0.00  0.00     0.107 C 
ATOM      6  C2  I6P d   1     -16.377  -6.040  36.635  0.00  0.00     0.107 C 
ATOM      7  H1  I6P d   1     -18.286  -8.233  37.875  0.00  0.00     0.092 H 
ATOM      8  H2  I6P d   1     -15.511  -7.949  37.017  0.00  0.00     0.092 H 
ATOM      9  H3  I6P d   1     -17.263  -7.158  40.232  0.00  0.00     0.092 H 
ATOM     10  H4  I6P d   1     -17.881  -4.754  38.811  0.00  0.00     0.092 H 
ATOM     11  H5  I6P d   1     -15.019  -5.362  38.154  0.00  0.00     0.092 H 
ATOM     12  H6  I6P d   1     -15.570  -5.917  35.898  0.00  0.00     0.092 H 
ENDROOT
BRANCH   1  13
ATOM     13  O14 I6P d   1     -16.627  -8.982  38.825  0.00  0.00    -0.272 OA
BRANCH  13  14
ATOM     14  P4  I6P d   1     -17.415 -10.137  39.652  0.00  0.00     0.422 P 
ATOM     15  O44 I6P d   1     -16.348 -11.185  39.818  0.00  0.00    -0.617 OA
ATOM     16  O24 I6P d   1     -17.802  -9.523  40.985  0.00  0.00    -0.617 OA
ATOM     17  O34 I6P d   1     -18.575 -10.480  38.711  0.00  0.00    -0.617 OA
ENDBRANCH  13  14
ENDBRANCH   1  13
BRANCH   2  18
ATOM     18  O13 I6P d   1     -17.282  -8.118  35.933  0.00  0.00    -0.272 OA
BRANCH  18  19
ATOM     19  P3  I6P d   1     -16.861  -9.435  35.095  0.00  0.00     0.422 P 
ATOM     20  O43 I6P d   1     -18.112 -10.291  35.015  0.00  0.00    -0.617 OA
ATOM     21  O33 I6P d   1     -15.838 -10.125  35.956  0.00  0.00    -0.617 OA
ATOM     22  O23 I6P d   1     -16.452  -8.740  33.799  0.00  0.00    -0.617 OA
ENDBRANCH  18  19
ENDBRANCH   2  18
BRANCH   3  23
ATOM     23  O15 I6P d   1     -18.884  -6.509  39.028  0.00  0.00    -0.272 OA
BRANCH  23  24
ATOM     24  P5  I6P d   1     -19.980  -6.714  40.146  0.00  0.00     0.422 P 
ATOM     25  O45 I6P d   1     -19.793  -8.199  40.378  0.00  0.00    -0.617 OA
ATOM     26  O35 I6P d   1     -21.178  -6.199  39.336  0.00  0.00    -0.617 OA
ATOM     27  O25 I6P d   1     -19.524  -5.886  41.316  0.00  0.00    -0.617 OA
ENDBRANCH  23  24
ENDBRANCH   3  23
BRANCH   6  28
ATOM     28  O12 I6P d   1     -17.592  -5.593  36.088  0.00  0.00    -0.272 OA
BRANCH  28  29
ATOM     29  P2  I6P d   1     -17.845  -4.992  34.597  0.00  0.00     0.422 P 
ATOM     30  O22 I6P d   1     -17.525  -3.529  34.666  0.00  0.00    -0.617 OA
ATOM     31  O32 I6P d   1     -16.998  -5.777  33.609  0.00  0.00    -0.617 OA
ATOM     32  O42 I6P d   1     -19.315  -5.291  34.415  0.00  0.00    -0.617 OA
ENDBRANCH  28  29
ENDBRANCH   6  28
BRANCH   4  33
ATOM     33  O16 I6P d   1     -16.436  -4.949  40.248  0.00  0.00    -0.272 OA
BRANCH  33  34
ATOM     34  P6  I6P d   1     -17.129  -3.922  41.287  0.00  0.00     0.422 P 
ATOM     35  O46 I6P d   1     -18.520  -3.598  40.769  0.00  0.00    -0.617 OA
ATOM     36  O36 I6P d   1     -16.208  -2.711  41.259  0.00  0.00    -0.617 OA
ATOM     37  O26 I6P d   1     -17.078  -4.824  42.500  0.00  0.00    -0.617 OA
ENDBRANCH  33  34
ENDBRANCH   4  33
BRANCH   5  38
ATOM     38  O11 I6P d   1     -16.311  -3.811  37.572  0.00  0.00    -0.272 OA
BRANCH  38  39
ATOM     39  P1  I6P d   1     -15.267  -2.661  37.201  0.00  0.00     0.422 P 
ATOM     40  O41 I6P d   1     -16.073  -1.422  37.518  0.00  0.00    -0.617 OA
ATOM     41  O31 I6P d   1     -14.113  -2.901  38.158  0.00  0.00    -0.617 OA
ATOM     42  O21 I6P d   1     -14.955  -2.834  35.714  0.00  0.00    -0.617 OA
ENDBRANCH  38  39
ENDBRANCH   5  38
TORSDOF 12
