REMARK  12 active torsions:
REMARK  status: ('A' for Active; 'I' for Inactive)
REMARK    1  A    between atoms: P4_2  and  O14_5 
REMARK    2  A    between atoms: O14_5  and  C4_6 
REMARK    3  A    between atoms: C3_7  and  O13_8 
REMARK    4  A    between atoms: O13_8  and  P3_9 
REMARK    5  A    between atoms: C5_13  and  O15_14 
REMARK    6  A    between atoms: O15_14  and  P5_15 
REMARK    7  A    between atoms: C6_19  and  O16_20 
REMARK    8  A    between atoms: O16_20  and  P6_21 
REMARK    9  A    between atoms: C1_25  and  O11_26 
REMARK   10  A    between atoms: O11_26  and  P1_27 
REMARK   11  A    between atoms: C2_31  and  O12_32 
REMARK   12  A    between atoms: O12_32  and  P2_33 
ROOT
ATOM      1  C4  I6P d   1     -17.925  -7.825  12.307  0.00  0.00     0.107 C 
ATOM      2  C3  I6P d   1     -16.863  -7.466  11.277  0.00  0.00     0.107 C 
ATOM      3  C5  I6P d   1     -18.419  -6.594  13.054  0.00  0.00     0.107 C 
ATOM      4  C6  I6P d   1     -18.922  -5.526  12.093  0.00  0.00     0.107 C 
ATOM      5  C1  I6P d   1     -17.857  -5.161  11.068  0.00  0.00     0.107 C 
ATOM      6  C2  I6P d   1     -17.341  -6.383  10.319  0.00  0.00     0.107 C 
ATOM      7  H1  I6P d   1     -18.773  -8.313  11.805  0.00  0.00     0.092 H 
ATOM      8  H2  I6P d   1     -15.960  -7.115  11.797  0.00  0.00     0.092 H 
ATOM      9  H3  I6P d   1     -17.604  -6.183  13.667  0.00  0.00     0.092 H 
ATOM     10  H4  I6P d   1     -19.822  -5.890  11.576  0.00  0.00     0.092 H 
ATOM     11  H5  I6P d   1     -17.016  -4.673  11.582  0.00  0.00     0.092 H 
ATOM     12  H6  I6P d   1     -16.500  -6.078   9.680  0.00  0.00     0.092 H 
ENDROOT
BRANCH   1  13
ATOM     13  O14 I6P d   1     -17.329  -8.725  13.265  0.00  0.00    -0.272 OA
BRANCH  13  14
ATOM     14  P4  I6P d   1     -17.913 -10.087  13.934  0.00  0.00     0.422 P 
ATOM     15  O44 I6P d   1     -16.811 -10.851  14.591  0.00  0.00    -0.617 OA
ATOM     16  O24 I6P d   1     -18.993  -9.638  14.921  0.00  0.00    -0.617 OA
ATOM     17  O34 I6P d   1     -18.587 -10.872  12.804  0.00  0.00    -0.617 OA
ENDBRANCH  13  14
ENDBRANCH   1  13
BRANCH   2  18
ATOM     18  O13 I6P d   1     -16.559  -8.650  10.509  0.00  0.00    -0.272 OA
BRANCH  18  19
ATOM     19  P3  I6P d   1     -15.100  -9.376  10.370  0.00  0.00     0.422 P 
ATOM     20  O43 I6P d   1     -15.057 -10.440  11.469  0.00  0.00    -0.617 OA
ATOM     21  O33 I6P d   1     -13.983  -8.386  10.480  0.00  0.00    -0.617 OA
ATOM     22  O23 I6P d   1     -15.119 -10.095   9.018  0.00  0.00    -0.617 OA
ENDBRANCH  18  19
ENDBRANCH   2  18
BRANCH   3  23
ATOM     23  O15 I6P d   1     -19.522  -6.997  13.894  0.00  0.00    -0.272 OA
BRANCH  23  24
ATOM     24  P5  I6P d   1     -20.125  -6.458  15.274  0.00  0.00     0.422 P 
ATOM     25  O45 I6P d   1     -19.322  -5.208  15.664  0.00  0.00    -0.617 OA
ATOM     26  O35 I6P d   1     -20.067  -7.529  16.313  0.00  0.00    -0.617 OA
ATOM     27  O25 I6P d   1     -21.558  -6.020  14.960  0.00  0.00    -0.617 OA
ENDBRANCH  23  24
ENDBRANCH   3  23
BRANCH   6  28
ATOM     28  O12 I6P d   1     -18.399  -6.916   9.493  0.00  0.00    -0.272 OA
BRANCH  28  29
ATOM     29  P2  I6P d   1     -18.420  -7.257   7.917  0.00  0.00     0.422 P 
ATOM     30  O22 I6P d   1     -19.248  -6.253   7.197  0.00  0.00    -0.617 OA
ATOM     31  O32 I6P d   1     -16.968  -7.289   7.428  0.00  0.00    -0.617 OA
ATOM     32  O42 I6P d   1     -18.979  -8.673   7.811  0.00  0.00    -0.617 OA
ENDBRANCH  28  29
ENDBRANCH   6  28
BRANCH   4  33
ATOM     33  O16 I6P d   1     -19.231  -4.342  12.858  0.00  0.00    -0.272 OA
BRANCH  33  34
ATOM     34  P6  I6P d   1     -20.550  -3.443  12.961  0.00  0.00     0.422 P 
ATOM     35  O46 I6P d   1     -21.743  -4.349  12.627  0.00  0.00    -0.617 OA
ATOM     36  O36 I6P d   1     -20.431  -2.387  11.858  0.00  0.00    -0.617 OA
ATOM     37  O26 I6P d   1     -20.651  -2.841  14.324  0.00  0.00    -0.617 OA
ENDBRANCH  33  34
ENDBRANCH   4  33
BRANCH   5  38
ATOM     38  O11 I6P d   1     -18.438  -4.251  10.110  0.00  0.00    -0.272 OA
BRANCH  38  39
ATOM     39  P1  I6P d   1     -17.689  -2.944   9.426  0.00  0.00     0.422 P 
ATOM     40  O41 I6P d   1     -18.184  -2.892   7.978  0.00  0.00    -0.617 OA
ATOM     41  O31 I6P d   1     -18.016  -1.705  10.191  0.00  0.00    -0.617 OA
ATOM     42  O21 I6P d   1     -16.183  -3.240   9.396  0.00  0.00    -0.617 OA
ENDBRANCH  38  39
ENDBRANCH   5  38
TORSDOF 12
