REMARK  10 active torsions:
REMARK  status: ('A' for Active; 'I' for Inactive)
REMARK    1  A    between atoms: CAA_1  and  OAP_2 
REMARK    2  A    between atoms: OAP_2  and  CAR_3 
REMARK    3  A    between atoms: CAR_3  and  CAZ_5 
REMARK    4  A    between atoms: CAT_6  and  OAD_7 
REMARK    5  A    between atoms: CAS_9  and  OAC_10 
REMARK    6  A    between atoms: CAY_13  and  CAM_14 
REMARK    7  A    between atoms: CAM_14  and  CAL_15 
REMARK    8  A    between atoms: CAL_15  and  CAX_16 
REMARK    9  A    between atoms: NBA_20  and  CAN_21 
REMARK   10  A    between atoms: CAN_21  and  CAV_22 
ROOT
ATOM      1  CAM 6C0 d   1      55.623-118.378 102.817  0.00  0.00    -0.032 C 
ATOM      2  H7  6C0 d   1      56.629-118.019 102.553  0.00  0.00     0.040 H 
ATOM      3  H8  6C0 d   1      55.704-119.342 103.341  0.00  0.00     0.040 H 
ENDROOT
BRANCH   1   4
ATOM      4  CAY 6C0 d   1      54.855-118.629 101.494  0.00  0.00    -0.015 A 
ATOM      5  CAZ 6C0 d   1      55.489-118.432 100.226  0.00  0.00     0.066 A 
ATOM      6  CAT 6C0 d   1      54.767-118.669  99.069  0.00  0.00     0.084 A 
ATOM      7  CAK 6C0 d   1      53.485-119.100  99.123  0.00  0.00    -0.016 A 
ATOM      8  CAS 6C0 d   1      52.866-119.305 100.372  0.00  0.00     0.090 A 
ATOM      9  H5  6C0 d   1      52.936-119.287  98.207  0.00  0.00     0.092 H 
ATOM     10  CAW 6C0 d   1      53.564-119.066 101.530  0.00  0.00     0.074 A 
ATOM     11 CL1  6C0 d   1      52.749-119.338 103.049  0.00  0.00    -0.081 Cl
BRANCH   5  12
ATOM     12  CAR 6C0 d   1      57.002-117.903 100.067  0.00  0.00     0.228 C 
ATOM     13  OAB 6C0 d   1      57.861-118.551  99.139  0.00  0.00    -0.163 OA
BRANCH  12  14
ATOM     14  OAP 6C0 d   1      57.385-116.954 100.681  0.00  0.00    -0.333 OA
BRANCH  14  15
ATOM     15  CAA 6C0 d   1      58.726-116.435 100.554  0.00  0.00     0.012 C 
ATOM     16  H1  6C0 d   1      58.846-115.563 101.213  0.00  0.00     0.067 H 
ATOM     17  H2  6C0 d   1      58.905-116.134  99.511  0.00  0.00     0.067 H 
ATOM     18  H3  6C0 d   1      59.449-117.213 100.841  0.00  0.00     0.067 H 
ENDBRANCH  14  15
ENDBRANCH  12  14
ENDBRANCH   5  12
BRANCH   6  19
ATOM     19  OAD 6C0 d   1      55.359-118.475  97.870  0.00  0.00    -0.360 OA
ATOM     20  H4  6C0 d   1      54.742-118.678  97.177  0.00  0.00     0.217 HD
ENDBRANCH   6  19
BRANCH   8  21
ATOM     21  OAC 6C0 d   1      51.524-119.765 100.456  0.00  0.00    -0.359 OA
ATOM     22  H6  6C0 d   1      50.950-119.144 100.023  0.00  0.00     0.217 HD
ENDBRANCH   8  21
ENDBRANCH   1   4
BRANCH   1  23
ATOM     23  CAL 6C0 d   1      55.020-117.377 103.791  0.00  0.00    -0.006 C 
ATOM     24  H9  6C0 d   1      54.265-117.867 104.424  0.00  0.00     0.045 H 
ATOM     25  H10 6C0 d   1      54.554-116.544 103.243  0.00  0.00     0.045 H 
BRANCH  23  26
ATOM     26  CAX 6C0 d   1      56.158-116.876 104.631  0.00  0.00     0.106 A 
ATOM     27  NAO 6C0 d   1      57.347-116.531 104.076  0.00  0.00    -0.246 NA
ATOM     28  CAG 6C0 d   1      58.190-116.120 105.077  0.00  0.00     0.019 A 
ATOM     29  CAJ 6C0 d   1      57.427-116.251 106.277  0.00  0.00    -0.002 A 
ATOM     30  H11 6C0 d   1      59.217-115.770 104.978  0.00  0.00     0.117 H 
ATOM     31  NBA 6C0 d   1      56.172-116.732 105.974  0.00  0.00    -0.338 N 
ATOM     32  H12 6C0 d   1      57.782-116.008 107.277  0.00  0.00     0.113 H 
BRANCH  31  33
ATOM     33  CAN 6C0 d   1      55.112-117.004 106.866  0.00  0.00     0.045 C 
ATOM     34  H13 6C0 d   1      54.869-118.076 106.813  0.00  0.00     0.075 H 
ATOM     35  H14 6C0 d   1      54.234-116.414 106.565  0.00  0.00     0.075 H 
BRANCH  33  36
ATOM     36  CAV 6C0 d   1      55.480-116.643 108.341  0.00  0.00     0.073 A 
ATOM     37  OAQ 6C0 d   1      56.717-116.472 108.806  0.00  0.00    -0.301 OA
ATOM     38  CAU 6C0 d   1      56.750-116.157 110.146  0.00  0.00     0.145 A 
ATOM     39 CL2  6C0 d   1      58.264-115.865 111.058  0.00  0.00    -0.057 Cl
ATOM     40  CAH 6C0 d   1      55.372-116.121 110.634  0.00  0.00    -0.036 A 
ATOM     41  CAI 6C0 d   1      54.531-116.433 109.480  0.00  0.00    -0.049 A 
ATOM     42  H15 6C0 d   1      55.041-115.906 111.649  0.00  0.00     0.089 H 
ATOM     43  H16 6C0 d   1      53.444-116.499 109.454  0.00  0.00     0.087 H 
ENDBRANCH  33  36
ENDBRANCH  31  33
ENDBRANCH  23  26
ENDBRANCH   1  23
TORSDOF 10
