REMARK WARNING: 32 MAX_TORS EXCEEDED!!!
REMARK  38 active torsions:
REMARK  status: ('A' for Active; 'I' for Inactive)
REMARK    1  A    between atoms: C_1  and  CH3_3 
REMARK       I    between atoms: C_1  and  N_4 
REMARK    2  A    between atoms: N_4  and  CA_5 
REMARK    3  A    between atoms: CA_5  and  C_6 
REMARK    4  A    between atoms: CA_5  and  CB_8 
REMARK       I    between atoms: C_6  and  N_13 
REMARK    5  A    between atoms: CB_8  and  CG_9 
REMARK    6  A    between atoms: CG_9  and  CD_10 
REMARK       I    between atoms: CD_10  and  NE2_12 
REMARK    7  A    between atoms: N_13  and  CA_14 
REMARK    8  A    between atoms: CA_14  and  C_15 
REMARK    9  A    between atoms: CA_14  and  CB_17 
REMARK       I    between atoms: C_15  and  N_20 
REMARK   10  A    between atoms: CB_17  and  OG1_18 
REMARK   11  A    between atoms: CB_17  and  CG2_19 
REMARK   12  A    between atoms: N_20  and  CA_21 
REMARK   13  A    between atoms: CA_21  and  C_22 
REMARK   14  A    between atoms: CA_21  and  CB_24 
REMARK       I    between atoms: C_22  and  N_25 
REMARK   15  A    between atoms: N_25  and  CA_26 
REMARK   16  A    between atoms: CA_26  and  C_27 
REMARK   17  A    between atoms: CA_26  and  CB_29 
REMARK       I    between atoms: C_27  and  N_36 
REMARK   18  A    between atoms: CB_29  and  CG_30 
REMARK   19  A    between atoms: CG_30  and  CD_31 
REMARK   20  A    between atoms: CD_31  and  NE_32 
REMARK       I    between atoms: NE_32  and  CZ_33 
REMARK       I    between atoms: CZ_33  and  NH1_34 
REMARK   21  A    between atoms: N_36  and  CA_37 
REMARK   22  A    between atoms: CA_37  and  CB_38 
REMARK   23  A    between atoms: CA_37  and  C_48 
REMARK   24  A    between atoms: CB_38  and  CG_39 
REMARK   25  A    between atoms: CG_39  and  CD_40 
REMARK   26  A    between atoms: CD_40  and  CE_41 
REMARK   27  A    between atoms: CE_41  and  NZ_42 
REMARK       I    between atoms: NZ_42  and  CH_43 
REMARK   28  A    between atoms: CH_43  and  CX_45 
REMARK   29  A    between atoms: CY_46  and  CH3_47 
REMARK       I    between atoms: C_48  and  N_50 
REMARK   30  A    between atoms: N_50  and  CA_51 
REMARK   31  A    between atoms: CA_51  and  C_52 
REMARK   32  A    between atoms: CA_51  and  CB_54 
REMARK       I    between atoms: C_52  and  N_56 
REMARK   33  A    between atoms: CB_54  and  OG_55 
REMARK   34  A    between atoms: N_56  and  CA_57 
REMARK   35  A    between atoms: CA_57  and  C_58 
REMARK   36  A    between atoms: CA_57  and  CB_60 
REMARK   37  A    between atoms: CB_60  and  OG1_61 
REMARK   38  A    between atoms: CB_60  and  CG2_62 
ROOT
ATOM      1  CA  ARG d   1      39.130  27.714  -9.248  0.00  0.00     0.089 C 
ATOM      2  H25 ARG d   1      39.397  27.279  -8.274  0.00  0.00     0.087 H 
ENDROOT
BRANCH   1   3
ATOM      3  N   ARG d   1      38.088  28.717  -9.014  0.00  0.00    -0.346 N 
ATOM      4  C   ALA d   1      37.313  28.715  -7.927  0.00  0.00     0.240 C 
ATOM      5  O   ALA d   1      37.409  27.869  -7.042  0.00  0.00    -0.271 OA
ATOM      6  H24 ARG d   1      37.952  29.434  -9.698  0.00  0.00     0.163 HD
BRANCH   4   7
ATOM      7  CA  ALA d   1      36.255  29.833  -7.836  0.00  0.00     0.086 C 
ATOM      8  H20 ALA d   1      36.236  30.357  -8.803  0.00  0.00     0.086 H 
BRANCH   7   9
ATOM      9  N   ALA d   1      34.911  29.305  -7.584  0.00  0.00    -0.346 N 
ATOM     10  C   THR d   1      34.337  28.439  -8.419  0.00  0.00     0.243 C 
ATOM     11  O   THR d   1      34.876  28.048  -9.460  0.00  0.00    -0.271 OA
ATOM     12  H19 ALA d   1      34.414  29.601  -6.768  0.00  0.00     0.163 HD
BRANCH  10  13
ATOM     13  CA  THR d   1      32.946  27.928  -8.046  0.00  0.00     0.113 C 
ATOM     14  H13 THR d   1      33.034  26.870  -7.756  0.00  0.00     0.091 H 
BRANCH  13  15
ATOM     15  N   THR d   1      32.357  28.642  -6.911  0.00  0.00    -0.344 N 
ATOM     16  C   GLN d   1      32.400  28.123  -5.685  0.00  0.00     0.241 C 
ATOM     17  O   GLN d   1      32.894  27.010  -5.445  0.00  0.00    -0.271 OA
ATOM     18  H12 THR d   1      31.918  29.528  -7.058  0.00  0.00     0.163 HD
BRANCH  16  19
ATOM     19  CA  GLN d   1      31.831  28.981  -4.547  0.00  0.00     0.089 C 
ATOM     20  H5  GLN d   1      32.510  28.878  -3.688  0.00  0.00     0.087 H 
BRANCH  19  21
ATOM     21  N   GLN d   1      31.748  30.406  -4.873  0.00  0.00    -0.348 N 
ATOM     22  C   ACE d   1      32.839  31.156  -4.994  0.00  0.00     0.214 C 
ATOM     23  O   ACE d   1      33.981  30.703  -4.895  0.00  0.00    -0.274 OA
ATOM     24  H4  GLN d   1      30.850  30.825  -5.008  0.00  0.00     0.163 HD
BRANCH  22  25
ATOM     25  CH3 ACE d   1      32.612  32.630  -5.282  0.00  0.00    -0.003 C 
ATOM     26  H1  ACE d   1      31.532  32.832  -5.332  0.00  0.00     0.040 H 
ATOM     27  H2  ACE d   1      33.078  32.892  -6.243  0.00  0.00     0.040 H 
ATOM     28  H3  ACE d   1      33.061  33.234  -4.480  0.00  0.00     0.040 H 
ENDBRANCH  22  25
ENDBRANCH  19  21
BRANCH  19  29
ATOM     29  CB  GLN d   1      30.454  28.464  -4.128  0.00  0.00    -0.030 C 
ATOM     30  H6  GLN d   1      30.501  27.369  -4.030  0.00  0.00     0.037 H 
ATOM     31  H7  GLN d   1      29.723  28.732  -4.905  0.00  0.00     0.037 H 
BRANCH  29  32
ATOM     32  CG  GLN d   1      29.995  29.058  -2.795  0.00  0.00     0.011 C 
ATOM     33  H8  GLN d   1      30.103  30.152  -2.844  0.00  0.00     0.047 H 
ATOM     34  H9  GLN d   1      30.639  28.662  -1.996  0.00  0.00     0.047 H 
BRANCH  32  35
ATOM     35  CD  GLN d   1      28.548  28.730  -2.457  0.00  0.00     0.215 C 
ATOM     36  OE1 GLN d   1      28.275  27.854  -1.625  0.00  0.00    -0.274 OA
ATOM     37  NE2 GLN d   1      27.609  29.436  -3.095  0.00  0.00    -0.370 N 
ATOM     38  H10 GLN d   1      26.642  29.262  -2.911  0.00  0.00     0.159 HD
ATOM     39  H11 GLN d   1      27.874  30.138  -3.756  0.00  0.00     0.159 HD
ENDBRANCH  32  35
ENDBRANCH  29  32
ENDBRANCH  19  29
ENDBRANCH  16  19
ENDBRANCH  13  15
BRANCH  13  40
ATOM     40  CB  THR d   1      32.067  28.014  -9.315  0.00  0.00     0.060 C 
ATOM     41  H14 THR d   1      32.541  27.423 -10.113  0.00  0.00     0.086 H 
BRANCH  40  42
ATOM     42  OG1 THR d   1      31.969  29.377  -9.741  0.00  0.00    -0.393 OA
ATOM     43  H15 THR d   1      31.576  29.896  -9.049  0.00  0.00     0.210 HD
ENDBRANCH  40  42
BRANCH  40  44
ATOM     44  CG2 THR d   1      30.672  27.453  -9.054  0.00  0.00    -0.050 C 
ATOM     45  H16 THR d   1      30.070  27.527  -9.972  0.00  0.00     0.031 H 
ATOM     46  H17 THR d   1      30.189  28.029  -8.251  0.00  0.00     0.031 H 
ATOM     47  H18 THR d   1      30.752  26.398  -8.751  0.00  0.00     0.031 H 
ENDBRANCH  40  44
ENDBRANCH  13  40
ENDBRANCH  10  13
ENDBRANCH   7   9
BRANCH   7  48
ATOM     48  CB  ALA d   1      36.632  30.844  -6.754  0.00  0.00    -0.049 C 
ATOM     49  H21 ALA d   1      37.641  31.234  -6.952  0.00  0.00     0.030 H 
ATOM     50  H22 ALA d   1      36.616  30.352  -5.771  0.00  0.00     0.030 H 
ATOM     51  H23 ALA d   1      35.910  31.674  -6.761  0.00  0.00     0.030 H 
ENDBRANCH   7  48
ENDBRANCH   4   7
ENDBRANCH   1   3
BRANCH   1  52
ATOM     52  C   ARG d   1      40.403  28.299  -9.869  0.00  0.00     0.241 C 
ATOM     53  O   ARG d   1      40.354  29.317 -10.546  0.00  0.00    -0.271 OA
ATOM     54  N   KCR d   1      41.528  27.619  -9.648  0.00  0.00    -0.346 N 
ATOM     55  H37 KCR d   1      41.473  26.791  -9.090  0.00  0.00     0.163 HD
BRANCH  54  56
ATOM     56  CA  KCR d   1      42.807  27.999 -10.158  0.00  0.00     0.089 C 
ATOM     57  H38 KCR d   1      42.848  29.091 -10.280  0.00  0.00     0.087 H 
BRANCH  56  58
ATOM     58  CB  KCR d   1      43.882  27.501  -9.206  0.00  0.00    -0.038 C 
ATOM     59  H39 KCR d   1      44.870  27.753  -9.618  0.00  0.00     0.036 H 
ATOM     60  H40 KCR d   1      43.794  26.409  -9.106  0.00  0.00     0.036 H 
BRANCH  58  61
ATOM     61  CG  KCR d   1      43.740  28.138  -7.831  0.00  0.00    -0.061 C 
ATOM     62  H41 KCR d   1      42.874  27.703  -7.311  0.00  0.00     0.033 H 
ATOM     63  H42 KCR d   1      43.596  29.223  -7.940  0.00  0.00     0.033 H 
BRANCH  61  64
ATOM     64  CD  KCR d   1      45.009  27.869  -7.025  0.00  0.00    -0.050 C 
ATOM     65  H43 KCR d   1      45.868  28.376  -7.489  0.00  0.00     0.035 H 
ATOM     66  H44 KCR d   1      45.205  26.788  -6.975  0.00  0.00     0.035 H 
BRANCH  64  67
ATOM     67  CE  KCR d   1      44.763  28.423  -5.628  0.00  0.00    -0.004 C 
ATOM     68  H45 KCR d   1      44.309  27.635  -5.009  0.00  0.00     0.064 H 
ATOM     69  H46 KCR d   1      44.072  29.276  -5.701  0.00  0.00     0.064 H 
BRANCH  67  70
ATOM     70  NZ  KCR d   1      45.985  28.866  -4.996  0.00  0.00    -0.358 N 
ATOM     71  CH  KCR d   1      45.881  29.719  -3.835  0.00  0.00     0.240 C 
ATOM     72  OH  KCR d   1      44.786  30.048  -3.413  0.00  0.00    -0.269 OA
ATOM     73  H47 KCR d   1      46.877  28.590  -5.353  0.00  0.00     0.162 HD
BRANCH  71  74
ATOM     74  CX  KCR d   1      47.161  30.196  -3.148  0.00  0.00    -0.022 C 
ATOM     75  CY  KCR d   1      47.132  30.819  -1.936  0.00  0.00    -0.102 C 
ATOM     76  H49 KCR d   1      46.191  30.997  -1.418  0.00  0.00     0.076 H 
ATOM     77  H48 KCR d   1      48.119  30.034  -3.639  0.00  0.00     0.091 H 
BRANCH  75  78
ATOM     78  CH3 KCR d   1      48.451  31.255  -1.333  0.00  0.00    -0.059 C 
ATOM     79  H50 KCR d   1      48.268  31.739  -0.362  0.00  0.00     0.032 H 
ATOM     80  H51 KCR d   1      48.946  31.967  -2.010  0.00  0.00     0.032 H 
ATOM     81  H52 KCR d   1      49.097  30.376  -1.189  0.00  0.00     0.032 H 
ENDBRANCH  75  78
ENDBRANCH  71  74
ENDBRANCH  67  70
ENDBRANCH  64  67
ENDBRANCH  61  64
ENDBRANCH  58  61
ENDBRANCH  56  58
BRANCH  56  82
ATOM     82  C   KCR d   1      43.150  27.295 -11.463  0.00  0.00     0.241 C 
ATOM     83  O   KCR d   1      42.387  26.406 -11.944  0.00  0.00    -0.271 OA
ATOM     84  N   SER d   1      44.306  27.648 -12.027  0.00  0.00    -0.344 N 
ATOM     85  H53 SER d   1      44.843  28.377 -11.602  0.00  0.00     0.163 HD
BRANCH  84  86
ATOM     86  CA  SER d   1      44.822  27.016 -13.240  0.00  0.00     0.109 C 
ATOM     87  H54 SER d   1      43.971  26.735 -13.877  0.00  0.00     0.090 H 
BRANCH  86  88
ATOM     88  C   SER d   1      45.611  25.749 -12.901  0.00  0.00     0.243 C 
ATOM     89  O   SER d   1      45.543  25.259 -11.778  0.00  0.00    -0.271 OA
ATOM     90  N   THR d   1      46.333  25.205 -13.879  0.00  0.00    -0.342 N 
ATOM     91  H58 THR d   1      46.218  25.550 -14.811  0.00  0.00     0.163 HD
BRANCH  90  92
ATOM     92  CA  THR d   1      47.293  24.116 -13.640  0.00  0.00     0.120 C 
ATOM     93  H59 THR d   1      47.598  24.152 -12.584  0.00  0.00     0.093 H 
BRANCH  92  94
ATOM     94  C   THR d   1      48.521  24.323 -14.517  0.00  0.00     0.199 C 
ATOM     95  O   THR d   1      48.470  25.101 -15.475  0.00  0.00    -0.646 OA
ATOM     96  OXT THR d   1      49.566  23.712 -14.269  0.00  0.00    -0.646 OA
ENDBRANCH  92  94
BRANCH  92  97
ATOM     97  CB  THR d   1      46.694  22.705 -13.927  0.00  0.00     0.061 C 
ATOM     98  H60 THR d   1      46.310  22.693 -14.958  0.00  0.00     0.086 H 
BRANCH  97  99
ATOM     99  OG1 THR d   1      45.602  22.432 -13.026  0.00  0.00    -0.393 OA
ATOM    100  H61 THR d   1      45.247  21.571 -13.212  0.00  0.00     0.210 HD
ENDBRANCH  97  99
BRANCH  97 101
ATOM    101  CG2 THR d   1      47.779  21.610 -13.794  0.00  0.00    -0.050 C 
ATOM    102  H62 THR d   1      47.334  20.626 -14.001  0.00  0.00     0.031 H 
ATOM    103  H63 THR d   1      48.188  21.621 -12.773  0.00  0.00     0.031 H 
ATOM    104  H64 THR d   1      48.587  21.805 -14.514  0.00  0.00     0.031 H 
ENDBRANCH  97 101
ENDBRANCH  92  97
ENDBRANCH  90  92
ENDBRANCH  86  88
BRANCH  86 105
ATOM    105  CB  SER d   1      45.702  28.005 -14.009  0.00  0.00     0.044 C 
ATOM    106  H55 SER d   1      46.108  27.507 -14.902  0.00  0.00     0.077 H 
ATOM    107  H56 SER d   1      46.530  28.328 -13.361  0.00  0.00     0.077 H 
BRANCH 105 108
ATOM    108  OG  SER d   1      44.953  29.148 -14.413  0.00  0.00    -0.398 OA
ATOM    109  H57 SER d   1      45.520  29.745 -14.887  0.00  0.00     0.209 HD
ENDBRANCH 105 108
ENDBRANCH  86 105
ENDBRANCH  84  86
ENDBRANCH  56  82
ENDBRANCH  54  56
ENDBRANCH   1  52
BRANCH   1 110
ATOM    110  CB  ARG d   1      38.609  26.595 -10.152  0.00  0.00    -0.036 C 
ATOM    111  H26 ARG d   1      39.424  25.873 -10.308  0.00  0.00     0.036 H 
ATOM    112  H27 ARG d   1      38.322  27.039 -11.117  0.00  0.00     0.036 H 
BRANCH 110 113
ATOM    113  CG  ARG d   1      37.413  25.844  -9.605  0.00  0.00    -0.048 C 
ATOM    114  H28 ARG d   1      36.559  26.533  -9.523  0.00  0.00     0.035 H 
ATOM    115  H29 ARG d   1      37.659  25.445  -8.610  0.00  0.00     0.035 H 
BRANCH 113 116
ATOM    116  CD  ARG d   1      37.042  24.693 -10.528  0.00  0.00     0.009 C 
ATOM    117  H30 ARG d   1      36.868  25.088 -11.540  0.00  0.00     0.064 H 
ATOM    118  H31 ARG d   1      36.121  24.219 -10.156  0.00  0.00     0.064 H 
BRANCH 116 119
ATOM    119  NE  ARG d   1      38.102  23.689 -10.586  0.00  0.00    -0.227 N 
ATOM    120  CZ  ARG d   1      38.321  22.782  -9.634  0.00  0.00     0.665 C 
ATOM    121  NH1 ARG d   1      37.551  22.763  -8.544  0.00  0.00    -0.235 N 
ATOM    122  NH2 ARG d   1      39.309  21.899  -9.770  0.00  0.00    -0.235 N 
ATOM    123  H33 ARG d   1      37.719  22.063  -7.807  0.00  0.00     0.174 HD
ATOM    124  H34 ARG d   1      36.789  23.448  -8.440  0.00  0.00     0.174 HD
ATOM    125  H35 ARG d   1      39.902  21.915 -10.612  0.00  0.00     0.174 HD
ATOM    126  H36 ARG d   1      39.480  21.200  -9.033  0.00  0.00     0.174 HD
ATOM    127  H32 ARG d   1      38.717  23.682 -11.412  0.00  0.00     0.177 HD
ENDBRANCH 116 119
ENDBRANCH 113 116
ENDBRANCH 110 113
ENDBRANCH   1 110
TORSDOF 38
