REMARK WARNING: 32 MAX_TORS EXCEEDED!!!
REMARK  33 active torsions:
REMARK  status: ('A' for Active; 'I' for Inactive)
REMARK    1  A    between atoms: CA_6  and  CB_9 
REMARK    2  A    between atoms: CB_9  and  CG_10 
REMARK    3  A    between atoms: CG_10  and  CD_11 
REMARK       I    between atoms: CD_11  and  NE2_13 
REMARK    4  A    between atoms: CB_21  and  CG_20 
REMARK    5  A    between atoms: CA_22  and  CB_21 
REMARK    6  A    between atoms: CA_27  and  CB_30 
REMARK    7  A    between atoms: CB_30  and  CG_31 
REMARK    8  A    between atoms: CA_35  and  CB_38 
REMARK    9  A    between atoms: CB_38  and  CG_39 
REMARK   10  A    between atoms: CG_39  and  CD1_40 
REMARK   11  A    between atoms: CG_39  and  CD2_41 
REMARK   12  A    between atoms: CA_43  and  CB_46 
REMARK   13  A    between atoms: CB_46  and  OG_47 
REMARK   14  A    between atoms: CA_49  and  CB_52 
REMARK   15  A    between atoms: CB_52  and  OG1_53 
REMARK   16  A    between atoms: CB_52  and  CG2_54 
REMARK   17  A    between atoms: CA_56  and  CB_59 
REMARK   18  A    between atoms: CB_59  and  CG_60 
REMARK   19  A    between atoms: CG_60  and  CD_61 
REMARK   20  A    between atoms: CD_61  and  NE_62 
REMARK       I    between atoms: NE_62  and  CZ_63 
REMARK       I    between atoms: CZ_63  and  NH1_64 
REMARK       I    between atoms: CZ_63  and  NH2_65 
REMARK   21  A    between atoms: CA_67  and  CB_70 
REMARK   22  A    between atoms: CB_70  and  CG_71 
REMARK   23  A    between atoms: CG_71  and  CD_72 
REMARK   24  A    between atoms: CD_72  and  NE_73 
REMARK       I    between atoms: NE_73  and  CZ_74 
REMARK       I    between atoms: CZ_74  and  NH1_75 
REMARK   25  A    between atoms: CA_78  and  CB_81 
REMARK   26  A    between atoms: CB_81  and  CG_82 
REMARK   27  A    between atoms: CG_82  and  CD1_83 
REMARK   28  A    between atoms: CG_82  and  CD2_84 
REMARK   29  A    between atoms: CA_86  and  CB_89 
REMARK   30  A    between atoms: CB_89  and  CG_90 
REMARK   31  A    between atoms: CG_90  and  CD_91 
REMARK   32  A    between atoms: CD_91  and  CE_92 
REMARK   33  A    between atoms: CE_92  and  NZ_93 
ROOT
ATOM      1  N   GLY d   1      16.799  31.840  29.666  0.00  0.00    -0.084 NA
ATOM      2  CA  GLY d   1      16.555  32.288  28.306  0.00  0.00     0.215 A 
ATOM      3  C   GLY d   1      17.170  33.636  27.981  0.00  0.00     0.266 C 
ATOM      4  O   GLY d   1      17.378  33.966  26.813  0.00  0.00    -0.269 OA
ATOM      5  N   GLY d   1      17.819  31.577  32.248  0.00  0.00    -0.351 N 
ATOM      6  CA  GLY d   1      16.387  31.670  32.041  0.00  0.00     0.066 C 
ATOM      7  C   GLY d   1      16.035  32.234  30.680  0.00  0.00     0.243 C 
ATOM      8  O   GLY d   1      15.098  33.020  30.547  0.00  0.00    -0.276 OA
ATOM      9  OXT GLY d   1      16.679  31.917  29.681  0.00  0.00    -0.260 OA
ATOM     10  H1  GLY d   1      16.040  31.787  27.473  0.00  0.00     0.131 H 
ATOM     11  H95 GLY d   1      18.235  30.678  32.385  0.00  0.00     0.163 HD
ATOM     12  H96 GLY d   1      15.960  32.324  32.815  0.00  0.00     0.077 H 
ATOM     13  H97 GLY d   1      15.951  30.664  32.130  0.00  0.00     0.077 H 
ATOM     14  N   GLN d   1      17.434  34.428  29.014  0.00  0.00    -0.344 N 
ATOM     15  CA  GLN d   1      18.026  35.745  28.824  0.00  0.00     0.090 C 
ATOM     16  C   GLN d   1      19.521  35.718  29.100  0.00  0.00     0.241 C 
ATOM     17  O   GLN d   1      19.993  34.990  29.973  0.00  0.00    -0.271 OA
ATOM     18  H2  GLN d   1      17.222  34.114  29.940  0.00  0.00     0.163 HD
ATOM     19  H3  GLN d   1      17.873  36.041  27.776  0.00  0.00     0.087 H 
ATOM     20  CA  4BF d   1      21.680  36.584  28.492  0.00  0.00     0.093 C 
ATOM     21  N   4BF d   1      20.260  36.522  28.346  0.00  0.00    -0.346 N 
ATOM     22  C   4BF d   1      22.029  37.423  29.685  0.00  0.00     0.241 C 
ATOM     23  O   4BF d   1      21.472  38.447  29.884  0.00  0.00    -0.271 OA
ATOM     24  H16 4BF d   1      22.079  35.573  28.660  0.00  0.00     0.088 H 
ATOM     25  H17 4BF d   1      19.813  37.097  27.661  0.00  0.00     0.163 HD
ATOM     26  N   ASP d   1      22.981  36.943  30.478  0.00  0.00    -0.345 N 
ATOM     27  CA  ASP d   1      23.401  37.634  31.690  0.00  0.00     0.098 C 
ATOM     28  C   ASP d   1      24.792  38.237  31.519  0.00  0.00     0.241 C 
ATOM     29  O   ASP d   1      25.748  37.534  31.197  0.00  0.00    -0.271 OA
ATOM     30  H18 ASP d   1      23.423  36.080  30.235  0.00  0.00     0.163 HD
ATOM     31  H19 ASP d   1      22.691  38.451  31.887  0.00  0.00     0.088 H 
ATOM     32  N   LEU d   1      24.894  39.550  31.737  0.00  0.00    -0.346 N 
ATOM     33  CA  LEU d   1      26.179  40.228  31.604  0.00  0.00     0.089 C 
ATOM     34  C   LEU d   1      27.180  39.776  32.661  0.00  0.00     0.241 C 
ATOM     35  O   LEU d   1      28.393  39.863  32.438  0.00  0.00    -0.271 OA
ATOM     36  N   LEU d   1      23.584  32.355  29.204  0.00  0.00    -0.346 N 
ATOM     37  CA  LEU d   1      22.130  32.435  29.221  0.00  0.00     0.089 C 
ATOM     38  C   LEU d   1      21.598  31.959  30.566  0.00  0.00     0.241 C 
ATOM     39  O   LEU d   1      21.955  30.874  31.036  0.00  0.00    -0.271 OA
ATOM     40  H22 LEU d   1      24.082  40.074  31.994  0.00  0.00     0.163 HD
ATOM     41  H23 LEU d   1      26.593  39.982  30.615  0.00  0.00     0.087 H 
ATOM     42  H71 LEU d   1      24.027  31.602  28.717  0.00  0.00     0.163 HD
ATOM     43  H72 LEU d   1      21.833  33.484  29.074  0.00  0.00     0.087 H 
ATOM     44  N   SER d   1      26.700  39.295  33.811  0.00  0.00    -0.344 N 
ATOM     45  CA  SER d   1      27.610  38.903  34.883  0.00  0.00     0.109 C 
ATOM     46  C   SER d   1      28.407  37.653  34.529  0.00  0.00     0.243 C 
ATOM     47  O   SER d   1      29.506  37.454  35.058  0.00  0.00    -0.271 OA
ATOM     48  H33 SER d   1      25.712  39.203  33.938  0.00  0.00     0.163 HD
ATOM     49  H34 SER d   1      28.322  39.726  35.043  0.00  0.00     0.090 H 
ATOM     50  N   THR d   1      27.769  36.685  33.869  0.00  0.00    -0.344 N 
ATOM     51  CA  THR d   1      28.356  35.376  33.609  0.00  0.00     0.113 C 
ATOM     52  C   THR d   1      28.597  35.148  32.135  0.00  0.00     0.243 C 
ATOM     53  O   THR d   1      29.213  34.136  31.776  0.00  0.00    -0.271 OA
ATOM     54  H38 THR d   1      26.843  36.866  33.536  0.00  0.00     0.163 HD
ATOM     55  H39 THR d   1      29.322  35.328  34.134  0.00  0.00     0.091 H 
ATOM     56  N   ARG d   1      28.140  36.071  31.283  0.00  0.00    -0.346 N 
ATOM     57  CA  ARG d   1      28.232  35.937  29.839  0.00  0.00     0.089 C 
ATOM     58  C   ARG d   1      27.514  34.681  29.347  0.00  0.00     0.241 C 
ATOM     59  O   ARG d   1      27.802  34.158  28.271  0.00  0.00    -0.271 OA
ATOM     60  N   ARG d   1      26.577  34.177  30.144  0.00  0.00    -0.346 N 
ATOM     61  CA  ARG d   1      25.830  32.972  29.826  0.00  0.00     0.089 C 
ATOM     62  C   ARG d   1      24.336  33.264  29.824  0.00  0.00     0.241 C 
ATOM     63  O   ARG d   1      23.874  34.286  30.344  0.00  0.00    -0.271 OA
ATOM     64  H45 ARG d   1      27.714  36.894  31.658  0.00  0.00     0.163 HD
ATOM     65  H46 ARG d   1      27.736  36.807  29.384  0.00  0.00     0.087 H 
ATOM     66  H58 ARG d   1      26.377  34.649  31.003  0.00  0.00     0.163 HD
ATOM     67  H59 ARG d   1      26.123  32.638  28.820  0.00  0.00     0.087 H 
ATOM     68  N   LYS d   1      20.747  32.775  31.184  0.00  0.00    -0.346 N 
ATOM     69  CA  LYS d   1      20.083  32.423  32.432  0.00  0.00     0.089 C 
ATOM     70  C   LYS d   1      18.592  32.659  32.260  0.00  0.00     0.240 C 
ATOM     71  O   LYS d   1      18.153  33.807  32.139  0.00  0.00    -0.271 OA
ATOM     72  H82 LYS d   1      20.555  33.667  30.774  0.00  0.00     0.163 HD
ATOM     73  H83 LYS d   1      20.257  31.357  32.642  0.00  0.00     0.087 H 
ENDROOT
BRANCH  57  74
ATOM     74  CB  ARG d   1      29.698  35.946  29.402  0.00  0.00    -0.036 C 
ATOM     75  H47 ARG d   1      30.095  34.925  29.500  0.00  0.00     0.036 H 
ATOM     76  H48 ARG d   1      30.254  36.621  30.069  0.00  0.00     0.036 H 
BRANCH  74  77
ATOM     77  CG  ARG d   1      29.906  36.400  27.989  0.00  0.00    -0.048 C 
ATOM     78  H49 ARG d   1      29.266  37.274  27.797  0.00  0.00     0.035 H 
ATOM     79  H50 ARG d   1      29.627  35.584  27.306  0.00  0.00     0.035 H 
BRANCH  77  80
ATOM     80  CD  ARG d   1      31.341  36.779  27.737  0.00  0.00     0.009 C 
ATOM     81  H51 ARG d   1      31.434  37.069  26.680  0.00  0.00     0.064 H 
ATOM     82  H52 ARG d   1      31.964  35.893  27.930  0.00  0.00     0.064 H 
BRANCH  80  83
ATOM     83  NE  ARG d   1      31.854  37.870  28.546  0.00  0.00    -0.227 N 
ATOM     84  CZ  ARG d   1      33.068  38.394  28.398  0.00  0.00     0.665 C 
ATOM     85  NH1 ARG d   1      33.897  37.929  27.469  0.00  0.00    -0.235 N 
ATOM     86  NH2 ARG d   1      33.454  39.386  29.182  0.00  0.00    -0.235 N 
ATOM     87  H54 ARG d   1      34.835  38.342  27.363  0.00  0.00     0.174 HD
ATOM     88  H55 ARG d   1      33.602  37.156  26.855  0.00  0.00     0.174 HD
ATOM     89  H56 ARG d   1      32.816  39.750  29.904  0.00  0.00     0.174 HD
ATOM     90  H57 ARG d   1      34.393  39.794  29.071  0.00  0.00     0.174 HD
ATOM     91  H53 ARG d   1      31.243  38.261  29.277  0.00  0.00     0.177 HD
ENDBRANCH  80  83
ENDBRANCH  77  80
ENDBRANCH  74  77
ENDBRANCH  57  74
BRANCH  51  92
ATOM     92  CB  THR d   1      27.454  34.239  34.130  0.00  0.00     0.060 C 
ATOM     93  H40 THR d   1      28.025  33.301  34.065  0.00  0.00     0.086 H 
BRANCH  92  94
ATOM     94  OG1 THR d   1      26.282  34.110  33.308  0.00  0.00    -0.393 OA
ATOM     95  H41 THR d   1      25.794  34.925  33.325  0.00  0.00     0.210 HD
ENDBRANCH  92  94
BRANCH  92  96
ATOM     96  CG2 THR d   1      27.053  34.441  35.586  0.00  0.00    -0.050 C 
ATOM     97  H42 THR d   1      26.413  33.607  35.909  0.00  0.00     0.031 H 
ATOM     98  H43 THR d   1      26.501  35.387  35.686  0.00  0.00     0.031 H 
ATOM     99  H44 THR d   1      27.956  34.475  36.214  0.00  0.00     0.031 H 
ENDBRANCH  92  96
ENDBRANCH  51  92
BRANCH  61 100
ATOM    100  CB  ARG d   1      26.147  31.847  30.821  0.00  0.00    -0.036 C 
ATOM    101  H60 ARG d   1      25.537  30.971  30.557  0.00  0.00     0.036 H 
ATOM    102  H61 ARG d   1      25.876  32.192  31.830  0.00  0.00     0.036 H 
BRANCH 100 103
ATOM    103  CG  ARG d   1      27.589  31.429  30.838  0.00  0.00    -0.048 C 
ATOM    104  H62 ARG d   1      27.750  30.719  31.663  0.00  0.00     0.035 H 
ATOM    105  H63 ARG d   1      28.221  32.317  30.990  0.00  0.00     0.035 H 
BRANCH 103 106
ATOM    106  CD  ARG d   1      27.968  30.767  29.531  0.00  0.00     0.009 C 
ATOM    107  H64 ARG d   1      28.981  30.348  29.623  0.00  0.00     0.064 H 
ATOM    108  H65 ARG d   1      27.954  31.521  28.731  0.00  0.00     0.064 H 
BRANCH 106 109
ATOM    109  NE  ARG d   1      27.039  29.694  29.188  0.00  0.00    -0.227 N 
ATOM    110  CZ  ARG d   1      27.053  28.486  29.743  0.00  0.00     0.665 C 
ATOM    111  NH1 ARG d   1      27.950  28.190  30.674  0.00  0.00    -0.235 N 
ATOM    112  NH2 ARG d   1      26.168  27.573  29.368  0.00  0.00    -0.235 N 
ATOM    113  H67 ARG d   1      27.958  27.253  31.102  0.00  0.00     0.174 HD
ATOM    114  H68 ARG d   1      28.639  28.897  30.969  0.00  0.00     0.174 HD
ATOM    115  H69 ARG d   1      25.470  27.799  28.645  0.00  0.00     0.174 HD
ATOM    116  H70 ARG d   1      26.179  26.638  29.799  0.00  0.00     0.174 HD
ATOM    117  H66 ARG d   1      26.326  29.885  28.469  0.00  0.00     0.177 HD
ENDBRANCH 106 109
ENDBRANCH 103 106
ENDBRANCH 100 103
ENDBRANCH  61 100
BRANCH  45 118
ATOM    118  CB  SER d   1      26.829  38.683  36.178  0.00  0.00     0.044 C 
ATOM    119  H35 SER d   1      27.526  38.369  36.969  0.00  0.00     0.077 H 
ATOM    120  H36 SER d   1      26.079  37.895  36.016  0.00  0.00     0.077 H 
BRANCH 118 121
ATOM    121  OG  SER d   1      26.170  39.871  36.587  0.00  0.00    -0.398 OA
ATOM    122  H37 SER d   1      25.694  39.706  37.392  0.00  0.00     0.209 HD
ENDBRANCH 118 121
ENDBRANCH  45 118
BRANCH  37 123
ATOM    123  CB  LEU d   1      21.531  31.595  28.093  0.00  0.00    -0.035 C 
ATOM    124  H73 LEU d   1      20.439  31.593  28.221  0.00  0.00     0.037 H 
ATOM    125  H74 LEU d   1      21.915  30.570  28.200  0.00  0.00     0.037 H 
BRANCH 123 126
ATOM    126  CG  LEU d   1      21.830  32.056  26.666  0.00  0.00    -0.059 C 
ATOM    127  H75 LEU d   1      22.920  32.049  26.521  0.00  0.00     0.038 H 
BRANCH 126 128
ATOM    128  CD1 LEU d   1      21.209  31.104  25.658  0.00  0.00    -0.073 C 
ATOM    129  H76 LEU d   1      21.434  31.451  24.639  0.00  0.00     0.028 H 
ATOM    130  H77 LEU d   1      20.119  31.076  25.803  0.00  0.00     0.028 H 
ATOM    131  H78 LEU d   1      21.624  30.096  25.802  0.00  0.00     0.028 H 
ENDBRANCH 126 128
BRANCH 126 132
ATOM    132  CD2 LEU d   1      21.330  33.474  26.450  0.00  0.00    -0.073 C 
ATOM    133  H79 LEU d   1      21.793  34.143  27.190  0.00  0.00     0.028 H 
ATOM    134  H80 LEU d   1      20.236  33.499  26.567  0.00  0.00     0.028 H 
ATOM    135  H81 LEU d   1      21.598  33.807  25.437  0.00  0.00     0.028 H 
ENDBRANCH 126 132
ENDBRANCH 123 126
ENDBRANCH  37 123
BRANCH  33 136
ATOM    136  CB  LEU d   1      25.983  41.741  31.683  0.00  0.00    -0.035 C 
ATOM    137  H24 LEU d   1      26.980  42.203  31.736  0.00  0.00     0.037 H 
ATOM    138  H25 LEU d   1      25.429  41.956  32.609  0.00  0.00     0.037 H 
BRANCH 136 139
ATOM    139  CG  LEU d   1      25.229  42.403  30.530  0.00  0.00    -0.059 C 
ATOM    140  H26 LEU d   1      24.312  41.828  30.337  0.00  0.00     0.038 H 
BRANCH 139 141
ATOM    141  CD1 LEU d   1      24.837  43.822  30.899  0.00  0.00    -0.073 C 
ATOM    142  H27 LEU d   1      24.296  44.283  30.059  0.00  0.00     0.028 H 
ATOM    143  H28 LEU d   1      25.742  44.407  31.118  0.00  0.00     0.028 H 
ATOM    144  H29 LEU d   1      24.189  43.804  31.787  0.00  0.00     0.028 H 
ENDBRANCH 139 141
BRANCH 139 145
ATOM    145  CD2 LEU d   1      26.077  42.394  29.268  0.00  0.00    -0.073 C 
ATOM    146  H30 LEU d   1      26.351  41.358  29.017  0.00  0.00     0.028 H 
ATOM    147  H31 LEU d   1      26.990  42.984  29.436  0.00  0.00     0.028 H 
ATOM    148  H32 LEU d   1      25.504  42.833  28.438  0.00  0.00     0.028 H 
ENDBRANCH 139 145
ENDBRANCH 136 139
ENDBRANCH  33 136
BRANCH  69 149
ATOM    149  CB  LYS d   1      20.629  33.244  33.602  0.00  0.00    -0.038 C 
ATOM    150  H84 LYS d   1      20.377  34.301  33.432  0.00  0.00     0.036 H 
ATOM    151  H85 LYS d   1      21.723  33.128  33.627  0.00  0.00     0.036 H 
BRANCH 149 152
ATOM    152  CG  LYS d   1      20.071  32.829  34.954  0.00  0.00    -0.061 C 
ATOM    153  H86 LYS d   1      20.336  31.779  35.145  0.00  0.00     0.033 H 
ATOM    154  H87 LYS d   1      18.976  32.934  34.938  0.00  0.00     0.033 H 
BRANCH 152 155
ATOM    155  CD  LYS d   1      20.636  33.693  36.069  0.00  0.00    -0.043 C 
ATOM    156  H88 LYS d   1      20.391  34.746  35.867  0.00  0.00     0.035 H 
ATOM    157  H89 LYS d   1      21.729  33.570  36.099  0.00  0.00     0.035 H 
BRANCH 155 158
ATOM    158  CE  LYS d   1      20.054  33.298  37.419  0.00  0.00     0.080 C 
ATOM    159  H90 LYS d   1      20.339  32.259  37.640  0.00  0.00     0.075 H 
ATOM    160  H91 LYS d   1      18.958  33.376  37.371  0.00  0.00     0.075 H 
BRANCH 158 161
ATOM    161  NZ  LYS d   1      20.554  34.179  38.512  0.00  0.00    -0.079 N 
ATOM    162  H92 LYS d   1      20.149  33.889  39.389  0.00  0.00     0.274 HD
ATOM    163  H93 LYS d   1      20.293  35.133  38.320  0.00  0.00     0.274 HD
ATOM    164  H94 LYS d   1      21.558  34.110  38.566  0.00  0.00     0.274 HD
ENDBRANCH 158 161
ENDBRANCH 155 158
ENDBRANCH 152 155
ENDBRANCH 149 152
ENDBRANCH  69 149
BRANCH  27 165
ATOM    165  CB  ASP d   1      23.379  36.674  32.882  0.00  0.00     0.043 C 
ATOM    166  H20 ASP d   1      23.978  35.787  32.630  0.00  0.00     0.052 H 
ATOM    167  H21 ASP d   1      22.338  36.372  33.071  0.00  0.00     0.052 H 
BRANCH 165 168
ATOM    168  CG  ASP d   1      23.940  37.294  34.146  0.00  0.00     0.175 C 
ATOM    169  OD1 ASP d   1      24.602  36.567  34.917  0.00  0.00    -0.648 OA
ATOM    170  OD2 ASP d   1      23.717  38.502  34.372  0.00  0.00    -0.648 OA
ENDBRANCH 165 168
ENDBRANCH  27 165
BRANCH  20 171
ATOM    171  CB  4BF d   1      22.211  37.097  27.195  0.00  0.00    -0.014 C 
ATOM    172  H14 4BF d   1      22.145  36.280  26.461  0.00  0.00     0.043 H 
ATOM    173  H15 4BF d   1      21.566  37.929  26.876  0.00  0.00     0.043 H 
BRANCH 171 174
ATOM    174  CG  4BF d   1      23.620  37.592  27.197  0.00  0.00    -0.056 A 
ATOM    175  CD1 4BF d   1      24.661  36.680  27.070  0.00  0.00    -0.075 A 
ATOM    176  CE1 4BF d   1      25.971  37.130  27.077  0.00  0.00    -0.066 A 
ATOM    177  H10 4BF d   1      24.449  35.622  26.966  0.00  0.00     0.084 H 
ATOM    178  CZ  4BF d   1      26.231  38.485  27.211  0.00  0.00     0.011 A 
ATOM    179  H11 4BF d   1      26.789  36.426  26.978  0.00  0.00     0.085 H 
ATOM    180 BR   4BF d   1      28.050  39.076  27.204  0.00  0.00    -0.051 Br
ATOM    181  CE2 4BF d   1      25.193  39.402  27.338  0.00  0.00    -0.066 A 
ATOM    182  CD2 4BF d   1      23.881  38.950  27.331  0.00  0.00    -0.075 A 
ATOM    183  H12 4BF d   1      25.407  40.460  27.442  0.00  0.00     0.085 H 
ATOM    184  H13 4BF d   1      23.063  39.654  27.430  0.00  0.00     0.084 H 
ENDBRANCH 171 174
ENDBRANCH  20 171
BRANCH  15 185
ATOM    185  CB  GLN d   1      17.350  36.783  29.720  0.00  0.00    -0.030 C 
ATOM    186  H4  GLN d   1      18.115  37.495  30.063  0.00  0.00     0.037 H 
ATOM    187  H5  GLN d   1      16.918  36.263  30.588  0.00  0.00     0.037 H 
BRANCH 185 188
ATOM    188  CG  GLN d   1      16.246  37.562  29.031  0.00  0.00     0.011 C 
ATOM    189  H6  GLN d   1      15.297  37.023  29.165  0.00  0.00     0.047 H 
ATOM    190  H7  GLN d   1      16.480  37.632  27.958  0.00  0.00     0.047 H 
BRANCH 188 191
ATOM    191  CD  GLN d   1      16.093  38.963  29.588  0.00  0.00     0.215 C 
ATOM    192  OE1 GLN d   1      16.785  39.346  30.532  0.00  0.00    -0.274 OA
ATOM    193  NE2 GLN d   1      15.189  39.738  29.001  0.00  0.00    -0.370 N 
ATOM    194  H8  GLN d   1      15.045  40.672  29.326  0.00  0.00     0.159 HD
ATOM    195  H9  GLN d   1      14.652  39.387  28.233  0.00  0.00     0.159 HD
ENDBRANCH 188 191
ENDBRANCH 185 188
ENDBRANCH  15 185
TORSDOF 33
