REMARK  9 active torsions:
REMARK  status: ('A' for Active; 'I' for Inactive)
REMARK    1  A    between atoms: C8_8  and  O3_1 
REMARK    2  A    between atoms: O3_1  and  C9_9 
REMARK    3  A    between atoms: C30_40  and  O5_10 
REMARK    4  A    between atoms: C18_20  and  C20_21 
REMARK    5  A    between atoms: C2_29  and  C3_28 
REMARK       I    between atoms: N_31  and  C2_29 
REMARK    6  A    between atoms: C1_32  and  N_31 
REMARK    7  A    between atoms: C1_32  and  C_33 
REMARK    8  A    between atoms: C26_36  and  C1_32 
REMARK    9  A    between atoms: C27_37  and  C26_36 
ROOT
ATOM      1  C4  6CJ d   1     -31.720 -67.910 -11.065  0.00  0.00     0.100 A 
ATOM      2  C5  6CJ d   1     -33.179 -66.222 -12.167  0.00  0.00     0.034 A 
ATOM      3  O4  6CJ d   1     -29.452 -65.281 -10.334  0.00  0.00    -0.267 OA
ATOM      4  C6  6CJ d   1     -34.086 -65.454 -12.891  0.00  0.00    -0.061 A 
ATOM      5  N1  6CJ d   1     -31.222 -66.610 -10.965  0.00  0.00    -0.270 N 
ATOM      6  C7  6CJ d   1     -33.852 -64.103 -13.064  0.00  0.00    -0.049 A 
ATOM      7  C8  6CJ d   1     -32.726 -63.520 -12.503  0.00  0.00     0.071 A 
ATOM      8  C15 6CJ d   1     -31.833 -64.269 -11.747  0.00  0.00    -0.023 A 
ATOM      9  C17 6CJ d   1     -29.975 -66.387 -10.316  0.00  0.00     0.264 C 
ATOM     10  C16 6CJ d   1     -32.042 -65.637 -11.593  0.00  0.00     0.063 A 
ATOM     11  S   6CJ d   1     -33.244 -67.944 -11.899  0.00  0.00    -0.069 SA
ATOM     12  C18 6CJ d   1     -29.360 -67.540  -9.665  0.00  0.00     0.044 C 
ATOM     13  C19 6CJ d   1     -29.881 -68.772  -9.855  0.00  0.00    -0.049 C 
ATOM     14  C3  6CJ d   1     -31.081 -69.007 -10.578  0.00  0.00     0.067 C 
ATOM     15  H1  6CJ d   1     -34.971 -65.913 -13.317  0.00  0.00     0.085 H 
ATOM     16  H2  6CJ d   1     -34.547 -63.500 -13.637  0.00  0.00     0.087 H 
ATOM     17  H15 6CJ d   1     -30.979 -63.792 -11.280  0.00  0.00     0.091 H 
ATOM     18  H21 6CJ d   1     -29.355 -69.627  -9.433  0.00  0.00     0.086 H 
ENDROOT
BRANCH  14  19
ATOM     19  C2  6CJ d   1     -31.554 -70.406 -10.788  0.00  0.00     0.255 C 
ATOM     20  O2  6CJ d   1     -32.695 -70.746 -10.479  0.00  0.00    -0.268 OA
ATOM     21  N   6CJ d   1     -30.644 -71.248 -11.312  0.00  0.00    -0.342 N 
ATOM     22  H22 6CJ d   1     -29.832 -71.458 -10.767  0.00  0.00     0.163 HD
BRANCH  21  23
ATOM     23  C1  6CJ d   1     -30.765 -71.874 -12.624  0.00  0.00     0.100 C 
ATOM     24  H23 6CJ d   1     -31.354 -72.791 -12.478  0.00  0.00     0.090 H 
BRANCH  23  25
ATOM     25  C   6CJ d   1     -29.409 -72.305 -13.176  0.00  0.00     0.197 C 
ATOM     26  O1  6CJ d   1     -28.365 -72.121 -12.581  0.00  0.00    -0.646 OA
ATOM     27  O   6CJ d   1     -29.493 -72.900 -14.332  0.00  0.00    -0.646 OA
ENDBRANCH  23  25
BRANCH  23  28
ATOM     28  C26 6CJ d   1     -31.544 -71.009 -13.641  0.00  0.00    -0.013 C 
ATOM     29  H24 6CJ d   1     -32.571 -70.905 -13.261  0.00  0.00     0.043 H 
ATOM     30  H25 6CJ d   1     -31.559 -71.560 -14.593  0.00  0.00     0.043 H 
BRANCH  28  31
ATOM     31  C27 6CJ d   1     -31.033 -69.616 -13.937  0.00  0.00    -0.056 A 
ATOM     32  C32 6CJ d   1     -31.825 -68.724 -14.647  0.00  0.00    -0.074 A 
ATOM     33  C31 6CJ d   1     -31.411 -67.425 -14.882  0.00  0.00    -0.051 A 
ATOM     34  H26 6CJ d   1     -32.787 -69.052 -15.025  0.00  0.00     0.084 H 
ATOM     35  C30 6CJ d   1     -30.179 -66.996 -14.414  0.00  0.00     0.065 A 
ATOM     36  H27 6CJ d   1     -32.050 -66.743 -15.432  0.00  0.00     0.087 H 
ATOM     37  C29 6CJ d   1     -29.366 -67.879 -13.718  0.00  0.00    -0.051 A 
ATOM     38  C28 6CJ d   1     -29.794 -69.175 -13.485  0.00  0.00    -0.074 A 
ATOM     39  H28 6CJ d   1     -28.397 -67.555 -13.357  0.00  0.00     0.087 H 
ATOM     40  H29 6CJ d   1     -29.152 -69.858 -12.941  0.00  0.00     0.084 H 
BRANCH  35  41
ATOM     41  O5  6CJ d   1     -29.776 -65.711 -14.635  0.00  0.00    -0.361 OA
ATOM     42  H4  6CJ d   1     -28.916 -65.580 -14.253  0.00  0.00     0.217 HD
ENDBRANCH  35  41
ENDBRANCH  28  31
ENDBRANCH  23  28
ENDBRANCH  21  23
ENDBRANCH  14  19
BRANCH  12  43
ATOM     43  C20 6CJ d   1     -28.183 -67.350  -8.781  0.00  0.00    -0.021 A 
ATOM     44  C25 6CJ d   1     -28.315 -67.441  -7.396  0.00  0.00    -0.072 A 
ATOM     45  C24 6CJ d   1     -27.221 -67.240  -6.572  0.00  0.00    -0.082 A 
ATOM     46  H16 6CJ d   1     -29.281 -67.671  -6.961  0.00  0.00     0.084 H 
ATOM     47  C23 6CJ d   1     -25.985 -66.949  -7.114  0.00  0.00    -0.083 A 
ATOM     48  H17 6CJ d   1     -27.335 -67.311  -5.496  0.00  0.00     0.083 H 
ATOM     49  C22 6CJ d   1     -25.841 -66.860  -8.484  0.00  0.00    -0.082 A 
ATOM     50  H18 6CJ d   1     -25.131 -66.791  -6.466  0.00  0.00     0.083 H 
ATOM     51  C21 6CJ d   1     -26.930 -67.060  -9.316  0.00  0.00    -0.072 A 
ATOM     52  H19 6CJ d   1     -24.871 -66.632  -8.911  0.00  0.00     0.083 H 
ATOM     53  H20 6CJ d   1     -26.806 -66.990 -10.391  0.00  0.00     0.084 H 
ENDBRANCH  12  43
BRANCH   7  54
ATOM     54  O3  6CJ d   1     -32.539 -62.182 -12.781  0.00  0.00    -0.346 OA
BRANCH  54  55
ATOM     55  C9  6CJ d   1     -31.180 -61.628 -12.720  0.00  0.00     0.045 C 
ATOM     56  C10 6CJ d   1     -31.030 -60.780 -13.963  0.00  0.00    -0.040 C 
ATOM     57  C11 6CJ d   1     -32.035 -59.632 -13.969  0.00  0.00    -0.063 C 
ATOM     58  H5  6CJ d   1     -31.198 -61.409 -14.850  0.00  0.00     0.036 H 
ATOM     59  H6  6CJ d   1     -30.011 -60.366 -13.995  0.00  0.00     0.036 H 
ATOM     60  C12 6CJ d   1     -31.935 -58.799 -12.703  0.00  0.00    -0.065 C 
ATOM     61  H7  6CJ d   1     -33.051 -60.047 -14.045  0.00  0.00     0.033 H 
ATOM     62  H8  6CJ d   1     -31.836 -58.987 -14.838  0.00  0.00     0.033 H 
ATOM     63  C13 6CJ d   1     -32.071 -59.666 -11.466  0.00  0.00    -0.063 C 
ATOM     64  H9  6CJ d   1     -32.737 -58.046 -12.704  0.00  0.00     0.033 H 
ATOM     65  H10 6CJ d   1     -30.958 -58.294 -12.682  0.00  0.00     0.033 H 
ATOM     66  C14 6CJ d   1     -31.050 -60.798 -11.465  0.00  0.00    -0.040 C 
ATOM     67  H11 6CJ d   1     -33.083 -60.097 -11.440  0.00  0.00     0.033 H 
ATOM     68  H12 6CJ d   1     -31.915 -59.043 -10.573  0.00  0.00     0.033 H 
ATOM     69  H13 6CJ d   1     -30.037 -60.372 -11.416  0.00  0.00     0.036 H 
ATOM     70  H14 6CJ d   1     -31.221 -61.439 -10.588  0.00  0.00     0.036 H 
ATOM     71  H3  6CJ d   1     -30.429 -62.431 -12.713  0.00  0.00     0.084 H 
ENDBRANCH  54  55
ENDBRANCH   7  54
TORSDOF 9
