REMARK  32 active torsions:
REMARK  status: ('A' for Active; 'I' for Inactive)
REMARK    1  A    between atoms: N_1  and  CA_2 
REMARK    2  A    between atoms: CA_2  and  C_3 
REMARK    3  A    between atoms: CA_2  and  CB_5 
REMARK       I    between atoms: C_3  and  N_6 
REMARK    4  A    between atoms: N_6  and  CA_7 
REMARK    5  A    between atoms: CA_7  and  C_8 
REMARK    6  A    between atoms: CA_7  and  CB_10 
REMARK       I    between atoms: C_8  and  N_11 
REMARK    7  A    between atoms: N_11  and  CA_12 
REMARK    8  A    between atoms: CA_12  and  C_13 
REMARK    9  A    between atoms: CA_12  and  CB_15 
REMARK       I    between atoms: C_13  and  N_22 
REMARK   10  A    between atoms: CB_15  and  CG_16 
REMARK   11  A    between atoms: CG_16  and  CD_17 
REMARK   12  A    between atoms: CD_17  and  NE_18 
REMARK       I    between atoms: NE_18  and  CZ_19 
REMARK       I    between atoms: CZ_19  and  NH1_20 
REMARK   13  A    between atoms: N_22  and  CA_23 
REMARK   14  A    between atoms: CA_23  and  CB_24 
REMARK   15  A    between atoms: CA_23  and  C_34 
REMARK   16  A    between atoms: CB_24  and  CG_25 
REMARK   17  A    between atoms: CG_25  and  CD_26 
REMARK   18  A    between atoms: CD_26  and  CE_27 
REMARK   19  A    between atoms: CE_27  and  NZ_28 
REMARK       I    between atoms: NZ_28  and  CH_29 
REMARK   20  A    between atoms: CH_29  and  CX_31 
REMARK   21  A    between atoms: CY_32  and  CH3_33 
REMARK       I    between atoms: C_34  and  N_36 
REMARK   22  A    between atoms: N_36  and  CA_37 
REMARK   23  A    between atoms: CA_37  and  C_38 
REMARK   24  A    between atoms: CA_37  and  CB_40 
REMARK       I    between atoms: C_38  and  N_42 
REMARK   25  A    between atoms: CB_40  and  OG_41 
REMARK   26  A    between atoms: N_42  and  CA_43 
REMARK   27  A    between atoms: CA_43  and  C_44 
REMARK   28  A    between atoms: CA_43  and  CB_46 
REMARK       I    between atoms: C_44  and  N_47 
REMARK   29  A    between atoms: CA_48  and  C_49 
REMARK       I    between atoms: C_49  and  N_54 
REMARK   30  A    between atoms: N_54  and  CA_55 
REMARK   31  A    between atoms: CA_55  and  C_56 
REMARK   32  A    between atoms: CA_55  and  CB_58 
ROOT
ATOM      1  CA  KCR d   1      10.356  -8.560  40.729  0.00  0.00     0.089 C 
ATOM      2  H27 KCR d   1      10.422  -7.473  40.887  0.00  0.00     0.087 H 
ENDROOT
BRANCH   1   3
ATOM      3  N   KCR d   1       9.932  -9.224  41.928  0.00  0.00    -0.346 N 
ATOM      4  C   ARG d   1      10.206  -8.738  43.135  0.00  0.00     0.241 C 
ATOM      5  O   ARG d   1      10.801  -7.679  43.313  0.00  0.00    -0.271 OA
ATOM      6  H26 KCR d   1       9.415 -10.077  41.854  0.00  0.00     0.163 HD
BRANCH   4   7
ATOM      7  CA  ARG d   1       9.679  -9.521  44.317  0.00  0.00     0.089 C 
ATOM      8  H14 ARG d   1       9.628 -10.582  44.032  0.00  0.00     0.087 H 
BRANCH   7   9
ATOM      9  N   ARG d   1      10.550  -9.407  45.487  0.00  0.00    -0.346 N 
ATOM     10  C   ALA d   1      11.350 -10.404  45.845  0.00  0.00     0.240 C 
ATOM     11  O   ALA d   1      11.490 -11.424  45.161  0.00  0.00    -0.271 OA
ATOM     12  H13 ARG d   1      10.543  -8.565  46.026  0.00  0.00     0.163 HD
BRANCH  10  13
ATOM     13  CA  ALA d   1      12.090 -10.244  47.175  0.00  0.00     0.086 C 
ATOM     14  H9  ALA d   1      11.892  -9.237  47.570  0.00  0.00     0.086 H 
BRANCH  13  15
ATOM     15  N   ALA d   1      11.559 -11.233  48.110  0.00  0.00    -0.346 N 
ATOM     16  C   ALA d   1      10.655 -10.913  49.030  0.00  0.00     0.248 C 
ATOM     17  O   ALA d   1      10.305  -9.754  49.216  0.00  0.00    -0.271 OA
ATOM     18  H8  ALA d   1      11.885 -12.177  48.056  0.00  0.00     0.163 HD
BRANCH  16  19
ATOM     19  CA  ALA d   1      10.078 -12.044  49.885  0.00  0.00     0.172 C 
ATOM     20  H4  ALA d   1      10.771 -12.898  49.849  0.00  0.00     0.098 H 
BRANCH  19  21
ATOM     21  N   ALA d   1       9.941 -11.611  51.280  0.00  0.00    -0.067 N 
ATOM     22  H1  ALA d   1       9.560 -12.365  51.830  0.00  0.00     0.275 HD
ATOM     23  H2  ALA d   1       9.323 -10.816  51.326  0.00  0.00     0.275 HD
ATOM     24  H3  ALA d   1      10.846 -11.354  51.642  0.00  0.00     0.275 HD
ENDBRANCH  19  21
BRANCH  19  25
ATOM     25  CB  ALA d   1       8.735 -12.490  49.344  0.00  0.00    -0.042 C 
ATOM     26  H5  ALA d   1       8.850 -12.812  48.298  0.00  0.00     0.030 H 
ATOM     27  H6  ALA d   1       8.023 -11.653  49.394  0.00  0.00     0.030 H 
ATOM     28  H7  ALA d   1       8.357 -13.329  49.947  0.00  0.00     0.030 H 
ENDBRANCH  19  25
ENDBRANCH  16  19
ENDBRANCH  13  15
BRANCH  13  29
ATOM     29  CB  ALA d   1      13.604 -10.404  47.014  0.00  0.00    -0.049 C 
ATOM     30  H10 ALA d   1      13.979  -9.650  46.307  0.00  0.00     0.030 H 
ATOM     31  H11 ALA d   1      13.828 -11.410  46.630  0.00  0.00     0.030 H 
ATOM     32  H12 ALA d   1      14.093 -10.267  47.990  0.00  0.00     0.030 H 
ENDBRANCH  13  29
ENDBRANCH  10  13
ENDBRANCH   7   9
BRANCH   7  33
ATOM     33  CB  ARG d   1       8.266  -9.038  44.655  0.00  0.00    -0.036 C 
ATOM     34  H15 ARG d   1       7.625  -9.177  43.772  0.00  0.00     0.036 H 
ATOM     35  H16 ARG d   1       8.310  -7.969  44.911  0.00  0.00     0.036 H 
BRANCH  33  36
ATOM     36  CG  ARG d   1       7.664  -9.784  45.808  0.00  0.00    -0.048 C 
ATOM     37  H17 ARG d   1       8.294  -9.616  46.694  0.00  0.00     0.035 H 
ATOM     38  H18 ARG d   1       7.658 -10.856  45.560  0.00  0.00     0.035 H 
BRANCH  36  39
ATOM     39  CD  ARG d   1       6.228  -9.360  46.150  0.00  0.00     0.009 C 
ATOM     40  H19 ARG d   1       5.665  -9.178  45.223  0.00  0.00     0.064 H 
ATOM     41  H20 ARG d   1       6.247  -8.441  46.755  0.00  0.00     0.064 H 
BRANCH  39  42
ATOM     42  NE  ARG d   1       5.588 -10.443  46.914  0.00  0.00    -0.227 N 
ATOM     43  CZ  ARG d   1       5.727 -10.579  48.222  0.00  0.00     0.665 C 
ATOM     44  NH1 ARG d   1       6.468  -9.694  48.871  0.00  0.00    -0.235 N 
ATOM     45  NH2 ARG d   1       5.151 -11.587  48.876  0.00  0.00    -0.235 N 
ATOM     46  H22 ARG d   1       6.593  -9.776  49.890  0.00  0.00     0.174 HD
ATOM     47  H23 ARG d   1       6.919  -8.924  48.357  0.00  0.00     0.174 HD
ATOM     48  H24 ARG d   1       4.576 -12.271  48.364  0.00  0.00     0.174 HD
ATOM     49  H25 ARG d   1       5.281 -11.682  49.893  0.00  0.00     0.174 HD
ATOM     50  H21 ARG d   1       5.006 -11.125  46.407  0.00  0.00     0.177 HD
ENDBRANCH  39  42
ENDBRANCH  36  39
ENDBRANCH  33  36
ENDBRANCH   7  33
ENDBRANCH   4   7
ENDBRANCH   1   3
BRANCH   1  51
ATOM     51  CB  KCR d   1      11.699  -9.128  40.360  0.00  0.00    -0.038 C 
ATOM     52  H28 KCR d   1      11.613 -10.225  40.344  0.00  0.00     0.036 H 
ATOM     53  H29 KCR d   1      12.421  -8.828  41.134  0.00  0.00     0.036 H 
BRANCH  51  54
ATOM     54  CG  KCR d   1      12.237  -8.678  39.015  0.00  0.00    -0.061 C 
ATOM     55  H30 KCR d   1      12.169  -7.583  38.937  0.00  0.00     0.033 H 
ATOM     56  H31 KCR d   1      11.649  -9.140  38.208  0.00  0.00     0.033 H 
BRANCH  54  57
ATOM     57  CD  KCR d   1      13.688  -9.108  38.900  0.00  0.00    -0.050 C 
ATOM     58  H32 KCR d   1      13.740 -10.190  39.091  0.00  0.00     0.035 H 
ATOM     59  H33 KCR d   1      14.265  -8.572  39.668  0.00  0.00     0.035 H 
BRANCH  57  60
ATOM     60  CE  KCR d   1      14.327  -8.838  37.560  0.00  0.00    -0.004 C 
ATOM     61  H34 KCR d   1      14.575  -7.770  37.474  0.00  0.00     0.064 H 
ATOM     62  H35 KCR d   1      13.634  -9.120  36.753  0.00  0.00     0.064 H 
BRANCH  60  63
ATOM     63  NZ  KCR d   1      15.513  -9.616  37.470  0.00  0.00    -0.358 N 
ATOM     64  CH  KCR d   1      16.313  -9.514  36.321  0.00  0.00     0.240 C 
ATOM     65  OH  KCR d   1      15.960  -8.745  35.441  0.00  0.00    -0.269 OA
ATOM     66  H36 KCR d   1      15.774 -10.229  38.216  0.00  0.00     0.162 HD
BRANCH  64  67
ATOM     67  CX  KCR d   1      17.584 -10.350  36.209  0.00  0.00    -0.022 C 
ATOM     68  CY  KCR d   1      18.359 -10.240  35.101  0.00  0.00    -0.102 C 
ATOM     69  H38 KCR d   1      18.067  -9.549  34.312  0.00  0.00     0.076 H 
ATOM     70  H37 KCR d   1      17.867 -11.029  37.012  0.00  0.00     0.091 H 
BRANCH  68  71
ATOM     71  CH3 KCR d   1      19.631 -11.066  34.939  0.00  0.00    -0.059 C 
ATOM     72  H39 KCR d   1      20.105 -10.825  33.976  0.00  0.00     0.032 H 
ATOM     73  H40 KCR d   1      19.379 -12.136  34.966  0.00  0.00     0.032 H 
ATOM     74  H41 KCR d   1      20.327 -10.832  35.758  0.00  0.00     0.032 H 
ENDBRANCH  68  71
ENDBRANCH  64  67
ENDBRANCH  60  63
ENDBRANCH  57  60
ENDBRANCH  54  57
ENDBRANCH  51  54
ENDBRANCH   1  51
BRANCH   1  75
ATOM     75  C   KCR d   1       9.379  -8.872  39.627  0.00  0.00     0.241 C 
ATOM     76  O   KCR d   1       8.937 -10.038  39.538  0.00  0.00    -0.271 OA
ATOM     77  N   SER d   1       9.046  -7.910  38.766  0.00  0.00    -0.344 N 
ATOM     78  H42 SER d   1       9.482  -7.011  38.815  0.00  0.00     0.163 HD
BRANCH  77  79
ATOM     79  CA  SER d   1       8.035  -8.189  37.752  0.00  0.00     0.109 C 
ATOM     80  H43 SER d   1       8.072  -9.266  37.533  0.00  0.00     0.090 H 
BRANCH  79  81
ATOM     81  C   SER d   1       8.281  -7.442  36.444  0.00  0.00     0.243 C 
ATOM     82  O   SER d   1       8.773  -6.284  36.430  0.00  0.00    -0.271 OA
ATOM     83  N   ALA d   1       7.923  -8.108  35.334  0.00  0.00    -0.346 N 
ATOM     84  H47 ALA d   1       7.529  -9.024  35.405  0.00  0.00     0.163 HD
BRANCH  83  85
ATOM     85  CA  ALA d   1       8.111  -7.491  34.019  0.00  0.00     0.086 C 
ATOM     86  H48 ALA d   1       9.071  -6.953  34.016  0.00  0.00     0.086 H 
BRANCH  85  87
ATOM     87  C   ALA d   1       6.992  -6.498  33.761  0.00  0.00     0.243 C 
ATOM     88  O   ALA d   1       5.814  -6.844  33.920  0.00  0.00    -0.271 OA
ATOM     89  N   PRO d   1       7.308  -5.267  33.381  0.00  0.00    -0.330 N 
ATOM     90  CA  PRO d   1       6.245  -4.288  33.083  0.00  0.00     0.108 C 
ATOM     91  CD  PRO d   1       8.647  -4.743  33.110  0.00  0.00     0.014 C 
ATOM     92  CB  PRO d   1       7.016  -3.095  32.501  0.00  0.00    -0.075 C 
ATOM     93  H52 PRO d   1       5.730  -4.003  34.012  0.00  0.00     0.094 H 
ATOM     94  CG  PRO d   1       8.389  -3.285  32.824  0.00  0.00    -0.087 C 
ATOM     95  H53 PRO d   1       6.592  -2.260  31.945  0.00  0.00     0.080 H 
ATOM     96  H54 PRO d   1       9.140  -2.497  32.859  0.00  0.00     0.079 H 
ATOM     97  H55 PRO d   1       9.099  -5.243  32.240  0.00  0.00     0.070 H 
ATOM     98  H56 PRO d   1       9.303  -4.864  33.984  0.00  0.00     0.070 H 
BRANCH  90  99
ATOM     99  C   PRO d   1       5.207  -4.773  32.086  0.00  0.00     0.245 C 
ATOM    100  O   PRO d   1       4.030  -4.399  32.186  0.00  0.00    -0.271 OA
ATOM    101  N   ALA d   1       5.604  -5.601  31.128  0.00  0.00    -0.345 N 
ATOM    102  H57 ALA d   1       6.551  -5.921  31.113  0.00  0.00     0.163 HD
BRANCH 101 103
ATOM    103  CA  ALA d   1       4.680  -6.049  30.101  0.00  0.00     0.093 C 
ATOM    104  H58 ALA d   1       3.691  -5.612  30.305  0.00  0.00     0.089 H 
BRANCH 103 105
ATOM    105  C   ALA d   1       4.559  -7.558  30.149  0.00  0.00     0.196 C 
ATOM    106  O   ALA d   1       4.274  -8.156  29.125  0.00  0.00    -0.646 OA
ATOM    107  OXT ALA d   1       4.735  -8.206  31.202  0.00  0.00    -0.646 OA
ENDBRANCH 103 105
BRANCH 103 108
ATOM    108  CB  ALA d   1       5.137  -5.581  28.712  0.00  0.00    -0.048 C 
ATOM    109  H59 ALA d   1       4.422  -5.932  27.953  0.00  0.00     0.030 H 
ATOM    110  H60 ALA d   1       6.133  -5.993  28.496  0.00  0.00     0.030 H 
ATOM    111  H61 ALA d   1       5.183  -4.482  28.692  0.00  0.00     0.030 H 
ENDBRANCH 103 108
ENDBRANCH 101 103
ENDBRANCH  90  99
ENDBRANCH  85  87
BRANCH  85 112
ATOM    112  CB  ALA d   1       8.144  -8.551  32.917  0.00  0.00    -0.049 C 
ATOM    113  H49 ALA d   1       8.286  -8.062  31.942  0.00  0.00     0.030 H 
ATOM    114  H50 ALA d   1       7.194  -9.106  32.914  0.00  0.00     0.030 H 
ATOM    115  H51 ALA d   1       8.975  -9.247  33.102  0.00  0.00     0.030 H 
ENDBRANCH  85 112
ENDBRANCH  83  85
ENDBRANCH  79  81
BRANCH  79 116
ATOM    116  CB  SER d   1       6.631  -7.855  38.291  0.00  0.00     0.044 C 
ATOM    117  H44 SER d   1       6.489  -8.361  39.258  0.00  0.00     0.077 H 
ATOM    118  H45 SER d   1       5.878  -8.214  37.575  0.00  0.00     0.077 H 
BRANCH 116 119
ATOM    119  OG  SER d   1       6.467  -6.459  38.472  0.00  0.00    -0.398 OA
ATOM    120  H46 SER d   1       6.585  -6.017  37.639  0.00  0.00     0.209 HD
ENDBRANCH 116 119
ENDBRANCH  79 116
ENDBRANCH  77  79
ENDBRANCH   1  75
TORSDOF 32
