REMARK WARNING: 32 MAX_TORS EXCEEDED!!!
REMARK  33 active torsions:
REMARK  status: ('A' for Active; 'I' for Inactive)
REMARK    1  A    between atoms: CA_6  and  CB_9 
REMARK    2  A    between atoms: CB_9  and  CG_10 
REMARK    3  A    between atoms: CG_10  and  CD_11 
REMARK       I    between atoms: CD_11  and  NE2_13 
REMARK    4  A    between atoms: CB_17  and  CA_16 
REMARK    5  A    between atoms: CG_18  and  CB_17 
REMARK    6  A    between atoms: CA_27  and  CB_30 
REMARK    7  A    between atoms: CB_30  and  CG_31 
REMARK    8  A    between atoms: CA_35  and  CB_38 
REMARK    9  A    between atoms: CB_38  and  CG_39 
REMARK   10  A    between atoms: CG_39  and  CD1_40 
REMARK   11  A    between atoms: CG_39  and  CD2_41 
REMARK   12  A    between atoms: CA_43  and  CB_46 
REMARK   13  A    between atoms: CB_46  and  OG_47 
REMARK   14  A    between atoms: CA_49  and  CB_52 
REMARK   15  A    between atoms: CB_52  and  OG1_53 
REMARK   16  A    between atoms: CB_52  and  CG2_54 
REMARK   17  A    between atoms: CA_56  and  CB_59 
REMARK   18  A    between atoms: CB_59  and  CG_60 
REMARK   19  A    between atoms: CG_60  and  CD_61 
REMARK   20  A    between atoms: CD_61  and  NE_62 
REMARK       I    between atoms: NE_62  and  CZ_63 
REMARK       I    between atoms: CZ_63  and  NH1_64 
REMARK       I    between atoms: CZ_63  and  NH2_65 
REMARK   21  A    between atoms: CA_67  and  CB_70 
REMARK   22  A    between atoms: CB_70  and  CG_71 
REMARK   23  A    between atoms: CG_71  and  CD_72 
REMARK   24  A    between atoms: CD_72  and  NE_73 
REMARK       I    between atoms: NE_73  and  CZ_74 
REMARK       I    between atoms: CZ_74  and  NH1_75 
REMARK   25  A    between atoms: CA_78  and  CB_81 
REMARK   26  A    between atoms: CB_81  and  CG_82 
REMARK   27  A    between atoms: CG_82  and  CD1_83 
REMARK   28  A    between atoms: CG_82  and  CD2_84 
REMARK   29  A    between atoms: CA_86  and  CB_89 
REMARK   30  A    between atoms: CB_89  and  CG_90 
REMARK   31  A    between atoms: CG_90  and  CD_91 
REMARK   32  A    between atoms: CD_91  and  CE_92 
REMARK   33  A    between atoms: CE_92  and  NZ_93 
ROOT
ATOM      1  N   GLY d   1      16.924 -31.653 -29.003  0.00  0.00    -0.084 NA
ATOM      2  CA  GLY d   1      16.623 -32.093 -27.654  0.00  0.00     0.215 A 
ATOM      3  C   GLY d   1      17.316 -33.379 -27.243  0.00  0.00     0.266 C 
ATOM      4  O   GLY d   1      17.490 -33.636 -26.054  0.00  0.00    -0.269 OA
ATOM      5  N   GLY d   1      17.981 -31.311 -31.518  0.00  0.00    -0.351 N 
ATOM      6  CA  GLY d   1      16.538 -31.336 -31.363  0.00  0.00     0.066 C 
ATOM      7  C   GLY d   1      16.132 -31.937 -30.033  0.00  0.00     0.243 C 
ATOM      8  O   GLY d   1      15.131 -32.650 -29.940  0.00  0.00    -0.276 OA
ATOM      9  OXT GLY d   1      16.794 -31.726 -29.015  0.00  0.00    -0.260 OA
ATOM     10  H1  GLY d   1      16.030 -31.610 -26.864  0.00  0.00     0.131 H 
ATOM     11  H95 GLY d   1      18.463 -30.440 -31.424  0.00  0.00     0.163 HD
ATOM     12  H96 GLY d   1      16.102 -31.937 -32.175  0.00  0.00     0.077 H 
ATOM     13  H97 GLY d   1      16.154 -30.307 -31.422  0.00  0.00     0.077 H 
ATOM     14  N   GLN d   1      17.711 -34.191 -28.219  0.00  0.00    -0.344 N 
ATOM     15  CA  GLN d   1      18.277 -35.505 -27.934  0.00  0.00     0.090 C 
ATOM     16  C   GLN d   1      19.727 -35.587 -28.387  0.00  0.00     0.241 C 
ATOM     17  O   GLN d   1      20.132 -34.879 -29.307  0.00  0.00    -0.271 OA
ATOM     18  H2  GLN d   1      17.618 -33.894 -29.169  0.00  0.00     0.163 HD
ATOM     19  H3  GLN d   1      18.247 -35.663 -26.846  0.00  0.00     0.087 H 
ATOM     20  N   6CV d   1      20.505 -36.448 -27.734  0.00  0.00    -0.346 N 
ATOM     21  CA  6CV d   1      21.907 -36.636 -28.098  0.00  0.00     0.093 C 
ATOM     22  C   6CV d   1      22.023 -37.306 -29.472  0.00  0.00     0.241 C 
ATOM     23  O   6CV d   1      21.342 -38.298 -29.727  0.00  0.00    -0.271 OA
ATOM     24  H10 6CV d   1      20.121 -36.978 -26.978  0.00  0.00     0.163 HD
ATOM     25  H11 6CV d   1      22.373 -35.642 -28.169  0.00  0.00     0.088 H 
ATOM     26  N   ASP d   1      22.870 -36.759 -30.345  0.00  0.00    -0.345 N 
ATOM     27  CA  ASP d   1      23.061 -37.304 -31.685  0.00  0.00     0.098 C 
ATOM     28  C   ASP d   1      24.380 -38.054 -31.819  0.00  0.00     0.241 C 
ATOM     29  O   ASP d   1      25.448 -37.531 -31.484  0.00  0.00    -0.271 OA
ATOM     30  H18 ASP d   1      23.391 -35.950 -30.073  0.00  0.00     0.163 HD
ATOM     31  H19 ASP d   1      22.241 -38.009 -31.884  0.00  0.00     0.088 H 
ATOM     32  N   LEU d   1      24.289 -39.267 -32.357  0.00  0.00    -0.346 N 
ATOM     33  CA  LEU d   1      25.423 -40.171 -32.491  0.00  0.00     0.089 C 
ATOM     34  C   LEU d   1      26.511 -39.669 -33.440  0.00  0.00     0.241 C 
ATOM     35  O   LEU d   1      27.702 -39.717 -33.119  0.00  0.00    -0.271 OA
ATOM     36  N   LEU d   1      23.843 -32.352 -28.899  0.00  0.00    -0.346 N 
ATOM     37  CA  LEU d   1      22.389 -32.365 -28.848  0.00  0.00     0.089 C 
ATOM     38  C   LEU d   1      21.843 -31.896 -30.177  0.00  0.00     0.241 C 
ATOM     39  O   LEU d   1      22.363 -30.961 -30.774  0.00  0.00    -0.271 OA
ATOM     40  H22 LEU d   1      23.396 -39.574 -32.686  0.00  0.00     0.163 HD
ATOM     41  H23 LEU d   1      25.875 -40.291 -31.495  0.00  0.00     0.087 H 
ATOM     42  H71 LEU d   1      24.342 -31.606 -28.459  0.00  0.00     0.163 HD
ATOM     43  H72 LEU d   1      22.048 -33.394 -28.659  0.00  0.00     0.087 H 
ATOM     44  N   SER d   1      26.091 -39.216 -34.618  0.00  0.00    -0.344 N 
ATOM     45  CA  SER d   1      27.012 -38.708 -35.631  0.00  0.00     0.109 C 
ATOM     46  C   SER d   1      27.678 -37.390 -35.226  0.00  0.00     0.243 C 
ATOM     47  O   SER d   1      28.725 -37.029 -35.763  0.00  0.00    -0.271 OA
ATOM     48  H33 SER d   1      25.111 -39.224 -34.817  0.00  0.00     0.163 HD
ATOM     49  H34 SER d   1      27.805 -39.458 -35.769  0.00  0.00     0.090 H 
ATOM     50  N   THR d   1      27.071 -36.687 -34.270  0.00  0.00    -0.344 N 
ATOM     51  CA  THR d   1      27.506 -35.344 -33.896  0.00  0.00     0.113 C 
ATOM     52  C   THR d   1      28.226 -35.290 -32.551  0.00  0.00     0.243 C 
ATOM     53  O   THR d   1      29.071 -34.422 -32.330  0.00  0.00    -0.271 OA
ATOM     54  H38 THR d   1      26.291 -37.093 -33.793  0.00  0.00     0.163 HD
ATOM     55  H39 THR d   1      28.201 -34.992 -34.672  0.00  0.00     0.091 H 
ATOM     56  N   ARG d   1      27.884 -36.215 -31.658  0.00  0.00    -0.346 N 
ATOM     57  CA  ARG d   1      28.259 -36.130 -30.241  0.00  0.00     0.089 C 
ATOM     58  C   ARG d   1      27.746 -34.834 -29.606  0.00  0.00     0.241 C 
ATOM     59  O   ARG d   1      28.341 -34.289 -28.679  0.00  0.00    -0.271 OA
ATOM     60  N   ARG d   1      26.620 -34.349 -30.108  0.00  0.00    -0.346 N 
ATOM     61  CA  ARG d   1      26.022 -33.128 -29.598  0.00  0.00     0.089 C 
ATOM     62  C   ARG d   1      24.520 -33.311 -29.518  0.00  0.00     0.241 C 
ATOM     63  O   ARG d   1      23.985 -34.311 -30.001  0.00  0.00    -0.271 OA
ATOM     64  H45 ARG d   1      27.349 -37.002 -31.965  0.00  0.00     0.163 HD
ATOM     65  H46 ARG d   1      27.761 -36.965 -29.727  0.00  0.00     0.087 H 
ATOM     66  H58 ARG d   1      26.171 -34.836 -30.857  0.00  0.00     0.163 HD
ATOM     67  H59 ARG d   1      26.417 -32.923 -28.592  0.00  0.00     0.087 H 
ATOM     68  N   LYS d   1      20.793 -32.558 -30.638  0.00  0.00    -0.346 N 
ATOM     69  CA  LYS d   1      20.180 -32.224 -31.911  0.00  0.00     0.089 C 
ATOM     70  C   LYS d   1      18.682 -32.411 -31.781  0.00  0.00     0.240 C 
ATOM     71  O   LYS d   1      18.175 -33.529 -31.894  0.00  0.00    -0.271 OA
ATOM     72  H82 LYS d   1      20.413 -33.307 -30.096  0.00  0.00     0.163 HD
ATOM     73  H83 LYS d   1      20.396 -31.174 -32.155  0.00  0.00     0.087 H 
ENDROOT
BRANCH  57  74
ATOM     74  CB  ARG d   1      29.773 -36.299 -30.012  0.00  0.00    -0.036 C 
ATOM     75  H47 ARG d   1      30.274 -35.358 -30.282  0.00  0.00     0.036 H 
ATOM     76  H48 ARG d   1      30.137 -37.108 -30.663  0.00  0.00     0.036 H 
BRANCH  74  77
ATOM     77  CG  ARG d   1      30.134 -36.645 -28.551  0.00  0.00    -0.048 C 
ATOM     78  H49 ARG d   1      29.835 -37.685 -28.356  0.00  0.00     0.035 H 
ATOM     79  H50 ARG d   1      29.574 -35.972 -27.886  0.00  0.00     0.035 H 
BRANCH  77  80
ATOM     80  CD  ARG d   1      31.618 -36.504 -28.240  0.00  0.00     0.009 C 
ATOM     81  H51 ARG d   1      31.751 -36.504 -27.148  0.00  0.00     0.064 H 
ATOM     82  H52 ARG d   1      31.975 -35.549 -28.653  0.00  0.00     0.064 H 
BRANCH  80  83
ATOM     83  NE  ARG d   1      32.418 -37.589 -28.809  0.00  0.00    -0.227 N 
ATOM     84  CZ  ARG d   1      33.380 -38.237 -28.157  0.00  0.00     0.665 C 
ATOM     85  NH1 ARG d   1      33.666 -37.917 -26.898  0.00  0.00    -0.235 N 
ATOM     86  NH2 ARG d   1      34.054 -39.211 -28.764  0.00  0.00    -0.235 N 
ATOM     87  H54 ARG d   1      34.411 -38.420 -26.395  0.00  0.00     0.174 HD
ATOM     88  H55 ARG d   1      33.142 -37.166 -26.426  0.00  0.00     0.174 HD
ATOM     89  H56 ARG d   1      33.834 -39.460 -29.739  0.00  0.00     0.174 HD
ATOM     90  H57 ARG d   1      34.796 -39.716 -28.259  0.00  0.00     0.174 HD
ATOM     91  H53 ARG d   1      32.223 -37.870 -29.780  0.00  0.00     0.177 HD
ENDBRANCH  80  83
ENDBRANCH  77  80
ENDBRANCH  74  77
ENDBRANCH  57  74
BRANCH  51  92
ATOM     92  CB  THR d   1      26.304 -34.368 -33.826  0.00  0.00     0.060 C 
ATOM     93  H40 THR d   1      25.771 -34.528 -32.877  0.00  0.00     0.086 H 
BRANCH  92  94
ATOM     94  OG1 THR d   1      25.404 -34.613 -34.916  0.00  0.00    -0.393 OA
ATOM     95  H41 THR d   1      25.084 -35.506 -34.866  0.00  0.00     0.210 HD
ENDBRANCH  92  94
BRANCH  92  96
ATOM     96  CG2 THR d   1      26.787 -32.932 -33.884  0.00  0.00    -0.050 C 
ATOM     97  H42 THR d   1      25.924 -32.252 -33.833  0.00  0.00     0.031 H 
ATOM     98  H43 THR d   1      27.330 -32.766 -34.826  0.00  0.00     0.031 H 
ATOM     99  H44 THR d   1      27.458 -32.736 -33.035  0.00  0.00     0.031 H 
ENDBRANCH  92  96
ENDBRANCH  51  92
BRANCH  61 100
ATOM    100  CB  ARG d   1      26.359 -31.949 -30.516  0.00  0.00    -0.036 C 
ATOM    101  H60 ARG d   1      25.795 -31.070 -30.169  0.00  0.00     0.036 H 
ATOM    102  H61 ARG d   1      26.044 -32.207 -31.538  0.00  0.00     0.036 H 
BRANCH 100 103
ATOM    103  CG  ARG d   1      27.848 -31.581 -30.551  0.00  0.00    -0.048 C 
ATOM    104  H62 ARG d   1      28.031 -30.940 -31.426  0.00  0.00     0.035 H 
ATOM    105  H63 ARG d   1      28.436 -32.506 -30.644  0.00  0.00     0.035 H 
BRANCH 103 106
ATOM    106  CD  ARG d   1      28.308 -30.830 -29.286  0.00  0.00     0.009 C 
ATOM    107  H64 ARG d   1      29.366 -30.551 -29.402  0.00  0.00     0.064 H 
ATOM    108  H65 ARG d   1      28.197 -31.495 -28.417  0.00  0.00     0.064 H 
BRANCH 106 109
ATOM    109  NE  ARG d   1      27.519 -29.616 -29.059  0.00  0.00    -0.227 N 
ATOM    110  CZ  ARG d   1      27.643 -28.488 -29.760  0.00  0.00     0.665 C 
ATOM    111  NH1 ARG d   1      28.534 -28.401 -30.738  0.00  0.00    -0.235 N 
ATOM    112  NH2 ARG d   1      26.869 -27.447 -29.479  0.00  0.00    -0.235 N 
ATOM    113  H67 ARG d   1      28.625 -27.527 -31.276  0.00  0.00     0.174 HD
ATOM    114  H68 ARG d   1      29.135 -29.207 -30.960  0.00  0.00     0.174 HD
ATOM    115  H69 ARG d   1      26.176 -27.511 -28.720  0.00  0.00     0.174 HD
ATOM    116  H70 ARG d   1      26.962 -26.575 -30.020  0.00  0.00     0.174 HD
ATOM    117  H66 ARG d   1      26.819 -29.635 -28.304  0.00  0.00     0.177 HD
ENDBRANCH 106 109
ENDBRANCH 103 106
ENDBRANCH 100 103
ENDBRANCH  61 100
BRANCH  45 118
ATOM    118  CB  SER d   1      26.284 -38.523 -36.963  0.00  0.00     0.044 C 
ATOM    119  H35 SER d   1      26.920 -37.935 -37.641  0.00  0.00     0.077 H 
ATOM    120  H36 SER d   1      25.341 -37.984 -36.785  0.00  0.00     0.077 H 
BRANCH 118 121
ATOM    121  OG  SER d   1      25.996 -39.773 -37.566  0.00  0.00    -0.398 OA
ATOM    122  H37 SER d   1      25.545 -39.630 -38.390  0.00  0.00     0.209 HD
ENDBRANCH 118 121
ENDBRANCH  45 118
BRANCH  37 123
ATOM    123  CB  LEU d   1      21.867 -31.461 -27.735  0.00  0.00    -0.035 C 
ATOM    124  H73 LEU d   1      20.776 -31.384 -27.853  0.00  0.00     0.037 H 
ATOM    125  H74 LEU d   1      22.321 -30.469 -27.872  0.00  0.00     0.037 H 
BRANCH 123 126
ATOM    126  CG  LEU d   1      22.145 -31.900 -26.306  0.00  0.00    -0.059 C 
ATOM    127  H75 LEU d   1      23.227 -32.059 -26.184  0.00  0.00     0.038 H 
BRANCH 126 128
ATOM    128  CD1 LEU d   1      21.701 -30.802 -25.346  0.00  0.00    -0.073 C 
ATOM    129  H76 LEU d   1      21.901 -31.117 -24.311  0.00  0.00     0.028 H 
ATOM    130  H77 LEU d   1      20.624 -30.619 -25.472  0.00  0.00     0.028 H 
ATOM    131  H78 LEU d   1      22.258 -29.878 -25.562  0.00  0.00     0.028 H 
ENDBRANCH 126 128
BRANCH 126 132
ATOM    132  CD2 LEU d   1      21.428 -33.207 -26.022  0.00  0.00    -0.073 C 
ATOM    133  H79 LEU d   1      21.771 -33.975 -26.731  0.00  0.00     0.028 H 
ATOM    134  H80 LEU d   1      20.343 -33.062 -26.135  0.00  0.00     0.028 H 
ATOM    135  H81 LEU d   1      21.650 -33.531 -24.994  0.00  0.00     0.028 H 
ENDBRANCH 126 132
ENDBRANCH 123 126
ENDBRANCH  37 123
BRANCH  33 136
ATOM    136  CB  LEU d   1      24.929 -41.537 -32.975  0.00  0.00    -0.035 C 
ATOM    137  H24 LEU d   1      24.474 -41.411 -33.969  0.00  0.00     0.037 H 
ATOM    138  H25 LEU d   1      24.170 -41.903 -32.268  0.00  0.00     0.037 H 
BRANCH 136 139
ATOM    139  CG  LEU d   1      26.037 -42.582 -33.079  0.00  0.00    -0.059 C 
ATOM    140  H26 LEU d   1      26.794 -42.239 -33.800  0.00  0.00     0.038 H 
BRANCH 139 141
ATOM    141  CD1 LEU d   1      26.633 -42.660 -31.725  0.00  0.00    -0.073 C 
ATOM    142  H27 LEU d   1      27.446 -43.401 -31.724  0.00  0.00     0.028 H 
ATOM    143  H28 LEU d   1      25.861 -42.962 -31.002  0.00  0.00     0.028 H 
ATOM    144  H29 LEU d   1      27.034 -41.675 -31.444  0.00  0.00     0.028 H 
ENDBRANCH 139 141
BRANCH 139 145
ATOM    145  CD2 LEU d   1      25.534 -43.953 -33.529  0.00  0.00    -0.073 C 
ATOM    146  H30 LEU d   1      25.096 -43.871 -34.535  0.00  0.00     0.028 H 
ATOM    147  H31 LEU d   1      24.769 -44.312 -32.825  0.00  0.00     0.028 H 
ATOM    148  H32 LEU d   1      26.374 -44.663 -33.551  0.00  0.00     0.028 H 
ENDBRANCH 139 145
ENDBRANCH 136 139
ENDBRANCH  33 136
BRANCH  69 149
ATOM    149  CB  LYS d   1      20.737 -33.117 -33.024  0.00  0.00    -0.038 C 
ATOM    150  H84 LYS d   1      20.336 -34.131 -32.880  0.00  0.00     0.036 H 
ATOM    151  H85 LYS d   1      21.832 -33.139 -32.927  0.00  0.00     0.036 H 
BRANCH 149 152
ATOM    152  CG  LYS d   1      20.396 -32.670 -34.444  0.00  0.00    -0.061 C 
ATOM    153  H86 LYS d   1      20.272 -31.577 -34.458  0.00  0.00     0.033 H 
ATOM    154  H87 LYS d   1      19.457 -33.149 -34.757  0.00  0.00     0.033 H 
BRANCH 152 155
ATOM    155  CD  LYS d   1      21.505 -33.060 -35.418  0.00  0.00    -0.043 C 
ATOM    156  H88 LYS d   1      21.569 -34.157 -35.465  0.00  0.00     0.035 H 
ATOM    157  H89 LYS d   1      22.459 -32.653 -35.053  0.00  0.00     0.035 H 
BRANCH 155 158
ATOM    158  CE  LYS d   1      21.241 -32.521 -36.817  0.00  0.00     0.080 C 
ATOM    159  H90 LYS d   1      22.082 -31.882 -37.125  0.00  0.00     0.075 H 
ATOM    160  H91 LYS d   1      20.314 -31.929 -36.809  0.00  0.00     0.075 H 
BRANCH 158 161
ATOM    161  NZ  LYS d   1      21.098 -33.651 -37.787  0.00  0.00    -0.079 N 
ATOM    162  H92 LYS d   1      20.924 -33.282 -38.709  0.00  0.00     0.274 HD
ATOM    163  H93 LYS d   1      20.327 -34.237 -37.508  0.00  0.00     0.274 HD
ATOM    164  H94 LYS d   1      21.947 -34.194 -37.797  0.00  0.00     0.274 HD
ENDBRANCH 158 161
ENDBRANCH 155 158
ENDBRANCH 152 155
ENDBRANCH 149 152
ENDBRANCH  69 149
BRANCH  27 165
ATOM    165  CB  ASP d   1      23.013 -36.193 -32.732  0.00  0.00     0.043 C 
ATOM    166  H20 ASP d   1      23.905 -35.560 -32.615  0.00  0.00     0.052 H 
ATOM    167  H21 ASP d   1      22.109 -35.589 -32.563  0.00  0.00     0.052 H 
BRANCH 165 168
ATOM    168  CG  ASP d   1      22.981 -36.731 -34.155  0.00  0.00     0.175 C 
ATOM    169  OD1 ASP d   1      24.048 -37.131 -34.684  0.00  0.00    -0.648 OA
ATOM    170  OD2 ASP d   1      21.878 -36.745 -34.745  0.00  0.00    -0.648 OA
ENDBRANCH 165 168
ENDBRANCH  27 165
BRANCH  21 171
ATOM    171  CB  6CV d   1      22.661 -37.428 -27.020  0.00  0.00    -0.014 C 
ATOM    172  H12 6CV d   1      22.154 -38.396 -26.896  0.00  0.00     0.043 H 
ATOM    173  H13 6CV d   1      22.602 -36.860 -26.080  0.00  0.00     0.043 H 
BRANCH 171 174
ATOM    174  CG  6CV d   1      24.120 -37.702 -27.305  0.00  0.00    -0.054 A 
ATOM    175  CD1 6CV d   1      25.093 -36.734 -27.083  0.00  0.00    -0.077 A 
ATOM    176  CE1 6CV d   1      26.427 -37.027 -27.358  0.00  0.00    -0.081 A 
ATOM    177  H14 6CV d   1      24.816 -35.759 -26.699  0.00  0.00     0.084 H 
ATOM    178  CZ  6CV d   1      26.802 -38.269 -27.860  0.00  0.00    -0.066 A 
ATOM    179  H15 6CV d   1      27.186 -36.274 -27.178  0.00  0.00     0.083 H 
ATOM    180  CE2 6CV d   1      25.824 -39.220 -28.089  0.00  0.00     0.011 A 
ATOM    181  H16 6CV d   1      27.843 -38.488 -28.068  0.00  0.00     0.085 H 
ATOM    182 BR   6CV d   1      26.274 -40.971 -28.803  0.00  0.00    -0.051 Br
ATOM    183  CD2 6CV d   1      24.495 -38.936 -27.810  0.00  0.00    -0.060 A 
ATOM    184  H17 6CV d   1      23.739 -39.691 -27.990  0.00  0.00     0.086 H 
ENDBRANCH 171 174
ENDBRANCH  21 171
BRANCH  15 185
ATOM    185  CB  GLN d   1      17.447 -36.607 -28.606  0.00  0.00    -0.030 C 
ATOM    186  H4  GLN d   1      17.953 -37.570 -28.444  0.00  0.00     0.037 H 
ATOM    187  H5  GLN d   1      17.398 -36.395 -29.684  0.00  0.00     0.037 H 
BRANCH 185 188
ATOM    188  CG  GLN d   1      16.022 -36.718 -28.073  0.00  0.00     0.011 C 
ATOM    189  H6  GLN d   1      15.499 -37.511 -28.628  0.00  0.00     0.047 H 
ATOM    190  H7  GLN d   1      15.510 -35.758 -28.235  0.00  0.00     0.047 H 
BRANCH 188 191
ATOM    191  CD  GLN d   1      15.974 -37.051 -26.585  0.00  0.00     0.215 C 
ATOM    192  OE1 GLN d   1      15.764 -36.174 -25.744  0.00  0.00    -0.274 OA
ATOM    193  NE2 GLN d   1      16.163 -38.326 -26.258  0.00  0.00    -0.370 N 
ATOM    194  H8  GLN d   1      16.142 -38.604 -25.298  0.00  0.00     0.159 HD
ATOM    195  H9  GLN d   1      16.326 -39.007 -26.972  0.00  0.00     0.159 HD
ENDBRANCH 188 191
ENDBRANCH 185 188
ENDBRANCH  15 185
TORSDOF 33
