REMARK  12 active torsions:
REMARK  status: ('A' for Active; 'I' for Inactive)
REMARK    1  A    between atoms: CAS_2  and  CAO_4 
REMARK    2  A    between atoms: CAM_9  and  CAL_10 
REMARK    3  A    between atoms: CAL_10  and  N_11 
REMARK    4  A    between atoms: N_11  and  CA_12 
REMARK    5  A    between atoms: CA_12  and  C_13 
REMARK       I    between atoms: C_13  and  NAC_15 
REMARK    6  A    between atoms: NAC_15  and  CAB_16 
REMARK    7  A    between atoms: NAC_15  and  CAD_18 
REMARK    8  A    between atoms: CAB_16  and  CAA_17 
REMARK    9  A    between atoms: CAD_18  and  CAE_19 
REMARK   10  A    between atoms: CAE_19  and  NAF_20 
REMARK   11  A    between atoms: NAF_20  and  CAH_21 
REMARK   12  A    between atoms: NAF_20  and  CAG_22 
ROOT
ATOM      1  C   MMK d   1     -21.819  21.187   0.586  0.00  0.00     0.245 C 
ATOM      2  O   MMK d   1     -22.751  21.590  -0.025  0.00  0.00    -0.272 OA
ATOM      3  NAC MMK d   1     -20.640  21.844   0.567  0.00  0.00    -0.349 N 
ENDROOT
BRANCH   3   4
ATOM      4  CAB MMK d   1     -19.473  21.392   1.304  0.00  0.00    -0.006 C 
ATOM      5  H10 MMK d   1     -19.789  20.708   2.106  0.00  0.00     0.063 H 
ATOM      6  H11 MMK d   1     -18.960  22.260   1.744  0.00  0.00     0.063 H 
BRANCH   4   7
ATOM      7  CAA MMK d   1     -18.519  20.662   0.362  0.00  0.00    -0.061 C 
ATOM      8  H12 MMK d   1     -17.637  20.322   0.925  0.00  0.00     0.029 H 
ATOM      9  H13 MMK d   1     -18.201  21.345  -0.440  0.00  0.00     0.029 H 
ATOM     10  H14 MMK d   1     -19.031  19.793  -0.078  0.00  0.00     0.029 H 
ENDBRANCH   4   7
ENDBRANCH   3   4
BRANCH   3  11
ATOM     11  CAD MMK d   1     -20.475  23.067  -0.201  0.00  0.00     0.020 C 
ATOM     12  H15 MMK d   1     -20.805  22.884  -1.234  0.00  0.00     0.066 H 
ATOM     13  H16 MMK d   1     -19.411  23.346  -0.200  0.00  0.00     0.066 H 
BRANCH  11  14
ATOM     14  CAE MMK d   1     -21.287  24.224   0.377  0.00  0.00     0.097 C 
ATOM     15  H17 MMK d   1     -20.948  24.399   1.409  0.00  0.00     0.078 H 
ATOM     16  H18 MMK d   1     -22.347  23.929   0.385  0.00  0.00     0.078 H 
BRANCH  14  17
ATOM     17  NAF MMK d   1     -21.171  25.470  -0.354  0.00  0.00    -0.077 N 
ATOM     18  H19 MMK d   1     -20.254  25.544  -0.766  0.00  0.00     0.279 HD
BRANCH  17  19
ATOM     19  CAH MMK d   1     -21.393  26.576   0.560  0.00  0.00     0.066 C 
ATOM     20  H20 MMK d   1     -21.307  27.526   0.013  0.00  0.00     0.068 H 
ATOM     21  H21 MMK d   1     -20.641  26.545   1.362  0.00  0.00     0.068 H 
ATOM     22  H22 MMK d   1     -22.399  26.494   0.997  0.00  0.00     0.068 H 
ENDBRANCH  17  19
BRANCH  17  23
ATOM     23  CAG MMK d   1     -22.184  25.498  -1.394  0.00  0.00     0.066 C 
ATOM     24  H23 MMK d   1     -22.019  24.661  -2.089  0.00  0.00     0.068 H 
ATOM     25  H24 MMK d   1     -22.119  26.449  -1.943  0.00  0.00     0.068 H 
ATOM     26  H25 MMK d   1     -23.181  25.405  -0.938  0.00  0.00     0.068 H 
ENDBRANCH  17  23
ENDBRANCH  14  17
ENDBRANCH  11  14
ENDBRANCH   3  11
BRANCH   1  27
ATOM     27  CA  MMK d   1     -21.933  19.907   1.407  0.00  0.00     0.154 C 
ATOM     28  H8  MMK d   1     -21.360  19.101   0.925  0.00  0.00     0.090 H 
ATOM     29  H9  MMK d   1     -21.543  20.078   2.421  0.00  0.00     0.090 H 
BRANCH  27  30
ATOM     30  N   MMK d   1     -23.335  19.543   1.473  0.00  0.00    -0.062 N 
ATOM     31  H6  MMK d   1     -23.803  19.903   0.656  0.00  0.00     0.278 HD
ATOM     32  H7  MMK d   1     -23.410  18.538   1.487  0.00  0.00     0.278 HD
BRANCH  30  33
ATOM     33  CAL MMK d   1     -23.981  20.077   2.657  0.00  0.00     0.121 C 
ATOM     34  H4  MMK d   1     -23.551  21.064   2.884  0.00  0.00     0.085 H 
ATOM     35  H5  MMK d   1     -25.058  20.183   2.459  0.00  0.00     0.085 H 
BRANCH  33  36
ATOM     36  CAM MMK d   1     -23.788  19.163   3.864  0.00  0.00     0.060 A 
ATOM     37  CAN MMK d   1     -23.758  19.690   5.149  0.00  0.00    -0.041 A 
ATOM     38  CAO MMK d   1     -23.582  18.832   6.228  0.00  0.00     0.044 A 
ATOM     39  H1  MMK d   1     -23.870  20.756   5.308  0.00  0.00     0.088 H 
ATOM     40  CAP MMK d   1     -23.432  17.472   6.009  0.00  0.00    -0.050 A 
ATOM     41  CAQ MMK d   1     -23.473  17.016   4.707  0.00  0.00     0.004 A 
ATOM     42  H2  MMK d   1     -23.287  16.786   6.836  0.00  0.00     0.087 H 
ATOM     43  NAR MMK d   1     -23.646  17.838   3.648  0.00  0.00    -0.264 NA
ATOM     44  H3  MMK d   1     -23.362  15.953   4.526  0.00  0.00     0.114 H 
BRANCH  38  45
ATOM     45  CAS MMK d   1     -23.542  19.366   7.654  0.00  0.00     0.209 C 
ATOM     46  OAT MMK d   1     -22.801  18.800   8.501  0.00  0.00    -0.644 OA
ATOM     47  OAU MMK d   1     -24.246  20.358   7.972  0.00  0.00    -0.644 OA
ENDBRANCH  38  45
ENDBRANCH  33  36
ENDBRANCH  30  33
ENDBRANCH  27  30
ENDBRANCH   1  27
TORSDOF 12
