REMARK  3 active torsions:
REMARK  status: ('A' for Active; 'I' for Inactive)
REMARK    1  A    between atoms: C19_13  and  C13_9 
REMARK    2  A    between atoms: C18_14  and  N20_15 
REMARK    3  A    between atoms: N24_19  and  C17_18 
ROOT
ATOM      1  C6  6DG d   1      40.444  51.459  35.525  0.00  0.00    -0.007 C 
ATOM      2  C19 6DG d   1      38.274  50.876  36.651  0.00  0.00     0.094 C 
ATOM      3  C18 6DG d   1      39.010  51.000  35.265  0.00  0.00     0.131 C 
ATOM      4  O25 6DG d   1      38.972  49.911  37.411  0.00  0.00    -0.377 OA
ATOM      5  C7  6DG d   1      40.238  50.371  37.829  0.00  0.00     0.047 C 
ATOM      6  C17 6DG d   1      41.155  50.531  36.557  0.00  0.00     0.127 C 
ATOM      7  H5  6DG d   1      40.426  52.486  35.919  0.00  0.00     0.039 H 
ATOM      8  H6  6DG d   1      41.004  51.439  34.579  0.00  0.00     0.039 H 
ATOM      9  H10 6DG d   1      38.242  51.846  37.169  0.00  0.00     0.094 H 
ATOM     10  H11 6DG d   1      39.044  50.008  34.791  0.00  0.00     0.088 H 
ATOM     11  H15 6DG d   1      40.687  49.644  38.522  0.00  0.00     0.077 H 
ATOM     12  H16 6DG d   1      40.132  51.342  38.335  0.00  0.00     0.077 H 
ATOM     13  H17 6DG d   1      41.364  49.548  36.109  0.00  0.00     0.088 H 
ENDROOT
BRANCH   6  14
ATOM     14  N24 6DG d   1      42.430  51.200  36.981  0.00  0.00    -0.055 N 
ATOM     15  C5  6DG d   1      43.348  51.492  35.819  0.00  0.00     0.126 C 
ATOM     16  C15 6DG d   1      44.706  51.353  36.385  0.00  0.00     0.092 A 
ATOM     17  H3  6DG d   1      43.186  52.512  35.441  0.00  0.00     0.086 H 
ATOM     18  H4  6DG d   1      43.189  50.769  35.005  0.00  0.00     0.086 H 
ATOM     19  N21 6DG d   1      45.975  51.686  35.997  0.00  0.00    -0.169 NA
ATOM     20  C14 6DG d   1      44.642  50.752  37.659  0.00  0.00     0.043 A 
ATOM     21  N23 6DG d   1      46.713  51.282  37.089  0.00  0.00    -0.226 N 
ATOM     22  C9  6DG d   1      48.120  51.393  37.204  0.00  0.00     0.007 A 
ATOM     23  C16 6DG d   1      45.919  50.697  38.120  0.00  0.00     0.160 A 
ATOM     24  C8  6DG d   1      48.679  50.902  38.339  0.00  0.00    -0.049 A 
ATOM     25  H8  6DG d   1      48.723  51.850  36.421  0.00  0.00     0.115 H 
ATOM     26  C10 6DG d   1      47.843  50.310  39.360  0.00  0.00     0.006 A 
ATOM     27  H7  6DG d   1      49.758  50.954  38.481  0.00  0.00     0.087 H 
ATOM     28  N22 6DG d   1      46.500  50.199  39.274  0.00  0.00    -0.241 NA
ATOM     29  H21 6DG d   1      48.328  49.929  40.257  0.00  0.00     0.114 H 
ATOM     30  C4  6DG d   1      43.236  50.389  38.000  0.00  0.00     0.113 C 
ATOM     31  H19 6DG d   1      43.063  49.310  37.876  0.00  0.00     0.083 H 
ATOM     32  H20 6DG d   1      42.987  50.685  39.030  0.00  0.00     0.083 H 
ATOM     33  H18 6DG d   1      42.175  52.076  37.410  0.00  0.00     0.281 HD
ENDBRANCH   6  14
BRANCH   3  34
ATOM     34  N20 6DG d   1      38.261  51.919  34.355  0.00  0.00    -0.072 N 
ATOM     35  H12 6DG d   1      38.745  51.987  33.474  0.00  0.00     0.274 HD
ATOM     36  H13 6DG d   1      38.200  52.833  34.776  0.00  0.00     0.274 HD
ATOM     37  H14 6DG d   1      37.333  51.557  34.202  0.00  0.00     0.274 HD
ENDBRANCH   3  34
BRANCH   2  38
ATOM     38  C13 6DG d   1      36.893  50.348  36.416  0.00  0.00     0.014 A 
ATOM     39  C3  6DG d   1      36.663  49.046  36.039  0.00  0.00    -0.034 A 
ATOM     40  C11 6DG d   1      35.343  48.615  35.771  0.00  0.00     0.117 A 
ATOM     41  H2  6DG d   1      37.491  48.352  35.947  0.00  0.00     0.089 H 
ATOM     42  F26 6DG d   1      35.131  47.366  35.351  0.00  0.00    -0.206 F 
ATOM     43  C1  6DG d   1      34.266  49.467  35.891  0.00  0.00    -0.043 A 
ATOM     44  C2  6DG d   1      34.531  50.779  36.278  0.00  0.00    -0.042 A 
ATOM     45  H9  6DG d   1      33.255  49.130  35.693  0.00  0.00     0.088 H 
ATOM     46  C12 6DG d   1      35.824  51.187  36.534  0.00  0.00     0.125 A 
ATOM     47  H1  6DG d   1      33.715  51.485  36.379  0.00  0.00     0.088 H 
ATOM     48  F27 6DG d   1      36.026  52.431  36.912  0.00  0.00    -0.205 F 
ENDBRANCH   2  38
TORSDOF 3
