REMARK  6 active torsions:
REMARK  status: ('A' for Active; 'I' for Inactive)
REMARK    1  A    between atoms: C36_31  and  C41_2 
REMARK    2  A    between atoms: C45_4  and  O51_36 
REMARK    3  A    between atoms: O51_36  and  C52_8 
REMARK    4  A    between atoms: C56_9  and  C58_10 
REMARK       I    between atoms: N1_21  and  C56_9 
REMARK    5  A    between atoms: C17_13  and  C15_12 
REMARK       I    between atoms: C15_12  and  N8_23 
REMARK    6  A    between atoms: C27_19  and  C20_15 
ROOT
ATOM      1  C41 6CY d   1       3.349 118.776  19.415  0.00  0.00    -0.007 A 
ATOM      2  C42 6CY d   1       4.584 119.136  19.965  0.00  0.00     0.016 A 
ATOM      3  C45 6CY d   1       3.747 118.872  22.181  0.00  0.00     0.184 A 
ATOM      4  C46 6CY d   1       2.484 118.486  21.689  0.00  0.00     0.098 A 
ATOM      5  C47 6CY d   1       2.288 118.461  20.294  0.00  0.00    -0.046 A 
ATOM      6  C49 6CY d   1       1.423 118.140  22.609  0.00  0.00     0.104 C 
ATOM      7  N44 6CY d   1       4.754 119.157  21.310  0.00  0.00    -0.235 NA
ATOM      8  N50 6CY d   1       0.592 117.852  23.357  0.00  0.00    -0.191 NA
ATOM      9  H3  6CY d   1       5.409 119.399  19.313  0.00  0.00     0.116 H 
ATOM     10  H4  6CY d   1       1.316 118.198  19.892  0.00  0.00     0.087 H 
ENDROOT
BRANCH   3  11
ATOM     11  O51 6CY d   1       3.942 118.887  23.568  0.00  0.00    -0.338 OA
BRANCH  11  12
ATOM     12  C52 6CY d   1       5.033 119.616  24.144  0.00  0.00     0.012 C 
ATOM     13  H5  6CY d   1       5.012 119.503  25.238  0.00  0.00     0.067 H 
ATOM     14  H6  6CY d   1       4.941 120.681  23.884  0.00  0.00     0.067 H 
ATOM     15  H7  6CY d   1       5.983 119.224  23.753  0.00  0.00     0.067 H 
ENDBRANCH  11  12
ENDBRANCH   3  11
BRANCH   1  16
ATOM     16  C36 6CY d   1       3.143 118.832  17.942  0.00  0.00    -0.024 A 
ATOM     17  C34 6CY d   1       2.487 117.787  17.279  0.00  0.00    -0.058 A 
ATOM     18  C33 6CY d   1       2.204 117.861  15.906  0.00  0.00     0.023 A 
ATOM     19  H22 6CY d   1       2.192 116.905  17.836  0.00  0.00     0.086 H 
ATOM     20  C27 6CY d   1       1.619 116.815  15.180  0.00  0.00     0.081 A 
ATOM     21  C32 6CY d   1       2.608 118.999  15.191  0.00  0.00     0.070 A 
ATOM     22  N28 6CY d   1       1.343 117.013  13.874  0.00  0.00    -0.240 NA
ATOM     23  C29 6CY d   1       1.717 118.135  13.224  0.00  0.00     0.088 A 
ATOM     24  N31 6CY d   1       2.325 119.127  13.887  0.00  0.00    -0.241 NA
ATOM     25  H17 6CY d   1       1.525 118.234  12.162  0.00  0.00     0.146 H 
ATOM     26  C39 6CY d   1       3.254 120.057  15.839  0.00  0.00    -0.053 A 
ATOM     27  C37 6CY d   1       3.505 119.985  17.220  0.00  0.00    -0.070 A 
ATOM     28  H24 6CY d   1       3.561 120.931  15.277  0.00  0.00     0.087 H 
ATOM     29  H23 6CY d   1       3.977 120.817  17.729  0.00  0.00     0.084 H 
BRANCH  20  30
ATOM     30  C20 6CY d   1       1.233 115.514  15.789  0.00  0.00    -0.005 A 
ATOM     31  C18 6CY d   1       0.026 114.916  15.404  0.00  0.00    -0.056 A 
ATOM     32  C17 6CY d   1      -0.378 113.712  15.997  0.00  0.00     0.033 A 
ATOM     33  H13 6CY d   1      -0.595 115.384  14.648  0.00  0.00     0.086 H 
ATOM     34  C25 6CY d   1       0.479 113.097  16.937  0.00  0.00    -0.068 A 
ATOM     35  C23 6CY d   1       1.724 113.643  17.283  0.00  0.00    -0.081 A 
ATOM     36  H16 6CY d   1       0.164 112.172  17.407  0.00  0.00     0.085 H 
ATOM     37  C21 6CY d   1       2.103 114.845  16.677  0.00  0.00    -0.071 A 
ATOM     38  H15 6CY d   1       2.372 113.149  17.998  0.00  0.00     0.083 H 
ATOM     39  H14 6CY d   1       3.077 115.269  16.892  0.00  0.00     0.084 H 
BRANCH  32  40
ATOM     40  C15 6CY d   1      -1.707 113.059  15.612  0.00  0.00     0.253 C 
ATOM     41  N8  6CY d   1      -1.805 111.717  15.287  0.00  0.00    -0.345 N 
ATOM     42  C5  6CY d   1      -0.598 110.851  15.302  0.00  0.00     0.013 C 
ATOM     43  C9  6CY d   1      -3.093 111.095  14.899  0.00  0.00     0.013 C 
ATOM     44  C2  6CY d   1      -0.448 110.023  13.993  0.00  0.00     0.013 C 
ATOM     45  H18 6CY d   1       0.292 111.487  15.422  0.00  0.00     0.066 H 
ATOM     46  H19 6CY d   1      -0.671 110.157  16.153  0.00  0.00     0.066 H 
ATOM     47  N1  6CY d   1      -1.748 109.344  13.798  0.00  0.00    -0.349 N 
ATOM     48  H1  6CY d   1      -0.230 110.686  13.143  0.00  0.00     0.066 H 
ATOM     49  H2  6CY d   1       0.359 109.283  14.098  0.00  0.00     0.066 H 
ATOM     50  C56 6CY d   1      -1.858 107.954  13.862  0.00  0.00     0.215 C 
ATOM     51  C12 6CY d   1      -2.907 110.249  13.596  0.00  0.00     0.013 C 
ATOM     52  O57 6CY d   1      -2.921 107.360  13.723  0.00  0.00    -0.274 OA
ATOM     53  H11 6CY d   1      -3.814 109.657  13.403  0.00  0.00     0.066 H 
ATOM     54  H12 6CY d   1      -2.716 110.916  12.742  0.00  0.00     0.066 H 
ATOM     55  H20 6CY d   1      -3.441 110.441  15.712  0.00  0.00     0.066 H 
ATOM     56  H21 6CY d   1      -3.838 111.883  14.718  0.00  0.00     0.066 H 
ATOM     57  O16 6CY d   1      -2.680 113.822  15.589  0.00  0.00    -0.267 OA
BRANCH  50  58
ATOM     58  C58 6CY d   1      -0.711 106.988  14.093  0.00  0.00    -0.003 C 
ATOM     59  H8  6CY d   1      -1.095 105.957  14.094  0.00  0.00     0.040 H 
ATOM     60  H9  6CY d   1      -0.239 107.205  15.062  0.00  0.00     0.040 H 
ATOM     61  H10 6CY d   1       0.032 107.102  13.290  0.00  0.00     0.040 H 
ENDBRANCH  50  58
ENDBRANCH  32  40
ENDBRANCH  20  30
ENDBRANCH   1  16
TORSDOF 6
