REMARK WARNING: 32 MAX_TORS EXCEEDED!!!
REMARK  33 active torsions:
REMARK  status: ('A' for Active; 'I' for Inactive)
REMARK    1  A    between atoms: CA_6  and  CB_9 
REMARK    2  A    between atoms: CB_9  and  CG_10 
REMARK    3  A    between atoms: CG_10  and  CD_11 
REMARK       I    between atoms: CD_11  and  NE2_13 
REMARK    4  A    between atoms: CA_15  and  CB_17 
REMARK    5  A    between atoms: CB_17  and  CG_18 
REMARK    6  A    between atoms: CA_27  and  CB_30 
REMARK    7  A    between atoms: CB_30  and  CG_31 
REMARK    8  A    between atoms: CA_35  and  CB_38 
REMARK    9  A    between atoms: CB_38  and  CG_39 
REMARK   10  A    between atoms: CG_39  and  CD1_40 
REMARK   11  A    between atoms: CG_39  and  CD2_41 
REMARK   12  A    between atoms: CA_43  and  CB_46 
REMARK   13  A    between atoms: CB_46  and  OG_47 
REMARK   14  A    between atoms: CA_49  and  CB_52 
REMARK   15  A    between atoms: CB_52  and  OG1_53 
REMARK   16  A    between atoms: CB_52  and  CG2_54 
REMARK   17  A    between atoms: CA_56  and  CB_59 
REMARK   18  A    between atoms: CB_59  and  CG_60 
REMARK   19  A    between atoms: CG_60  and  CD_61 
REMARK   20  A    between atoms: CD_61  and  NE_62 
REMARK       I    between atoms: NE_62  and  CZ_63 
REMARK       I    between atoms: CZ_63  and  NH1_64 
REMARK       I    between atoms: CZ_63  and  NH2_65 
REMARK   21  A    between atoms: CA_67  and  CB_70 
REMARK   22  A    between atoms: CB_70  and  CG_71 
REMARK   23  A    between atoms: CG_71  and  CD_72 
REMARK   24  A    between atoms: CD_72  and  NE_73 
REMARK       I    between atoms: NE_73  and  CZ_74 
REMARK       I    between atoms: CZ_74  and  NH1_75 
REMARK   25  A    between atoms: CA_78  and  CB_81 
REMARK   26  A    between atoms: CB_81  and  CG_82 
REMARK   27  A    between atoms: CG_82  and  CD1_83 
REMARK   28  A    between atoms: CG_82  and  CD2_84 
REMARK   29  A    between atoms: CA_86  and  CB_89 
REMARK   30  A    between atoms: CB_89  and  CG_90 
REMARK   31  A    between atoms: CG_90  and  CD_91 
REMARK   32  A    between atoms: CD_91  and  CE_92 
REMARK   33  A    between atoms: CE_92  and  NZ_93 
ROOT
ATOM      1  N   GLY d   1     -15.554 -32.277 -28.752  0.00  0.00    -0.084 NA
ATOM      2  CA  GLY d   1     -15.726 -32.735 -27.386  0.00  0.00     0.215 A 
ATOM      3  C   GLY d   1     -15.031 -34.052 -27.108  0.00  0.00     0.266 C 
ATOM      4  O   GLY d   1     -14.737 -34.381 -25.958  0.00  0.00    -0.269 OA
ATOM      5  N   GLY d   1     -14.632 -31.899 -31.340  0.00  0.00    -0.351 N 
ATOM      6  CA  GLY d   1     -16.042 -32.157 -31.117  0.00  0.00     0.066 C 
ATOM      7  C   GLY d   1     -16.333 -32.711 -29.737  0.00  0.00     0.243 C 
ATOM      8  O   GLY d   1     -17.243 -33.522 -29.563  0.00  0.00    -0.276 OA
ATOM      9  OXT GLY d   1     -15.665 -32.360 -28.764  0.00  0.00    -0.260 OA
ATOM     10  H1  GLY d   1     -16.234 -32.266 -26.530  0.00  0.00     0.131 H 
ATOM     11  H95 GLY d   1     -14.305 -30.954 -31.343  0.00  0.00     0.163 HD
ATOM     12  H96 GLY d   1     -16.388 -32.884 -31.866  0.00  0.00     0.077 H 
ATOM     13  H97 GLY d   1     -16.594 -31.214 -31.239  0.00  0.00     0.077 H 
ATOM     14  N   GLN d   1     -14.743 -34.799 -28.172  0.00  0.00    -0.344 N 
ATOM     15  CA  GLN d   1     -14.041 -36.075 -28.055  0.00  0.00     0.090 C 
ATOM     16  C   GLN d   1     -12.555 -35.933 -28.358  0.00  0.00     0.241 C 
ATOM     17  O   GLN d   1     -12.127 -34.991 -29.038  0.00  0.00    -0.271 OA
ATOM     18  H2  GLN d   1     -15.015 -34.477 -29.079  0.00  0.00     0.163 HD
ATOM     19  H3  GLN d   1     -14.152 -36.431 -27.020  0.00  0.00     0.087 H 
ATOM     20  C   6DU d   1     -10.041 -37.591 -29.371  0.00  0.00     0.241 C 
ATOM     21  CA  6DU d   1     -10.363 -36.919 -28.072  0.00  0.00     0.093 C 
ATOM     22  N   6DU d   1     -11.781 -36.892 -27.863  0.00  0.00    -0.346 N 
ATOM     23  OXT 6DU d   1     -10.538 -38.755 -29.638  0.00  0.00    -0.271 OA
ATOM     24  H10 6DU d   1      -9.994 -35.883 -28.096  0.00  0.00     0.088 H 
ATOM     25  H11 6DU d   1     -12.203 -37.622 -27.325  0.00  0.00     0.163 HD
ATOM     26  N   ASP d   1      -9.234 -36.940 -30.201  0.00  0.00    -0.345 N 
ATOM     27  CA  ASP d   1      -8.851 -37.525 -31.475  0.00  0.00     0.098 C 
ATOM     28  C   ASP d   1      -7.453 -38.119 -31.384  0.00  0.00     0.241 C 
ATOM     29  O   ASP d   1      -6.500 -37.445 -31.014  0.00  0.00    -0.271 OA
ATOM     30  H18 ASP d   1      -8.886 -36.038 -29.947  0.00  0.00     0.163 HD
ATOM     31  H19 ASP d   1      -9.557 -38.335 -31.712  0.00  0.00     0.088 H 
ATOM     32  N   LEU d   1      -7.347 -39.395 -31.736  0.00  0.00    -0.346 N 
ATOM     33  CA  LEU d   1      -6.075 -40.105 -31.658  0.00  0.00     0.089 C 
ATOM     34  C   LEU d   1      -5.071 -39.583 -32.676  0.00  0.00     0.241 C 
ATOM     35  O   LEU d   1      -3.860 -39.677 -32.453  0.00  0.00    -0.271 OA
ATOM     36  N   LEU d   1      -8.586 -32.305 -28.774  0.00  0.00    -0.346 N 
ATOM     37  CA  LEU d   1     -10.032 -32.457 -28.682  0.00  0.00     0.089 C 
ATOM     38  C   LEU d   1     -10.687 -31.986 -29.974  0.00  0.00     0.241 C 
ATOM     39  O   LEU d   1     -10.385 -30.897 -30.473  0.00  0.00    -0.271 OA
ATOM     40  H22 LEU d   1      -8.158 -39.881 -32.062  0.00  0.00     0.163 HD
ATOM     41  H23 LEU d   1      -5.657 -39.950 -30.652  0.00  0.00     0.087 H 
ATOM     42  H71 LEU d   1      -8.147 -31.531 -28.317  0.00  0.00     0.163 HD
ATOM     43  H72 LEU d   1     -10.266 -33.522 -28.536  0.00  0.00     0.087 H 
ATOM     44  N   SER d   1      -5.551 -39.032 -33.789  0.00  0.00    -0.344 N 
ATOM     45  CA  SER d   1      -4.679 -38.587 -34.866  0.00  0.00     0.109 C 
ATOM     46  C   SER d   1      -3.953 -37.278 -34.562  0.00  0.00     0.243 C 
ATOM     47  O   SER d   1      -3.054 -36.905 -35.324  0.00  0.00    -0.271 OA
ATOM     48  H33 SER d   1      -6.540 -38.921 -33.888  0.00  0.00     0.163 HD
ATOM     49  H34 SER d   1      -3.916 -39.364 -35.022  0.00  0.00     0.090 H 
ATOM     50  N   THR d   1      -4.306 -36.577 -33.478  0.00  0.00    -0.344 N 
ATOM     51  CA  THR d   1      -3.668 -35.305 -33.140  0.00  0.00     0.113 C 
ATOM     52  C   THR d   1      -3.429 -35.094 -31.651  0.00  0.00     0.243 C 
ATOM     53  O   THR d   1      -2.785 -34.106 -31.296  0.00  0.00    -0.271 OA
ATOM     54  H38 THR d   1      -5.026 -36.933 -32.882  0.00  0.00     0.163 HD
ATOM     55  H39 THR d   1      -2.690 -35.289 -33.643  0.00  0.00     0.091 H 
ATOM     56  N   ARG d   1      -3.901 -35.975 -30.771  0.00  0.00    -0.346 N 
ATOM     57  CA  ARG d   1      -3.868 -35.744 -29.326  0.00  0.00     0.089 C 
ATOM     58  C   ARG d   1      -4.570 -34.445 -28.944  0.00  0.00     0.241 C 
ATOM     59  O   ARG d   1      -4.207 -33.797 -27.963  0.00  0.00    -0.271 OA
ATOM     60  N   ARG d   1      -5.577 -34.059 -29.723  0.00  0.00    -0.346 N 
ATOM     61  CA  ARG d   1      -6.346 -32.848 -29.490  0.00  0.00     0.089 C 
ATOM     62  C   ARG d   1      -7.834 -33.170 -29.450  0.00  0.00     0.241 C 
ATOM     63  O   ARG d   1      -8.292 -34.168 -30.012  0.00  0.00    -0.271 OA
ATOM     64  H45 ARG d   1      -4.294 -36.829 -31.111  0.00  0.00     0.163 HD
ATOM     65  H46 ARG d   1      -4.420 -36.569 -28.851  0.00  0.00     0.087 H 
ATOM     66  H58 ARG d   1      -5.817 -34.630 -30.508  0.00  0.00     0.163 HD
ATOM     67  H59 ARG d   1      -6.049 -32.432 -28.516  0.00  0.00     0.087 H 
ATOM     68  N   LYS d   1     -11.580 -32.811 -30.517  0.00  0.00    -0.346 N 
ATOM     69  CA  LYS d   1     -12.310 -32.478 -31.738  0.00  0.00     0.089 C 
ATOM     70  C   LYS d   1     -13.763 -32.884 -31.541  0.00  0.00     0.240 C 
ATOM     71  O   LYS d   1     -14.086 -34.076 -31.566  0.00  0.00    -0.271 OA
ATOM     72  H82 LYS d   1     -11.757 -33.690 -30.073  0.00  0.00     0.163 HD
ATOM     73  H83 LYS d   1     -12.260 -31.391 -31.900  0.00  0.00     0.087 H 
ENDROOT
BRANCH  57  74
ATOM     74  CB  ARG d   1      -2.437 -35.772 -28.776  0.00  0.00    -0.036 C 
ATOM     75  H47 ARG d   1      -2.470 -35.524 -27.705  0.00  0.00     0.036 H 
ATOM     76  H48 ARG d   1      -1.843 -35.015 -29.309  0.00  0.00     0.036 H 
BRANCH  74  77
ATOM     77  CG  ARG d   1      -1.758 -37.118 -28.938  0.00  0.00    -0.048 C 
ATOM     78  H49 ARG d   1      -1.385 -37.205 -29.969  0.00  0.00     0.035 H 
ATOM     79  H50 ARG d   1      -2.495 -37.912 -28.747  0.00  0.00     0.035 H 
BRANCH  77  80
ATOM     80  CD  ARG d   1      -0.595 -37.292 -27.982  0.00  0.00     0.009 C 
ATOM     81  H51 ARG d   1      -0.981 -37.322 -26.953  0.00  0.00     0.064 H 
ATOM     82  H52 ARG d   1       0.088 -36.437 -28.093  0.00  0.00     0.064 H 
BRANCH  80  83
ATOM     83  NE  ARG d   1       0.143 -38.525 -28.247  0.00  0.00    -0.227 N 
ATOM     84  CZ  ARG d   1       1.213 -38.910 -27.561  0.00  0.00     0.665 C 
ATOM     85  NH1 ARG d   1       1.663 -38.156 -26.571  0.00  0.00    -0.235 N 
ATOM     86  NH2 ARG d   1       1.833 -40.044 -27.862  0.00  0.00    -0.235 N 
ATOM     87  H54 ARG d   1       2.493 -38.450 -26.036  0.00  0.00     0.174 HD
ATOM     88  H55 ARG d   1       1.184 -37.275 -26.336  0.00  0.00     0.174 HD
ATOM     89  H56 ARG d   1       1.485 -40.633 -28.632  0.00  0.00     0.174 HD
ATOM     90  H57 ARG d   1       2.663 -40.336 -27.326  0.00  0.00     0.174 HD
ATOM     91  H53 ARG d   1      -0.186 -39.132 -29.011  0.00  0.00     0.177 HD
ENDBRANCH  80  83
ENDBRANCH  77  80
ENDBRANCH  74  77
ENDBRANCH  57  74
BRANCH  51  92
ATOM     92  CB  THR d   1      -4.499 -34.119 -33.652  0.00  0.00     0.060 C 
ATOM     93  H40 THR d   1      -4.246 -33.229 -33.057  0.00  0.00     0.086 H 
BRANCH  92  94
ATOM     94  OG1 THR d   1      -5.891 -34.402 -33.498  0.00  0.00    -0.393 OA
ATOM     95  H41 THR d   1      -6.112 -35.180 -33.997  0.00  0.00     0.210 HD
ENDBRANCH  92  94
BRANCH  92  96
ATOM     96  CG2 THR d   1      -4.203 -33.827 -35.119  0.00  0.00    -0.050 C 
ATOM     97  H42 THR d   1      -4.813 -32.975 -35.453  0.00  0.00     0.031 H 
ATOM     98  H43 THR d   1      -4.446 -34.712 -35.725  0.00  0.00     0.031 H 
ATOM     99  H44 THR d   1      -3.137 -33.584 -35.236  0.00  0.00     0.031 H 
ENDBRANCH  92  96
ENDBRANCH  51  92
BRANCH  61 100
ATOM    100  CB  ARG d   1      -6.077 -31.793 -30.571  0.00  0.00    -0.036 C 
ATOM    101  H60 ARG d   1      -6.740 -30.934 -30.391  0.00  0.00     0.036 H 
ATOM    102  H61 ARG d   1      -6.307 -32.235 -31.552  0.00  0.00     0.036 H 
BRANCH 100 103
ATOM    103  CG  ARG d   1      -4.647 -31.295 -30.595  0.00  0.00    -0.048 C 
ATOM    104  H62 ARG d   1      -4.543 -30.537 -31.385  0.00  0.00     0.035 H 
ATOM    105  H63 ARG d   1      -3.975 -32.140 -30.807  0.00  0.00     0.035 H 
BRANCH 103 106
ATOM    106  CD  ARG d   1      -4.262 -30.677 -29.260  0.00  0.00     0.009 C 
ATOM    107  H64 ARG d   1      -3.235 -30.289 -29.332  0.00  0.00     0.064 H 
ATOM    108  H65 ARG d   1      -4.306 -31.455 -28.484  0.00  0.00     0.064 H 
BRANCH 106 109
ATOM    109  NE  ARG d   1      -5.152 -29.584 -28.880  0.00  0.00    -0.227 N 
ATOM    110  CZ  ARG d   1      -5.058 -28.345 -29.351  0.00  0.00     0.665 C 
ATOM    111  NH1 ARG d   1      -4.115 -28.037 -30.231  0.00  0.00    -0.235 N 
ATOM    112  NH2 ARG d   1      -5.911 -27.415 -28.946  0.00  0.00    -0.235 N 
ATOM    113  H67 ARG d   1      -4.044 -27.076 -30.595  0.00  0.00     0.174 HD
ATOM    114  H68 ARG d   1      -3.454 -28.759 -30.551  0.00  0.00     0.174 HD
ATOM    115  H69 ARG d   1      -6.644 -27.651 -28.263  0.00  0.00     0.174 HD
ATOM    116  H70 ARG d   1      -5.840 -26.456 -29.315  0.00  0.00     0.174 HD
ATOM    117  H66 ARG d   1      -5.901 -29.786 -28.203  0.00  0.00     0.177 HD
ENDBRANCH 106 109
ENDBRANCH 103 106
ENDBRANCH 100 103
ENDBRANCH  61 100
BRANCH  45 118
ATOM    118  CB  SER d   1      -5.492 -38.440 -36.156  0.00  0.00     0.044 C 
ATOM    119  H35 SER d   1      -4.827 -38.098 -36.963  0.00  0.00     0.077 H 
ATOM    120  H36 SER d   1      -6.287 -37.697 -35.997  0.00  0.00     0.077 H 
BRANCH 118 121
ATOM    121  OG  SER d   1      -6.082 -39.675 -36.534  0.00  0.00    -0.398 OA
ATOM    122  H37 SER d   1      -5.399 -40.320 -36.677  0.00  0.00     0.209 HD
ENDBRANCH 118 121
ENDBRANCH  45 118
BRANCH  37 123
ATOM    123  CB  LEU d   1     -10.575 -31.670 -27.490  0.00  0.00    -0.035 C 
ATOM    124  H73 LEU d   1     -11.673 -31.700 -27.544  0.00  0.00     0.037 H 
ATOM    125  H74 LEU d   1     -10.231 -30.630 -27.593  0.00  0.00     0.037 H 
BRANCH 123 126
ATOM    126  CG  LEU d   1     -10.166 -32.158 -26.098  0.00  0.00    -0.059 C 
ATOM    127  H75 LEU d   1      -9.076 -32.305 -26.093  0.00  0.00     0.038 H 
BRANCH 126 128
ATOM    128  CD1 LEU d   1     -10.510 -31.124 -25.036  0.00  0.00    -0.073 C 
ATOM    129  H76 LEU d   1     -10.206 -31.499 -24.047  0.00  0.00     0.028 H 
ATOM    130  H77 LEU d   1     -11.595 -30.940 -25.041  0.00  0.00     0.028 H 
ATOM    131  H78 LEU d   1      -9.978 -30.186 -25.252  0.00  0.00     0.028 H 
ENDBRANCH 126 128
BRANCH 126 132
ATOM    132  CD2 LEU d   1     -10.828 -33.495 -25.781  0.00  0.00    -0.073 C 
ATOM    133  H79 LEU d   1     -10.567 -34.227 -26.559  0.00  0.00     0.028 H 
ATOM    134  H80 LEU d   1     -11.920 -33.365 -25.751  0.00  0.00     0.028 H 
ATOM    135  H81 LEU d   1     -10.474 -33.857 -24.804  0.00  0.00     0.028 H 
ENDBRANCH 126 132
ENDBRANCH 123 126
ENDBRANCH  37 123
BRANCH  33 136
ATOM    136  CB  LEU d   1      -6.296 -41.603 -31.867  0.00  0.00    -0.035 C 
ATOM    137  H24 LEU d   1      -5.307 -42.067 -31.999  0.00  0.00     0.037 H 
ATOM    138  H25 LEU d   1      -6.883 -41.724 -32.789  0.00  0.00     0.037 H 
BRANCH 136 139
ATOM    139  CG  LEU d   1      -7.018 -42.370 -30.760  0.00  0.00    -0.059 C 
ATOM    140  H26 LEU d   1      -7.861 -41.760 -30.404  0.00  0.00     0.038 H 
BRANCH 139 141
ATOM    141  CD1 LEU d   1      -7.563 -43.680 -31.293  0.00  0.00    -0.073 C 
ATOM    142  H27 LEU d   1      -8.079 -44.219 -30.484  0.00  0.00     0.028 H 
ATOM    143  H28 LEU d   1      -6.734 -44.295 -31.672  0.00  0.00     0.028 H 
ATOM    144  H29 LEU d   1      -8.272 -43.477 -32.109  0.00  0.00     0.028 H 
ENDBRANCH 139 141
BRANCH 139 145
ATOM    145  CD2 LEU d   1      -6.077 -42.621 -29.593  0.00  0.00    -0.073 C 
ATOM    146  H30 LEU d   1      -5.692 -41.661 -29.220  0.00  0.00     0.028 H 
ATOM    147  H31 LEU d   1      -5.237 -43.248 -29.927  0.00  0.00     0.028 H 
ATOM    148  H32 LEU d   1      -6.621 -43.136 -28.788  0.00  0.00     0.028 H 
ENDBRANCH 139 145
ENDBRANCH 136 139
ENDBRANCH  33 136
BRANCH  69 149
ATOM    149  CB  LYS d   1     -11.705 -33.175 -32.958  0.00  0.00    -0.038 C 
ATOM    150  H84 LYS d   1     -11.967 -34.242 -32.913  0.00  0.00     0.036 H 
ATOM    151  H85 LYS d   1     -10.612 -33.063 -32.914  0.00  0.00     0.036 H 
BRANCH 149 152
ATOM    152  CG  LYS d   1     -12.190 -32.619 -34.288  0.00  0.00    -0.061 C 
ATOM    153  H86 LYS d   1     -12.039 -31.529 -34.297  0.00  0.00     0.033 H 
ATOM    154  H87 LYS d   1     -13.261 -32.842 -34.400  0.00  0.00     0.033 H 
BRANCH 152 155
ATOM    155  CD  LYS d   1     -11.432 -33.234 -35.452  0.00  0.00    -0.043 C 
ATOM    156  H88 LYS d   1     -11.657 -34.310 -35.498  0.00  0.00     0.035 H 
ATOM    157  H89 LYS d   1     -10.353 -33.092 -35.292  0.00  0.00     0.035 H 
BRANCH 155 158
ATOM    158  CE  LYS d   1     -11.826 -32.590 -36.770  0.00  0.00     0.080 C 
ATOM    159  H90 LYS d   1     -11.601 -31.514 -36.722  0.00  0.00     0.075 H 
ATOM    160  H91 LYS d   1     -12.905 -32.732 -36.928  0.00  0.00     0.075 H 
BRANCH 158 161
ATOM    161  NZ  LYS d   1     -11.088 -33.187 -37.917  0.00  0.00    -0.079 N 
ATOM    162  H92 LYS d   1     -11.374 -32.736 -38.772  0.00  0.00     0.274 HD
ATOM    163  H93 LYS d   1     -11.293 -34.172 -37.972  0.00  0.00     0.274 HD
ATOM    164  H94 LYS d   1     -10.097 -33.056 -37.784  0.00  0.00     0.274 HD
ENDBRANCH 158 161
ENDBRANCH 155 158
ENDBRANCH 152 155
ENDBRANCH 149 152
ENDBRANCH  69 149
BRANCH  27 165
ATOM    165  CB  ASP d   1      -8.928 -36.481 -32.588  0.00  0.00     0.043 C 
ATOM    166  H20 ASP d   1      -8.296 -35.624 -32.312  0.00  0.00     0.052 H 
ATOM    167  H21 ASP d   1      -9.972 -36.149 -32.689  0.00  0.00     0.052 H 
BRANCH 165 168
ATOM    168  CG  ASP d   1      -8.460 -37.018 -33.921  0.00  0.00     0.175 C 
ATOM    169  OD1 ASP d   1      -9.102 -37.952 -34.442  0.00  0.00    -0.648 OA
ATOM    170  OD2 ASP d   1      -7.456 -36.499 -34.453  0.00  0.00    -0.648 OA
ENDBRANCH 165 168
ENDBRANCH  27 165
BRANCH  21 171
ATOM    171  CB  6DU d   1      -9.638 -37.678 -26.974  0.00  0.00    -0.013 C 
ATOM    172  H12 6DU d   1     -10.200 -38.606 -26.794  0.00  0.00     0.043 H 
ATOM    173  H13 6DU d   1      -9.666 -37.050 -26.071  0.00  0.00     0.043 H 
BRANCH 171 174
ATOM    174  CG  6DU d   1      -8.190 -38.068 -27.205  0.00  0.00    -0.038 A 
ATOM    175  CD1 6DU d   1      -7.210 -37.104 -27.089  0.00  0.00     0.017 A 
ATOM    176 BR   6DU d   1      -7.739 -35.236 -26.637  0.00  0.00    -0.051 Br
ATOM    177  CE1 6DU d   1      -5.883 -37.449 -27.286  0.00  0.00    -0.066 A 
ATOM    178  CZ  6DU d   1      -5.548 -38.734 -27.599  0.00  0.00    -0.082 A 
ATOM    179  H15 6DU d   1      -5.109 -36.696 -27.191  0.00  0.00     0.085 H 
ATOM    180  CE2 6DU d   1      -6.528 -39.690 -27.710  0.00  0.00    -0.082 A 
ATOM    181  H17 6DU d   1      -4.510 -39.000 -27.760  0.00  0.00     0.083 H 
ATOM    182  CD2 6DU d   1      -7.851 -39.350 -27.512  0.00  0.00    -0.075 A 
ATOM    183  H16 6DU d   1      -6.262 -40.712 -27.953  0.00  0.00     0.083 H 
ATOM    184  H14 6DU d   1      -8.622 -40.106 -27.601  0.00  0.00     0.084 H 
ENDBRANCH 171 174
ENDBRANCH  21 171
BRANCH  15 185
ATOM    185  CB  GLN d   1     -14.641 -37.117 -28.995  0.00  0.00    -0.030 C 
ATOM    186  H4  GLN d   1     -13.905 -37.923 -29.129  0.00  0.00     0.037 H 
ATOM    187  H5  GLN d   1     -14.836 -36.634 -29.964  0.00  0.00     0.037 H 
BRANCH 185 188
ATOM    188  CG  GLN d   1     -15.934 -37.735 -28.506  0.00  0.00     0.011 C 
ATOM    189  H6  GLN d   1     -16.767 -37.057 -28.745  0.00  0.00     0.047 H 
ATOM    190  H7  GLN d   1     -15.874 -37.872 -27.416  0.00  0.00     0.047 H 
BRANCH 188 191
ATOM    191  CD  GLN d   1     -16.191 -39.077 -29.156  0.00  0.00     0.215 C 
ATOM    192  OE1 GLN d   1     -15.320 -39.629 -29.839  0.00  0.00    -0.274 OA
ATOM    193  NE2 GLN d   1     -17.386 -39.617 -28.944  0.00  0.00    -0.370 N 
ATOM    194  H8  GLN d   1     -17.613 -40.503 -29.348  0.00  0.00     0.159 HD
ATOM    195  H9  GLN d   1     -18.058 -39.138 -28.380  0.00  0.00     0.159 HD
ENDBRANCH 188 191
ENDBRANCH 185 188
ENDBRANCH  15 185
TORSDOF 33
