REMARK  6 active torsions:
REMARK  status: ('A' for Active; 'I' for Inactive)
REMARK    1  A    between atoms: C_33  and  C1_1 
REMARK    2  A    between atoms: C1_1  and  N_34 
REMARK    3  A    between atoms: C18_11  and  C22_15 
REMARK    4  A    between atoms: C10_25  and  N3_24 
REMARK    5  A    between atoms: N1_32  and  C6_31 
REMARK    6  A    between atoms: N1_32  and  C_33 
ROOT
ATOM      1  C11 6DA d   1     -15.103   9.792  -2.804  0.00  0.00    -0.038 A 
ATOM      2  C12 6DA d   1     -16.300   9.884  -3.507  0.00  0.00     0.039 A 
ATOM      3  C10 6DA d   1     -14.541   8.525  -2.627  0.00  0.00     0.042 A 
ATOM      4  C9  6DA d   1     -15.158   7.392  -3.166  0.00  0.00    -0.054 A 
ATOM      5  C8  6DA d   1     -16.369   7.493  -3.828  0.00  0.00    -0.052 A 
ATOM      6  C7  6DA d   1     -16.955   8.748  -4.003  0.00  0.00     0.077 A 
ATOM      7  N2  6DA d   1     -18.167   8.992  -4.646  0.00  0.00    -0.224 NA
ATOM      8  S   6DA d   1     -17.246  11.305  -3.843  0.00  0.00    -0.050 SA
ATOM      9  C6  6DA d   1     -18.428  10.268  -4.616  0.00  0.00     0.167 A 
ATOM     10  H7  6DA d   1     -14.621  10.677  -2.405  0.00  0.00     0.089 H 
ATOM     11  H17 6DA d   1     -14.682   6.423  -3.064  0.00  0.00     0.087 H 
ATOM     12  H18 6DA d   1     -16.859   6.604  -4.208  0.00  0.00     0.087 H 
ENDROOT
BRANCH   3  13
ATOM     13  N3  6DA d   1     -13.276   8.406  -2.019  0.00  0.00    -0.303 N 
ATOM     14  C13 6DA d   1     -13.033   7.929  -0.748  0.00  0.00     0.072 A 
ATOM     15  N4  6DA d   1     -11.762   7.834  -0.441  0.00  0.00    -0.240 NA
ATOM     16  H8  6DA d   1     -13.829   7.654  -0.058  0.00  0.00     0.144 H 
ATOM     17  C14 6DA d   1     -11.096   8.278  -1.582  0.00  0.00     0.103 A 
ATOM     18  C15 6DA d   1      -9.762   8.408  -1.965  0.00  0.00     0.033 A 
ATOM     19  C21 6DA d   1     -12.018   8.593  -2.582  0.00  0.00     0.083 A 
ATOM     20  N5  6DA d   1      -9.293   8.841  -3.118  0.00  0.00    -0.256 NA
ATOM     21  H9  6DA d   1      -9.023   8.119  -1.227  0.00  0.00     0.118 H 
ATOM     22  C16 6DA d   1     -10.211   9.146  -4.090  0.00  0.00     0.086 A 
ATOM     23  C17 6DA d   1      -9.869   9.623  -5.419  0.00  0.00     0.031 A 
ATOM     24  C20 6DA d   1     -11.613   9.064  -3.871  0.00  0.00     0.026 A 
ATOM     25  N6  6DA d   1     -10.703   9.964  -6.377  0.00  0.00    -0.258 NA
ATOM     26  H10 6DA d   1      -8.812   9.707  -5.645  0.00  0.00     0.118 H 
ATOM     27  C18 6DA d   1     -12.020   9.838  -6.129  0.00  0.00     0.067 A 
ATOM     28  C19 6DA d   1     -12.498   9.390  -4.930  0.00  0.00    -0.040 A 
ATOM     29  H11 6DA d   1     -13.567   9.282  -4.787  0.00  0.00     0.088 H 
BRANCH  27  30
ATOM     30  C22 6DA d   1     -12.961  10.257  -7.199  0.00  0.00    -0.007 A 
ATOM     31  C23 6DA d   1     -14.206  10.806  -6.881  0.00  0.00    -0.071 A 
ATOM     32  C24 6DA d   1     -15.093  11.178  -7.877  0.00  0.00    -0.082 A 
ATOM     33  H12 6DA d   1     -14.481  10.942  -5.841  0.00  0.00     0.084 H 
ATOM     34  C25 6DA d   1     -14.752  11.024  -9.207  0.00  0.00    -0.083 A 
ATOM     35  H13 6DA d   1     -16.059  11.592  -7.612  0.00  0.00     0.083 H 
ATOM     36  C26 6DA d   1     -13.522  10.493  -9.541  0.00  0.00    -0.082 A 
ATOM     37  H14 6DA d   1     -15.447  11.319  -9.985  0.00  0.00     0.083 H 
ATOM     38  C27 6DA d   1     -12.637  10.101  -8.548  0.00  0.00    -0.071 A 
ATOM     39  H15 6DA d   1     -13.247  10.382 -10.584  0.00  0.00     0.083 H 
ATOM     40  H16 6DA d   1     -11.682   9.668  -8.823  0.00  0.00     0.084 H 
ENDBRANCH  27  30
ENDBRANCH   3  13
BRANCH   9  41
ATOM     41  N1  6DA d   1     -19.502  10.843  -5.168  0.00  0.00    -0.367 N 
ATOM     42  H19 6DA d   1     -19.478  11.859  -5.334  0.00  0.00     0.161 HD
BRANCH  41  43
ATOM     43  C   6DA d   1     -20.705  10.111  -5.548  0.00  0.00     0.017 C 
ATOM     44  H20 6DA d   1     -20.416   9.114  -5.913  0.00  0.00     0.066 H 
ATOM     45  H21 6DA d   1     -21.352  10.005  -4.665  0.00  0.00     0.066 H 
BRANCH  43  46
ATOM     46  C1  6DA d   1     -21.473  10.831  -6.637  0.00  0.00     0.098 C 
ATOM     47  H1  6DA d   1     -21.473  11.907  -6.410  0.00  0.00     0.078 H 
ATOM     48  H2  6DA d   1     -22.507  10.457  -6.639  0.00  0.00     0.078 H 
BRANCH  46  49
ATOM     49  N   6DA d   1     -20.906  10.639  -7.979  0.00  0.00    -0.066 N 
ATOM     50  C2  6DA d   1     -21.977  10.525  -8.984  0.00  0.00     0.103 C 
ATOM     51  C3  6DA d   1     -21.388  10.370 -10.370  0.00  0.00     0.042 C 
ATOM     52  H3  6DA d   1     -22.598   9.646  -8.754  0.00  0.00     0.079 H 
ATOM     53  H4  6DA d   1     -22.599  11.431  -8.954  0.00  0.00     0.079 H 
ATOM     54  O   6DA d   1     -20.512  11.453 -10.698  0.00  0.00    -0.388 OA
ATOM     55  H5  6DA d   1     -22.207  10.339 -11.104  0.00  0.00     0.076 H 
ATOM     56  H6  6DA d   1     -20.822   9.428 -10.413  0.00  0.00     0.076 H 
ATOM     57  C4  6DA d   1     -19.464  11.551  -9.734  0.00  0.00     0.042 C 
ATOM     58  C5  6DA d   1     -20.013  11.754  -8.342  0.00  0.00     0.103 C 
ATOM     59  H25 6DA d   1     -18.872  10.624  -9.754  0.00  0.00     0.076 H 
ATOM     60  H26 6DA d   1     -18.819  12.404  -9.992  0.00  0.00     0.076 H 
ATOM     61  H23 6DA d   1     -19.179  11.800  -7.626  0.00  0.00     0.079 H 
ATOM     62  H24 6DA d   1     -20.578  12.697  -8.308  0.00  0.00     0.079 H 
ATOM     63  H22 6DA d   1     -20.371   9.785  -7.979  0.00  0.00     0.280 HD
ENDBRANCH  46  49
ENDBRANCH  43  46
ENDBRANCH  41  43
ENDBRANCH   9  41
TORSDOF 6
