REMARK  6 active torsions:
REMARK  status: ('A' for Active; 'I' for Inactive)
REMARK    1  A    between atoms: C3_3  and  O4_4 
REMARK    2  A    between atoms: C7_7  and  C8_8 
REMARK    3  A    between atoms: C8_8  and  C9_9 
REMARK    4  A    between atoms: C9_9  and  N10_10 
REMARK    5  A    between atoms: C14_14  and  N15_15 
REMARK    6  A    between atoms: C20_20  and  C21_21 
ROOT
ATOM      1  N10 ZMA d   1     -22.240   9.591  15.928  0.00  0.00    -0.221 N 
ATOM      2  C11 ZMA d   1     -21.430   8.735  16.591  0.00  0.00     0.754 A 
ATOM      3  N12 ZMA d   1     -21.830   7.437  16.760  0.00  0.00     0.131 NA
ATOM      4  N13 ZMA d   1     -20.232   9.174  17.065  0.00  0.00     0.131 NA
ATOM      5  C14 ZMA d   1     -19.406   8.324  17.737  0.00  0.00     0.752 A 
ATOM      6  N16 ZMA d   1     -19.811   7.053  17.896  0.00  0.00     0.119 N 
ATOM      7  N17 ZMA d   1     -19.130   6.050  18.534  0.00  0.00    -0.115 NA
ATOM      8  C18 ZMA d   1     -20.996   6.625  17.427  0.00  0.00     0.760 A 
ATOM      9  N19 ZMA d   1     -21.187   5.323  17.737  0.00  0.00    -0.166 N 
ATOM     10  C20 ZMA d   1     -20.039   5.051  18.393  0.00  0.00     0.198 A 
ATOM     11  H10 ZMA d   1     -23.141   9.258  15.555  0.00  0.00     0.177 HD
ATOM     12  H13 ZMA d   1     -21.987   4.708  17.530  0.00  0.00     0.186 HD
ENDROOT
BRANCH   1  13
ATOM     13  C9  ZMA d   1     -21.846  10.983  15.738  0.00  0.00     0.013 C 
ATOM     14  H8  ZMA d   1     -22.752  11.573  15.536  0.00  0.00     0.065 H 
ATOM     15  H9  ZMA d   1     -21.376  11.338  16.667  0.00  0.00     0.065 H 
BRANCH  13  16
ATOM     16  C8  ZMA d   1     -20.853  11.207  14.576  0.00  0.00    -0.026 C 
ATOM     17  H6  ZMA d   1     -19.984  10.538  14.656  0.00  0.00     0.042 H 
ATOM     18  H7  ZMA d   1     -21.338  11.063  13.600  0.00  0.00     0.042 H 
BRANCH  16  19
ATOM     19  C7  ZMA d   1     -20.455  12.667  14.791  0.00  0.00    -0.057 A 
ATOM     20  C1  ZMA d   1     -21.311  13.678  14.293  0.00  0.00    -0.074 A 
ATOM     21  C2  ZMA d   1     -20.980  15.032  14.472  0.00  0.00    -0.051 A 
ATOM     22  H1  ZMA d   1     -22.223  13.408  13.773  0.00  0.00     0.084 H 
ATOM     23  C3  ZMA d   1     -19.794  15.359  15.144  0.00  0.00     0.065 A 
ATOM     24  H2  ZMA d   1     -21.632  15.812  14.096  0.00  0.00     0.087 H 
ATOM     25  C5  ZMA d   1     -18.935  14.345  15.639  0.00  0.00    -0.051 A 
ATOM     26  C6  ZMA d   1     -19.284  13.010  15.464  0.00  0.00    -0.074 A 
ATOM     27  H4  ZMA d   1     -18.015  14.608  16.149  0.00  0.00     0.087 H 
ATOM     28  H5  ZMA d   1     -18.640  12.230  15.854  0.00  0.00     0.084 H 
BRANCH  23  29
ATOM     29  O4  ZMA d   1     -19.484  16.683  15.307  0.00  0.00    -0.361 OA
ATOM     30  H3  ZMA d   1     -18.661  16.759  15.775  0.00  0.00     0.217 HD
ENDBRANCH  23  29
ENDBRANCH  16  19
ENDBRANCH  13  16
ENDBRANCH   1  13
BRANCH   5  31
ATOM     31  N15 ZMA d   1     -18.239   8.804  18.183  0.00  0.00    -0.230 N 
ATOM     32  H11 ZMA d   1     -17.994   9.792  18.024  0.00  0.00     0.174 HD
ATOM     33  H12 ZMA d   1     -17.586   8.186  18.685  0.00  0.00     0.174 HD
ENDBRANCH   5  31
BRANCH  10  34
ATOM     34  C21 ZMA d   1     -19.718   3.729  18.926  0.00  0.00     0.123 A 
ATOM     35  C22 ZMA d   1     -20.596   2.692  19.155  0.00  0.00    -0.045 A 
ATOM     36  C23 ZMA d   1     -19.722   1.712  19.653  0.00  0.00    -0.059 A 
ATOM     37  H14 ZMA d   1     -21.672   2.645  18.994  0.00  0.00     0.088 H 
ATOM     38  C24 ZMA d   1     -18.432   2.219  19.691  0.00  0.00     0.019 A 
ATOM     39  H15 ZMA d   1     -20.012   0.709  19.962  0.00  0.00     0.086 H 
ATOM     40  O25 ZMA d   1     -18.408   3.527  19.220  0.00  0.00    -0.319 OA
ATOM     41  H16 ZMA d   1     -17.559   1.669  20.041  0.00  0.00     0.123 H 
ENDBRANCH  10  34
TORSDOF 6
