REMARK  0 active torsions:
REMARK  status: ('A' for Active; 'I' for Inactive)
ROOT
ATOM      1  O6  7HX d   1     -19.853  45.115  20.548  0.00  0.00    -0.267 OA
ATOM      2  C6  7HX d   1     -19.694  44.122  21.276  0.00  0.00     0.260 A 
ATOM      3  N1  7HX d   1     -20.683  43.538  22.013  0.00  0.00    -0.317 N 
ATOM      4  C2  7HX d   1     -20.448  42.457  22.805  0.00  0.00     0.069 A 
ATOM      5  N3  7HX d   1     -19.213  41.912  22.916  0.00  0.00    -0.225 NA
ATOM      6  C4  7HX d   1     -18.142  42.422  22.221  0.00  0.00     0.144 A 
ATOM      7  C5  7HX d   1     -18.326  43.582  21.336  0.00  0.00     0.079 A 
ATOM      8  N9  7HX d   1     -16.819  42.139  22.080  0.00  0.00    -0.350 N 
ATOM      9  C8  7HX d   1     -16.166  43.008  21.215  0.00  0.00    -0.020 A 
ATOM     10  C7  7HX d   1     -17.077  43.922  20.732  0.00  0.00    -0.049 A 
ATOM     11  H1  7HX d   1     -21.608  43.916  21.970  0.00  0.00     0.170 HD
ATOM     12  H2  7HX d   1     -21.274  42.019  23.364  0.00  0.00     0.143 H 
ATOM     13  H3  7HX d   1     -16.350  41.361  22.565  0.00  0.00     0.166 HD
ATOM     14  H4  7HX d   1     -15.108  42.973  20.960  0.00  0.00     0.111 H 
ATOM     15  H5  7HX d   1     -16.885  44.736  20.034  0.00  0.00     0.087 H 
ENDROOT
TORSDOF 0
