REMARK  7 active torsions:
REMARK  status: ('A' for Active; 'I' for Inactive)
REMARK    1  A    between atoms: C23_6  and  C26_26 
REMARK    2  A    between atoms: C11_12  and  C14_11 
REMARK    3  A    between atoms: C02_14  and  N01_13 
REMARK    4  A    between atoms: N05_17  and  C04_16 
REMARK    5  A    between atoms: C06_18  and  N05_17 
REMARK    6  A    between atoms: C07_19  and  C06_18 
REMARK    7  A    between atoms: C07_19  and  N08_20 
ROOT
ATOM      1  C07 6DY d   1      -1.213  11.254  14.653  0.00  0.00     0.098 C 
ATOM      2  H18 6DY d   1      -1.735  11.009  13.716  0.00  0.00     0.078 H 
ATOM      3  H19 6DY d   1      -0.333  10.603  14.764  0.00  0.00     0.078 H 
ENDROOT
BRANCH   1   4
ATOM      4  C06 6DY d   1      -2.157  11.071  15.845  0.00  0.00     0.032 C 
ATOM      5  H16 6DY d   1      -1.675  11.471  16.749  0.00  0.00     0.067 H 
ATOM      6  H17 6DY d   1      -3.089  11.622  15.652  0.00  0.00     0.067 H 
BRANCH   4   7
ATOM      7  N05 6DY d   1      -2.459   9.718  16.048  0.00  0.00    -0.220 N 
ATOM      8  H15 6DY d   1      -3.365   9.396  15.677  0.00  0.00     0.177 HD
BRANCH   7   9
ATOM      9  C04 6DY d   1      -1.703   8.777  16.675  0.00  0.00     0.754 A 
ATOM     10  N03 6DY d   1      -0.468   9.251  17.187  0.00  0.00     0.131 NA
ATOM     11  C02 6DY d   1       0.360   8.413  17.842  0.00  0.00     0.752 A 
ATOM     12  N25 6DY d   1       0.002   7.093  18.024  0.00  0.00     0.121 N 
ATOM     13  C21 6DY d   1      -1.276   6.652  17.486  0.00  0.00     0.782 A 
ATOM     14  N24 6DY d   1       0.632   6.051  18.606  0.00  0.00    -0.113 NA
ATOM     15  N20 6DY d   1      -2.094   7.513  16.815  0.00  0.00     0.133 NA
ATOM     16  N22 6DY d   1      -1.396   5.350  17.794  0.00  0.00    -0.035 NA
ATOM     17  C23 6DY d   1      -0.237   5.005  18.487  0.00  0.00     0.223 A 
BRANCH  11  18
ATOM     18  N01 6DY d   1       1.564   8.860  18.338  0.00  0.00    -0.230 N 
ATOM     19  H13 6DY d   1       1.841   9.843  18.208  0.00  0.00     0.174 HD
ATOM     20  H14 6DY d   1       2.187   8.211  18.839  0.00  0.00     0.174 HD
ENDBRANCH  11  18
BRANCH  17  21
ATOM     21  C26 6DY d   1       0.033   3.697  18.972  0.00  0.00     0.125 A 
ATOM     22  C27 6DY d   1      -0.750   2.597  19.194  0.00  0.00    -0.045 A 
ATOM     23  C28 6DY d   1       0.100   1.513  19.675  0.00  0.00    -0.059 A 
ATOM     24  H23 6DY d   1      -1.826   2.540  19.038  0.00  0.00     0.088 H 
ATOM     25  C29 6DY d   1       1.402   2.066  19.715  0.00  0.00     0.019 A 
ATOM     26  H24 6DY d   1      -0.201   0.502  19.944  0.00  0.00     0.086 H 
ATOM     27  O30 6DY d   1       1.324   3.389  19.295  0.00  0.00    -0.319 OA
ATOM     28  H25 6DY d   1       2.308   1.545  20.022  0.00  0.00     0.123 H 
ENDBRANCH  17  21
ENDBRANCH   7   9
ENDBRANCH   4   7
ENDBRANCH   1   4
BRANCH   1  29
ATOM     29  N08 6DY d   1      -0.794  12.686  14.647  0.00  0.00    -0.070 N 
ATOM     30  C13 6DY d   1       0.308  12.836  15.655  0.00  0.00     0.084 C 
ATOM     31  C12 6DY d   1       0.951  14.212  15.581  0.00  0.00    -0.035 C 
ATOM     32  H3  6DY d   1      -0.108  12.690  16.663  0.00  0.00     0.076 H 
ATOM     33  H4  6DY d   1       1.076  12.072  15.461  0.00  0.00     0.076 H 
ATOM     34  C11 6DY d   1       1.530  14.495  14.177  0.00  0.00    -0.026 C 
ATOM     35  H10 6DY d   1       1.764  14.266  16.320  0.00  0.00     0.036 H 
ATOM     36  H11 6DY d   1       0.192  14.973  15.814  0.00  0.00     0.036 H 
ATOM     37  C10 6DY d   1       0.375  14.257  13.198  0.00  0.00    -0.035 C 
ATOM     38  H12 6DY d   1       2.273  13.709  13.976  0.00  0.00     0.047 H 
ATOM     39  C09 6DY d   1      -0.218  12.871  13.262  0.00  0.00     0.084 C 
ATOM     40  H1  6DY d   1       0.749  14.425  12.177  0.00  0.00     0.036 H 
ATOM     41  H2  6DY d   1      -0.421  14.983  13.421  0.00  0.00     0.036 H 
ATOM     42  H21 6DY d   1       0.564  12.119  13.077  0.00  0.00     0.076 H 
ATOM     43  H22 6DY d   1      -1.012  12.767  12.508  0.00  0.00     0.076 H 
ATOM     44  H20 6DY d   1      -1.557  13.317  14.834  0.00  0.00     0.279 HD
BRANCH  34  45
ATOM     45  C14 6DY d   1       2.313  15.807  14.041  0.00  0.00    -0.054 A 
ATOM     46  C15 6DY d   1       3.188  16.058  12.971  0.00  0.00    -0.076 A 
ATOM     47  C16 6DY d   1       3.902  17.234  12.790  0.00  0.00    -0.082 A 
ATOM     48  H5  6DY d   1       3.315  15.275  12.232  0.00  0.00     0.084 H 
ATOM     49  C17 6DY d   1       3.783  18.289  13.690  0.00  0.00    -0.083 A 
ATOM     50  H9  6DY d   1       4.562  17.332  11.936  0.00  0.00     0.083 H 
ATOM     51  C18 6DY d   1       2.917  18.099  14.772  0.00  0.00    -0.082 A 
ATOM     52  H6  6DY d   1       4.335  19.213  13.559  0.00  0.00     0.083 H 
ATOM     53  C19 6DY d   1       2.204  16.907  14.927  0.00  0.00    -0.076 A 
ATOM     54  H7  6DY d   1       2.797  18.890  15.503  0.00  0.00     0.083 H 
ATOM     55  H8  6DY d   1       1.530  16.819  15.772  0.00  0.00     0.084 H 
ENDBRANCH  34  45
ENDBRANCH   1  29
TORSDOF 7
