REMARK  7 active torsions:
REMARK  status: ('A' for Active; 'I' for Inactive)
REMARK    1  A    between atoms: C13_2  and  C19_23 
REMARK    2  A    between atoms: N02_8  and  C01_7 
REMARK    3  A    between atoms: C06_12  and  N05_11 
REMARK    4  A    between atoms: C07_13  and  C06_12 
REMARK    5  A    between atoms: N08_14  and  C07_13 
REMARK    6  A    between atoms: C09_15  and  N08_14 
REMARK    7  A    between atoms: C16_20  and  N17_21 
ROOT
ATOM      1  C07 6DZ d   1     -21.691  11.209  16.013  0.00  0.00     0.032 C 
ATOM      2  H17 6DZ d   1     -22.616  11.782  16.175  0.00  0.00     0.067 H 
ATOM      3  H18 6DZ d   1     -21.010  11.364  16.863  0.00  0.00     0.067 H 
ENDROOT
BRANCH   1   4
ATOM      4  C06 6DZ d   1     -21.021  11.691  14.743  0.00  0.00     0.099 C 
ATOM      5  H15 6DZ d   1     -20.120  11.087  14.558  0.00  0.00     0.078 H 
ATOM      6  H16 6DZ d   1     -21.719  11.577  13.900  0.00  0.00     0.078 H 
BRANCH   4   7
ATOM      7  N05 6DZ d   1     -20.688  12.921  14.850  0.00  0.00    -0.066 N 
ATOM      8  C24 6DZ d   1     -19.606  13.060  15.652  0.00  0.00     0.106 C 
ATOM      9  C25 6DZ d   1     -19.191  14.512  15.775  0.00  0.00     0.105 C 
ATOM     10  H4  6DZ d   1     -18.770  12.484  15.228  0.00  0.00     0.078 H 
ATOM     11  H5  6DZ d   1     -19.850  12.672  16.652  0.00  0.00     0.078 H 
ATOM     12  N02 6DZ d   1     -19.047  15.119  14.571  0.00  0.00    -0.072 N 
ATOM     13  H22 6DZ d   1     -18.231  14.559  16.310  0.00  0.00     0.078 H 
ATOM     14  H23 6DZ d   1     -19.959  15.050  16.351  0.00  0.00     0.078 H 
ATOM     15  C03 6DZ d   1     -20.092  14.919  13.730  0.00  0.00     0.105 C 
ATOM     16  H9  6DZ d   1     -18.223  14.739  14.133  0.00  0.00     0.279 HD
ATOM     17  C04 6DZ d   1     -20.478  13.457  13.627  0.00  0.00     0.106 C 
ATOM     18  H10 6DZ d   1     -19.815  15.283  12.729  0.00  0.00     0.078 H 
ATOM     19  H11 6DZ d   1     -20.958  15.488  14.100  0.00  0.00     0.078 H 
ATOM     20  H12 6DZ d   1     -19.667  12.906  13.128  0.00  0.00     0.078 H 
ATOM     21  H13 6DZ d   1     -21.400  13.370  13.034  0.00  0.00     0.078 H 
ATOM     22  H14 6DZ d   1     -21.454  13.416  15.278  0.00  0.00     0.280 HD
BRANCH  12  23
ATOM     23  C01 6DZ d   1     -18.875  16.374  14.743  0.00  0.00     0.066 C 
ATOM     24  H6  6DZ d   1     -18.758  16.865  13.766  0.00  0.00     0.068 H 
ATOM     25  H7  6DZ d   1     -17.971  16.541  15.348  0.00  0.00     0.068 H 
ATOM     26  H8  6DZ d   1     -19.747  16.796  15.264  0.00  0.00     0.068 H 
ENDBRANCH  12  23
ENDBRANCH   4   7
ENDBRANCH   1   4
BRANCH   1  27
ATOM     27  N08 6DZ d   1     -22.008   9.826  15.913  0.00  0.00    -0.220 N 
ATOM     28  H19 6DZ d   1     -22.808   9.509  15.347  0.00  0.00     0.177 HD
BRANCH  27  29
ATOM     29  C09 6DZ d   1     -21.198   8.894  16.609  0.00  0.00     0.754 A 
ATOM     30  N10 6DZ d   1     -21.599   7.617  16.762  0.00  0.00     0.133 NA
ATOM     31  C11 6DZ d   1     -20.791   6.728  17.442  0.00  0.00     0.782 A 
ATOM     32  N12 6DZ d   1     -20.935   5.383  17.750  0.00  0.00    -0.035 NA
ATOM     33  N15 6DZ d   1     -19.636   7.132  17.938  0.00  0.00     0.121 N 
ATOM     34  C13 6DZ d   1     -19.833   5.006  18.445  0.00  0.00     0.223 A 
ATOM     35  N14 6DZ d   1     -19.023   6.073  18.564  0.00  0.00    -0.113 NA
ATOM     36  C16 6DZ d   1     -19.231   8.439  17.780  0.00  0.00     0.752 A 
ATOM     37  N18 6DZ d   1     -20.017   9.304  17.118  0.00  0.00     0.131 NA
BRANCH  34  38
ATOM     38  C19 6DZ d   1     -19.536   3.627  18.984  0.00  0.00     0.125 A 
ATOM     39  C20 6DZ d   1     -20.451   2.612  19.217  0.00  0.00    -0.045 A 
ATOM     40  C21 6DZ d   1     -19.735   1.524  19.700  0.00  0.00    -0.059 A 
ATOM     41  H1  6DZ d   1     -21.526   2.659  19.053  0.00  0.00     0.088 H 
ATOM     42  C22 6DZ d   1     -18.399   1.889  19.753  0.00  0.00     0.019 A 
ATOM     43  H2  6DZ d   1     -20.149   0.558  19.986  0.00  0.00     0.086 H 
ATOM     44  O23 6DZ d   1     -18.309   3.164  19.312  0.00  0.00    -0.319 OA
ATOM     45  H3  6DZ d   1     -17.573   1.264  20.088  0.00  0.00     0.123 H 
ENDBRANCH  34  38
BRANCH  36  46
ATOM     46  N17 6DZ d   1     -17.988   8.867  18.314  0.00  0.00    -0.230 N 
ATOM     47  H20 6DZ d   1     -17.686   9.845  18.195  0.00  0.00     0.174 HD
ATOM     48  H21 6DZ d   1     -17.388   8.200  18.820  0.00  0.00     0.174 HD
ENDBRANCH  36  46
ENDBRANCH  27  29
ENDBRANCH   1  27
TORSDOF 7
