REMARK  8 active torsions:
REMARK  status: ('A' for Active; 'I' for Inactive)
REMARK    1  A    between atoms: N12_22  and  C15_3 
REMARK    2  A    between atoms: C24_7  and  C27_27 
REMARK    3  A    between atoms: C02_14  and  N01_13 
REMARK    4  A    between atoms: N05_17  and  C04_16 
REMARK    5  A    between atoms: C06_18  and  N05_17 
REMARK    6  A    between atoms: C07_19  and  C06_18 
REMARK    7  A    between atoms: C08_20  and  C07_19 
REMARK    8  A    between atoms: C08_20  and  N09_21 
ROOT
ATOM      1  C08 6DX d   1     -21.302  12.704  14.031  0.00  0.00     0.085 C 
ATOM      2  H21 6DX d   1     -22.337  13.006  13.811  0.00  0.00     0.076 H 
ATOM      3  H22 6DX d   1     -20.700  12.761  13.112  0.00  0.00     0.076 H 
ENDROOT
BRANCH   1   4
ATOM      4  C07 6DX d   1     -21.304  11.239  14.539  0.00  0.00    -0.027 C 
ATOM      5  H19 6DX d   1     -21.660  10.584  13.730  0.00  0.00     0.037 H 
ATOM      6  H20 6DX d   1     -20.276  10.958  14.813  0.00  0.00     0.037 H 
BRANCH   4   7
ATOM      7  C06 6DX d   1     -22.214  11.049  15.767  0.00  0.00     0.011 C 
ATOM      8  H17 6DX d   1     -21.693  11.407  16.667  0.00  0.00     0.064 H 
ATOM      9  H18 6DX d   1     -23.141  11.624  15.627  0.00  0.00     0.064 H 
BRANCH   7  10
ATOM     10  N05 6DX d   1     -22.538   9.642  15.925  0.00  0.00    -0.221 N 
ATOM     11  H16 6DX d   1     -23.425   9.270  15.556  0.00  0.00     0.177 HD
BRANCH  10  12
ATOM     12  C04 6DX d   1     -21.624   8.780  16.592  0.00  0.00     0.754 A 
ATOM     13  N03 6DX d   1     -20.405   9.245  17.000  0.00  0.00     0.131 NA
ATOM     14  C02 6DX d   1     -19.538   8.420  17.630  0.00  0.00     0.752 A 
ATOM     15  N26 6DX d   1     -19.888   7.112  17.857  0.00  0.00     0.121 N 
ATOM     16  C22 6DX d   1     -21.076   6.664  17.458  0.00  0.00     0.782 A 
ATOM     17  N25 6DX d   1     -19.208   6.086  18.463  0.00  0.00    -0.113 NA
ATOM     18  N21 6DX d   1     -21.965   7.511  16.810  0.00  0.00     0.133 NA
ATOM     19  N23 6DX d   1     -21.169   5.330  17.812  0.00  0.00    -0.035 NA
ATOM     20  C24 6DX d   1     -20.015   4.993  18.432  0.00  0.00     0.223 A 
BRANCH  14  21
ATOM     21  N01 6DX d   1     -18.259   8.897  18.059  0.00  0.00    -0.230 N 
ATOM     22  H14 6DX d   1     -17.992   9.877  17.891  0.00  0.00     0.174 HD
ATOM     23  H15 6DX d   1     -17.605   8.260  18.536  0.00  0.00     0.174 HD
ENDBRANCH  14  21
BRANCH  20  24
ATOM     24  C27 6DX d   1     -19.677   3.594  18.978  0.00  0.00     0.125 A 
ATOM     25  C28 6DX d   1     -20.587   2.558  19.226  0.00  0.00    -0.045 A 
ATOM     26  C29 6DX d   1     -19.843   1.461  19.697  0.00  0.00    -0.059 A 
ATOM     27  H24 6DX d   1     -21.666   2.595  19.081  0.00  0.00     0.088 H 
ATOM     28  C30 6DX d   1     -18.503   1.840  19.723  0.00  0.00     0.019 A 
ATOM     29  H25 6DX d   1     -20.242   0.491  19.989  0.00  0.00     0.086 H 
ATOM     30  O31 6DX d   1     -18.429   3.137  19.277  0.00  0.00    -0.319 OA
ATOM     31  H26 6DX d   1     -17.666   1.220  20.040  0.00  0.00     0.123 H 
ENDBRANCH  20  24
ENDBRANCH  10  12
ENDBRANCH   7  10
ENDBRANCH   4   7
ENDBRANCH   1   4
BRANCH   1  32
ATOM     32  N09 6DX d   1     -20.814  13.503  14.893  0.00  0.00    -0.068 N 
ATOM     33  C10 6DX d   1     -21.055  14.806  14.466  0.00  0.00     0.098 C 
ATOM     34  C11 6DX d   1     -20.304  15.856  15.285  0.00  0.00     0.018 C 
ATOM     35  H1  6DX d   1     -20.742  14.893  13.415  0.00  0.00     0.078 H 
ATOM     36  H2  6DX d   1     -22.134  15.006  14.546  0.00  0.00     0.078 H 
ATOM     37  N12 6DX d   1     -18.960  15.573  15.312  0.00  0.00    -0.378 N 
ATOM     38  H12 6DX d   1     -20.694  15.860  16.314  0.00  0.00     0.066 H 
ATOM     39  H13 6DX d   1     -20.456  16.846  14.831  0.00  0.00     0.066 H 
ATOM     40  C13 6DX d   1     -18.713  14.334  15.852  0.00  0.00     0.018 C 
ATOM     41  C14 6DX d   1     -19.473  13.217  15.118  0.00  0.00     0.098 C 
ATOM     42  H3  6DX d   1     -17.634  14.129  15.789  0.00  0.00     0.066 H 
ATOM     43  H4  6DX d   1     -19.024  14.339  16.907  0.00  0.00     0.066 H 
ATOM     44  H10 6DX d   1     -19.411  12.300  15.723  0.00  0.00     0.078 H 
ATOM     45  H11 6DX d   1     -18.987  13.048  14.146  0.00  0.00     0.078 H 
ATOM     46  H23 6DX d   1     -21.301  13.370  15.765  0.00  0.00     0.280 HD
BRANCH  37  47
ATOM     47  C15 6DX d   1     -18.101  16.101  14.242  0.00  0.00     0.030 A 
ATOM     48  C20 6DX d   1     -17.827  17.459  14.188  0.00  0.00    -0.057 A 
ATOM     49  C19 6DX d   1     -17.015  17.966  13.174  0.00  0.00    -0.081 A 
ATOM     50  H6  6DX d   1     -18.244  18.126  14.934  0.00  0.00     0.086 H 
ATOM     51  C18 6DX d   1     -16.480  17.115  12.217  0.00  0.00    -0.083 A 
ATOM     52  H8  6DX d   1     -16.801  19.028  13.133  0.00  0.00     0.083 H 
ATOM     53  C17 6DX d   1     -16.753  15.755  12.267  0.00  0.00    -0.081 A 
ATOM     54  H7  6DX d   1     -15.849  17.512  11.430  0.00  0.00     0.083 H 
ATOM     55  C16 6DX d   1     -17.562  15.250  13.278  0.00  0.00    -0.057 A 
ATOM     56  H5  6DX d   1     -16.337  15.089  11.520  0.00  0.00     0.083 H 
ATOM     57  H9  6DX d   1     -17.775  14.188  13.317  0.00  0.00     0.086 H 
ENDBRANCH  37  47
ENDBRANCH   1  32
TORSDOF 8
