REMARK  7 active torsions:
REMARK  status: ('A' for Active; 'I' for Inactive)
REMARK    1  A    between atoms: C25_6  and  C28_26 
REMARK    2  A    between atoms: N1_31  and  C14_11 
REMARK    3  A    between atoms: C02_13  and  N01_12 
REMARK    4  A    between atoms: N05_16  and  C04_15 
REMARK    5  A    between atoms: C06_17  and  N05_16 
REMARK    6  A    between atoms: C07_18  and  C06_17 
REMARK    7  A    between atoms: C07_18  and  N2_32 
ROOT
ATOM      1  C07 6DV d   1     -21.284  11.044  14.494  0.00  0.00     0.099 C 
ATOM      2  H15 6DV d   1     -21.933  10.950  13.611  0.00  0.00     0.078 H 
ATOM      3  H16 6DV d   1     -20.477  10.299  14.436  0.00  0.00     0.078 H 
ENDROOT
BRANCH   1   4
ATOM      4  C06 6DV d   1     -22.114  10.794  15.762  0.00  0.00     0.032 C 
ATOM      5  H13 6DV d   1     -21.562  11.187  16.629  0.00  0.00     0.067 H 
ATOM      6  H14 6DV d   1     -23.073  11.324  15.667  0.00  0.00     0.067 H 
BRANCH   4   7
ATOM      7  N05 6DV d   1     -22.380   9.381  15.978  0.00  0.00    -0.220 N 
ATOM      8  H12 6DV d   1     -23.266   8.978  15.642  0.00  0.00     0.177 HD
BRANCH   7   9
ATOM      9  C04 6DV d   1     -21.456   8.557  16.633  0.00  0.00     0.754 A 
ATOM     10  N03 6DV d   1     -20.258   9.079  17.020  0.00  0.00     0.131 NA
ATOM     11  C02 6DV d   1     -19.400   8.240  17.649  0.00  0.00     0.752 A 
ATOM     12  N27 6DV d   1     -19.753   6.936  17.876  0.00  0.00     0.121 N 
ATOM     13  C23 6DV d   1     -20.990   6.474  17.457  0.00  0.00     0.782 A 
ATOM     14  N26 6DV d   1     -19.070   5.923  18.481  0.00  0.00    -0.113 NA
ATOM     15  N22 6DV d   1     -21.866   7.272  16.827  0.00  0.00     0.133 NA
ATOM     16  N24 6DV d   1     -21.082   5.167  17.800  0.00  0.00    -0.035 NA
ATOM     17  C25 6DV d   1     -19.927   4.912  18.396  0.00  0.00     0.223 A 
BRANCH  11  18
ATOM     18  N01 6DV d   1     -18.176   8.742  18.052  0.00  0.00    -0.230 N 
ATOM     19  H10 6DV d   1     -17.938   9.727  17.868  0.00  0.00     0.174 HD
ATOM     20  H11 6DV d   1     -17.503   8.131  18.536  0.00  0.00     0.174 HD
ENDBRANCH  11  18
BRANCH  17  21
ATOM     21  C28 6DV d   1     -19.639   3.552  18.922  0.00  0.00     0.125 A 
ATOM     22  C29 6DV d   1     -20.442   2.435  19.161  0.00  0.00    -0.045 A 
ATOM     23  C30 6DV d   1     -19.620   1.419  19.659  0.00  0.00    -0.059 A 
ATOM     24  H19 6DV d   1     -21.515   2.367  18.990  0.00  0.00     0.088 H 
ATOM     25  C31 6DV d   1     -18.348   1.960  19.699  0.00  0.00     0.019 A 
ATOM     26  H20 6DV d   1     -19.919   0.414  19.953  0.00  0.00     0.086 H 
ATOM     27  O32 6DV d   1     -18.355   3.243  19.255  0.00  0.00    -0.319 OA
ATOM     28  H21 6DV d   1     -17.461   1.429  20.040  0.00  0.00     0.123 H 
ENDBRANCH  17  21
ENDBRANCH   7   9
ENDBRANCH   4   7
ENDBRANCH   1   4
BRANCH   1  29
ATOM     29  N2  6DV d   1     -20.705  12.378  14.524  0.00  0.00    -0.067 N 
ATOM     30  C13 6DV d   1     -19.545  12.479  15.416  0.00  0.00     0.098 C 
ATOM     31  C12 6DV d   1     -19.046  13.934  15.458  0.00  0.00     0.018 C 
ATOM     32  H3  6DV d   1     -19.834  12.163  16.429  0.00  0.00     0.078 H 
ATOM     33  H4  6DV d   1     -18.741  11.827  15.044  0.00  0.00     0.078 H 
ATOM     34  N1  6DV d   1     -18.574  14.329  14.126  0.00  0.00    -0.375 N 
ATOM     35  H8  6DV d   1     -18.220  14.017  16.179  0.00  0.00     0.066 H 
ATOM     36  H9  6DV d   1     -19.869  14.595  15.766  0.00  0.00     0.066 H 
ATOM     37  C10 6DV d   1     -19.710  14.241  13.200  0.00  0.00     0.018 C 
ATOM     38  C09 6DV d   1     -20.344  12.830  13.184  0.00  0.00     0.098 C 
ATOM     39  H1  6DV d   1     -20.475  14.969  13.508  0.00  0.00     0.066 H 
ATOM     40  H2  6DV d   1     -19.360  14.483  12.186  0.00  0.00     0.066 H 
ATOM     41  H17 6DV d   1     -19.622  12.121  12.752  0.00  0.00     0.078 H 
ATOM     42  H18 6DV d   1     -21.250  12.855  12.561  0.00  0.00     0.078 H 
ATOM     43  H22 6DV d   1     -21.413  13.002  14.878  0.00  0.00     0.280 HD
BRANCH  34  44
ATOM     44  C14 6DV d   1     -17.670  15.398  13.952  0.00  0.00     0.069 A 
ATOM     45  C15 6DV d   1     -17.467  16.348  14.966  0.00  0.00    -0.051 A 
ATOM     46  C16 6DV d   1     -16.570  17.402  14.785  0.00  0.00    -0.043 A 
ATOM     47  H5  6DV d   1     -18.012  16.262  15.899  0.00  0.00     0.087 H 
ATOM     48  C17 6DV d   1     -15.863  17.522  13.589  0.00  0.00     0.119 A 
ATOM     49  H7  6DV d   1     -16.423  18.129  15.576  0.00  0.00     0.088 H 
ATOM     50  C19 6DV d   1     -16.053  16.584  12.571  0.00  0.00    -0.006 A 
ATOM     51  F18 6DV d   1     -14.994  18.546  13.423  0.00  0.00    -0.206 F 
ATOM     52  C20 6DV d   1     -16.950  15.528  12.748  0.00  0.00     0.145 A 
ATOM     53  H6  6DV d   1     -15.503  16.676  11.642  0.00  0.00     0.093 H 
ATOM     54  F21 6DV d   1     -17.109  14.637  11.740  0.00  0.00    -0.204 F 
ENDBRANCH  34  44
ENDBRANCH   1  29
TORSDOF 7
