REMARK  13 active torsions:
REMARK  status: ('A' for Active; 'I' for Inactive)
REMARK    1  A    between atoms: C10_1  and  N01_5 
REMARK    2  A    between atoms: C11_2  and  C31_39 
REMARK    3  A    between atoms: C15_23  and  C13_4 
REMARK       I    between atoms: N01_5  and  C01_13 
REMARK       I    between atoms: C01_13  and  N02_6 
REMARK    4  A    between atoms: N02_6  and  C02_14 
REMARK    5  A    between atoms: N06_10  and  C17_25 
REMARK       I    between atoms: C18_26  and  N06_10 
REMARK    6  A    between atoms: N07_11  and  C25_33 
REMARK    7  A    between atoms: N08_12  and  C30_38 
REMARK    8  A    between atoms: C03_15  and  C05_17 
REMARK    9  A    between atoms: C05_17  and  C06_18 
REMARK   10  A    between atoms: C05_17  and  C07_19 
REMARK   11  A    between atoms: C05_17  and  C08_20 
REMARK   12  A    between atoms: C19_27  and  C18_26 
REMARK   13  A    between atoms: C25_33  and  C22_30 
ROOT
ATOM      1  N04 729 d   1      23.979 -11.536  -9.826  0.00  0.00    -0.156 NA
ATOM      2  N05 729 d   1      23.294 -12.640 -10.278  0.00  0.00    -0.276 N 
ATOM      3  C15 729 d   1      22.038 -12.551  -9.807  0.00  0.00     0.064 A 
ATOM      4  C16 729 d   1      21.915 -11.390  -9.086  0.00  0.00    -0.009 A 
ATOM      5  C17 729 d   1      23.144 -10.776  -9.092  0.00  0.00     0.152 A 
ATOM      6  H4  729 d   1      23.673 -13.395 -10.868  0.00  0.00     0.189 HD
ATOM      7  H20 729 d   1      21.012 -11.024  -8.600  0.00  0.00     0.093 H 
ENDROOT
BRANCH   3   8
ATOM      8  C13 729 d   1      20.952 -13.572 -10.103  0.00  0.00    -0.007 A 
ATOM      9  C12 729 d   1      19.935 -13.889  -9.214  0.00  0.00    -0.063 A 
ATOM     10  C11 729 d   1      18.949 -14.829  -9.534  0.00  0.00    -0.034 A 
ATOM     11  H1  729 d   1      19.904 -13.397  -8.249  0.00  0.00     0.085 H 
ATOM     12  C10 729 d   1      18.983 -15.441 -10.787  0.00  0.00     0.042 A 
ATOM     13  C09 729 d   1      20.009 -15.120 -11.665  0.00  0.00    -0.056 A 
ATOM     14  C14 729 d   1      20.974 -14.190 -11.327  0.00  0.00    -0.069 A 
ATOM     15  H18 729 d   1      20.054 -15.607 -12.632  0.00  0.00     0.087 H 
ATOM     16  H19 729 d   1      21.756 -13.947 -12.037  0.00  0.00     0.085 H 
BRANCH  10  17
ATOM     17  C31 729 d   1      17.858 -15.155  -8.532  0.00  0.00    -0.049 C 
ATOM     18  H38 729 d   1      17.181 -15.910  -8.959  0.00  0.00     0.033 H 
ATOM     19  H39 729 d   1      17.290 -14.243  -8.299  0.00  0.00     0.033 H 
ATOM     20  H40 729 d   1      18.312 -15.549  -7.611  0.00  0.00     0.033 H 
ENDBRANCH  10  17
BRANCH  12  21
ATOM     21  N01 729 d   1      18.029 -16.412 -11.181  0.00  0.00    -0.308 N 
ATOM     22  C01 729 d   1      17.344 -16.300 -12.423  0.00  0.00     0.326 C 
ATOM     23  N02 729 d   1      16.421 -17.329 -12.733  0.00  0.00    -0.291 N 
ATOM     24  O01 729 d   1      17.543 -15.366 -13.172  0.00  0.00    -0.247 OA
ATOM     25  H3  729 d   1      16.301 -18.070 -12.072  0.00  0.00     0.172 HD
ATOM     26  H2  729 d   1      17.835 -17.186 -10.578  0.00  0.00     0.170 HD
BRANCH  23  27
ATOM     27  C02 729 d   1      15.659 -17.367 -13.926  0.00  0.00     0.161 C 
ATOM     28  N03 729 d   1      14.731 -18.307 -14.120  0.00  0.00    -0.110 NA
ATOM     29  O02 729 d   1      14.187 -18.113 -15.409  0.00  0.00    -0.215 OA
ATOM     30  C03 729 d   1      15.192 -17.458 -16.088  0.00  0.00     0.090 C 
ATOM     31  C04 729 d   1      16.052 -16.941 -15.153  0.00  0.00    -0.005 C 
ATOM     32  H8  729 d   1      16.906 -16.297 -15.360  0.00  0.00     0.093 H 
BRANCH  30  33
ATOM     33  C05 729 d   1      15.033 -17.014 -17.531  0.00  0.00     0.000 C 
BRANCH  33  34
ATOM     34  C06 729 d   1      14.867 -18.248 -18.399  0.00  0.00    -0.064 C 
ATOM     35  H9  729 d   1      14.750 -17.944 -19.450  0.00  0.00     0.028 H 
ATOM     36  H10 729 d   1      13.975 -18.805 -18.077  0.00  0.00     0.028 H 
ATOM     37  H11 729 d   1      15.755 -18.889 -18.299  0.00  0.00     0.028 H 
ENDBRANCH  33  34
BRANCH  33  38
ATOM     38  C07 729 d   1      13.776 -16.173 -17.634  0.00  0.00    -0.064 C 
ATOM     39  H12 729 d   1      13.884 -15.274 -17.009  0.00  0.00     0.028 H 
ATOM     40  H13 729 d   1      12.913 -16.760 -17.287  0.00  0.00     0.028 H 
ATOM     41  H14 729 d   1      13.619 -15.874 -18.681  0.00  0.00     0.028 H 
ENDBRANCH  33  38
BRANCH  33  42
ATOM     42  C08 729 d   1      16.220 -16.217 -18.022  0.00  0.00    -0.064 C 
ATOM     43  H15 729 d   1      17.130 -16.830 -17.946  0.00  0.00     0.028 H 
ATOM     44  H16 729 d   1      16.335 -15.313 -17.406  0.00  0.00     0.028 H 
ATOM     45  H17 729 d   1      16.059 -15.928 -19.071  0.00  0.00     0.028 H 
ENDBRANCH  33  42
ENDBRANCH  30  33
ENDBRANCH  23  27
ENDBRANCH  12  21
ENDBRANCH   3   8
BRANCH   5  46
ATOM     46  N06 729 d   1      23.526  -9.526  -8.493  0.00  0.00    -0.306 N 
ATOM     47  C18 729 d   1      22.853  -8.926  -7.386  0.00  0.00     0.257 C 
ATOM     48  O03 729 d   1      21.886  -9.454  -6.869  0.00  0.00    -0.267 OA
ATOM     49  H5  729 d   1      24.314  -9.046  -8.877  0.00  0.00     0.170 HD
BRANCH  47  50
ATOM     50  C19 729 d   1      23.385  -7.575  -6.911  0.00  0.00     0.032 A 
ATOM     51  C20 729 d   1      22.647  -6.762  -6.056  0.00  0.00    -0.067 A 
ATOM     52  C21 729 d   1      23.154  -5.529  -5.663  0.00  0.00    -0.074 A 
ATOM     53  H21 729 d   1      21.678  -7.090  -5.697  0.00  0.00     0.085 H 
ATOM     54  C22 729 d   1      24.389  -5.098  -6.125  0.00  0.00    -0.033 A 
ATOM     55  H22 729 d   1      22.581  -4.900  -4.991  0.00  0.00     0.084 H 
ATOM     56  C23 729 d   1      25.116  -5.911  -6.986  0.00  0.00    -0.074 A 
ATOM     57  C24 729 d   1      24.609  -7.142  -7.380  0.00  0.00    -0.067 A 
ATOM     58  H23 729 d   1      26.082  -5.583  -7.351  0.00  0.00     0.084 H 
ATOM     59  H24 729 d   1      25.177  -7.766  -8.060  0.00  0.00     0.085 H 
BRANCH  54  60
ATOM     60  C25 729 d   1      24.943  -3.739  -5.705  0.00  0.00     0.107 C 
ATOM     61  H25 729 d   1      24.560  -3.475  -4.708  0.00  0.00     0.083 H 
ATOM     62  H26 729 d   1      26.042  -3.779  -5.677  0.00  0.00     0.083 H 
BRANCH  60  63
ATOM     63  N07 729 d   1      24.552  -2.832  -6.588  0.00  0.00    -0.064 N 
ATOM     64  C26 729 d   1      25.278  -2.736  -7.679  0.00  0.00     0.106 C 
ATOM     65  C27 729 d   1      26.253  -1.571  -7.751  0.00  0.00     0.105 C 
ATOM     66  H27 729 d   1      24.588  -2.647  -8.531  0.00  0.00     0.078 H 
ATOM     67  H28 729 d   1      25.860  -3.664  -7.774  0.00  0.00     0.078 H 
ATOM     68  N08 729 d   1      26.061  -0.674  -6.821  0.00  0.00    -0.072 N 
ATOM     69  H29 729 d   1      27.275  -1.965  -7.649  0.00  0.00     0.078 H 
ATOM     70  H30 729 d   1      26.143  -1.085  -8.732  0.00  0.00     0.078 H 
ATOM     71  C28 729 d   1      24.785  -0.464  -6.667  0.00  0.00     0.105 C 
ATOM     72  H7  729 d   1      26.424  -1.038  -5.954  0.00  0.00     0.279 HD
ATOM     73  C29 729 d   1      24.074  -1.694  -6.143  0.00  0.00     0.106 C 
ATOM     74  H31 729 d   1      24.349  -0.187  -7.638  0.00  0.00     0.078 H 
ATOM     75  H32 729 d   1      24.643   0.361  -5.953  0.00  0.00     0.078 H 
ATOM     76  H33 729 d   1      24.152  -1.694  -5.046  0.00  0.00     0.078 H 
ATOM     77  H34 729 d   1      23.015  -1.629  -6.435  0.00  0.00     0.078 H 
ATOM     78  H6  729 d   1      23.714  -3.266  -6.944  0.00  0.00     0.280 HD
BRANCH  68  79
ATOM     79  C30 729 d   1      26.707   0.433  -7.092  0.00  0.00     0.066 C 
ATOM     80  H35 729 d   1      27.778   0.212  -7.214  0.00  0.00     0.068 H 
ATOM     81  H36 729 d   1      26.572   1.148  -6.267  0.00  0.00     0.068 H 
ATOM     82  H37 729 d   1      26.314   0.869  -8.023  0.00  0.00     0.068 H 
ENDBRANCH  68  79
ENDBRANCH  60  63
ENDBRANCH  54  60
ENDBRANCH  47  50
ENDBRANCH   5  46
TORSDOF 13
