REMARK  12 active torsions:
REMARK  status: ('A' for Active; 'I' for Inactive)
REMARK    1  A    between atoms: C10_1  and  C11_2 
REMARK    2  A    between atoms: C08_19  and  C10_1 
REMARK    3  A    between atoms: C10_1  and  C41_41 
REMARK    4  A    between atoms: N01_12  and  C13_4 
REMARK    5  A    between atoms: C14_5  and  C40_40 
REMARK    6  A    between atoms: C16_7  and  C18_9 
REMARK    7  A    between atoms: C20_11  and  N23_23 
REMARK       I    between atoms: C02_13  and  N01_12 
REMARK       I    between atoms: N03_14  and  C02_13 
REMARK    8  A    between atoms: C05_16  and  N03_14 
REMARK       I    between atoms: N23_23  and  C24_24 
REMARK    9  A    between atoms: C24_24  and  C25_25 
REMARK   10  A    between atoms: C29_29  and  C32_32 
REMARK   11  A    between atoms: C32_32  and  N33_33 
REMARK   12  A    between atoms: N36_36  and  C39_39 
ROOT
ATOM      1  C18 34Y d   1      21.929 -12.527  -9.834  0.00  0.00     0.064 A 
ATOM      2  C19 34Y d   1      21.794 -11.431  -9.021  0.00  0.00    -0.009 A 
ATOM      3  C20 34Y d   1      23.002 -10.777  -9.053  0.00  0.00     0.152 A 
ATOM      4  N21 34Y d   1      23.819 -11.450  -9.875  0.00  0.00    -0.156 NA
ATOM      5  N22 34Y d   1      23.153 -12.546 -10.371  0.00  0.00    -0.276 N 
ATOM      6  H8  34Y d   1      20.907 -11.138  -8.462  0.00  0.00     0.093 H 
ATOM      7  H12 34Y d   1      23.525 -13.246 -11.029  0.00  0.00     0.189 HD
ENDROOT
BRANCH   3   8
ATOM      8  N23 34Y d   1      23.395  -9.573  -8.402  0.00  0.00    -0.306 N 
ATOM      9  C24 34Y d   1      22.648  -8.920  -7.367  0.00  0.00     0.257 C 
ATOM     10  O26 34Y d   1      21.597  -9.350  -6.958  0.00  0.00    -0.267 OA
ATOM     11  H13 34Y d   1      24.256  -9.152  -8.688  0.00  0.00     0.170 HD
BRANCH   9  12
ATOM     12  C25 34Y d   1      23.227  -7.616  -6.830  0.00  0.00     0.032 A 
ATOM     13  C27 34Y d   1      24.576  -7.164  -7.334  0.00  0.00    -0.067 A 
ATOM     14  C28 34Y d   1      25.176  -5.865  -6.845  0.00  0.00    -0.074 A 
ATOM     15  H14 34Y d   1      25.117  -7.773  -8.049  0.00  0.00     0.085 H 
ATOM     16  C29 34Y d   1      24.429  -5.002  -5.858  0.00  0.00    -0.033 A 
ATOM     17  H15 34Y d   1      26.149  -5.552  -7.206  0.00  0.00     0.084 H 
ATOM     18  C30 34Y d   1      23.062  -5.453  -5.367  0.00  0.00    -0.074 A 
ATOM     19  C31 34Y d   1      22.460  -6.756  -5.852  0.00  0.00    -0.067 A 
ATOM     20  H16 34Y d   1      22.514  -4.837  -4.664  0.00  0.00     0.084 H 
ATOM     21  H17 34Y d   1      21.484  -7.070  -5.499  0.00  0.00     0.085 H 
BRANCH  16  22
ATOM     22  C32 34Y d   1      25.029  -3.687  -5.388  0.00  0.00     0.107 C 
ATOM     23  H18 34Y d   1      26.127  -3.739  -5.435  0.00  0.00     0.083 H 
ATOM     24  H19 34Y d   1      24.715  -3.481  -4.354  0.00  0.00     0.083 H 
BRANCH  22  25
ATOM     25  N33 34Y d   1      24.595  -2.746  -6.179  0.00  0.00    -0.064 N 
ATOM     26  C34 34Y d   1      25.267  -2.593  -7.355  0.00  0.00     0.106 C 
ATOM     27  C35 34Y d   1      26.347  -1.536  -7.316  0.00  0.00     0.105 C 
ATOM     28  H21 34Y d   1      24.541  -2.317  -8.134  0.00  0.00     0.078 H 
ATOM     29  H22 34Y d   1      25.734  -3.555  -7.614  0.00  0.00     0.078 H 
ATOM     30  N36 34Y d   1      25.915  -0.370  -6.789  0.00  0.00    -0.072 N 
ATOM     31  H23 34Y d   1      26.695  -1.351  -8.343  0.00  0.00     0.078 H 
ATOM     32  H24 34Y d   1      27.183  -1.909  -6.707  0.00  0.00     0.078 H 
ATOM     33  C37 34Y d   1      25.351  -0.560  -5.571  0.00  0.00     0.105 C 
ATOM     34  H25 34Y d   1      25.209   0.006  -7.402  0.00  0.00     0.279 HD
ATOM     35  C38 34Y d   1      24.223  -1.571  -5.616  0.00  0.00     0.106 C 
ATOM     36  H26 34Y d   1      24.953   0.400  -5.211  0.00  0.00     0.078 H 
ATOM     37  H27 34Y d   1      26.123  -0.921  -4.875  0.00  0.00     0.078 H 
ATOM     38  H28 34Y d   1      23.884  -1.765  -4.588  0.00  0.00     0.078 H 
ATOM     39  H29 34Y d   1      23.394  -1.147  -6.202  0.00  0.00     0.078 H 
ATOM     40  H20 34Y d   1      23.712  -3.126  -6.481  0.00  0.00     0.280 HD
BRANCH  30  41
ATOM     41  C39 34Y d   1      26.879   0.482  -6.721  0.00  0.00     0.066 C 
ATOM     42  H30 34Y d   1      27.319   0.618  -7.720  0.00  0.00     0.068 H 
ATOM     43  H31 34Y d   1      27.649   0.110  -6.029  0.00  0.00     0.068 H 
ATOM     44  H32 34Y d   1      26.492   1.445  -6.356  0.00  0.00     0.068 H 
ENDBRANCH  30  41
ENDBRANCH  22  25
ENDBRANCH  16  22
ENDBRANCH   9  12
ENDBRANCH   3   8
BRANCH   1  45
ATOM     45  C16 34Y d   1      20.868 -13.548 -10.154  0.00  0.00    -0.007 A 
ATOM     46  C15 34Y d   1      19.747 -13.843  -9.190  0.00  0.00    -0.063 A 
ATOM     47  C14 34Y d   1      18.693 -14.859  -9.578  0.00  0.00    -0.034 A 
ATOM     48  H6  34Y d   1      19.696 -13.335  -8.233  0.00  0.00     0.085 H 
ATOM     49  C13 34Y d   1      18.771 -15.542 -10.928  0.00  0.00     0.042 A 
ATOM     50  C12 34Y d   1      19.893 -15.243 -11.888  0.00  0.00    -0.056 A 
ATOM     51  C17 34Y d   1      20.944 -14.225 -11.504  0.00  0.00    -0.069 A 
ATOM     52  H5  34Y d   1      19.947 -15.752 -12.844  0.00  0.00     0.087 H 
ATOM     53  H7  34Y d   1      21.746 -13.982 -12.192  0.00  0.00     0.085 H 
BRANCH  47  54
ATOM     54  C40 34Y d   1      17.570 -15.175  -8.615  0.00  0.00    -0.049 C 
ATOM     55  H33 34Y d   1      16.905 -15.929  -9.062  0.00  0.00     0.033 H 
ATOM     56  H34 34Y d   1      16.998 -14.259  -8.406  0.00  0.00     0.033 H 
ATOM     57  H35 34Y d   1      17.991 -15.567  -7.677  0.00  0.00     0.033 H 
ENDBRANCH  47  54
BRANCH  49  58
ATOM     58  N01 34Y d   1      17.800 -16.503 -11.308  0.00  0.00    -0.308 N 
ATOM     59  C02 34Y d   1      17.136 -16.367 -12.556  0.00  0.00     0.326 C 
ATOM     60  N03 34Y d   1      16.162 -17.359 -12.869  0.00  0.00    -0.291 N 
ATOM     61  O04 34Y d   1      17.391 -15.427 -13.283  0.00  0.00    -0.247 OA
ATOM     62  H10 34Y d   1      15.977 -18.078 -12.200  0.00  0.00     0.172 HD
ATOM     63  H9  34Y d   1      17.585 -17.269 -10.703  0.00  0.00     0.170 HD
BRANCH  60  64
ATOM     64  C05 34Y d   1      15.447 -17.366 -14.089  0.00  0.00     0.161 A 
ATOM     65  N06 34Y d   1      14.309 -18.054 -14.312  0.00  0.00    -0.110 NA
ATOM     66  O07 34Y d   1      13.933 -17.839 -15.631  0.00  0.00    -0.216 OA
ATOM     67  C08 34Y d   1      14.858 -17.031 -16.203  0.00  0.00     0.086 A 
ATOM     68  C09 34Y d   1      15.801 -16.736 -15.268  0.00  0.00    -0.005 A 
ATOM     69  H11 34Y d   1      16.681 -16.113 -15.421  0.00  0.00     0.093 H 
BRANCH  67  70
ATOM     70  C10 34Y d   1      14.835 -16.536 -17.632  0.00  0.00    -0.012 C 
ATOM     71  H1  34Y d   1      15.372 -15.579 -17.710  0.00  0.00     0.049 H 
BRANCH  70  72
ATOM     72  C11 34Y d   1      15.499 -17.575 -18.502  0.00  0.00    -0.067 C 
ATOM     73  H2  34Y d   1      15.493 -17.235 -19.548  0.00  0.00     0.028 H 
ATOM     74  H3  34Y d   1      14.950 -18.525 -18.422  0.00  0.00     0.028 H 
ATOM     75  H4  34Y d   1      16.537 -17.722 -18.170  0.00  0.00     0.028 H 
ENDBRANCH  70  72
BRANCH  70  76
ATOM     76  C41 34Y d   1      13.404 -16.357 -18.066  0.00  0.00    -0.067 C 
ATOM     77  H36 34Y d   1      12.921 -15.600 -17.432  0.00  0.00     0.028 H 
ATOM     78  H37 34Y d   1      12.869 -17.313 -17.968  0.00  0.00     0.028 H 
ATOM     79  H38 34Y d   1      13.377 -16.028 -19.115  0.00  0.00     0.028 H 
ENDBRANCH  70  76
ENDBRANCH  67  70
ENDBRANCH  60  64
ENDBRANCH  49  58
ENDBRANCH   1  45
TORSDOF 12
