REMARK  6 active torsions:
REMARK  status: ('A' for Active; 'I' for Inactive)
REMARK    1  A    between atoms: C10_1  and  N13_16 
REMARK    2  A    between atoms: C14_2  and  C15_3 
REMARK       I    between atoms: N13_16  and  C14_2 
REMARK    3  A    between atoms: C04_8  and  C30_30 
REMARK    4  A    between atoms: C08_12  and  C06_10 
REMARK    5  A    between atoms: C19_19  and  C22_22 
REMARK    6  A    between atoms: C22_22  and  N23_23 
ROOT
ATOM      1  C15 45Q d   1      75.832  65.960   7.240  0.00  0.00     0.032 A 
ATOM      2  C17 45Q d   1      77.186  65.570   7.701  0.00  0.00    -0.067 A 
ATOM      3  C18 45Q d   1      77.763  64.263   7.330  0.00  0.00    -0.074 A 
ATOM      4  C19 45Q d   1      76.976  63.314   6.519  0.00  0.00    -0.033 A 
ATOM      5  C20 45Q d   1      75.634  63.690   6.045  0.00  0.00    -0.074 A 
ATOM      6  C21 45Q d   1      75.048  65.004   6.418  0.00  0.00    -0.067 A 
ATOM      7  H1  45Q d   1      77.759  66.253   8.318  0.00  0.00     0.085 H 
ATOM      8  H10 45Q d   1      78.764  64.001   7.653  0.00  0.00     0.084 H 
ATOM      9  H11 45Q d   1      75.071  63.005   5.421  0.00  0.00     0.084 H 
ATOM     10  H12 45Q d   1      74.048  65.264   6.090  0.00  0.00     0.085 H 
ENDROOT
BRANCH   1  11
ATOM     11  C14 45Q d   1      75.218  67.269   7.635  0.00  0.00     0.257 C 
ATOM     12  N13 45Q d   1      75.821  67.942   8.697  0.00  0.00    -0.306 N 
ATOM     13  H9  45Q d   1      76.663  67.548   9.066  0.00  0.00     0.170 HD
ATOM     14  O16 45Q d   1      74.278  67.670   7.081  0.00  0.00    -0.267 OA
BRANCH  12  15
ATOM     15  C10 45Q d   1      75.361  69.105   9.286  0.00  0.00     0.152 A 
ATOM     16  C09 45Q d   1      74.162  69.685   9.152  0.00  0.00    -0.009 A 
ATOM     17  C08 45Q d   1      74.144  70.736   9.961  0.00  0.00     0.064 A 
ATOM     18  H7  45Q d   1      73.353  69.356   8.501  0.00  0.00     0.093 H 
ATOM     19  N12 45Q d   1      75.268  70.754  10.624  0.00  0.00    -0.276 N 
ATOM     20  N11 45Q d   1      76.007  69.758  10.220  0.00  0.00    -0.156 NA
ATOM     21  H8  45Q d   1      75.528  71.441  11.346  0.00  0.00     0.189 HD
BRANCH  17  22
ATOM     22  C06 45Q d   1      73.000  71.665  10.164  0.00  0.00    -0.007 A 
ATOM     23  C05 45Q d   1      72.167  72.242   9.105  0.00  0.00    -0.063 A 
ATOM     24  C04 45Q d   1      71.043  73.139   9.446  0.00  0.00    -0.035 A 
ATOM     25  H5  45Q d   1      72.376  72.010   8.067  0.00  0.00     0.085 H 
ATOM     26  C03 45Q d   1      70.733  73.448  10.876  0.00  0.00     0.031 A 
ATOM     27  N01 45Q d   1      69.690  74.253  11.231  0.00  0.00    -0.399 N 
ATOM     28  C02 45Q d   1      71.567  72.833  11.919  0.00  0.00    -0.056 A 
ATOM     29  H2  45Q d   1      69.504  74.446  12.226  0.00  0.00     0.156 HD
ATOM     30  H3  45Q d   1      69.089  74.668  10.505  0.00  0.00     0.156 HD
ATOM     31  C07 45Q d   1      72.687  71.950  11.552  0.00  0.00    -0.069 A 
ATOM     32  H4  45Q d   1      71.356  73.031  12.964  0.00  0.00     0.086 H 
ATOM     33  H6  45Q d   1      73.290  71.504  12.335  0.00  0.00     0.085 H 
BRANCH  24  34
ATOM     34  C30 45Q d   1      70.246  73.724   8.346  0.00  0.00    -0.049 C 
ATOM     35  H26 45Q d   1      69.455  74.362   8.766  0.00  0.00     0.033 H 
ATOM     36  H27 45Q d   1      69.790  72.917   7.754  0.00  0.00     0.033 H 
ATOM     37  H28 45Q d   1      70.900  74.328   7.700  0.00  0.00     0.033 H 
ENDBRANCH  24  34
ENDBRANCH  17  22
ENDBRANCH  12  15
ENDBRANCH   1  11
BRANCH   4  38
ATOM     38  C22 45Q d   1      77.615  62.022   6.139  0.00  0.00     0.107 C 
ATOM     39  H13 45Q d   1      78.695  62.220   6.083  0.00  0.00     0.083 H 
ATOM     40  H14 45Q d   1      77.235  61.776   5.137  0.00  0.00     0.083 H 
BRANCH  38  41
ATOM     41  N23 45Q d   1      77.483  60.948   6.847  0.00  0.00    -0.064 N 
ATOM     42  C24 45Q d   1      78.142  59.866   6.266  0.00  0.00     0.098 C 
ATOM     43  C25 45Q d   1      78.032  58.572   7.062  0.00  0.00     0.016 C 
ATOM     44  H16 45Q d   1      79.207  60.122   6.168  0.00  0.00     0.078 H 
ATOM     45  H17 45Q d   1      77.713  59.695   5.268  0.00  0.00     0.078 H 
ATOM     46  N26 45Q d   1      77.251  58.706   8.177  0.00  0.00    -0.396 N 
ATOM     47  H18 45Q d   1      79.041  58.263   7.373  0.00  0.00     0.066 H 
ATOM     48  H19 45Q d   1      77.594  57.797   6.416  0.00  0.00     0.066 H 
ATOM     49  C27 45Q d   1      77.396  59.821   8.970  0.00  0.00     0.016 C 
ATOM     50  C29 45Q d   1      77.106  57.626   8.879  0.00  0.00    -0.070 C 
ATOM     51  C28 45Q d   1      77.606  61.102   8.175  0.00  0.00     0.098 C 
ATOM     52  H20 45Q d   1      78.265  59.672   9.627  0.00  0.00     0.066 H 
ATOM     53  H21 45Q d   1      76.489  59.935   9.582  0.00  0.00     0.066 H 
ATOM     54  H22 45Q d   1      76.862  61.841   8.508  0.00  0.00     0.078 H 
ATOM     55  H23 45Q d   1      78.618  61.478   8.387  0.00  0.00     0.078 H 
ATOM     56  H24 45Q d   1      76.981  56.666   8.381  0.00  0.00     0.092 H 
ATOM     57  H25 45Q d   1      77.110  57.679   9.967  0.00  0.00     0.092 H 
ATOM     58  H15 45Q d   1      76.509  60.712   6.742  0.00  0.00     0.280 HD
ENDBRANCH  38  41
ENDBRANCH   4  38
TORSDOF 6
