REMARK WARNING: 32 MAX_TORS EXCEEDED!!!
REMARK  33 active torsions:
REMARK  status: ('A' for Active; 'I' for Inactive)
REMARK    1  A    between atoms: CA_6  and  CB_9 
REMARK    2  A    between atoms: CB_9  and  CG_10 
REMARK    3  A    between atoms: CG_10  and  CD_11 
REMARK       I    between atoms: CD_11  and  NE2_13 
REMARK    4  A    between atoms: CA_15  and  CB_18 
REMARK    5  A    between atoms: CB_18  and  CG_19 
REMARK    6  A    between atoms: CA_26  and  CB_29 
REMARK    7  A    between atoms: CB_29  and  CG_30 
REMARK    8  A    between atoms: CA_34  and  CB_37 
REMARK    9  A    between atoms: CB_37  and  CG_38 
REMARK   10  A    between atoms: CG_38  and  CD1_39 
REMARK   11  A    between atoms: CG_38  and  CD2_40 
REMARK   12  A    between atoms: CA_42  and  CB_45 
REMARK   13  A    between atoms: CB_45  and  OG_46 
REMARK   14  A    between atoms: CA_48  and  CB_51 
REMARK   15  A    between atoms: CB_51  and  OG1_52 
REMARK   16  A    between atoms: CB_51  and  CG2_53 
REMARK   17  A    between atoms: CA_55  and  CB_58 
REMARK   18  A    between atoms: CB_58  and  CG_59 
REMARK   19  A    between atoms: CG_59  and  CD_60 
REMARK   20  A    between atoms: CD_60  and  NE_61 
REMARK       I    between atoms: NE_61  and  CZ_62 
REMARK       I    between atoms: CZ_62  and  NH1_63 
REMARK   21  A    between atoms: C2_67  and  C3_69 
REMARK   22  A    between atoms: C3_69  and  C4_70 
REMARK   23  A    between atoms: C4_70  and  C5_71 
REMARK   24  A    between atoms: C5_71  and  N6_72 
REMARK       I    between atoms: N6_72  and  C7_73 
REMARK       I    between atoms: C7_73  and  N8_75 
REMARK   25  A    between atoms: CA_77  and  CB_80 
REMARK   26  A    between atoms: CB_80  and  CG_81 
REMARK   27  A    between atoms: CG_81  and  CD1_82 
REMARK   28  A    between atoms: CG_81  and  CD2_83 
REMARK   29  A    between atoms: CA_85  and  CB_88 
REMARK   30  A    between atoms: CB_88  and  CG_89 
REMARK   31  A    between atoms: CG_89  and  CD_90 
REMARK   32  A    between atoms: CD_90  and  CE_91 
REMARK   33  A    between atoms: CE_91  and  NZ_92 
ROOT
ATOM      1  N   GLY d   1      16.672 -32.292 -29.572  0.00  0.00    -0.084 NA
ATOM      2  CA  GLY d   1      16.549 -32.765 -28.205  0.00  0.00     0.215 A 
ATOM      3  C   GLY d   1      17.251 -34.077 -27.904  0.00  0.00     0.266 C 
ATOM      4  O   GLY d   1      17.460 -34.416 -26.739  0.00  0.00    -0.269 OA
ATOM      5  N   GLY d   1      17.521 -31.948 -32.188  0.00  0.00    -0.351 N 
ATOM      6  CA  GLY d   1      16.108 -32.127 -31.914  0.00  0.00     0.066 C 
ATOM      7  C   GLY d   1      15.880 -32.734 -30.543  0.00  0.00     0.243 C 
ATOM      8  O   GLY d   1      15.021 -33.596 -30.367  0.00  0.00    -0.276 OA
ATOM      9  OXT GLY d   1      16.549 -32.379 -29.574  0.00  0.00    -0.260 OA
ATOM     10  H1  GLY d   1      16.066 -32.291 -27.338  0.00  0.00     0.131 H 
ATOM     11  H94 GLY d   1      17.872 -31.030 -32.375  0.00  0.00     0.163 HD
ATOM     12  H95 GLY d   1      15.678 -32.794 -32.676  0.00  0.00     0.077 H 
ATOM     13  H96 GLY d   1      15.608 -31.148 -31.959  0.00  0.00     0.077 H 
ATOM     14  N   GLN d   1      17.620 -34.819 -28.944  0.00  0.00    -0.344 N 
ATOM     15  CA  GLN d   1      18.249 -36.122 -28.783  0.00  0.00     0.090 C 
ATOM     16  C   GLN d   1      19.743 -36.048 -29.064  0.00  0.00     0.241 C 
ATOM     17  O   GLN d   1      20.195 -35.282 -29.922  0.00  0.00    -0.271 OA
ATOM     18  H2  GLN d   1      17.460 -34.470 -29.867  0.00  0.00     0.163 HD
ATOM     19  H3  GLN d   1      18.108 -36.442 -27.740  0.00  0.00     0.087 H 
ATOM     20  N   PHE d   1      20.500 -36.858 -28.333  0.00  0.00    -0.346 N 
ATOM     21  CA  PHE d   1      21.939 -36.932 -28.524  0.00  0.00     0.093 C 
ATOM     22  C   PHE d   1      22.252 -37.662 -29.822  0.00  0.00     0.241 C 
ATOM     23  O   PHE d   1      21.710 -38.740 -30.086  0.00  0.00    -0.271 OA
ATOM     24  H10 PHE d   1      20.070 -37.430 -27.635  0.00  0.00     0.163 HD
ATOM     25  H11 PHE d   1      22.344 -35.911 -28.586  0.00  0.00     0.088 H 
ATOM     26  N   ASP d   1      23.121 -37.068 -30.636  0.00  0.00    -0.345 N 
ATOM     27  CA  ASP d   1      23.483 -37.605 -31.943  0.00  0.00     0.098 C 
ATOM     28  C   ASP d   1      24.877 -38.215 -31.856  0.00  0.00     0.241 C 
ATOM     29  O   ASP d   1      25.852 -37.510 -31.567  0.00  0.00    -0.271 OA
ATOM     30  H19 ASP d   1      23.546 -36.213 -30.338  0.00  0.00     0.163 HD
ATOM     31  H20 ASP d   1      22.766 -38.394 -32.215  0.00  0.00     0.088 H 
ATOM     32  N   LEU d   1      24.967 -39.522 -32.122  0.00  0.00    -0.346 N 
ATOM     33  CA  LEU d   1      26.237 -40.229 -31.979  0.00  0.00     0.089 C 
ATOM     34  C   LEU d   1      27.278 -39.752 -32.983  0.00  0.00     0.241 C 
ATOM     35  O   LEU d   1      28.481 -39.865 -32.723  0.00  0.00    -0.271 OA
ATOM     36  N   LEU d   1      23.473 -32.339 -29.317  0.00  0.00    -0.346 N 
ATOM     37  CA  LEU d   1      22.023 -32.489 -29.268  0.00  0.00     0.089 C 
ATOM     38  C   LEU d   1      21.403 -32.081 -30.600  0.00  0.00     0.241 C 
ATOM     39  O   LEU d   1      21.742 -31.039 -31.159  0.00  0.00    -0.271 OA
ATOM     40  H23 LEU d   1      24.155 -40.022 -32.423  0.00  0.00     0.163 HD
ATOM     41  H24 LEU d   1      26.624 -40.031 -30.969  0.00  0.00     0.087 H 
ATOM     42  H70 LEU d   1      23.899 -31.562 -28.853  0.00  0.00     0.163 HD
ATOM     43  H71 LEU d   1      21.790 -33.548 -29.085  0.00  0.00     0.087 H 
ATOM     44  N   SER d   1      26.843 -39.221 -34.129  0.00  0.00    -0.344 N 
ATOM     45  CA  SER d   1      27.789 -38.776 -35.148  0.00  0.00     0.109 C 
ATOM     46  C   SER d   1      28.560 -37.534 -34.712  0.00  0.00     0.243 C 
ATOM     47  O   SER d   1      29.743 -37.396 -35.044  0.00  0.00    -0.271 OA
ATOM     48  H34 SER d   1      25.860 -39.127 -34.290  0.00  0.00     0.163 HD
ATOM     49  H35 SER d   1      28.515 -39.585 -35.316  0.00  0.00     0.090 H 
ATOM     50  N   THR d   1      27.919 -36.629 -33.966  0.00  0.00    -0.344 N 
ATOM     51  CA  THR d   1      28.514 -35.348 -33.613  0.00  0.00     0.113 C 
ATOM     52  C   THR d   1      28.683 -35.129 -32.118  0.00  0.00     0.243 C 
ATOM     53  O   THR d   1      29.307 -34.135 -31.729  0.00  0.00    -0.271 OA
ATOM     54  H39 THR d   1      26.998 -36.839 -33.639  0.00  0.00     0.163 HD
ATOM     55  H40 THR d   1      29.512 -35.310 -34.075  0.00  0.00     0.091 H 
ATOM     56  N   ARG d   1      28.147 -36.007 -31.278  0.00  0.00    -0.346 N 
ATOM     57  CA  ARG d   1      28.140 -35.806 -29.832  0.00  0.00     0.089 C 
ATOM     58  C   ARG d   1      27.465 -34.489 -29.460  0.00  0.00     0.241 C 
ATOM     59  O   ARG d   1      27.868 -33.815 -28.510  0.00  0.00    -0.271 OA
ATOM     60  H46 ARG d   1      27.732 -36.837 -31.650  0.00  0.00     0.163 HD
ATOM     61  H47 ARG d   1      27.564 -36.627 -29.379  0.00  0.00     0.087 H 
ATOM     62  C1  CIR d   1      24.242 -33.209 -29.963  0.00  0.00     0.241 C 
ATOM     63  O1  CIR d   1      23.805 -34.211 -30.516  0.00  0.00    -0.271 OA
ATOM     64  C2  CIR d   1      25.714 -32.909 -29.985  0.00  0.00     0.089 C 
ATOM     65  N2  CIR d   1      26.432 -34.133 -30.214  0.00  0.00    -0.346 N 
ATOM     66  H59 CIR d   1      26.005 -32.489 -29.011  0.00  0.00     0.087 H 
ATOM     67  H60 CIR d   1      26.146 -34.733 -30.961  0.00  0.00     0.163 HD
ATOM     68  N   LYS d   1      20.498 -32.914 -31.109  0.00  0.00    -0.346 N 
ATOM     69  CA  LYS d   1      19.834 -32.663 -32.384  0.00  0.00     0.089 C 
ATOM     70  C   LYS d   1      18.359 -32.980 -32.196  0.00  0.00     0.240 C 
ATOM     71  O   LYS d   1      17.992 -34.151 -32.059  0.00  0.00    -0.271 OA
ATOM     72  H81 LYS d   1      20.265 -33.742 -30.599  0.00  0.00     0.163 HD
ATOM     73  H82 LYS d   1      19.948 -31.602 -32.652  0.00  0.00     0.087 H 
ENDROOT
BRANCH  57  74
ATOM     74  CB  ARG d   1      29.559 -35.846 -29.261  0.00  0.00    -0.036 C 
ATOM     75  H48 ARG d   1      29.492 -35.805 -28.164  0.00  0.00     0.036 H 
ATOM     76  H49 ARG d   1      30.105 -34.965 -29.629  0.00  0.00     0.036 H 
BRANCH  74  77
ATOM     77  CG  ARG d   1      30.337 -37.082 -29.644  0.00  0.00    -0.048 C 
ATOM     78  H50 ARG d   1      30.616 -37.016 -30.706  0.00  0.00     0.035 H 
ATOM     79  H51 ARG d   1      29.704 -37.968 -29.486  0.00  0.00     0.035 H 
BRANCH  77  80
ATOM     80  CD  ARG d   1      31.594 -37.218 -28.810  0.00  0.00     0.009 C 
ATOM     81  H52 ARG d   1      31.312 -37.351 -27.755  0.00  0.00     0.064 H 
ATOM     82  H53 ARG d   1      32.196 -36.303 -28.916  0.00  0.00     0.064 H 
BRANCH  80  83
ATOM     83  NE  ARG d   1      32.389 -38.363 -29.238  0.00  0.00    -0.227 N 
ATOM     84  CZ  ARG d   1      33.401 -38.871 -28.544  0.00  0.00     0.665 C 
ATOM     85  NH1 ARG d   1      33.742 -38.339 -27.379  0.00  0.00    -0.235 N 
ATOM     86  NH2 ARG d   1      34.066 -39.917 -29.015  0.00  0.00    -0.235 N 
ATOM     87  H55 ARG d   1      34.527 -38.734 -26.842  0.00  0.00     0.174 HD
ATOM     88  H56 ARG d   1      33.222 -37.530 -27.010  0.00  0.00     0.174 HD
ATOM     89  H57 ARG d   1      33.801 -40.331 -29.920  0.00  0.00     0.174 HD
ATOM     90  H58 ARG d   1      34.847 -40.316 -28.476  0.00  0.00     0.174 HD
ATOM     91  H54 ARG d   1      32.150 -38.806 -30.137  0.00  0.00     0.177 HD
ENDBRANCH  80  83
ENDBRANCH  77  80
ENDBRANCH  74  77
ENDBRANCH  57  74
BRANCH  51  92
ATOM     92  CB  THR d   1      27.669 -34.193 -34.173  0.00  0.00     0.060 C 
ATOM     93  H41 THR d   1      28.148 -33.237 -33.914  0.00  0.00     0.086 H 
BRANCH  92  94
ATOM     94  OG1 THR d   1      26.355 -34.239 -33.599  0.00  0.00    -0.393 OA
ATOM     95  H42 THR d   1      25.944 -35.067 -33.817  0.00  0.00     0.210 HD
ENDBRANCH  92  94
BRANCH  92  96
ATOM     96  CG2 THR d   1      27.554 -34.300 -35.680  0.00  0.00    -0.050 C 
ATOM     97  H43 THR d   1      26.947 -33.466 -36.062  0.00  0.00     0.031 H 
ATOM     98  H44 THR d   1      27.074 -35.254 -35.944  0.00  0.00     0.031 H 
ATOM     99  H45 THR d   1      28.558 -34.258 -36.128  0.00  0.00     0.031 H 
ENDBRANCH  92  96
ENDBRANCH  51  92
BRANCH  64 100
ATOM    100  C3  CIR d   1      26.081 -31.909 -31.082  0.00  0.00    -0.036 C 
ATOM    101  H61 CIR d   1      25.346 -31.092 -31.048  0.00  0.00     0.036 H 
ATOM    102  H62 CIR d   1      26.005 -32.431 -32.047  0.00  0.00     0.036 H 
BRANCH 100 103
ATOM    103  C4  CIR d   1      27.464 -31.287 -31.003  0.00  0.00    -0.048 C 
ATOM    104  H63 CIR d   1      27.544 -30.548 -31.814  0.00  0.00     0.035 H 
ATOM    105  H64 CIR d   1      28.200 -32.089 -31.163  0.00  0.00     0.035 H 
BRANCH 103 106
ATOM    106  C5  CIR d   1      27.823 -30.582 -29.696  0.00  0.00    -0.003 C 
ATOM    107  H65 CIR d   1      28.834 -30.166 -29.812  0.00  0.00     0.064 H 
ATOM    108  H66 CIR d   1      27.828 -31.342 -28.901  0.00  0.00     0.064 H 
BRANCH 106 109
ATOM    109  N6  CIR d   1      26.939 -29.485 -29.256  0.00  0.00    -0.343 N 
ATOM    110  C7  CIR d   1      26.896 -28.299 -29.876  0.00  0.00     0.313 C 
ATOM    111  O7  CIR d   1      27.585 -28.038 -30.845  0.00  0.00    -0.248 OA
ATOM    112  N8  CIR d   1      26.050 -27.389 -29.376  0.00  0.00    -0.352 N 
ATOM    113  H68 CIR d   1      25.978 -26.487 -29.801  0.00  0.00     0.160 HD
ATOM    114  H69 CIR d   1      25.490 -27.612 -28.578  0.00  0.00     0.160 HD
ATOM    115  H67 CIR d   1      26.348 -29.634 -28.463  0.00  0.00     0.164 HD
ENDBRANCH 106 109
ENDBRANCH 103 106
ENDBRANCH 100 103
ENDBRANCH  64 100
BRANCH  45 116
ATOM    116  CB  SER d   1      27.054 -38.506 -36.461  0.00  0.00     0.044 C 
ATOM    117  H36 SER d   1      27.768 -38.108 -37.197  0.00  0.00     0.077 H 
ATOM    118  H37 SER d   1      26.260 -37.766 -36.283  0.00  0.00     0.077 H 
BRANCH 116 119
ATOM    119  OG  SER d   1      26.474 -39.695 -36.973  0.00  0.00    -0.398 OA
ATOM    120  H38 SER d   1      27.157 -40.336 -37.132  0.00  0.00     0.209 HD
ENDBRANCH 116 119
ENDBRANCH  45 116
BRANCH  37 121
ATOM    121  CB  LEU d   1      21.431 -31.661 -28.125  0.00  0.00    -0.035 C 
ATOM    122  H72 LEU d   1      20.335 -31.697 -28.215  0.00  0.00     0.037 H 
ATOM    123  H73 LEU d   1      21.775 -30.623 -28.248  0.00  0.00     0.037 H 
BRANCH 121 124
ATOM    124  CG  LEU d   1      21.799 -32.112 -26.710  0.00  0.00    -0.059 C 
ATOM    125  H74 LEU d   1      22.895 -32.084 -26.615  0.00  0.00     0.038 H 
BRANCH 124 126
ATOM    126  CD1 LEU d   1      21.209 -31.173 -25.669  0.00  0.00    -0.073 C 
ATOM    127  H75 LEU d   1      21.488 -31.519 -24.663  0.00  0.00     0.028 H 
ATOM    128  H76 LEU d   1      20.113 -31.164 -25.763  0.00  0.00     0.028 H 
ATOM    129  H77 LEU d   1      21.599 -30.157 -25.828  0.00  0.00     0.028 H 
ENDBRANCH 124 126
BRANCH 124 130
ATOM    130  CD2 LEU d   1      21.336 -33.540 -26.469  0.00  0.00    -0.073 C 
ATOM    131  H78 LEU d   1      21.774 -34.201 -27.232  0.00  0.00     0.028 H 
ATOM    132  H79 LEU d   1      20.239 -33.585 -26.531  0.00  0.00     0.028 H 
ATOM    133  H80 LEU d   1      21.661 -33.867 -25.470  0.00  0.00     0.028 H 
ENDBRANCH 124 130
ENDBRANCH 121 124
ENDBRANCH  37 121
BRANCH  33 134
ATOM    134  CB  LEU d   1      26.016 -41.735 -32.124  0.00  0.00    -0.035 C 
ATOM    135  H25 LEU d   1      27.001 -42.225 -32.116  0.00  0.00     0.037 H 
ATOM    136  H26 LEU d   1      25.525 -41.914 -33.092  0.00  0.00     0.037 H 
BRANCH 134 137
ATOM    137  CG  LEU d   1      25.161 -42.378 -31.035  0.00  0.00    -0.059 C 
ATOM    138  H27 LEU d   1      24.280 -41.741 -30.867  0.00  0.00     0.038 H 
BRANCH 137 139
ATOM    139  CD1 LEU d   1      24.677 -43.751 -31.467  0.00  0.00    -0.073 C 
ATOM    140  H28 LEU d   1      24.064 -44.192 -30.667  0.00  0.00     0.028 H 
ATOM    141  H29 LEU d   1      25.543 -44.399 -31.666  0.00  0.00     0.028 H 
ATOM    142  H30 LEU d   1      24.073 -43.656 -32.381  0.00  0.00     0.028 H 
ENDBRANCH 137 139
BRANCH 137 143
ATOM    143  CD2 LEU d   1      25.944 -42.464 -29.732  0.00  0.00    -0.073 C 
ATOM    144  H31 LEU d   1      26.283 -41.459 -29.441  0.00  0.00     0.028 H 
ATOM    145  H32 LEU d   1      26.817 -43.119 -29.871  0.00  0.00     0.028 H 
ATOM    146  H33 LEU d   1      25.298 -42.876 -28.943  0.00  0.00     0.028 H 
ENDBRANCH 137 143
ENDBRANCH 134 137
ENDBRANCH  33 134
BRANCH  69 147
ATOM    147  CB  LYS d   1      20.439 -33.516 -33.498  0.00  0.00    -0.038 C 
ATOM    148  H83 LYS d   1      19.750 -34.347 -33.708  0.00  0.00     0.036 H 
ATOM    149  H84 LYS d   1      21.399 -33.917 -33.142  0.00  0.00     0.036 H 
BRANCH 147 150
ATOM    150  CG  LYS d   1      20.688 -32.768 -34.793  0.00  0.00    -0.061 C 
ATOM    151  H85 LYS d   1      21.604 -32.167 -34.690  0.00  0.00     0.033 H 
ATOM    152  H86 LYS d   1      19.834 -32.104 -34.994  0.00  0.00     0.033 H 
BRANCH 150 153
ATOM    153  CD  LYS d   1      20.854 -33.730 -35.961  0.00  0.00    -0.043 C 
ATOM    154  H87 LYS d   1      19.883 -34.198 -36.179  0.00  0.00     0.035 H 
ATOM    155  H88 LYS d   1      21.581 -34.507 -35.683  0.00  0.00     0.035 H 
BRANCH 153 156
ATOM    156  CE  LYS d   1      21.349 -33.016 -37.209  0.00  0.00     0.080 C 
ATOM    157  H89 LYS d   1      22.383 -32.681 -37.042  0.00  0.00     0.075 H 
ATOM    158  H90 LYS d   1      20.707 -32.143 -37.398  0.00  0.00     0.075 H 
BRANCH 156 159
ATOM    159  NZ  LYS d   1      21.317 -33.907 -38.404  0.00  0.00    -0.079 N 
ATOM    160  H91 LYS d   1      21.651 -33.401 -39.209  0.00  0.00     0.274 HD
ATOM    161  H92 LYS d   1      20.371 -34.214 -38.569  0.00  0.00     0.274 HD
ATOM    162  H93 LYS d   1      21.907 -34.708 -38.242  0.00  0.00     0.274 HD
ENDBRANCH 156 159
ENDBRANCH 153 156
ENDBRANCH 150 153
ENDBRANCH 147 150
ENDBRANCH  69 147
BRANCH  27 163
ATOM    163  CB  ASP d   1      23.429 -36.510 -33.012  0.00  0.00     0.043 C 
ATOM    164  H21 ASP d   1      23.998 -35.640 -32.652  0.00  0.00     0.052 H 
ATOM    165  H22 ASP d   1      22.378 -36.222 -33.166  0.00  0.00     0.052 H 
BRANCH 163 166
ATOM    166  CG  ASP d   1      24.012 -36.952 -34.347  0.00  0.00     0.175 C 
ATOM    167  OD1 ASP d   1      23.989 -38.164 -34.654  0.00  0.00    -0.648 OA
ATOM    168  OD2 ASP d   1      24.495 -36.079 -35.096  0.00  0.00    -0.648 OA
ENDBRANCH 163 166
ENDBRANCH  27 163
BRANCH  21 169
ATOM    169  CB  PHE d   1      22.578 -37.643 -27.335  0.00  0.00    -0.014 C 
ATOM    170  H12 PHE d   1      22.163 -38.660 -27.277  0.00  0.00     0.043 H 
ATOM    171  H13 PHE d   1      22.318 -37.089 -26.421  0.00  0.00     0.043 H 
BRANCH 169 172
ATOM    172  CG  PHE d   1      24.068 -37.748 -27.412  0.00  0.00    -0.056 A 
ATOM    173  CD1 PHE d   1      24.870 -36.642 -27.180  0.00  0.00    -0.077 A 
ATOM    174  CE1 PHE d   1      26.241 -36.747 -27.235  0.00  0.00    -0.082 A 
ATOM    175  H14 PHE d   1      24.413 -35.685 -26.953  0.00  0.00     0.084 H 
ATOM    176  CZ  PHE d   1      26.833 -37.969 -27.516  0.00  0.00    -0.083 A 
ATOM    177  H16 PHE d   1      26.859 -35.874 -27.058  0.00  0.00     0.083 H 
ATOM    178  CE2 PHE d   1      26.046 -39.076 -27.742  0.00  0.00    -0.082 A 
ATOM    179  H18 PHE d   1      27.913 -38.053 -27.558  0.00  0.00     0.083 H 
ATOM    180  CD2 PHE d   1      24.672 -38.964 -27.684  0.00  0.00    -0.077 A 
ATOM    181  H17 PHE d   1      26.505 -40.033 -27.965  0.00  0.00     0.083 H 
ATOM    182  H15 PHE d   1      24.057 -39.840 -27.854  0.00  0.00     0.084 H 
ENDBRANCH 169 172
ENDBRANCH  21 169
BRANCH  15 183
ATOM    183  CB  GLN d   1      17.606 -37.165 -29.699  0.00  0.00    -0.030 C 
ATOM    184  H4  GLN d   1      18.253 -38.054 -29.721  0.00  0.00     0.037 H 
ATOM    185  H5  GLN d   1      17.532 -36.740 -30.711  0.00  0.00     0.037 H 
BRANCH 183 186
ATOM    186  CG  GLN d   1      16.223 -37.591 -29.258  0.00  0.00     0.011 C 
ATOM    187  H6  GLN d   1      15.477 -37.031 -29.841  0.00  0.00     0.047 H 
ATOM    188  H7  GLN d   1      16.104 -37.357 -28.190  0.00  0.00     0.047 H 
BRANCH 186 189
ATOM    189  CD  GLN d   1      15.989 -39.072 -29.461  0.00  0.00     0.215 C 
ATOM    190  OE1 GLN d   1      16.606 -39.696 -30.324  0.00  0.00    -0.274 OA
ATOM    191  NE2 GLN d   1      15.103 -39.648 -28.656  0.00  0.00    -0.370 N 
ATOM    192  H8  GLN d   1      14.908 -40.625 -28.744  0.00  0.00     0.159 HD
ATOM    193  H9  GLN d   1      14.631 -39.105 -27.962  0.00  0.00     0.159 HD
ENDBRANCH 186 189
ENDBRANCH 183 186
ENDBRANCH  15 183
TORSDOF 33
