REMARK  5 active torsions:
REMARK  status: ('A' for Active; 'I' for Inactive)
REMARK    1  A    between atoms: CAK_5  and  CAJ_6 
REMARK    2  A    between atoms: CAJ_6  and  NAI_7 
REMARK    3  A    between atoms: NAI_7  and  CAP_8 
REMARK    4  A    between atoms: NAI_7  and  C4_11 
REMARK    5  A    between atoms: C2_17  and  NAA_18 
ROOT
ATOM      1  NAI LRI d   1      11.887  27.354  -1.221  0.00  0.00    -0.356 N 
ENDROOT
BRANCH   1   2
ATOM      2  CAJ LRI d   1      13.063  26.577  -0.917  0.00  0.00     0.027 C 
ATOM      3  H4  LRI d   1      13.822  27.237  -0.472  0.00  0.00     0.072 H 
ATOM      4  H5  LRI d   1      12.794  25.790  -0.197  0.00  0.00     0.072 H 
BRANCH   2   5
ATOM      5  CAK LRI d   1      13.661  25.909  -2.201  0.00  0.00     0.000 A 
ATOM      6  CAL LRI d   1      14.581  26.467  -2.990  0.00  0.00    -0.068 A 
ATOM      7  CAM LRI d   1      14.864  25.596  -4.013  0.00  0.00    -0.076 A 
ATOM      8  H1  LRI d   1      15.031  27.448  -2.847  0.00  0.00     0.085 H 
ATOM      9  CAN LRI d   1      14.151  24.478  -4.116  0.00  0.00    -0.044 A 
ATOM     10  H2  LRI d   1      15.657  25.816  -4.726  0.00  0.00     0.084 H 
ATOM     11  SAO LRI d   1      13.101  24.433  -2.771  0.00  0.00    -0.105 SA
ATOM     12  H3  LRI d   1      14.223  23.733  -4.907  0.00  0.00     0.095 H 
ENDBRANCH   2   5
ENDBRANCH   1   2
BRANCH   1  13
ATOM     13  CAP LRI d   1      12.182  28.620  -1.867  0.00  0.00     0.014 A 
ATOM     14  CAQ LRI d   1      11.680  29.889  -1.120  0.00  0.00    -0.044 A 
ATOM     15  CAR LRI d   1      13.167  29.497  -1.232  0.00  0.00    -0.044 A 
ATOM     16  H7  LRI d   1      11.149  29.800  -0.161  0.00  0.00     0.036 H 
ATOM     17  H8  LRI d   1      11.284  30.749  -1.681  0.00  0.00     0.036 H 
ATOM     18  H9  LRI d   1      13.842  30.099  -1.858  0.00  0.00     0.036 H 
ATOM     19  H10 LRI d   1      13.707  29.151  -0.338  0.00  0.00     0.036 H 
ATOM     20  H6  LRI d   1      12.124  28.534  -2.962  0.00  0.00     0.072 H 
ENDBRANCH   1  13
BRANCH   1  21
ATOM     21  C4  LRI d   1      10.739  26.750  -1.419  0.00  0.00     0.148 A 
ATOM     22  N3  LRI d   1      10.629  25.468  -1.102  0.00  0.00    -0.045 NA
ATOM     23  C2  LRI d   1       9.563  24.799  -1.444  0.00  0.00     0.723 A 
ATOM     24  N1  LRI d   1       8.480  25.350  -1.996  0.00  0.00    -0.051 NA
ATOM     25  C6  LRI d   1       8.493  26.639  -2.312  0.00  0.00     0.148 A 
ATOM     26  C5  LRI d   1       9.628  27.353  -2.035  0.00  0.00     0.002 A 
ATOM     27 CL6  LRI d   1       6.964  27.228  -2.996  0.00  0.00    -0.062 Cl
ATOM     28  H11 LRI d   1       9.671  28.404  -2.296  0.00  0.00     0.094 H 
BRANCH  23  29
ATOM     29  NAA LRI d   1       9.578  23.512  -1.223  0.00  0.00    -0.231 N 
ATOM     30  H12 LRI d   1      10.406  23.072  -0.798  0.00  0.00     0.174 HD
ATOM     31  H13 LRI d   1       8.761  22.937  -1.474  0.00  0.00     0.174 HD
ENDBRANCH  23  29
ENDBRANCH   1  21
TORSDOF 5
