REMARK  6 active torsions:
REMARK  status: ('A' for Active; 'I' for Inactive)
REMARK    1  A    between atoms: O11_16  and  C10_1 
REMARK    2  A    between atoms: C12_17  and  C13_2 
REMARK    3  A    between atoms: C14_18  and  C15_3 
REMARK    4  A    between atoms: N02_8  and  C01_7 
REMARK    5  A    between atoms: C07_13  and  C05_11 
REMARK    6  A    between atoms: O11_16  and  C12_17 
ROOT
ATOM      1  C10 6EB d   1     -24.533  21.137   6.672  0.00  0.00     0.249 A 
ATOM      2  C20 6EB d   1     -23.729  19.066   7.556  0.00  0.00     0.261 A 
ATOM      3  C22 6EB d   1     -23.568  18.645   6.172  0.00  0.00     0.065 A 
ATOM      4  C24 6EB d   1     -22.924  17.040   4.563  0.00  0.00     0.004 A 
ATOM      5  C07 6EB d   1     -23.730  19.091   3.780  0.00  0.00     0.116 A 
ATOM      6  C08 6EB d   1     -23.878  19.543   5.133  0.00  0.00     0.108 A 
ATOM      7  N09 6EB d   1     -24.376  20.806   5.373  0.00  0.00    -0.205 NA
ATOM      8  N19 6EB d   1     -24.226  20.319   7.756  0.00  0.00    -0.287 N 
ATOM      9  O21 6EB d   1     -23.455  18.366   8.503  0.00  0.00    -0.267 OA
ATOM     10  C23 6EB d   1     -23.071  17.376   5.884  0.00  0.00    -0.048 A 
ATOM     11  N25 6EB d   1     -23.228  17.868   3.506  0.00  0.00    -0.256 NA
ATOM     12  H2  6EB d   1     -22.541  16.052   4.335  0.00  0.00     0.114 H 
ATOM     13  H11 6EB d   1     -24.371  20.653   8.687  0.00  0.00     0.172 HD
ATOM     14  H12 6EB d   1     -22.811  16.681   6.674  0.00  0.00     0.087 H 
ENDROOT
BRANCH   1  15
ATOM     15  O11 6EB d   1     -25.020  22.352   7.037  0.00  0.00    -0.317 OA
BRANCH  15  16
ATOM     16  C12 6EB d   1     -25.578  23.112   5.973  0.00  0.00     0.044 C 
ATOM     17  H8  6EB d   1     -24.765  23.658   5.472  0.00  0.00     0.081 H 
ATOM     18  H9  6EB d   1     -26.048  22.419   5.260  0.00  0.00     0.081 H 
BRANCH  16  19
ATOM     19  C13 6EB d   1     -26.637  24.129   6.433  0.00  0.00    -0.075 C 
ATOM     20  C14 6EB d   1     -27.881  23.884   6.335  0.00  0.00    -0.003 C 
ATOM     21  H10 6EB d   1     -28.170  22.909   5.946  0.00  0.00     0.090 H 
ATOM     22  H1  6EB d   1     -26.314  25.081   6.852  0.00  0.00     0.080 H 
BRANCH  20  23
ATOM     23  C15 6EB d   1     -28.970  24.820   6.708  0.00  0.00     0.407 C 
ATOM     24  F16 6EB d   1     -28.684  25.529   7.788  0.00  0.00    -0.167 F 
ATOM     25  F17 6EB d   1     -30.122  24.186   6.937  0.00  0.00    -0.167 F 
ATOM     26  F18 6EB d   1     -29.229  25.704   5.750  0.00  0.00    -0.167 F 
ENDBRANCH  20  23
ENDBRANCH  16  19
ENDBRANCH  15  16
ENDBRANCH   1  15
BRANCH   5  27
ATOM     27  C05 6EB d   1     -23.878  19.935   2.640  0.00  0.00     0.104 A 
ATOM     28  N04 6EB d   1     -23.560  19.469   1.361  0.00  0.00    -0.240 NA
ATOM     29  C03 6EB d   1     -23.653  20.534   0.538  0.00  0.00     0.066 A 
ATOM     30  N02 6EB d   1     -23.925  21.689   1.264  0.00  0.00    -0.353 N 
ATOM     31  H6  6EB d   1     -23.532  20.495  -0.544  0.00  0.00     0.143 H 
ATOM     32  C06 6EB d   1     -24.012  21.305   2.581  0.00  0.00     0.010 A 
ATOM     33  H7  6EB d   1     -24.161  21.969   3.431  0.00  0.00     0.115 H 
BRANCH  30  34
ATOM     34  C01 6EB d   1     -24.103  23.043   0.740  0.00  0.00    -0.014 C 
ATOM     35  H3  6EB d   1     -23.973  23.034  -0.352  0.00  0.00     0.057 H 
ATOM     36  H4  6EB d   1     -23.357  23.712   1.192  0.00  0.00     0.057 H 
ATOM     37  H5  6EB d   1     -25.113  23.401   0.986  0.00  0.00     0.057 H 
ENDBRANCH  30  34
ENDBRANCH   5  27
TORSDOF 6
