REMARK  6 active torsions:
REMARK  status: ('A' for Active; 'I' for Inactive)
REMARK    1  A    between atoms: C15_2  and  C14_24 
REMARK    2  A    between atoms: N16_25  and  C15_2 
REMARK    3  A    between atoms: C04_10  and  C02_8 
REMARK    4  A    between atoms: N10_16  and  C09_15 
REMARK    5  A    between atoms: C11_17  and  N10_16 
REMARK    6  A    between atoms: C14_24  and  N13_18 
ROOT
ATOM      1  N12 6ED d   1     -24.596  21.878   3.567  0.00  0.00    -0.153 NA
ATOM      2  C24 6ED d   1     -25.857  23.694   4.077  0.00  0.00     0.067 A 
ATOM      3  C26 6ED d   1     -26.408  23.256   6.402  0.00  0.00    -0.030 A 
ATOM      4  C11 6ED d   1     -24.977  21.747   4.840  0.00  0.00     0.161 A 
ATOM      5  N13 6ED d   1     -25.151  23.075   3.098  0.00  0.00    -0.265 N 
ATOM      6  C25 6ED d   1     -25.784  22.900   5.214  0.00  0.00     0.043 A 
ATOM      7  C27 6ED d   1     -27.113  24.449   6.379  0.00  0.00     0.117 A 
ATOM      8  F28 6ED d   1     -27.730  24.835   7.501  0.00  0.00    -0.206 F 
ATOM      9  C29 6ED d   1     -27.211  25.270   5.270  0.00  0.00    -0.043 A 
ATOM     10  C30 6ED d   1     -26.578  24.897   4.095  0.00  0.00    -0.052 A 
ATOM     11  H7  6ED d   1     -26.348  22.640   7.292  0.00  0.00     0.089 H 
ATOM     12  H12 6ED d   1     -27.776  26.194   5.319  0.00  0.00     0.088 H 
ATOM     13  H13 6ED d   1     -26.639  25.520   3.210  0.00  0.00     0.087 H 
ENDROOT
BRANCH   5  14
ATOM     14  C14 6ED d   1     -24.939  23.440   1.868  0.00  0.00     0.040 C 
ATOM     15  H14 6ED d   1     -25.924  23.651   1.427  0.00  0.00     0.070 H 
ATOM     16  H15 6ED d   1     -24.350  24.368   1.911  0.00  0.00     0.070 H 
BRANCH  14  17
ATOM     17  C15 6ED d   1     -24.247  22.546   0.942  0.00  0.00     0.100 C 
ATOM     18  H1  6ED d   1     -23.742  21.762   1.526  0.00  0.00     0.078 H 
ATOM     19  H2  6ED d   1     -23.498  23.130   0.387  0.00  0.00     0.078 H 
BRANCH  17  20
ATOM     20  N16 6ED d   1     -25.151  21.897  -0.031  0.00  0.00    -0.069 N 
ATOM     21  C17 6ED d   1     -25.122  22.581  -1.338  0.00  0.00     0.089 C 
ATOM     22  C18 6ED d   1     -26.176  23.695  -1.457  0.00  0.00     0.019 C 
ATOM     23  H3  6ED d   1     -25.308  21.837  -2.127  0.00  0.00     0.076 H 
ATOM     24  H4  6ED d   1     -24.125  23.025  -1.479  0.00  0.00     0.076 H 
ATOM     25  C19 6ED d   1     -27.573  23.193  -1.246  0.00  0.00     0.246 C 
ATOM     26  H17 6ED d   1     -26.109  24.137  -2.462  0.00  0.00     0.044 H 
ATOM     27  H18 6ED d   1     -25.961  24.465  -0.702  0.00  0.00     0.044 H 
ATOM     28  C22 6ED d   1     -27.588  21.837  -0.627  0.00  0.00     0.019 C 
ATOM     29  F20 6ED d   1     -28.254  23.169  -2.449  0.00  0.00    -0.206 F 
ATOM     30  F21 6ED d   1     -28.265  24.071  -0.450  0.00  0.00    -0.206 F 
ATOM     31  C23 6ED d   1     -26.555  21.757   0.496  0.00  0.00     0.089 C 
ATOM     32  H5  6ED d   1     -27.350  21.085  -1.394  0.00  0.00     0.044 H 
ATOM     33  H6  6ED d   1     -28.588  21.637  -0.215  0.00  0.00     0.044 H 
ATOM     34  H19 6ED d   1     -26.651  20.785   1.001  0.00  0.00     0.076 H 
ATOM     35  H20 6ED d   1     -26.748  22.565   1.217  0.00  0.00     0.076 H 
ATOM     36  H16 6ED d   1     -24.800  20.964  -0.179  0.00  0.00     0.280 HD
ENDBRANCH  17  20
ENDBRANCH  14  17
ENDBRANCH   5  14
BRANCH   4  37
ATOM     37  N10 6ED d   1     -24.682  20.804   5.647  0.00  0.00    -0.337 N 
ATOM     38  H11 6ED d   1     -24.852  20.966   6.650  0.00  0.00     0.167 HD
BRANCH  37  39
ATOM     39  C09 6ED d   1     -24.135  19.543   5.267  0.00  0.00     0.068 A 
ATOM     40  C04 6ED d   1     -23.584  18.733   6.245  0.00  0.00     0.070 A 
ATOM     41  C05 6ED d   1     -23.082  17.489   5.871  0.00  0.00    -0.047 A 
ATOM     42  C06 6ED d   1     -23.153  17.104   4.531  0.00  0.00     0.003 A 
ATOM     43  H8  6ED d   1     -22.642  16.829   6.610  0.00  0.00     0.087 H 
ATOM     44  N07 6ED d   1     -23.702  17.887   3.561  0.00  0.00    -0.271 NA
ATOM     45  H9  6ED d   1     -22.753  16.137   4.249  0.00  0.00     0.114 H 
ATOM     46  C08 6ED d   1     -24.190  19.088   3.952  0.00  0.00     0.029 A 
ATOM     47  H10 6ED d   1     -24.646  19.727   3.204  0.00  0.00     0.118 H 
BRANCH  40  48
ATOM     48  C02 6ED d   1     -23.475  19.084   7.690  0.00  0.00     0.211 C 
ATOM     49  O01 6ED d   1     -22.702  18.419   8.409  0.00  0.00    -0.644 OA
ATOM     50  O03 6ED d   1     -24.156  20.046   8.111  0.00  0.00    -0.644 OA
ENDBRANCH  40  48
ENDBRANCH  37  39
ENDBRANCH   4  37
TORSDOF 6
