REMARK WARNING: 32 MAX_TORS EXCEEDED!!!
REMARK  52 active torsions:
REMARK  status: ('A' for Active; 'I' for Inactive)
REMARK    1  A    between atoms: C_1  and  CA_3 
REMARK       I    between atoms: N_11  and  C_1 
REMARK       I    between atoms: N_4  and  C1_5 
REMARK    2  A    between atoms: C1_5  and  C2_7 
REMARK    3  A    between atoms: CA_12  and  N_11 
REMARK    4  A    between atoms: C_13  and  CA_12 
REMARK    5  A    between atoms: CA_12  and  CB_15 
REMARK       I    between atoms: N_19  and  C_13 
REMARK    6  A    between atoms: CB_15  and  CG_16 
REMARK    7  A    between atoms: CA_20  and  N_19 
REMARK    8  A    between atoms: C_21  and  CA_20 
REMARK    9  A    between atoms: CA_20  and  CB_23 
REMARK       I    between atoms: N_30  and  C_21 
REMARK   10  A    between atoms: CB_23  and  CG_24 
REMARK   11  A    between atoms: CG_24  and  CD_25 
REMARK   12  A    between atoms: CD_25  and  NE_26 
REMARK       I    between atoms: NE_26  and  CZ_27 
REMARK       I    between atoms: CZ_27  and  NH1_28 
REMARK   13  A    between atoms: CA_31  and  N_30 
REMARK   14  A    between atoms: C_32  and  CA_31 
REMARK   15  A    between atoms: CA_31  and  CB_34 
REMARK       I    between atoms: N_39  and  C_32 
REMARK   16  A    between atoms: CB_34  and  CG_35 
REMARK   17  A    between atoms: CG_35  and  CD_36 
REMARK   18  A    between atoms: CD_36  and  CE_37 
REMARK   19  A    between atoms: CE_37  and  NZ_38 
REMARK   20  A    between atoms: CA_40  and  N_39 
REMARK   21  A    between atoms: C_41  and  CA_40 
REMARK   22  A    between atoms: CA_40  and  CB_43 
REMARK       I    between atoms: N_44  and  C_41 
REMARK   23  A    between atoms: CA_45  and  N_44 
REMARK   24  A    between atoms: C_46  and  CA_45 
REMARK   25  A    between atoms: CA_45  and  CB_48 
REMARK       I    between atoms: N_49  and  C_46 
REMARK   26  A    between atoms: CA_50  and  N_49 
REMARK   27  A    between atoms: C_51  and  CA_50 
REMARK   28  A    between atoms: CA_50  and  CB_53 
REMARK       I    between atoms: N_56  and  C_51 
REMARK   29  A    between atoms: CB_53  and  CG1_54 
REMARK   30  A    between atoms: CB_53  and  CG2_55 
REMARK   31  A    between atoms: CA_57  and  N_56 
REMARK   32  A    between atoms: C_58  and  CA_57 
REMARK   33  A    between atoms: CA_57  and  CB_60 
REMARK       I    between atoms: N_62  and  C_58 
REMARK   34  A    between atoms: CB_60  and  OG_61 
REMARK   35  A    between atoms: CA_63  and  N_62 
REMARK   36  A    between atoms: C_64  and  CA_63 
REMARK   37  A    between atoms: CA_63  and  CB_66 
REMARK       I    between atoms: N_72  and  C_64 
REMARK   38  A    between atoms: CB_66  and  CG_67 
REMARK   39  A    between atoms: CA_73  and  N_72 
REMARK   40  A    between atoms: C_74  and  CA_73 
REMARK   41  A    between atoms: CA_73  and  CB_76 
REMARK       I    between atoms: N_86  and  C_74 
REMARK   42  A    between atoms: CB_76  and  CG_77 
REMARK   43  A    between atoms: CA_87  and  N_86 
REMARK   44  A    between atoms: C_88  and  CA_87 
REMARK   45  A    between atoms: CA_87  and  CB_90 
REMARK       I    between atoms: N07_101  and  C_88 
REMARK   46  A    between atoms: CB_90  and  CG_91 
REMARK   47  A    between atoms: CG_91  and  CD_92 
REMARK       I    between atoms: CD_92  and  NE2_94 
REMARK       I    between atoms: C02_96  and  N01_95 
REMARK   48  A    between atoms: C04_98  and  C02_96 
REMARK   49  A    between atoms: C05_99  and  C04_98 
REMARK   50  A    between atoms: C06_100  and  C05_99 
REMARK   51  A    between atoms: C06_100  and  N07_101 
REMARK   52  A    between atoms: C06_100  and  C08_102 
REMARK       I    between atoms: C08_102  and  N09_103 
ROOT
ATOM      1  CA  VAL d   1     -19.307  -3.025  21.271  0.00  0.00     0.092 C 
ATOM      2  H52 VAL d   1     -18.421  -2.916  21.914  0.00  0.00     0.088 H 
ENDROOT
BRANCH   1   3
ATOM      3  N   VAL d   1     -19.460  -1.796  20.500  0.00  0.00    -0.346 N 
ATOM      4  C   ALA d   1     -18.402  -1.069  20.187  0.00  0.00     0.240 C 
ATOM      5  O   ALA d   1     -17.257  -1.285  20.600  0.00  0.00    -0.271 OA
ATOM      6  H51 VAL d   1     -20.370  -1.502  20.207  0.00  0.00     0.163 HD
BRANCH   4   7
ATOM      7  CA  ALA d   1     -18.683   0.142  19.292  0.00  0.00     0.086 C 
ATOM      8  H47 ALA d   1     -19.681   0.546  19.518  0.00  0.00     0.086 H 
BRANCH   7   9
ATOM      9  N   ALA d   1     -17.668   1.164  19.583  0.00  0.00    -0.346 N 
ATOM     10  C   ALA d   1     -17.933   2.463  19.482  0.00  0.00     0.240 C 
ATOM     11  O   ALA d   1     -18.971   2.894  19.000  0.00  0.00    -0.271 OA
ATOM     12  H46 ALA d   1     -16.753   0.875  19.865  0.00  0.00     0.163 HD
BRANCH  10  13
ATOM     13  CA  ALA d   1     -16.915   3.374  20.098  0.00  0.00     0.086 C 
ATOM     14  H42 ALA d   1     -15.922   2.924  19.949  0.00  0.00     0.086 H 
BRANCH  13  15
ATOM     15  N   ALA d   1     -16.899   4.710  19.502  0.00  0.00    -0.346 N 
ATOM     16  C   LYS d   1     -16.398   4.914  18.264  0.00  0.00     0.241 C 
ATOM     17  O   LYS d   1     -15.884   4.015  17.603  0.00  0.00    -0.271 OA
ATOM     18  H41 ALA d   1     -17.265   5.484  20.019  0.00  0.00     0.163 HD
BRANCH  16  19
ATOM     19  CA  LYS d   1     -16.580   6.285  17.681  0.00  0.00     0.089 C 
ATOM     20  H29 LYS d   1     -16.745   7.001  18.500  0.00  0.00     0.087 H 
BRANCH  19  21
ATOM     21  N   LYS d   1     -15.415   6.708  16.936  0.00  0.00    -0.346 N 
ATOM     22  C   ARG d   1     -14.927   7.933  16.945  0.00  0.00     0.241 C 
ATOM     23  O   ARG d   1     -15.236   8.788  17.788  0.00  0.00    -0.271 OA
ATOM     24  H28 LYS d   1     -14.947   6.025  16.375  0.00  0.00     0.163 HD
BRANCH  22  25
ATOM     25  CA  ARG d   1     -13.955   8.271  15.780  0.00  0.00     0.089 C 
ATOM     26  H16 ARG d   1     -13.620   7.342  15.295  0.00  0.00     0.087 H 
BRANCH  25  27
ATOM     27  N   ARG d   1     -14.694   9.093  14.822  0.00  0.00    -0.346 N 
ATOM     28  C   ASP d   1     -15.314   8.557  13.793  0.00  0.00     0.241 C 
ATOM     29  O   ASP d   1     -15.322   7.304  13.613  0.00  0.00    -0.271 OA
ATOM     30  H15 ARG d   1     -14.729  10.084  14.952  0.00  0.00     0.163 HD
BRANCH  28  31
ATOM     31  CA  ASP d   1     -15.985   9.482  12.799  0.00  0.00     0.098 C 
ATOM     32  H12 ASP d   1     -15.983  10.506  13.202  0.00  0.00     0.088 H 
BRANCH  31  33
ATOM     33  N   ASP d   1     -15.204   9.445  11.585  0.00  0.00    -0.346 N 
ATOM     34  C   N7P d   1     -14.114  10.140  11.405  0.00  0.00     0.241 C 
ATOM     35  O   N7P d   1     -13.791  11.064  12.208  0.00  0.00    -0.271 OA
ATOM     36  H11 ASP d   1     -15.516   8.854  10.841  0.00  0.00     0.163 HD
BRANCH  34  37
ATOM     37  CA  N7P d   1     -13.208   9.754  10.250  0.00  0.00     0.091 C 
ATOM     38  N   N7P d   1     -12.344  10.856   9.847  0.00  0.00    -0.339 N 
ATOM     39  C1  N7P d   1     -12.725  11.805   9.044  0.00  0.00     0.216 C 
ATOM     40  CD  N7P d   1     -10.994  10.695  10.390  0.00  0.00    -0.001 C 
ATOM     41  O1  N7P d   1     -13.860  11.742   8.605  0.00  0.00    -0.274 OA
ATOM     42  CG  N7P d   1     -11.115   9.399  11.210  0.00  0.00    -0.048 C 
ATOM     43  H5  N7P d   1     -10.719  11.546  11.031  0.00  0.00     0.064 H 
ATOM     44  H6  N7P d   1     -10.252  10.588   9.585  0.00  0.00     0.064 H 
ATOM     45  CB  N7P d   1     -12.271   8.661  10.666  0.00  0.00    -0.036 C 
ATOM     46  H7  N7P d   1     -11.281   9.636  12.271  0.00  0.00     0.035 H 
ATOM     47  H8  N7P d   1     -10.199   8.798  11.107  0.00  0.00     0.035 H 
ATOM     48  H9  N7P d   1     -11.976   8.045   9.804  0.00  0.00     0.036 H 
ATOM     49  H10 N7P d   1     -12.728   8.021  11.435  0.00  0.00     0.036 H 
ATOM     50  H1  N7P d   1     -13.827   9.428   9.401  0.00  0.00     0.087 H 
BRANCH  39  51
ATOM     51  C2  N7P d   1     -11.779  12.900   8.692  0.00  0.00    -0.003 C 
ATOM     52  H2  N7P d   1     -12.273  13.605   8.008  0.00  0.00     0.040 H 
ATOM     53  H3  N7P d   1     -10.891  12.474   8.201  0.00  0.00     0.040 H 
ATOM     54  H4  N7P d   1     -11.474  13.429   9.607  0.00  0.00     0.040 H 
ENDBRANCH  39  51
ENDBRANCH  34  37
ENDBRANCH  31  33
BRANCH  31  55
ATOM     55  CB  ASP d   1     -17.429   9.074  12.527  0.00  0.00     0.043 C 
ATOM     56  H13 ASP d   1     -17.443   8.014  12.232  0.00  0.00     0.052 H 
ATOM     57  H14 ASP d   1     -17.816   9.689  11.701  0.00  0.00     0.052 H 
BRANCH  55  58
ATOM     58  CG  ASP d   1     -18.359   9.255  13.752  0.00  0.00     0.175 C 
ATOM     59  OD1 ASP d   1     -17.945   9.947  14.713  0.00  0.00    -0.648 OA
ATOM     60  OD2 ASP d   1     -19.491   8.767  13.694  0.00  0.00    -0.648 OA
ENDBRANCH  55  58
ENDBRANCH  31  55
ENDBRANCH  28  31
ENDBRANCH  25  27
BRANCH  25  61
ATOM     61  CB  ARG d   1     -12.710   9.052  16.304  0.00  0.00    -0.036 C 
ATOM     62  H17 ARG d   1     -12.135   8.389  16.967  0.00  0.00     0.036 H 
ATOM     63  H18 ARG d   1     -13.060   9.926  16.873  0.00  0.00     0.036 H 
BRANCH  61  64
ATOM     64  CG  ARG d   1     -11.804   9.530  15.207  0.00  0.00    -0.048 C 
ATOM     65  H19 ARG d   1     -12.313  10.330  14.650  0.00  0.00     0.035 H 
ATOM     66  H20 ARG d   1     -11.592   8.689  14.530  0.00  0.00     0.035 H 
BRANCH  64  67
ATOM     67  CD  ARG d   1     -10.497  10.065  15.743  0.00  0.00     0.009 C 
ATOM     68  H21 ARG d   1      -9.869   9.216  16.053  0.00  0.00     0.064 H 
ATOM     69  H22 ARG d   1     -10.708  10.703  16.614  0.00  0.00     0.064 H 
BRANCH  67  70
ATOM     70  NE  ARG d   1      -9.758  10.859  14.744  0.00  0.00    -0.227 N 
ATOM     71  CZ  ARG d   1      -8.954  10.347  13.826  0.00  0.00     0.665 C 
ATOM     72  NH1 ARG d   1      -8.689   9.063  13.841  0.00  0.00    -0.235 N 
ATOM     73  NH2 ARG d   1      -8.351  11.153  12.935  0.00  0.00    -0.235 N 
ATOM     74  H24 ARG d   1      -8.064   8.658  13.130  0.00  0.00     0.174 HD
ATOM     75  H25 ARG d   1      -9.106   8.460  14.564  0.00  0.00     0.174 HD
ATOM     76  H26 ARG d   1      -8.562  12.161  12.927  0.00  0.00     0.174 HD
ATOM     77  H27 ARG d   1      -7.678  10.762  12.260  0.00  0.00     0.174 HD
ATOM     78  H23 ARG d   1      -9.876  11.882  14.762  0.00  0.00     0.177 HD
ENDBRANCH  67  70
ENDBRANCH  64  67
ENDBRANCH  61  64
ENDBRANCH  25  61
ENDBRANCH  22  25
ENDBRANCH  19  21
BRANCH  19  79
ATOM     79  CB  LYS d   1     -17.820   6.255  16.788  0.00  0.00    -0.038 C 
ATOM     80  H30 LYS d   1     -17.735   5.404  16.097  0.00  0.00     0.036 H 
ATOM     81  H31 LYS d   1     -17.862   7.192  16.213  0.00  0.00     0.036 H 
BRANCH  79  82
ATOM     82  CG  LYS d   1     -19.050   6.119  17.540  0.00  0.00    -0.061 C 
ATOM     83  H32 LYS d   1     -19.089   6.902  18.311  0.00  0.00     0.033 H 
ATOM     84  H33 LYS d   1     -19.070   5.130  18.021  0.00  0.00     0.033 H 
BRANCH  82  85
ATOM     85  CD  LYS d   1     -20.223   6.251  16.660  0.00  0.00    -0.043 C 
ATOM     86  H34 LYS d   1     -20.135   5.532  15.833  0.00  0.00     0.035 H 
ATOM     87  H35 LYS d   1     -20.256   7.273  16.255  0.00  0.00     0.035 H 
BRANCH  85  88
ATOM     88  CE  LYS d   1     -21.510   5.976  17.425  0.00  0.00     0.080 C 
ATOM     89  H36 LYS d   1     -21.282   5.343  18.295  0.00  0.00     0.075 H 
ATOM     90  H37 LYS d   1     -22.215   5.451  16.764  0.00  0.00     0.075 H 
BRANCH  88  91
ATOM     91  NZ  LYS d   1     -22.117   7.196  17.881  0.00  0.00    -0.079 N 
ATOM     92  H38 LYS d   1     -22.965   6.982  18.383  0.00  0.00     0.274 HD
ATOM     93  H39 LYS d   1     -22.334   7.780  17.089  0.00  0.00     0.274 HD
ATOM     94  H40 LYS d   1     -21.479   7.681  18.492  0.00  0.00     0.274 HD
ENDBRANCH  88  91
ENDBRANCH  85  88
ENDBRANCH  82  85
ENDBRANCH  79  82
ENDBRANCH  19  79
ENDBRANCH  16  19
ENDBRANCH  13  15
BRANCH  13  95
ATOM     95  CB  ALA d   1     -17.181   3.493  21.600  0.00  0.00    -0.049 C 
ATOM     96  H43 ALA d   1     -17.194   2.490  22.051  0.00  0.00     0.030 H 
ATOM     97  H44 ALA d   1     -18.154   3.980  21.763  0.00  0.00     0.030 H 
ATOM     98  H45 ALA d   1     -16.387   4.095  22.067  0.00  0.00     0.030 H 
ENDBRANCH  13  95
ENDBRANCH  10  13
ENDBRANCH   7   9
BRANCH   7  99
ATOM     99  CB  ALA d   1     -18.640  -0.280  17.843  0.00  0.00    -0.049 C 
ATOM    100  H48 ALA d   1     -19.410  -1.044  17.660  0.00  0.00     0.030 H 
ATOM    101  H49 ALA d   1     -17.649  -0.697  17.612  0.00  0.00     0.030 H 
ATOM    102  H50 ALA d   1     -18.830   0.593  17.201  0.00  0.00     0.030 H 
ENDBRANCH   7  99
ENDBRANCH   4   7
ENDBRANCH   1   3
BRANCH   1 103
ATOM    103  C   VAL d   1     -19.065  -4.200  20.332  0.00  0.00     0.241 C 
ATOM    104  O   VAL d   1     -19.723  -4.329  19.318  0.00  0.00    -0.271 OA
ATOM    105  N   SER d   1     -18.080  -5.030  20.685  0.00  0.00    -0.344 N 
ATOM    106  H60 SER d   1     -17.506  -4.803  21.472  0.00  0.00     0.163 HD
BRANCH 105 107
ATOM    107  CA  SER d   1     -17.821  -6.278  19.936  0.00  0.00     0.109 C 
ATOM    108  H61 SER d   1     -18.611  -6.403  19.181  0.00  0.00     0.090 H 
BRANCH 107 109
ATOM    109  C   SER d   1     -17.852  -7.470  20.843  0.00  0.00     0.243 C 
ATOM    110  O   SER d   1     -16.967  -7.644  21.723  0.00  0.00    -0.271 OA
ATOM    111  N   HIS d   1     -18.915  -8.243  20.698  0.00  0.00    -0.346 N 
ATOM    112  H65 HIS d   1     -19.632  -7.948  20.066  0.00  0.00     0.163 HD
BRANCH 111 113
ATOM    113  CA  HIS d   1     -19.100  -9.517  21.418  0.00  0.00     0.094 C 
ATOM    114  H66 HIS d   1     -18.248  -9.651  22.101  0.00  0.00     0.088 H 
BRANCH 113 115
ATOM    115  C   HIS d   1     -19.099 -10.682  20.446  0.00  0.00     0.241 C 
ATOM    116  O   HIS d   1     -19.540 -11.769  20.751  0.00  0.00    -0.271 OA
ATOM    117  N   TRP d   1     -18.384 -10.522  19.346  0.00  0.00    -0.346 N 
ATOM    118  H72 TRP d   1     -17.904  -9.656  19.205  0.00  0.00     0.163 HD
BRANCH 117 119
ATOM    119  CA  TRP d   1     -18.272 -11.552  18.341  0.00  0.00     0.093 C 
ATOM    120  H73 TRP d   1     -19.269 -11.997  18.207  0.00  0.00     0.088 H 
BRANCH 119 121
ATOM    121  C   TRP d   1     -17.352 -12.668  18.779  0.00  0.00     0.241 C 
ATOM    122  O   TRP d   1     -16.463 -12.478  19.615  0.00  0.00    -0.271 OA
ATOM    123  N   GLN d   1     -17.635 -13.883  18.253  0.00  0.00    -0.346 N 
ATOM    124  H82 GLN d   1     -18.371 -13.952  17.580  0.00  0.00     0.163 HD
BRANCH 123 125
ATOM    125  CA  GLN d   1     -16.918 -15.088  18.622  0.00  0.00     0.090 C 
ATOM    126  H83 GLN d   1     -15.987 -14.817  19.141  0.00  0.00     0.087 H 
BRANCH 125 127
ATOM    127  C   GLN d   1     -16.588 -15.875  17.372  0.00  0.00     0.241 C 
ATOM    128  O   GLN d   1     -17.333 -15.840  16.408  0.00  0.00    -0.271 OA
ATOM    129  N07 6E4 d   1     -15.484 -16.648  17.426  0.00  0.00    -0.346 N 
ATOM    130  H97 6E4 d   1     -14.893 -16.617  18.232  0.00  0.00     0.163 HD
BRANCH 129 131
ATOM    131  C06 6E4 d   1     -15.154 -17.515  16.331  0.00  0.00     0.089 C 
ATOM    132  H96 6E4 d   1     -15.186 -16.945  15.391  0.00  0.00     0.087 H 
BRANCH 131 133
ATOM    133  C05 6E4 d   1     -13.815 -18.119  16.506  0.00  0.00    -0.030 C 
ATOM    134  H94 6E4 d   1     -13.768 -18.606  17.491  0.00  0.00     0.037 H 
ATOM    135  H95 6E4 d   1     -13.655 -18.869  15.718  0.00  0.00     0.037 H 
BRANCH 133 136
ATOM    136  C04 6E4 d   1     -12.757 -17.104  16.423  0.00  0.00     0.011 C 
ATOM    137  H92 6E4 d   1     -12.924 -16.476  15.536  0.00  0.00     0.047 H 
ATOM    138  H93 6E4 d   1     -12.783 -16.477  17.326  0.00  0.00     0.047 H 
BRANCH 136 139
ATOM    139  C02 6E4 d   1     -11.433 -17.758  16.318  0.00  0.00     0.215 C 
ATOM    140  N01 6E4 d   1     -10.549 -17.584  17.331  0.00  0.00    -0.370 N 
ATOM    141  H90 6E4 d   1     -10.811 -17.055  18.138  0.00  0.00     0.159 HD
ATOM    142  H91 6E4 d   1      -9.635 -17.985  17.271  0.00  0.00     0.159 HD
ATOM    143  O03 6E4 d   1     -11.122 -18.409  15.317  0.00  0.00    -0.274 OA
ENDBRANCH 136 139
ENDBRANCH 133 136
ENDBRANCH 131 133
BRANCH 131 144
ATOM    144  C08 6E4 d   1     -16.154 -18.659  16.288  0.00  0.00     0.238 C 
ATOM    145  N09 6E4 d   1     -16.739 -19.037  17.428  0.00  0.00    -0.368 N 
ATOM    146  H98 6E4 d   1     -17.400 -19.787  17.426  0.00  0.00     0.159 HD
ATOM    147  H99 6E4 d   1     -16.515 -18.570  18.284  0.00  0.00     0.159 HD
ATOM    148  O10 6E4 d   1     -16.501 -19.219  15.202  0.00  0.00    -0.271 OA
ENDBRANCH 131 144
ENDBRANCH 129 131
ENDBRANCH 125 127
BRANCH 125 149
ATOM    149  CB  GLN d   1     -17.791 -15.940  19.552  0.00  0.00    -0.030 C 
ATOM    150  H84 GLN d   1     -17.192 -16.798  19.891  0.00  0.00     0.037 H 
ATOM    151  H85 GLN d   1     -18.654 -16.301  18.973  0.00  0.00     0.037 H 
BRANCH 149 152
ATOM    152  CG  GLN d   1     -18.322 -15.212  20.792  0.00  0.00     0.011 C 
ATOM    153  H86 GLN d   1     -19.415 -15.332  20.833  0.00  0.00     0.047 H 
ATOM    154  H87 GLN d   1     -18.073 -14.144  20.709  0.00  0.00     0.047 H 
BRANCH 152 155
ATOM    155  CD  GLN d   1     -17.733 -15.746  22.053  0.00  0.00     0.215 C 
ATOM    156  OE1 GLN d   1     -18.441 -16.326  22.893  0.00  0.00    -0.274 OA
ATOM    157  NE2 GLN d   1     -16.434 -15.536  22.228  0.00  0.00    -0.370 N 
ATOM    158  H88 GLN d   1     -15.980 -15.870  23.054  0.00  0.00     0.159 HD
ATOM    159  H89 GLN d   1     -15.909 -15.044  21.534  0.00  0.00     0.159 HD
ENDBRANCH 152 155
ENDBRANCH 149 152
ENDBRANCH 125 149
ENDBRANCH 123 125
ENDBRANCH 119 121
BRANCH 119 160
ATOM    160  CB  TRP d   1     -17.875 -10.908  16.998  0.00  0.00    -0.012 C 
ATOM    161  H74 TRP d   1     -18.744 -10.347  16.624  0.00  0.00     0.044 H 
ATOM    162  H75 TRP d   1     -17.632 -11.719  16.295  0.00  0.00     0.044 H 
BRANCH 160 163
ATOM    163  CG  TRP d   1     -16.678  -9.947  17.037  0.00  0.00    -0.028 A 
ATOM    164  CD1 TRP d   1     -15.529 -10.099  17.762  0.00  0.00    -0.015 A 
ATOM    165  NE1 TRP d   1     -14.696  -9.071  17.515  0.00  0.00    -0.365 N 
ATOM    166  H76 TRP d   1     -15.319 -10.927  18.438  0.00  0.00     0.112 H 
ATOM    167  CE2 TRP d   1     -15.275  -8.244  16.591  0.00  0.00     0.042 A 
ATOM    168  H77 TRP d   1     -13.773  -8.930  17.950  0.00  0.00     0.165 HD
ATOM    169  CD2 TRP d   1     -16.520  -8.772  16.277  0.00  0.00    -0.002 A 
ATOM    170  CZ2 TRP d   1     -14.819  -7.051  16.061  0.00  0.00    -0.056 A 
ATOM    171  CE3 TRP d   1     -17.316  -8.112  15.337  0.00  0.00    -0.070 A 
ATOM    172  CZ3 TRP d   1     -16.863  -6.943  14.789  0.00  0.00    -0.082 A 
ATOM    173  H78 TRP d   1     -18.277  -8.520  15.046  0.00  0.00     0.084 H 
ATOM    174  CH2 TRP d   1     -15.632  -6.404  15.175  0.00  0.00    -0.081 A 
ATOM    175  H80 TRP d   1     -17.465  -6.429  14.048  0.00  0.00     0.083 H 
ATOM    176  H81 TRP d   1     -15.316  -5.453  14.762  0.00  0.00     0.083 H 
ATOM    177  H79 TRP d   1     -13.853  -6.645  16.338  0.00  0.00     0.086 H 
ENDBRANCH 160 163
ENDBRANCH 119 160
ENDBRANCH 117 119
ENDBRANCH 113 115
BRANCH 113 178
ATOM    178  CB  HIS d   1     -20.361  -9.464  22.259  0.00  0.00     0.004 C 
ATOM    179  H67 HIS d   1     -20.553 -10.467  22.668  0.00  0.00     0.046 H 
ATOM    180  H68 HIS d   1     -21.201  -9.164  21.615  0.00  0.00     0.046 H 
BRANCH 178 181
ATOM    181  CG  HIS d   1     -20.260  -8.503  23.386  0.00  0.00     0.053 A 
ATOM    182  ND1 HIS d   1     -21.356  -7.946  23.949  0.00  0.00    -0.247 NA
ATOM    183  CE1 HIS d   1     -21.023  -7.144  24.932  0.00  0.00     0.064 A 
ATOM    184  NE2 HIS d   1     -19.718  -7.206  25.073  0.00  0.00    -0.359 N 
ATOM    185  H70 HIS d   1     -21.705  -6.536  25.525  0.00  0.00     0.143 H 
ATOM    186  CD2 HIS d   1     -19.207  -8.045  24.093  0.00  0.00     0.002 A 
ATOM    187  H71 HIS d   1     -19.167  -6.714  25.791  0.00  0.00     0.166 HD
ATOM    188  H69 HIS d   1     -18.158  -8.287  23.927  0.00  0.00     0.114 H 
ENDBRANCH 178 181
ENDBRANCH 113 178
ENDBRANCH 111 113
ENDBRANCH 107 109
BRANCH 107 189
ATOM    189  CB  SER d   1     -16.473  -6.162  19.215  0.00  0.00     0.044 C 
ATOM    190  H62 SER d   1     -16.549  -5.397  18.429  0.00  0.00     0.077 H 
ATOM    191  H63 SER d   1     -16.223  -7.132  18.760  0.00  0.00     0.077 H 
BRANCH 189 192
ATOM    192  OG  SER d   1     -15.448  -5.796  20.122  0.00  0.00    -0.398 OA
ATOM    193  H64 SER d   1     -15.659  -4.957  20.515  0.00  0.00     0.209 HD
ENDBRANCH 189 192
ENDBRANCH 107 189
ENDBRANCH 105 107
ENDBRANCH   1 103
BRANCH   1 194
ATOM    194  CB  VAL d   1     -20.524  -3.267  22.188  0.00  0.00    -0.033 C 
ATOM    195  H53 VAL d   1     -20.631  -2.375  22.823  0.00  0.00     0.042 H 
BRANCH 194 196
ATOM    196  CG1 VAL d   1     -21.842  -3.449  21.444  0.00  0.00    -0.071 C 
ATOM    197  H54 VAL d   1     -22.652  -3.615  22.169  0.00  0.00     0.028 H 
ATOM    198  H55 VAL d   1     -21.767  -4.317  20.772  0.00  0.00     0.028 H 
ATOM    199  H56 VAL d   1     -22.058  -2.546  20.854  0.00  0.00     0.028 H 
ENDBRANCH 194 196
BRANCH 194 200
ATOM    200  CG2 VAL d   1     -20.269  -4.469  23.104  0.00  0.00    -0.071 C 
ATOM    201  H57 VAL d   1     -19.317  -4.329  23.636  0.00  0.00     0.028 H 
ATOM    202  H58 VAL d   1     -20.220  -5.387  22.500  0.00  0.00     0.028 H 
ATOM    203  H59 VAL d   1     -21.088  -4.554  23.834  0.00  0.00     0.028 H 
ENDBRANCH 194 200
ENDBRANCH   1 194
TORSDOF 52
