REMARK  16 active torsions:
REMARK  status: ('A' for Active; 'I' for Inactive)
REMARK       I    between atoms: N_15  and  C2_1 
REMARK    1  A    between atoms: C2_1  and  O3_18 
REMARK    2  A    between atoms: O3_18  and  C5_2 
REMARK    3  A    between atoms: C6_20  and  C7_3 
REMARK    4  A    between atoms: C33_36  and  C20_11 
REMARK    5  A    between atoms: C_14  and  C1_17 
REMARK       I    between atoms: N32_35  and  C_14 
REMARK    6  A    between atoms: C1_17  and  N_15 
REMARK    7  A    between atoms: C1_17  and  C6_20 
REMARK    8  A    between atoms: C6_20  and  C8_21 
REMARK    9  A    between atoms: C19_25  and  N32_35 
REMARK   10  A    between atoms: C26_29  and  C34_37 
REMARK   11  A    between atoms: C31_34  and  C29_32 
REMARK   12  A    between atoms: C31_34  and  C33_36 
REMARK   13  A    between atoms: C34_37  and  O35_38 
REMARK   14  A    between atoms: O35_38  and  C36_39 
REMARK       I    between atoms: C36_39  and  N37_40 
REMARK   15  A    between atoms: N37_40  and  C39_42 
REMARK   16  A    between atoms: C39_42  and  C40_43 
ROOT
ATOM      1  C20 6EF d   1     -19.321  17.375  -7.564  0.00  0.00    -0.031 A 
ATOM      2  C21 6EF d   1     -18.489  17.004  -8.601  0.00  0.00    -0.075 A 
ATOM      3  C22 6EF d   1     -18.678  15.813  -9.254  0.00  0.00    -0.082 A 
ATOM      4  C19 6EF d   1     -20.353  16.517  -7.191  0.00  0.00     0.041 A 
ATOM      5  C23 6EF d   1     -19.692  14.960  -8.879  0.00  0.00    -0.081 A 
ATOM      6  C24 6EF d   1     -20.533  15.305  -7.846  0.00  0.00    -0.057 A 
ATOM      7  H11 6EF d   1     -17.680  17.659  -8.902  0.00  0.00     0.084 H 
ATOM      8  H12 6EF d   1     -18.023  15.540 -10.073  0.00  0.00     0.083 H 
ATOM      9  H19 6EF d   1     -19.828  14.018  -9.397  0.00  0.00     0.083 H 
ATOM     10  H20 6EF d   1     -21.331  14.636  -7.545  0.00  0.00     0.086 H 
ENDROOT
BRANCH   1  11
ATOM     11  C33 6EF d   1     -19.030  18.689  -6.880  0.00  0.00    -0.036 C 
ATOM     12  H32 6EF d   1     -19.963  19.228  -6.658  0.00  0.00     0.040 H 
ATOM     13  H33 6EF d   1     -18.382  19.320  -7.506  0.00  0.00     0.040 H 
BRANCH  11  14
ATOM     14  C31 6EF d   1     -18.321  18.294  -5.601  0.00  0.00    -0.036 C 
ATOM     15  H29 6EF d   1     -18.578  19.013  -4.809  0.00  0.00     0.037 H 
ATOM     16  H30 6EF d   1     -18.650  17.288  -5.303  0.00  0.00     0.037 H 
BRANCH  14  17
ATOM     17  C29 6EF d   1     -16.821  18.288  -5.798  0.00  0.00     0.062 C 
ATOM     18  C28 6EF d   1     -16.221  18.147  -4.421  0.00  0.00     0.106 C 
ATOM     19  N27 6EF d   1     -14.727  18.259  -4.507  0.00  0.00    -0.064 N 
ATOM     20  H26 6EF d   1     -16.610  18.943  -3.769  0.00  0.00     0.079 H 
ATOM     21  H27 6EF d   1     -16.491  17.166  -4.003  0.00  0.00     0.079 H 
ATOM     22  C26 6EF d   1     -14.232  19.437  -5.281  0.00  0.00     0.143 C 
ATOM     23  H24 6EF d   1     -14.363  18.324  -3.569  0.00  0.00     0.277 HD
ATOM     24  H25 6EF d   1     -14.374  17.424  -4.947  0.00  0.00     0.277 HD
ATOM     25  C25 6EF d   1     -15.021  19.561  -6.580  0.00  0.00     0.049 C 
ATOM     26  H23 6EF d   1     -13.164  19.315  -5.513  0.00  0.00     0.091 H 
ATOM     27  O30 6EF d   1     -16.442  19.569  -6.339  0.00  0.00    -0.382 OA
ATOM     28  H21 6EF d   1     -14.774  18.709  -7.230  0.00  0.00     0.077 H 
ATOM     29  H22 6EF d   1     -14.739  20.499  -7.081  0.00  0.00     0.077 H 
ATOM     30  H28 6EF d   1     -16.503  17.470  -6.460  0.00  0.00     0.085 H 
BRANCH  22  31
ATOM     31  C34 6EF d   1     -14.430  20.652  -4.417  0.00  0.00     0.059 C 
ATOM     32  H34 6EF d   1     -14.088  20.473  -3.387  0.00  0.00     0.078 H 
ATOM     33  H35 6EF d   1     -15.483  20.968  -4.404  0.00  0.00     0.078 H 
BRANCH  31  34
ATOM     34  O35 6EF d   1     -13.618  21.596  -5.071  0.00  0.00    -0.302 OA
BRANCH  34  35
ATOM     35  C36 6EF d   1     -14.144  22.815  -5.238  0.00  0.00     0.360 C 
ATOM     36  N37 6EF d   1     -13.243  23.607  -5.886  0.00  0.00    -0.333 N 
ATOM     37  H36 6EF d   1     -13.244  23.641  -6.885  0.00  0.00     0.165 HD
ATOM     38  O38 6EF d   1     -15.249  23.157  -4.838  0.00  0.00    -0.239 OA
BRANCH  36  39
ATOM     39  C39 6EF d   1     -12.290  24.395  -5.149  0.00  0.00     0.021 C 
ATOM     40  H37 6EF d   1     -12.318  25.419  -5.550  0.00  0.00     0.071 H 
ATOM     41  H38 6EF d   1     -11.293  23.962  -5.318  0.00  0.00     0.071 H 
BRANCH  39  42
ATOM     42  C40 6EF d   1     -12.507  24.477  -3.675  0.00  0.00    -0.040 A 
ATOM     43  C41 6EF d   1     -13.593  23.935  -3.012  0.00  0.00    -0.075 A 
ATOM     44  C42 6EF d   1     -13.761  24.014  -1.653  0.00  0.00    -0.082 A 
ATOM     45  H39 6EF d   1     -14.349  23.422  -3.595  0.00  0.00     0.084 H 
ATOM     46  C43 6EF d   1     -12.817  24.683  -0.921  0.00  0.00    -0.083 A 
ATOM     47  H40 6EF d   1     -14.619  23.559  -1.171  0.00  0.00     0.083 H 
ATOM     48  C44 6EF d   1     -11.733  25.228  -1.567  0.00  0.00    -0.082 A 
ATOM     49  H41 6EF d   1     -12.923  24.782   0.153  0.00  0.00     0.083 H 
ATOM     50  C45 6EF d   1     -11.558  25.127  -2.926  0.00  0.00    -0.075 A 
ATOM     51  H42 6EF d   1     -10.989  25.757  -0.983  0.00  0.00     0.083 H 
ATOM     52  H43 6EF d   1     -10.682  25.555  -3.400  0.00  0.00     0.084 H 
ENDBRANCH  39  42
ENDBRANCH  36  39
ENDBRANCH  34  35
ENDBRANCH  31  34
ENDBRANCH  22  31
ENDBRANCH  14  17
ENDBRANCH  11  14
ENDBRANCH   1  11
BRANCH   4  53
ATOM     53  N32 6EF d   1     -21.227  16.862  -6.131  0.00  0.00    -0.325 N 
ATOM     54  C   6EF d   1     -21.357  16.062  -5.018  0.00  0.00     0.246 C 
ATOM     55  O   6EF d   1     -20.765  15.006  -4.854  0.00  0.00    -0.271 OA
ATOM     56  H31 6EF d   1     -21.761  17.705  -6.192  0.00  0.00     0.169 HD
BRANCH  54  57
ATOM     57  C1  6EF d   1     -22.337  16.620  -4.024  0.00  0.00     0.103 C 
ATOM     58  H14 6EF d   1     -22.739  17.586  -4.362  0.00  0.00     0.089 H 
BRANCH  57  59
ATOM     59  N   6EF d   1     -23.388  15.613  -3.976  0.00  0.00    -0.323 N 
ATOM     60  C2  6EF d   1     -24.711  15.943  -4.218  0.00  0.00     0.360 C 
ATOM     61  O4  6EF d   1     -25.104  17.061  -4.511  0.00  0.00    -0.239 OA
ATOM     62  H13 6EF d   1     -23.150  14.665  -3.764  0.00  0.00     0.165 HD
BRANCH  60  63
ATOM     63  O3  6EF d   1     -25.512  14.836  -4.063  0.00  0.00    -0.309 OA
BRANCH  63  64
ATOM     64  C5  6EF d   1     -26.895  15.084  -4.298  0.00  0.00     0.015 C 
ATOM     65  H1  6EF d   1     -27.464  14.154  -4.154  0.00  0.00     0.067 H 
ATOM     66  H2  6EF d   1     -27.033  15.443  -5.329  0.00  0.00     0.067 H 
ATOM     67  H3  6EF d   1     -27.256  15.847  -3.592  0.00  0.00     0.067 H 
ENDBRANCH  63  64
ENDBRANCH  60  63
ENDBRANCH  57  59
BRANCH  57  68
ATOM     68  C6  6EF d   1     -21.655  16.798  -2.669  0.00  0.00     0.025 C 
ATOM     69  H15 6EF d   1     -21.047  15.891  -2.534  0.00  0.00     0.058 H 
BRANCH  68  70
ATOM     70  C7  6EF d   1     -22.609  16.846  -1.495  0.00  0.00    -0.047 A 
ATOM     71  C18 6EF d   1     -22.348  16.025  -0.414  0.00  0.00    -0.076 A 
ATOM     72  C17 6EF d   1     -23.196  16.036   0.674  0.00  0.00    -0.082 A 
ATOM     73  H10 6EF d   1     -21.480  15.375  -0.421  0.00  0.00     0.084 H 
ATOM     74  C16 6EF d   1     -24.302  16.870   0.694  0.00  0.00    -0.083 A 
ATOM     75  H18 6EF d   1     -22.995  15.387   1.519  0.00  0.00     0.083 H 
ATOM     76  C15 6EF d   1     -24.564  17.706  -0.373  0.00  0.00    -0.082 A 
ATOM     77  H17 6EF d   1     -24.965  16.866   1.552  0.00  0.00     0.083 H 
ATOM     78  C14 6EF d   1     -23.712  17.689  -1.463  0.00  0.00    -0.076 A 
ATOM     79  H9  6EF d   1     -25.424  18.366  -0.357  0.00  0.00     0.083 H 
ATOM     80  H16 6EF d   1     -23.908  18.343  -2.304  0.00  0.00     0.084 H 
ENDBRANCH  68  70
BRANCH  68  81
ATOM     81  C8  6EF d   1     -20.699  17.954  -2.576  0.00  0.00    -0.047 A 
ATOM     82  C9  6EF d   1     -19.448  17.719  -2.061  0.00  0.00    -0.076 A 
ATOM     83  C10 6EF d   1     -18.538  18.740  -1.914  0.00  0.00    -0.082 A 
ATOM     84  H4  6EF d   1     -19.173  16.713  -1.766  0.00  0.00     0.084 H 
ATOM     85  C11 6EF d   1     -18.882  20.022  -2.288  0.00  0.00    -0.083 A 
ATOM     86  H5  6EF d   1     -17.554  18.538  -1.506  0.00  0.00     0.083 H 
ATOM     87  C12 6EF d   1     -20.138  20.278  -2.798  0.00  0.00    -0.082 A 
ATOM     88  H6  6EF d   1     -18.166  20.828  -2.181  0.00  0.00     0.083 H 
ATOM     89  C13 6EF d   1     -21.042  19.245  -2.941  0.00  0.00    -0.076 A 
ATOM     90  H7  6EF d   1     -20.414  21.286  -3.085  0.00  0.00     0.083 H 
ATOM     91  H8  6EF d   1     -22.029  19.446  -3.342  0.00  0.00     0.084 H 
ENDBRANCH  68  81
ENDBRANCH  57  68
ENDBRANCH  54  57
ENDBRANCH   4  53
TORSDOF 16
