REMARK  14 active torsions:
REMARK  status: ('A' for Active; 'I' for Inactive)
REMARK    1  A    between atoms: C13_6  and  C3_2 
REMARK    2  A    between atoms: C9_4  and  C10_5 
REMARK    3  A    between atoms: N7_34  and  C9_4 
REMARK    4  A    between atoms: C14_28  and  C13_6 
REMARK    5  A    between atoms: C15_7  and  C14_28 
REMARK    6  A    between atoms: N22_33  and  C20_8 
REMARK    7  A    between atoms: C27_30  and  C28_18 
REMARK    8  A    between atoms: C27_30  and  C29_19 
REMARK    9  A    between atoms: C24_31  and  C23_24 
REMARK       I    between atoms: C23_24  and  N22_33 
REMARK       I    between atoms: C6_25  and  N7_34 
REMARK   10  A    between atoms: O5_39  and  C6_25 
REMARK   11  A    between atoms: C1_27  and  C4_29 
REMARK   12  A    between atoms: C4_29  and  O5_39 
REMARK   13  A    between atoms: C27_30  and  C24_31 
REMARK   14  A    between atoms: C24_31  and  N26_36 
ROOT
ATOM      1  C15 6EE d   1     -13.668  23.841  -3.708  0.00  0.00     0.010 A 
ATOM      2  C20 6EE d   1     -12.461  24.381  -4.117  0.00  0.00     0.061 A 
ATOM      3  C19 6EE d   1     -11.566  24.772  -3.138  0.00  0.00     0.028 A 
ATOM      4  C17 6EE d   1     -12.941  24.136  -1.444  0.00  0.00     0.040 A 
ATOM      5  C16 6EE d   1     -13.895  23.727  -2.349  0.00  0.00     0.142 A 
ATOM      6  N18 6EE d   1     -11.766  24.655  -1.820  0.00  0.00    -0.268 NA
ATOM      7  F21 6EE d   1     -15.043  23.203  -1.886  0.00  0.00    -0.204 F 
ATOM      8  H15 6EE d   1     -10.628  25.208  -3.464  0.00  0.00     0.118 H 
ATOM      9  H16 6EE d   1     -13.150  24.034  -0.385  0.00  0.00     0.119 H 
ENDROOT
BRANCH   1  10
ATOM     10  C14 6EE d   1     -14.704  23.405  -4.702  0.00  0.00    -0.034 C 
ATOM     11  H20 6EE d   1     -15.669  23.320  -4.181  0.00  0.00     0.040 H 
ATOM     12  H21 6EE d   1     -14.777  24.173  -5.486  0.00  0.00     0.040 H 
BRANCH  10  13
ATOM     13  C13 6EE d   1     -14.399  22.075  -5.363  0.00  0.00    -0.035 C 
ATOM     14  H6  6EE d   1     -14.948  22.016  -6.314  0.00  0.00     0.037 H 
ATOM     15  H7  6EE d   1     -13.318  22.014  -5.559  0.00  0.00     0.037 H 
BRANCH  13  16
ATOM     16  C3  6EE d   1     -14.805  20.911  -4.490  0.00  0.00     0.062 C 
ATOM     17  C2  6EE d   1     -14.277  19.643  -5.142  0.00  0.00     0.106 C 
ATOM     18  N   6EE d   1     -14.884  18.423  -4.534  0.00  0.00    -0.064 N 
ATOM     19  H1  6EE d   1     -13.185  19.602  -5.012  0.00  0.00     0.079 H 
ATOM     20  H2  6EE d   1     -14.518  19.666  -6.215  0.00  0.00     0.079 H 
ATOM     21  C1  6EE d   1     -16.352  18.465  -4.280  0.00  0.00     0.143 C 
ATOM     22  H28 6EE d   1     -14.425  18.260  -3.651  0.00  0.00     0.277 HD
ATOM     23  H29 6EE d   1     -14.703  17.649  -5.154  0.00  0.00     0.277 HD
ATOM     24  C   6EE d   1     -16.695  19.804  -3.636  0.00  0.00     0.049 C 
ATOM     25  H19 6EE d   1     -16.607  17.670  -3.564  0.00  0.00     0.091 H 
ATOM     26  O   6EE d   1     -16.227  20.887  -4.445  0.00  0.00    -0.382 OA
ATOM     27  H17 6EE d   1     -16.220  19.861  -2.646  0.00  0.00     0.077 H 
ATOM     28  H18 6EE d   1     -17.787  19.882  -3.524  0.00  0.00     0.077 H 
ATOM     29  H3  6EE d   1     -14.393  21.019  -3.476  0.00  0.00     0.085 H 
BRANCH  21  30
ATOM     30  C4  6EE d   1     -17.117  18.191  -5.558  0.00  0.00     0.059 C 
ATOM     31  H22 6EE d   1     -16.599  17.429  -6.158  0.00  0.00     0.078 H 
ATOM     32  H23 6EE d   1     -17.221  19.114  -6.148  0.00  0.00     0.078 H 
BRANCH  30  33
ATOM     33  O5  6EE d   1     -18.392  17.718  -5.152  0.00  0.00    -0.302 OA
BRANCH  33  34
ATOM     34  C6  6EE d   1     -19.421  18.456  -5.638  0.00  0.00     0.360 C 
ATOM     35  O8  6EE d   1     -19.317  19.314  -6.498  0.00  0.00    -0.239 OA
ATOM     36  N7  6EE d   1     -20.609  18.117  -5.067  0.00  0.00    -0.328 N 
ATOM     37  H27 6EE d   1     -21.445  18.525  -5.433  0.00  0.00     0.165 HD
BRANCH  36  38
ATOM     38  C9  6EE d   1     -20.722  17.199  -3.962  0.00  0.00     0.087 C 
ATOM     39  H4  6EE d   1     -21.637  16.600  -4.081  0.00  0.00     0.077 H 
ATOM     40  H5  6EE d   1     -19.846  16.533  -3.953  0.00  0.00     0.077 H 
BRANCH  38  41
ATOM     41  C10 6EE d   1     -20.787  17.952  -2.656  0.00  0.00     0.403 C 
ATOM     42  F   6EE d   1     -20.961  17.118  -1.598  0.00  0.00    -0.169 F 
ATOM     43  F11 6EE d   1     -19.635  18.617  -2.393  0.00  0.00    -0.169 F 
ATOM     44  F12 6EE d   1     -21.838  18.820  -2.659  0.00  0.00    -0.169 F 
ENDBRANCH  38  41
ENDBRANCH  36  38
ENDBRANCH  33  34
ENDBRANCH  30  33
ENDBRANCH  21  30
ENDBRANCH  13  16
ENDBRANCH  10  13
ENDBRANCH   1  10
BRANCH   2  45
ATOM     45  N22 6EE d   1     -12.143  24.555  -5.485  0.00  0.00    -0.324 N 
ATOM     46  C23 6EE d   1     -10.973  24.047  -5.996  0.00  0.00     0.254 C 
ATOM     47  O25 6EE d   1     -10.135  23.446  -5.347  0.00  0.00    -0.271 OA
ATOM     48  H26 6EE d   1     -12.773  25.050  -6.083  0.00  0.00     0.169 HD
BRANCH  46  49
ATOM     49  C24 6EE d   1     -10.720  24.328  -7.450  0.00  0.00     0.187 C 
ATOM     50  H25 6EE d   1     -11.554  24.893  -7.893  0.00  0.00     0.100 H 
BRANCH  49  51
ATOM     51  C27 6EE d   1     -10.549  22.993  -8.189  0.00  0.00     0.033 C 
ATOM     52  H24 6EE d   1      -9.939  22.352  -7.536  0.00  0.00     0.058 H 
BRANCH  51  53
ATOM     53  C28 6EE d   1     -11.883  22.300  -8.420  0.00  0.00    -0.047 A 
ATOM     54  C30 6EE d   1     -11.996  20.942  -8.138  0.00  0.00    -0.074 A 
ATOM     55  C31 6EE d   1     -13.181  20.260  -8.363  0.00  0.00    -0.061 A 
ATOM     56  H8  6EE d   1     -11.143  20.409  -7.736  0.00  0.00     0.084 H 
ATOM     57  C32 6EE d   1     -14.266  20.921  -8.894  0.00  0.00     0.034 A 
ATOM     58  H10 6EE d   1     -13.254  19.206  -8.121  0.00  0.00     0.086 H 
ATOM     59  C33 6EE d   1     -14.171  22.267  -9.197  0.00  0.00    -0.061 A 
ATOM     60 CL   6EE d   1     -15.740  20.071  -9.178  0.00  0.00    -0.084 Cl
ATOM     61  C34 6EE d   1     -12.985  22.948  -8.969  0.00  0.00    -0.074 A 
ATOM     62  H11 6EE d   1     -15.024  22.790  -9.613  0.00  0.00     0.086 H 
ATOM     63  H9  6EE d   1     -12.915  24.000  -9.222  0.00  0.00     0.084 H 
ENDBRANCH  51  53
BRANCH  51  64
ATOM     64  C29 6EE d   1      -9.852  23.070  -9.521  0.00  0.00    -0.041 A 
ATOM     65  C35 6EE d   1      -8.783  22.225  -9.752  0.00  0.00    -0.039 A 
ATOM     66  C36 6EE d   1      -8.146  22.241 -10.979  0.00  0.00     0.119 A 
ATOM     67  H12 6EE d   1      -8.445  21.551  -8.973  0.00  0.00     0.089 H 
ATOM     68  C37 6EE d   1      -8.558  23.089 -11.984  0.00  0.00    -0.009 A 
ATOM     69  F41 6EE d   1      -7.108  21.418 -11.199  0.00  0.00    -0.206 F 
ATOM     70  C38 6EE d   1      -9.619  23.932 -11.757  0.00  0.00     0.119 A 
ATOM     71  H14 6EE d   1      -8.051  23.091 -12.942  0.00  0.00     0.092 H 
ATOM     72  C39 6EE d   1     -10.268  23.916 -10.540  0.00  0.00    -0.039 A 
ATOM     73  F40 6EE d   1     -10.033  24.749 -12.750  0.00  0.00    -0.206 F 
ATOM     74  H13 6EE d   1     -11.115  24.573 -10.377  0.00  0.00     0.089 H 
ENDBRANCH  51  64
ENDBRANCH  49  51
BRANCH  49  75
ATOM     75  N26 6EE d   1      -9.468  25.138  -7.483  0.00  0.00    -0.065 N 
ATOM     76  H30 6EE d   1      -9.616  26.005  -6.990  0.00  0.00     0.275 HD
ATOM     77  H31 6EE d   1      -9.220  25.334  -8.440  0.00  0.00     0.275 HD
ATOM     78  H32 6EE d   1      -8.723  24.623  -7.041  0.00  0.00     0.275 HD
ENDBRANCH  49  75
ENDBRANCH  46  49
ENDBRANCH   2  45
TORSDOF 14
