REMARK WARNING: 32 MAX_TORS EXCEEDED!!!
REMARK  33 active torsions:
REMARK  status: ('A' for Active; 'I' for Inactive)
REMARK    1  A    between atoms: CA_6  and  CB_9 
REMARK    2  A    between atoms: CB_9  and  CG_10 
REMARK    3  A    between atoms: CG_10  and  CD_11 
REMARK       I    between atoms: CD_11  and  NE2_13 
REMARK    4  A    between atoms: CA_15  and  CB_18 
REMARK    5  A    between atoms: CB_18  and  CG_19 
REMARK    6  A    between atoms: CA_26  and  CB_29 
REMARK    7  A    between atoms: CB_29  and  CG_30 
REMARK    8  A    between atoms: CA_34  and  CB_37 
REMARK    9  A    between atoms: CB_37  and  CG_38 
REMARK   10  A    between atoms: CG_38  and  CD1_39 
REMARK   11  A    between atoms: CG_38  and  CD2_40 
REMARK   12  A    between atoms: CA_42  and  CB_45 
REMARK   13  A    between atoms: CB_45  and  OG_46 
REMARK   14  A    between atoms: CA_48  and  CB_51 
REMARK   15  A    between atoms: CB_51  and  OG1_52 
REMARK   16  A    between atoms: CB_51  and  CG2_53 
REMARK   17  A    between atoms: C2_56  and  C3_58 
REMARK   18  A    between atoms: C3_58  and  C4_59 
REMARK   19  A    between atoms: C4_59  and  C5_60 
REMARK   20  A    between atoms: C5_60  and  N6_61 
REMARK       I    between atoms: N6_61  and  C7_62 
REMARK       I    between atoms: C7_62  and  N8_64 
REMARK   21  A    between atoms: CA_66  and  CB_69 
REMARK   22  A    between atoms: CB_69  and  CG_70 
REMARK   23  A    between atoms: CG_70  and  CD_71 
REMARK   24  A    between atoms: CD_71  and  NE_72 
REMARK       I    between atoms: NE_72  and  CZ_73 
REMARK       I    between atoms: CZ_73  and  NH1_74 
REMARK   25  A    between atoms: CA_77  and  CB_80 
REMARK   26  A    between atoms: CB_80  and  CG_81 
REMARK   27  A    between atoms: CG_81  and  CD1_82 
REMARK   28  A    between atoms: CG_81  and  CD2_83 
REMARK   29  A    between atoms: CA_85  and  CB_88 
REMARK   30  A    between atoms: CB_88  and  CG_89 
REMARK   31  A    between atoms: CG_89  and  CD_90 
REMARK   32  A    between atoms: CD_90  and  CE_91 
REMARK   33  A    between atoms: CE_91  and  NZ_92 
ROOT
ATOM      1  N   GLY d   1     -16.748  32.124 -29.542  0.00  0.00    -0.084 NA
ATOM      2  CA  GLY d   1     -16.608  32.581 -28.164  0.00  0.00     0.215 A 
ATOM      3  C   GLY d   1     -17.151  33.979 -27.906  0.00  0.00     0.266 C 
ATOM      4  O   GLY d   1     -17.090  34.496 -26.783  0.00  0.00    -0.269 OA
ATOM      5  N   GLY d   1     -17.639  31.791 -32.169  0.00  0.00    -0.351 N 
ATOM      6  CA  GLY d   1     -16.226  31.977 -31.903  0.00  0.00     0.066 C 
ATOM      7  C   GLY d   1     -15.981  32.578 -30.534  0.00  0.00     0.243 C 
ATOM      8  O   GLY d   1     -15.126  33.446 -30.380  0.00  0.00    -0.276 OA
ATOM      9  OXT GLY d   1     -16.635  32.203 -29.564  0.00  0.00    -0.260 OA
ATOM     10  H1  GLY d   1     -16.199  32.062 -27.285  0.00  0.00     0.131 H 
ATOM     11  H94 GLY d   1     -17.985  30.872 -32.359  0.00  0.00     0.163 HD
ATOM     12  H95 GLY d   1     -15.806  32.649 -32.666  0.00  0.00     0.077 H 
ATOM     13  H96 GLY d   1     -15.723  31.000 -31.957  0.00  0.00     0.077 H 
ATOM     14  N   GLN d   1     -17.674  34.595 -28.960  0.00  0.00    -0.344 N 
ATOM     15  CA  GLN d   1     -18.215  35.944 -28.918  0.00  0.00     0.090 C 
ATOM     16  C   GLN d   1     -19.716  35.882 -29.150  0.00  0.00     0.241 C 
ATOM     17  O   GLN d   1     -20.182  35.174 -30.054  0.00  0.00    -0.271 OA
ATOM     18  H2  GLN d   1     -17.697  34.104 -29.831  0.00  0.00     0.163 HD
ATOM     19  H3  GLN d   1     -18.020  36.378 -27.926  0.00  0.00     0.087 H 
ATOM     20  N   PHE d   1     -20.465  36.617 -28.333  0.00  0.00    -0.346 N 
ATOM     21  CA  PHE d   1     -21.903  36.746 -28.539  0.00  0.00     0.093 C 
ATOM     22  C   PHE d   1     -22.183  37.466 -29.856  0.00  0.00     0.241 C 
ATOM     23  O   PHE d   1     -21.568  38.495 -30.157  0.00  0.00    -0.271 OA
ATOM     24  H10 PHE d   1     -20.035  37.090 -27.564  0.00  0.00     0.163 HD
ATOM     25  H11 PHE d   1     -22.346  35.740 -28.588  0.00  0.00     0.088 H 
ATOM     26  N   ASP d   1     -23.093  36.909 -30.652  0.00  0.00    -0.345 N 
ATOM     27  CA  ASP d   1     -23.471  37.470 -31.947  0.00  0.00     0.098 C 
ATOM     28  C   ASP d   1     -24.847  38.113 -31.823  0.00  0.00     0.241 C 
ATOM     29  O   ASP d   1     -25.836  37.419 -31.567  0.00  0.00    -0.271 OA
ATOM     30  H19 ASP d   1     -23.539  36.067 -30.349  0.00  0.00     0.163 HD
ATOM     31  H20 ASP d   1     -22.741  38.243 -32.228  0.00  0.00     0.088 H 
ATOM     32  N   LEU d   1     -24.911  39.426 -32.064  0.00  0.00    -0.346 N 
ATOM     33  CA  LEU d   1     -26.170  40.154 -31.929  0.00  0.00     0.089 C 
ATOM     34  C   LEU d   1     -27.230  39.656 -32.893  0.00  0.00     0.241 C 
ATOM     35  O   LEU d   1     -28.422  39.702 -32.573  0.00  0.00    -0.271 OA
ATOM     36  N   LEU d   1     -23.589  32.179 -29.287  0.00  0.00    -0.346 N 
ATOM     37  CA  LEU d   1     -22.146  32.341 -29.246  0.00  0.00     0.089 C 
ATOM     38  C   LEU d   1     -21.558  31.933 -30.582  0.00  0.00     0.241 C 
ATOM     39  O   LEU d   1     -21.974  30.944 -31.183  0.00  0.00    -0.271 OA
ATOM     40  H23 LEU d   1     -24.085  39.917 -32.341  0.00  0.00     0.163 HD
ATOM     41  H24 LEU d   1     -26.540  40.009 -30.903  0.00  0.00     0.087 H 
ATOM     42  H70 LEU d   1     -24.027  31.450 -28.761  0.00  0.00     0.163 HD
ATOM     43  H71 LEU d   1     -21.915  33.401 -29.062  0.00  0.00     0.087 H 
ATOM     44  N   SER d   1     -26.824  39.223 -34.085  0.00  0.00    -0.344 N 
ATOM     45  CA  SER d   1     -27.792  38.746 -35.065  0.00  0.00     0.109 C 
ATOM     46  C   SER d   1     -28.602  37.581 -34.514  0.00  0.00     0.243 C 
ATOM     47  O   SER d   1     -29.837  37.592 -34.559  0.00  0.00    -0.271 OA
ATOM     48  H34 SER d   1     -25.849  39.225 -34.309  0.00  0.00     0.163 HD
ATOM     49  H35 SER d   1     -28.484  39.569 -35.299  0.00  0.00     0.090 H 
ATOM     50  N   THR d   1     -27.920  36.592 -33.948  0.00  0.00    -0.344 N 
ATOM     51  CA  THR d   1     -28.505  35.293 -33.655  0.00  0.00     0.113 C 
ATOM     52  C   THR d   1     -28.731  35.054 -32.158  0.00  0.00     0.243 C 
ATOM     53  O   THR d   1     -29.442  34.130 -31.769  0.00  0.00    -0.271 OA
ATOM     54  H39 THR d   1     -26.961  36.748 -33.712  0.00  0.00     0.163 HD
ATOM     55  H40 THR d   1     -29.480  35.238 -34.160  0.00  0.00     0.091 H 
ATOM     56  C1  CIR d   1     -27.446  34.390 -29.550  0.00  0.00     0.241 C 
ATOM     57  O1  CIR d   1     -27.734  33.798 -28.515  0.00  0.00    -0.271 OA
ATOM     58  C2  CIR d   1     -28.108  35.676 -29.909  0.00  0.00     0.089 C 
ATOM     59  N2  CIR d   1     -28.116  35.886 -31.329  0.00  0.00    -0.346 N 
ATOM     60  H46 CIR d   1     -27.505  36.485 -29.471  0.00  0.00     0.087 H 
ATOM     61  H47 CIR d   1     -27.644  36.684 -31.704  0.00  0.00     0.163 HD
ATOM     62  N   ARG d   1     -26.533  33.933 -30.399  0.00  0.00    -0.346 N 
ATOM     63  CA  ARG d   1     -25.812  32.701 -30.116  0.00  0.00     0.089 C 
ATOM     64  C   ARG d   1     -24.326  33.004 -30.027  0.00  0.00     0.241 C 
ATOM     65  O   ARG d   1     -23.857  33.991 -30.603  0.00  0.00    -0.271 OA
ATOM     66  H57 ARG d   1     -26.339  34.439 -31.239  0.00  0.00     0.163 HD
ATOM     67  H58 ARG d   1     -26.152  32.305 -29.148  0.00  0.00     0.087 H 
ATOM     68  N   LYS d   1     -20.590  32.707 -31.048  0.00  0.00    -0.346 N 
ATOM     69  CA  LYS d   1     -19.956  32.483 -32.342  0.00  0.00     0.089 C 
ATOM     70  C   LYS d   1     -18.483  32.815 -32.165  0.00  0.00     0.240 C 
ATOM     71  O   LYS d   1     -18.128  33.986 -31.988  0.00  0.00    -0.271 OA
ATOM     72  H81 LYS d   1     -20.281  33.477 -30.490  0.00  0.00     0.163 HD
ATOM     73  H82 LYS d   1     -20.062  31.426 -32.627  0.00  0.00     0.087 H 
ENDROOT
BRANCH  63  74
ATOM     74  CB  ARG d   1     -26.088  31.652 -31.192  0.00  0.00    -0.036 C 
ATOM     75  H59 ARG d   1     -25.445  30.781 -30.997  0.00  0.00     0.036 H 
ATOM     76  H60 ARG d   1     -25.831  32.086 -32.169  0.00  0.00     0.036 H 
BRANCH  74  77
ATOM     77  CG  ARG d   1     -27.535  31.173 -31.249  0.00  0.00    -0.048 C 
ATOM     78  H61 ARG d   1     -27.642  30.473 -32.091  0.00  0.00     0.035 H 
ATOM     79  H62 ARG d   1     -28.189  32.043 -31.410  0.00  0.00     0.035 H 
BRANCH  77  80
ATOM     80  CD  ARG d   1     -27.962  30.473 -29.978  0.00  0.00     0.009 C 
ATOM     81  H63 ARG d   1     -28.957  30.030 -30.133  0.00  0.00     0.064 H 
ATOM     82  H64 ARG d   1     -28.012  31.212 -29.164  0.00  0.00     0.064 H 
BRANCH  80  83
ATOM     83  NE  ARG d   1     -27.033  29.422 -29.602  0.00  0.00    -0.227 N 
ATOM     84  CZ  ARG d   1     -27.078  28.180 -30.067  0.00  0.00     0.665 C 
ATOM     85  NH1 ARG d   1     -28.020  27.833 -30.925  0.00  0.00    -0.235 N 
ATOM     86  NH2 ARG d   1     -26.172  27.286 -29.680  0.00  0.00    -0.235 N 
ATOM     87  H66 ARG d   1     -28.057  26.870 -31.287  0.00  0.00     0.174 HD
ATOM     88  H67 ARG d   1     -28.718  28.526 -31.232  0.00  0.00     0.174 HD
ATOM     89  H68 ARG d   1     -25.436  27.555 -29.011  0.00  0.00     0.174 HD
ATOM     90  H69 ARG d   1     -26.206  26.325 -30.049  0.00  0.00     0.174 HD
ATOM     91  H65 ARG d   1     -26.289  29.656 -28.929  0.00  0.00     0.177 HD
ENDBRANCH  80  83
ENDBRANCH  77  80
ENDBRANCH  74  77
ENDBRANCH  63  74
BRANCH  58  92
ATOM     92  C3  CIR d   1     -29.505  35.771 -29.282  0.00  0.00    -0.036 C 
ATOM     93  H48 CIR d   1     -29.431  35.460 -28.230  0.00  0.00     0.036 H 
ATOM     94  H49 CIR d   1     -30.172  35.083 -29.822  0.00  0.00     0.036 H 
BRANCH  92  95
ATOM     95  C4  CIR d   1     -30.118  37.151 -29.324  0.00  0.00    -0.048 C 
ATOM     96  H50 CIR d   1     -30.448  37.348 -30.355  0.00  0.00     0.035 H 
ATOM     97  H51 CIR d   1     -29.343  37.879 -29.042  0.00  0.00     0.035 H 
BRANCH  95  98
ATOM     98  C5  CIR d   1     -31.310  37.347 -28.399  0.00  0.00    -0.003 C 
ATOM     99  H52 CIR d   1     -30.936  37.645 -27.409  0.00  0.00     0.064 H 
ATOM    100  H53 CIR d   1     -31.846  36.390 -28.316  0.00  0.00     0.064 H 
BRANCH  98 101
ATOM    101  N6  CIR d   1     -32.260  38.375 -28.868  0.00  0.00    -0.343 N 
ATOM    102  C7  CIR d   1     -33.332  38.760 -28.168  0.00  0.00     0.313 C 
ATOM    103  O7  CIR d   1     -33.592  38.271 -27.074  0.00  0.00    -0.248 OA
ATOM    104  N8  CIR d   1     -34.096  39.716 -28.739  0.00  0.00    -0.352 N 
ATOM    105  H55 CIR d   1     -34.913  40.050 -28.269  0.00  0.00     0.160 HD
ATOM    106  H56 CIR d   1     -33.845  40.090 -29.632  0.00  0.00     0.160 HD
ATOM    107  H54 CIR d   1     -32.093  38.806 -29.755  0.00  0.00     0.164 HD
ENDBRANCH  98 101
ENDBRANCH  95  98
ENDBRANCH  92  95
ENDBRANCH  58  92
BRANCH  37 108
ATOM    108  CB  LEU d   1     -21.525  31.505 -28.124  0.00  0.00    -0.035 C 
ATOM    109  H72 LEU d   1     -20.440  31.459 -28.301  0.00  0.00     0.037 H 
ATOM    110  H73 LEU d   1     -21.950  30.492 -28.186  0.00  0.00     0.037 H 
BRANCH 108 111
ATOM    111  CG  LEU d   1     -21.743  32.014 -26.699  0.00  0.00    -0.059 C 
ATOM    112  H74 LEU d   1     -22.826  32.074 -26.515  0.00  0.00     0.038 H 
BRANCH 111 113
ATOM    113  CD1 LEU d   1     -21.140  31.051 -25.699  0.00  0.00    -0.073 C 
ATOM    114  H75 LEU d   1     -21.305  31.430 -24.680  0.00  0.00     0.028 H 
ATOM    115  H76 LEU d   1     -20.060  30.957 -25.885  0.00  0.00     0.028 H 
ATOM    116  H77 LEU d   1     -21.617  30.066 -25.805  0.00  0.00     0.028 H 
ENDBRANCH 111 113
BRANCH 111 117
ATOM    117  CD2 LEU d   1     -21.152  33.403 -26.523  0.00  0.00    -0.073 C 
ATOM    118  H78 LEU d   1     -21.601  34.088 -27.257  0.00  0.00     0.028 H 
ATOM    119  H79 LEU d   1     -20.064  33.361 -26.679  0.00  0.00     0.028 H 
ATOM    120  H80 LEU d   1     -21.363  33.765 -25.506  0.00  0.00     0.028 H 
ENDBRANCH 111 117
ENDBRANCH 108 111
ENDBRANCH  37 108
BRANCH  51 121
ATOM    121  CB  THR d   1     -27.600  34.189 -34.206  0.00  0.00     0.060 C 
ATOM    122  H41 THR d   1     -28.003  33.205 -33.924  0.00  0.00     0.086 H 
BRANCH 121 123
ATOM    123  OG1 THR d   1     -26.282  34.354 -33.668  0.00  0.00    -0.393 OA
ATOM    124  H42 THR d   1     -25.715  33.671 -34.007  0.00  0.00     0.210 HD
ENDBRANCH 121 123
BRANCH 121 125
ATOM    125  CG2 THR d   1     -27.508  34.296 -35.723  0.00  0.00    -0.050 C 
ATOM    126  H43 THR d   1     -26.856  33.498 -36.108  0.00  0.00     0.031 H 
ATOM    127  H44 THR d   1     -27.090  35.276 -35.997  0.00  0.00     0.031 H 
ATOM    128  H45 THR d   1     -28.512  34.191 -36.160  0.00  0.00     0.031 H 
ENDBRANCH 121 125
ENDBRANCH  51 121
BRANCH  69 129
ATOM    129  CB  LYS d   1     -20.605  33.348 -33.424  0.00  0.00    -0.038 C 
ATOM    130  H83 LYS d   1     -20.450  34.402 -33.149  0.00  0.00     0.036 H 
ATOM    131  H84 LYS d   1     -21.682  33.125 -33.430  0.00  0.00     0.036 H 
BRANCH 129 132
ATOM    132  CG  LYS d   1     -20.086  33.158 -34.838  0.00  0.00    -0.061 C 
ATOM    133  H85 LYS d   1     -20.282  32.127 -35.167  0.00  0.00     0.033 H 
ATOM    134  H86 LYS d   1     -19.003  33.352 -34.862  0.00  0.00     0.033 H 
BRANCH 132 135
ATOM    135  CD  LYS d   1     -20.803  34.138 -35.771  0.00  0.00    -0.043 C 
ATOM    136  H87 LYS d   1     -20.436  35.154 -35.563  0.00  0.00     0.035 H 
ATOM    137  H88 LYS d   1     -21.883  34.089 -35.569  0.00  0.00     0.035 H 
BRANCH 135 138
ATOM    138  CE  LYS d   1     -20.570  33.830 -37.235  0.00  0.00     0.080 C 
ATOM    139  H89 LYS d   1     -19.490  33.717 -37.411  0.00  0.00     0.075 H 
ATOM    140  H90 LYS d   1     -20.956  34.661 -37.843  0.00  0.00     0.075 H 
BRANCH 138 141
ATOM    141  NZ  LYS d   1     -21.260  32.577 -37.632  0.00  0.00    -0.079 N 
ATOM    142  H91 LYS d   1     -21.090  32.395 -38.609  0.00  0.00     0.274 HD
ATOM    143  H92 LYS d   1     -22.251  32.675 -37.476  0.00  0.00     0.274 HD
ATOM    144  H93 LYS d   1     -20.908  31.810 -37.081  0.00  0.00     0.274 HD
ENDBRANCH 138 141
ENDBRANCH 135 138
ENDBRANCH 132 135
ENDBRANCH 129 132
ENDBRANCH  69 129
BRANCH  45 145
ATOM    145  CB  SER d   1     -27.077  38.333 -36.349  0.00  0.00     0.044 C 
ATOM    146  H36 SER d   1     -27.787  37.809 -37.006  0.00  0.00     0.077 H 
ATOM    147  H37 SER d   1     -26.244  37.660 -36.099  0.00  0.00     0.077 H 
BRANCH 145 148
ATOM    148  OG  SER d   1     -26.572  39.468 -37.021  0.00  0.00    -0.398 OA
ATOM    149  H38 SER d   1     -27.290  40.050 -37.240  0.00  0.00     0.209 HD
ENDBRANCH 145 148
ENDBRANCH  45 145
BRANCH  33 150
ATOM    150  CB  LEU d   1     -25.946  41.640 -32.162  0.00  0.00    -0.035 C 
ATOM    151  H25 LEU d   1     -26.923  42.144 -32.187  0.00  0.00     0.037 H 
ATOM    152  H26 LEU d   1     -25.440  41.773 -33.129  0.00  0.00     0.037 H 
BRANCH 150 153
ATOM    153  CG  LEU d   1     -25.103  42.273 -31.084  0.00  0.00    -0.059 C 
ATOM    154  H27 LEU d   1     -24.272  41.603 -30.817  0.00  0.00     0.038 H 
BRANCH 153 155
ATOM    155  CD1 LEU d   1     -24.540  43.559 -31.644  0.00  0.00    -0.073 C 
ATOM    156  H28 LEU d   1     -23.917  44.049 -30.881  0.00  0.00     0.028 H 
ATOM    157  H29 LEU d   1     -25.366  44.228 -31.928  0.00  0.00     0.028 H 
ATOM    158  H30 LEU d   1     -23.927  43.336 -32.530  0.00  0.00     0.028 H 
ENDBRANCH 153 155
BRANCH 153 159
ATOM    159  CD2 LEU d   1     -25.971  42.498 -29.847  0.00  0.00    -0.073 C 
ATOM    160  H31 LEU d   1     -26.351  41.531 -29.485  0.00  0.00     0.028 H 
ATOM    161  H32 LEU d   1     -26.817  43.151 -30.107  0.00  0.00     0.028 H 
ATOM    162  H33 LEU d   1     -25.369  42.974 -29.058  0.00  0.00     0.028 H 
ENDBRANCH 153 159
ENDBRANCH 150 153
ENDBRANCH  33 150
BRANCH  27 163
ATOM    163  CB  ASP d   1     -23.470  36.386 -33.025  0.00  0.00     0.043 C 
ATOM    164  H21 ASP d   1     -24.131  35.569 -32.699  0.00  0.00     0.052 H 
ATOM    165  H22 ASP d   1     -22.444  36.006 -33.136  0.00  0.00     0.052 H 
BRANCH 163 166
ATOM    166  CG  ASP d   1     -23.950  36.881 -34.382  0.00  0.00     0.175 C 
ATOM    167  OD1 ASP d   1     -24.533  37.979 -34.486  0.00  0.00    -0.648 OA
ATOM    168  OD2 ASP d   1     -23.757  36.135 -35.365  0.00  0.00    -0.648 OA
ENDBRANCH 163 166
ENDBRANCH  27 163
BRANCH  15 169
ATOM    169  CB  GLN d   1     -17.557  36.827 -29.981  0.00  0.00    -0.030 C 
ATOM    170  H4  GLN d   1     -18.078  37.796 -29.995  0.00  0.00     0.037 H 
ATOM    171  H5  GLN d   1     -17.672  36.334 -30.958  0.00  0.00     0.037 H 
BRANCH 169 172
ATOM    172  CG  GLN d   1     -16.077  37.086 -29.750  0.00  0.00     0.011 C 
ATOM    173  H6  GLN d   1     -15.575  37.153 -30.727  0.00  0.00     0.047 H 
ATOM    174  H7  GLN d   1     -15.658  36.244 -29.179  0.00  0.00     0.047 H 
BRANCH 172 175
ATOM    175  CD  GLN d   1     -15.816  38.372 -28.981  0.00  0.00     0.215 C 
ATOM    176  OE1 GLN d   1     -15.944  39.477 -29.529  0.00  0.00    -0.274 OA
ATOM    177  NE2 GLN d   1     -15.449  38.237 -27.702  0.00  0.00    -0.370 N 
ATOM    178  H8  GLN d   1     -15.264  39.048 -27.147  0.00  0.00     0.159 HD
ATOM    179  H9  GLN d   1     -15.360  37.325 -27.301  0.00  0.00     0.159 HD
ENDBRANCH 172 175
ENDBRANCH 169 172
ENDBRANCH  15 169
BRANCH  21 180
ATOM    180  CB  PHE d   1     -22.524  37.497 -27.367  0.00  0.00    -0.014 C 
ATOM    181  H12 PHE d   1     -22.081  38.503 -27.326  0.00  0.00     0.043 H 
ATOM    182  H13 PHE d   1     -22.285  36.953 -26.441  0.00  0.00     0.043 H 
BRANCH 180 183
ATOM    183  CG  PHE d   1     -23.998  37.638 -27.459  0.00  0.00    -0.056 A 
ATOM    184  CD1 PHE d   1     -24.822  36.533 -27.294  0.00  0.00    -0.077 A 
ATOM    185  CE1 PHE d   1     -26.188  36.659 -27.361  0.00  0.00    -0.082 A 
ATOM    186  H14 PHE d   1     -24.382  35.559 -27.110  0.00  0.00     0.084 H 
ATOM    187  CZ  PHE d   1     -26.762  37.901 -27.613  0.00  0.00    -0.083 A 
ATOM    188  H16 PHE d   1     -26.820  35.790 -27.217  0.00  0.00     0.083 H 
ATOM    189  CE2 PHE d   1     -25.956  39.011 -27.781  0.00  0.00    -0.082 A 
ATOM    190  H18 PHE d   1     -27.840  37.998 -27.677  0.00  0.00     0.083 H 
ATOM    191  CD2 PHE d   1     -24.574  38.876 -27.706  0.00  0.00    -0.077 A 
ATOM    192  H17 PHE d   1     -26.399  39.982 -27.970  0.00  0.00     0.083 H 
ATOM    193  H15 PHE d   1     -23.941  39.745 -27.842  0.00  0.00     0.084 H 
ENDBRANCH 180 183
ENDBRANCH  21 180
TORSDOF 33
