REMARK  6 active torsions:
REMARK  status: ('A' for Active; 'I' for Inactive)
REMARK    1  A    between atoms: O12_18  and  C13_2 
REMARK    2  A    between atoms: C13_2  and  C14_19 
REMARK    3  A    between atoms: C20_5  and  C21_6 
REMARK    4  A    between atoms: C04_11  and  C02_9 
REMARK    5  A    between atoms: N07_14  and  C06_13 
REMARK    6  A    between atoms: C11_17  and  O12_18 
ROOT
ATOM      1  C10 6EP d   1     -23.912  21.614   1.367  0.00  0.00    -0.013 A 
ATOM      2  N07 6EP d   1     -23.611  19.926   2.778  0.00  0.00    -0.193 N 
ATOM      3  N08 6EP d   1     -23.125  19.470   1.591  0.00  0.00    -0.176 NA
ATOM      4  C09 6EP d   1     -23.319  20.509   0.722  0.00  0.00     0.026 A 
ATOM      5  C11 6EP d   1     -24.087  21.233   2.651  0.00  0.00     0.169 A 
ATOM      6  H1  6EP d   1     -24.174  22.573   0.923  0.00  0.00     0.092 H 
ATOM      7  H10 6EP d   1     -23.050  20.486  -0.333  0.00  0.00     0.117 H 
ENDROOT
BRANCH   5   8
ATOM      8  O12 6EP d   1     -24.599  21.858   3.723  0.00  0.00    -0.330 OA
BRANCH   8   9
ATOM      9  C13 6EP d   1     -24.882  23.230   3.546  0.00  0.00     0.052 C 
ATOM     10  H2  6EP d   1     -25.464  23.352   2.621  0.00  0.00     0.082 H 
ATOM     11  H3  6EP d   1     -23.931  23.776   3.455  0.00  0.00     0.082 H 
BRANCH   9  12
ATOM     12  C14 6EP d   1     -25.658  23.812   4.676  0.00  0.00    -0.028 A 
ATOM     13  C15 6EP d   1     -26.017  22.992   5.762  0.00  0.00    -0.073 A 
ATOM     14  C16 6EP d   1     -26.740  23.505   6.831  0.00  0.00    -0.061 A 
ATOM     15  H4  6EP d   1     -25.726  21.948   5.764  0.00  0.00     0.084 H 
ATOM     16  C17 6EP d   1     -27.098  24.838   6.807  0.00  0.00     0.034 A 
ATOM     17  H11 6EP d   1     -27.017  22.872   7.666  0.00  0.00     0.086 H 
ATOM     18 CL1  6EP d   1     -28.000  25.527   8.132  0.00  0.00    -0.084 Cl
ATOM     19  C19 6EP d   1     -26.748  25.644   5.756  0.00  0.00    -0.056 A 
ATOM     20  C20 6EP d   1     -26.021  25.148   4.671  0.00  0.00    -0.052 A 
ATOM     21  H12 6EP d   1     -27.041  26.688   5.766  0.00  0.00     0.086 H 
BRANCH  20  22
ATOM     22  C21 6EP d   1     -25.664  26.065   3.535  0.00  0.00    -0.051 C 
ATOM     23  H5  6EP d   1     -26.051  27.073   3.742  0.00  0.00     0.033 H 
ATOM     24  H6  6EP d   1     -26.110  25.686   2.604  0.00  0.00     0.033 H 
ATOM     25  H7  6EP d   1     -24.570  26.107   3.428  0.00  0.00     0.033 H 
ENDBRANCH  20  22
ENDBRANCH   9  12
ENDBRANCH   8   9
ENDBRANCH   5   8
BRANCH   2  26
ATOM     26  C06 6EP d   1     -23.534  19.042   3.939  0.00  0.00     0.154 A 
ATOM     27  C05 6EP d   1     -23.522  19.584   5.245  0.00  0.00    -0.020 A 
ATOM     28  C04 6EP d   1     -23.432  18.707   6.346  0.00  0.00     0.045 A 
ATOM     29  H9  6EP d   1     -23.581  20.656   5.397  0.00  0.00     0.091 H 
ATOM     30  C24 6EP d   1     -23.328  17.344   6.076  0.00  0.00    -0.049 A 
ATOM     31  C23 6EP d   1     -23.339  16.910   4.746  0.00  0.00     0.005 A 
ATOM     32  H8  6EP d   1     -23.240  16.629   6.886  0.00  0.00     0.087 H 
ATOM     33  N22 6EP d   1     -23.435  17.717   3.669  0.00  0.00    -0.241 NA
ATOM     34  H13 6EP d   1     -23.265  15.844   4.567  0.00  0.00     0.114 H 
BRANCH  28  35
ATOM     35  C02 6EP d   1     -23.413  19.172   7.764  0.00  0.00     0.209 C 
ATOM     36  O01 6EP d   1     -24.123  20.156   8.102  0.00  0.00    -0.644 OA
ATOM     37  O03 6EP d   1     -22.670  18.531   8.546  0.00  0.00    -0.644 OA
ENDBRANCH  28  35
ENDBRANCH   2  26
TORSDOF 6
