REMARK WARNING: 32 MAX_TORS EXCEEDED!!!
REMARK  50 active torsions:
REMARK  status: ('A' for Active; 'I' for Inactive)
REMARK    1  A    between atoms: N_1  and  CA_2 
REMARK    2  A    between atoms: CA_2  and  C_3 
REMARK    3  A    between atoms: CA_2  and  CB_5 
REMARK       I    between atoms: C_3  and  N_6 
REMARK    4  A    between atoms: N_6  and  CA_7 
REMARK    5  A    between atoms: CA_7  and  C_8 
REMARK    6  A    between atoms: CA_7  and  CB_10 
REMARK       I    between atoms: C_8  and  N_17 
REMARK    7  A    between atoms: CB_10  and  CG_11 
REMARK    8  A    between atoms: CG_11  and  CD_12 
REMARK    9  A    between atoms: CD_12  and  NE_13 
REMARK       I    between atoms: NE_13  and  CZ_14 
REMARK       I    between atoms: CZ_14  and  NH1_15 
REMARK       I    between atoms: CZ_14  and  NH2_16 
REMARK   10  A    between atoms: N_17  and  CA_18 
REMARK   11  A    between atoms: CA_18  and  C_19 
REMARK   12  A    between atoms: CA_18  and  CB_21 
REMARK       I    between atoms: C_19  and  N_24 
REMARK   13  A    between atoms: CB_21  and  OG1_22 
REMARK   14  A    between atoms: CB_21  and  CG2_23 
REMARK   15  A    between atoms: N_24  and  CA_25 
REMARK   16  A    between atoms: CA_25  and  CB_26 
REMARK   17  A    between atoms: CA_25  and  C_31 
REMARK   18  A    between atoms: CB_26  and  CG_27 
REMARK   19  A    between atoms: CG_27  and  CD_28 
REMARK   20  A    between atoms: CD_28  and  CE_29 
REMARK   21  A    between atoms: CE_29  and  NZ_30 
REMARK   22  A    between atoms: NZ_30  and  CM1_33 
REMARK   23  A    between atoms: NZ_30  and  CM2_34 
REMARK   24  A    between atoms: NZ_30  and  CM3_35 
REMARK       I    between atoms: C_31  and  N_36 
REMARK   25  A    between atoms: N_36  and  CA_37 
REMARK   26  A    between atoms: CA_37  and  C_38 
REMARK   27  A    between atoms: CA_37  and  CB_40 
REMARK       I    between atoms: C_38  and  N_45 
REMARK   28  A    between atoms: CB_40  and  CG_41 
REMARK   29  A    between atoms: CG_41  and  CD_42 
REMARK       I    between atoms: CD_42  and  NE2_44 
REMARK   30  A    between atoms: N_45  and  CA_46 
REMARK   31  A    between atoms: CA_46  and  C_47 
REMARK   32  A    between atoms: CA_46  and  CB_49 
REMARK       I    between atoms: C_47  and  N_52 
REMARK   33  A    between atoms: CB_49  and  OG1_50 
REMARK   34  A    between atoms: CB_49  and  CG2_51 
REMARK   35  A    between atoms: N_52  and  CA_53 
REMARK   36  A    between atoms: CA_53  and  C_54 
REMARK   37  A    between atoms: CA_53  and  CB_56 
REMARK       I    between atoms: C_54  and  N_57 
REMARK   38  A    between atoms: N_57  and  CA_58 
REMARK   39  A    between atoms: CA_58  and  C_59 
REMARK   40  A    between atoms: CA_58  and  CB_61 
REMARK       I    between atoms: C_59  and  N_68 
REMARK   41  A    between atoms: CB_61  and  CG_62 
REMARK   42  A    between atoms: CG_62  and  CD_63 
REMARK   43  A    between atoms: CD_63  and  NE_64 
REMARK       I    between atoms: NE_64  and  CZ_65 
REMARK       I    between atoms: CZ_65  and  NH1_66 
REMARK   44  A    between atoms: N_68  and  CA_69 
REMARK   45  A    between atoms: CA_69  and  C_70 
REMARK   46  A    between atoms: CA_69  and  CB_72 
REMARK   47  A    between atoms: CB_72  and  CG_73 
REMARK   48  A    between atoms: CG_73  and  CD_74 
REMARK   49  A    between atoms: CD_74  and  CE_75 
REMARK   50  A    between atoms: CE_75  and  NZ_76 
ROOT
ATOM      1  CA  GLN d   1      73.589  53.293  -1.028  0.00  0.00     0.090 C 
ATOM      2  H48 GLN d   1      73.727  53.885  -0.111  0.00  0.00     0.087 H 
ENDROOT
BRANCH   1   3
ATOM      3  N   GLN d   1      73.786  54.157  -2.176  0.00  0.00    -0.346 N 
ATOM      4  C   M3L d   1      73.676  55.474  -2.108  0.00  0.00     0.241 C 
ATOM      5  O   M3L d   1      73.161  56.058  -1.158  0.00  0.00    -0.271 OA
ATOM      6  H47 GLN d   1      74.014  53.740  -3.056  0.00  0.00     0.163 HD
BRANCH   4   7
ATOM      7  CA  M3L d   1      74.186  56.274  -3.250  0.00  0.00     0.089 C 
ATOM      8  H29 M3L d   1      73.823  55.909  -4.222  0.00  0.00     0.087 H 
BRANCH   7   9
ATOM      9  N   M3L d   1      73.843  57.660  -3.046  0.00  0.00    -0.346 N 
ATOM     10  C   THR d   1      72.636  58.162  -3.239  0.00  0.00     0.243 C 
ATOM     11  O   THR d   1      71.718  57.516  -3.679  0.00  0.00    -0.271 OA
ATOM     12  H28 M3L d   1      74.564  58.281  -2.739  0.00  0.00     0.163 HD
BRANCH  10  13
ATOM     13  CA  THR d   1      72.430  59.608  -2.835  0.00  0.00     0.113 C 
ATOM     14  H22 THR d   1      73.372  59.984  -2.409  0.00  0.00     0.091 H 
BRANCH  13  15
ATOM     15  N   THR d   1      72.054  60.491  -3.917  0.00  0.00    -0.344 N 
ATOM     16  C   ARG d   1      72.578  61.705  -4.010  0.00  0.00     0.241 C 
ATOM     17  O   ARG d   1      73.439  62.107  -3.253  0.00  0.00    -0.271 OA
ATOM     18  H21 THR d   1      71.393  60.183  -4.601  0.00  0.00     0.163 HD
BRANCH  16  19
ATOM     19  CA  ARG d   1      72.074  62.585  -5.132  0.00  0.00     0.089 C 
ATOM     20  H9  ARG d   1      71.135  62.148  -5.502  0.00  0.00     0.087 H 
BRANCH  19  21
ATOM     21  N   ARG d   1      71.795  63.925  -4.697  0.00  0.00    -0.346 N 
ATOM     22  C   ALA d   1      70.633  64.210  -4.151  0.00  0.00     0.248 C 
ATOM     23  O   ALA d   1      69.789  63.374  -3.925  0.00  0.00    -0.271 OA
ATOM     24  H8  ARG d   1      72.484  64.641  -4.809  0.00  0.00     0.163 HD
BRANCH  22  25
ATOM     25  CA  ALA d   1      70.380  65.644  -3.838  0.00  0.00     0.172 C 
ATOM     26  H4  ALA d   1      70.154  66.187  -4.768  0.00  0.00     0.098 H 
BRANCH  25  27
ATOM     27  N   ALA d   1      69.242  65.721  -2.954  0.00  0.00    -0.067 N 
ATOM     28  H1  ALA d   1      69.055  66.686  -2.730  0.00  0.00     0.275 HD
ATOM     29  H2  ALA d   1      69.440  65.212  -2.107  0.00  0.00     0.275 HD
ATOM     30  H3  ALA d   1      68.436  65.319  -3.407  0.00  0.00     0.275 HD
ENDBRANCH  25  27
BRANCH  25  31
ATOM     31  CB  ALA d   1      71.596  66.257  -3.199  0.00  0.00    -0.042 C 
ATOM     32  H5  ALA d   1      72.448  66.186  -3.891  0.00  0.00     0.030 H 
ATOM     33  H6  ALA d   1      71.832  65.719  -2.269  0.00  0.00     0.030 H 
ATOM     34  H7  ALA d   1      71.396  67.314  -2.970  0.00  0.00     0.030 H 
ENDBRANCH  25  31
ENDBRANCH  22  25
ENDBRANCH  19  21
BRANCH  19  35
ATOM     35  CB  ARG d   1      73.066  62.616  -6.279  0.00  0.00    -0.036 C 
ATOM     36  H10 ARG d   1      73.904  61.947  -6.035  0.00  0.00     0.036 H 
ATOM     37  H11 ARG d   1      73.439  63.645  -6.392  0.00  0.00     0.036 H 
BRANCH  35  38
ATOM     38  CG  ARG d   1      72.466  62.175  -7.595  0.00  0.00    -0.048 C 
ATOM     39  H12 ARG d   1      71.802  62.967  -7.972  0.00  0.00     0.035 H 
ATOM     40  H13 ARG d   1      71.885  61.254  -7.437  0.00  0.00     0.035 H 
BRANCH  38  41
ATOM     41  CD  ARG d   1      73.545  61.910  -8.610  0.00  0.00     0.009 C 
ATOM     42  H14 ARG d   1      74.528  62.003  -8.124  0.00  0.00     0.064 H 
ATOM     43  H15 ARG d   1      73.466  62.648  -9.422  0.00  0.00     0.064 H 
BRANCH  41  44
ATOM     44  NE  ARG d   1      73.415  60.581  -9.164  0.00  0.00    -0.227 N 
ATOM     45  CZ  ARG d   1      74.418  59.924  -9.710  0.00  0.00     0.665 C 
ATOM     46  NH1 ARG d   1      74.230  58.711 -10.188  0.00  0.00    -0.235 N 
ATOM     47  NH2 ARG d   1      75.605  60.488  -9.771  0.00  0.00    -0.235 N 
ATOM     48  H17 ARG d   1      75.015  58.198 -10.615  0.00  0.00     0.174 HD
ATOM     49  H18 ARG d   1      73.298  58.275 -10.135  0.00  0.00     0.174 HD
ATOM     50  H19 ARG d   1      75.744  61.437  -9.395  0.00  0.00     0.174 HD
ATOM     51  H20 ARG d   1      76.395  59.981 -10.195  0.00  0.00     0.174 HD
ATOM     52  H16 ARG d   1      72.492  60.125  -9.130  0.00  0.00     0.177 HD
ENDBRANCH  41  44
ENDBRANCH  38  41
ENDBRANCH  35  38
ENDBRANCH  19  35
ENDBRANCH  16  19
ENDBRANCH  13  15
BRANCH  13  53
ATOM     53  CB  THR d   1      71.352  59.620  -1.759  0.00  0.00     0.060 C 
ATOM     54  H23 THR d   1      71.753  59.186  -0.831  0.00  0.00     0.086 H 
BRANCH  53  55
ATOM     55  OG1 THR d   1      70.236  58.858  -2.209  0.00  0.00    -0.393 OA
ATOM     56  H24 THR d   1      70.511  57.964  -2.377  0.00  0.00     0.210 HD
ENDBRANCH  53  55
BRANCH  53  57
ATOM     57  CG2 THR d   1      70.893  61.010  -1.504  0.00  0.00    -0.050 C 
ATOM     58  H25 THR d   1      70.116  61.002  -0.726  0.00  0.00     0.031 H 
ATOM     59  H26 THR d   1      70.480  61.436  -2.430  0.00  0.00     0.031 H 
ATOM     60  H27 THR d   1      71.743  61.621  -1.167  0.00  0.00     0.031 H 
ENDBRANCH  53  57
ENDBRANCH  13  53
ENDBRANCH  10  13
ENDBRANCH   7   9
BRANCH   7  61
ATOM     61  CB  M3L d   1      75.673  56.121  -3.085  0.00  0.00    -0.038 C 
ATOM     62  H30 M3L d   1      75.876  55.080  -2.792  0.00  0.00     0.036 H 
ATOM     63  H31 M3L d   1      75.996  56.798  -2.280  0.00  0.00     0.036 H 
BRANCH  61  64
ATOM     64  CG  M3L d   1      76.497  56.426  -4.304  0.00  0.00    -0.061 C 
ATOM     65  H32 M3L d   1      76.936  57.430  -4.212  0.00  0.00     0.033 H 
ATOM     66  H33 M3L d   1      75.861  56.385  -5.201  0.00  0.00     0.033 H 
BRANCH  64  67
ATOM     67  CD  M3L d   1      77.599  55.396  -4.413  0.00  0.00    -0.042 C 
ATOM     68  H34 M3L d   1      77.959  55.365  -5.452  0.00  0.00     0.035 H 
ATOM     69  H35 M3L d   1      77.196  54.411  -4.135  0.00  0.00     0.035 H 
BRANCH  67  70
ATOM     70  CE  M3L d   1      78.759  55.728  -3.501  0.00  0.00     0.084 C 
ATOM     71  H36 M3L d   1      78.661  55.158  -2.565  0.00  0.00     0.076 H 
ATOM     72  H37 M3L d   1      78.749  56.805  -3.277  0.00  0.00     0.076 H 
BRANCH  70  73
ATOM     73  NZ  M3L d   1      80.017  55.382  -4.146  0.00  0.00    -0.079 N 
BRANCH  73  74
ATOM     74  CM1 M3L d   1      80.066  53.964  -4.482  0.00  0.00     0.067 C 
ATOM     75  H38 M3L d   1      81.026  53.735  -4.967  0.00  0.00     0.068 H 
ATOM     76  H39 M3L d   1      79.242  53.721  -5.169  0.00  0.00     0.068 H 
ATOM     77  H40 M3L d   1      79.967  53.366  -3.564  0.00  0.00     0.068 H 
ENDBRANCH  73  74
BRANCH  73  78
ATOM     78  CM2 M3L d   1      81.121  55.691  -3.253  0.00  0.00     0.067 C 
ATOM     79  H41 M3L d   1      81.094  56.759  -2.993  0.00  0.00     0.068 H 
ATOM     80  H42 M3L d   1      82.073  55.459  -3.753  0.00  0.00     0.068 H 
ATOM     81  H43 M3L d   1      81.032  55.088  -2.337  0.00  0.00     0.068 H 
ENDBRANCH  73  78
BRANCH  73  82
ATOM     82  CM3 M3L d   1      80.181  56.184  -5.344  0.00  0.00     0.067 C 
ATOM     83  H44 M3L d   1      79.358  55.972  -6.043  0.00  0.00     0.068 H 
ATOM     84  H45 M3L d   1      81.140  55.937  -5.822  0.00  0.00     0.068 H 
ATOM     85  H46 M3L d   1      80.169  57.251  -5.076  0.00  0.00     0.068 H 
ENDBRANCH  73  82
ENDBRANCH  70  73
ENDBRANCH  67  70
ENDBRANCH  64  67
ENDBRANCH  61  64
ENDBRANCH   7  61
ENDBRANCH   4   7
ENDBRANCH   1   3
BRANCH   1  86
ATOM     86  C   GLN d   1      74.629  52.202  -1.064  0.00  0.00     0.241 C 
ATOM     87  O   GLN d   1      75.175  51.931  -2.100  0.00  0.00    -0.271 OA
ATOM     88  N   THR d   1      74.944  51.600   0.071  0.00  0.00    -0.344 N 
ATOM     89  H55 THR d   1      74.473  51.852   0.916  0.00  0.00     0.163 HD
BRANCH  88  90
ATOM     90  CA  THR d   1      75.973  50.573   0.094  0.00  0.00     0.113 C 
ATOM     91  H56 THR d   1      75.888  50.035  -0.862  0.00  0.00     0.091 H 
BRANCH  90  92
ATOM     92  C   THR d   1      75.836  49.526   1.177  0.00  0.00     0.243 C 
ATOM     93  O   THR d   1      75.136  49.706   2.159  0.00  0.00    -0.271 OA
ATOM     94  N   ALA d   1      76.493  48.404   0.948  0.00  0.00    -0.346 N 
ATOM     95  H62 ALA d   1      76.946  48.278   0.066  0.00  0.00     0.163 HD
BRANCH  94  96
ATOM     96  CA  ALA d   1      76.576  47.353   1.935  0.00  0.00     0.086 C 
ATOM     97  H63 ALA d   1      75.591  47.234   2.411  0.00  0.00     0.086 H 
BRANCH  96  98
ATOM     98  C   ALA d   1      77.582  47.728   2.985  0.00  0.00     0.240 C 
ATOM     99  O   ALA d   1      78.567  48.378   2.691  0.00  0.00    -0.271 OA
ATOM    100  N   ARG d   1      77.347  47.274   4.204  0.00  0.00    -0.346 N 
ATOM    101  H67 ARG d   1      76.533  46.716   4.365  0.00  0.00     0.163 HD
BRANCH 100 102
ATOM    102  CA  ARG d   1      78.232  47.560   5.313  0.00  0.00     0.089 C 
ATOM    103  H68 ARG d   1      78.968  48.321   5.015  0.00  0.00     0.087 H 
BRANCH 102 104
ATOM    104  C   ARG d   1      78.942  46.286   5.690  0.00  0.00     0.241 C 
ATOM    105  O   ARG d   1      78.362  45.229   5.629  0.00  0.00    -0.271 OA
ATOM    106  N   LYS d   1      80.216  46.406   6.018  0.00  0.00    -0.345 N 
ATOM    107  H80 LYS d   1      80.681  47.256   5.772  0.00  0.00     0.163 HD
BRANCH 106 108
ATOM    108  CA  LYS d   1      80.992  45.385   6.714  0.00  0.00     0.096 C 
ATOM    109  H81 LYS d   1      81.605  45.928   7.449  0.00  0.00     0.089 H 
BRANCH 108 110
ATOM    110  C   LYS d   1      81.951  44.612   5.856  0.00  0.00     0.196 C 
ATOM    111  O   LYS d   1      82.751  43.852   6.387  0.00  0.00    -0.646 OA
ATOM    112  OXT LYS d   1      81.916  44.755   4.640  0.00  0.00    -0.646 OA
ENDBRANCH 108 110
BRANCH 108 113
ATOM    113  CB  LYS d   1      80.117  44.408   7.505  0.00  0.00    -0.037 C 
ATOM    114  H82 LYS d   1      80.070  43.460   6.948  0.00  0.00     0.036 H 
ATOM    115  H83 LYS d   1      79.107  44.837   7.585  0.00  0.00     0.036 H 
BRANCH 113 116
ATOM    116  CG  LYS d   1      80.618  44.111   8.905  0.00  0.00    -0.061 C 
ATOM    117  H84 LYS d   1      79.769  43.787   9.525  0.00  0.00     0.033 H 
ATOM    118  H85 LYS d   1      81.053  45.028   9.329  0.00  0.00     0.033 H 
BRANCH 116 119
ATOM    119  CD  LYS d   1      81.672  43.022   8.910  0.00  0.00    -0.043 C 
ATOM    120  H86 LYS d   1      82.095  42.927   7.899  0.00  0.00     0.035 H 
ATOM    121  H87 LYS d   1      81.203  42.071   9.202  0.00  0.00     0.035 H 
BRANCH 119 122
ATOM    122  CE  LYS d   1      82.789  43.343   9.885  0.00  0.00     0.080 C 
ATOM    123  H88 LYS d   1      82.362  43.457  10.892  0.00  0.00     0.075 H 
ATOM    124  H89 LYS d   1      83.268  44.285   9.581  0.00  0.00     0.075 H 
BRANCH 122 125
ATOM    125  NZ  LYS d   1      83.817  42.266   9.916  0.00  0.00    -0.079 N 
ATOM    126  H90 LYS d   1      84.541  42.512  10.572  0.00  0.00     0.274 HD
ATOM    127  H91 LYS d   1      84.218  42.158   8.998  0.00  0.00     0.274 HD
ATOM    128  H92 LYS d   1      83.387  41.399  10.199  0.00  0.00     0.274 HD
ENDBRANCH 122 125
ENDBRANCH 119 122
ENDBRANCH 116 119
ENDBRANCH 113 116
ENDBRANCH 108 113
ENDBRANCH 106 108
ENDBRANCH 102 104
BRANCH 102 129
ATOM    129  CB  ARG d   1      77.424  48.073   6.502  0.00  0.00    -0.036 C 
ATOM    130  H69 ARG d   1      77.743  47.512   7.393  0.00  0.00     0.036 H 
ATOM    131  H70 ARG d   1      76.362  47.868   6.301  0.00  0.00     0.036 H 
BRANCH 129 132
ATOM    132  CG  ARG d   1      77.560  49.556   6.813  0.00  0.00    -0.048 C 
ATOM    133  H71 ARG d   1      77.658  50.110   5.868  0.00  0.00     0.035 H 
ATOM    134  H72 ARG d   1      78.462  49.710   7.423  0.00  0.00     0.035 H 
BRANCH 132 135
ATOM    135  CD  ARG d   1      76.354  50.092   7.574  0.00  0.00     0.009 C 
ATOM    136  H73 ARG d   1      76.285  49.574   8.542  0.00  0.00     0.064 H 
ATOM    137  H74 ARG d   1      75.446  49.893   6.986  0.00  0.00     0.064 H 
BRANCH 135 138
ATOM    138  NE  ARG d   1      76.454  51.523   7.814  0.00  0.00    -0.227 N 
ATOM    139  CZ  ARG d   1      75.422  52.330   7.978  0.00  0.00     0.665 C 
ATOM    140  NH1 ARG d   1      74.198  51.872   7.958  0.00  0.00    -0.235 N 
ATOM    141  NH2 ARG d   1      75.620  53.606   8.159  0.00  0.00    -0.235 N 
ATOM    142  H76 ARG d   1      73.405  52.516   8.088  0.00  0.00     0.174 HD
ATOM    143  H77 ARG d   1      74.027  50.867   7.813  0.00  0.00     0.174 HD
ATOM    144  H78 ARG d   1      76.579  53.981   8.177  0.00  0.00     0.174 HD
ATOM    145  H79 ARG d   1      74.817  54.239   8.284  0.00  0.00     0.174 HD
ATOM    146  H75 ARG d   1      77.397  51.936   7.859  0.00  0.00     0.177 HD
ENDBRANCH 135 138
ENDBRANCH 132 135
ENDBRANCH 129 132
ENDBRANCH 102 129
ENDBRANCH 100 102
ENDBRANCH  96  98
BRANCH  96 147
ATOM    147  CB  ALA d   1      76.963  46.044   1.288  0.00  0.00    -0.049 C 
ATOM    148  H64 ALA d   1      77.020  45.258   2.056  0.00  0.00     0.030 H 
ATOM    149  H65 ALA d   1      77.943  46.152   0.800  0.00  0.00     0.030 H 
ATOM    150  H66 ALA d   1      76.208  45.769   0.537  0.00  0.00     0.030 H 
ENDBRANCH  96 147
ENDBRANCH  94  96
ENDBRANCH  90  92
BRANCH  90 151
ATOM    151  CB  THR d   1      77.355  51.209   0.129  0.00  0.00     0.060 C 
ATOM    152  H57 THR d   1      77.437  51.871   1.004  0.00  0.00     0.086 H 
BRANCH 151 153
ATOM    153  OG1 THR d   1      77.517  51.952  -1.069  0.00  0.00    -0.393 OA
ATOM    154  H58 THR d   1      76.845  52.622  -1.118  0.00  0.00     0.210 HD
ENDBRANCH 151 153
BRANCH 151 155
ATOM    155  CG2 THR d   1      78.430  50.168   0.184  0.00  0.00    -0.050 C 
ATOM    156  H59 THR d   1      79.414  50.658   0.208  0.00  0.00     0.031 H 
ATOM    157  H60 THR d   1      78.363  49.524  -0.705  0.00  0.00     0.031 H 
ATOM    158  H61 THR d   1      78.302  49.557   1.090  0.00  0.00     0.031 H 
ENDBRANCH 151 155
ENDBRANCH  90 151
ENDBRANCH  88  90
ENDBRANCH   1  86
BRANCH   1 159
ATOM    159  CB  GLN d   1      72.194  52.712  -1.012  0.00  0.00    -0.030 C 
ATOM    160  H49 GLN d   1      72.222  51.742  -0.494  0.00  0.00     0.037 H 
ATOM    161  H50 GLN d   1      71.862  52.564  -2.050  0.00  0.00     0.037 H 
BRANCH 159 162
ATOM    162  CG  GLN d   1      71.201  53.607  -0.309  0.00  0.00     0.011 C 
ATOM    163  H51 GLN d   1      70.786  54.316  -1.041  0.00  0.00     0.047 H 
ATOM    164  H52 GLN d   1      71.726  54.162   0.482  0.00  0.00     0.047 H 
BRANCH 162 165
ATOM    165  CD  GLN d   1      70.068  52.839   0.313  0.00  0.00     0.215 C 
ATOM    166  OE1 GLN d   1      70.014  51.624   0.232  0.00  0.00    -0.274 OA
ATOM    167  NE2 GLN d   1      69.153  53.547   0.938  0.00  0.00    -0.370 N 
ATOM    168  H53 GLN d   1      68.376  53.090   1.371  0.00  0.00     0.159 HD
ATOM    169  H54 GLN d   1      69.234  54.543   0.981  0.00  0.00     0.159 HD
ENDBRANCH 162 165
ENDBRANCH 159 162
ENDBRANCH   1 159
TORSDOF 50
