REMARK WARNING: 32 MAX_TORS EXCEEDED!!!
REMARK  43 active torsions:
REMARK  status: ('A' for Active; 'I' for Inactive)
REMARK    1  A    between atoms: CA_2  and  C_3 
REMARK       I    between atoms: C_3  and  N_8 
REMARK    2  A    between atoms: N_8  and  CA_9 
REMARK    3  A    between atoms: CA_9  and  C_10 
REMARK    4  A    between atoms: CA_9  and  CB_12 
REMARK       I    between atoms: C_10  and  N_16 
REMARK    5  A    between atoms: CB_12  and  CG1_13 
REMARK    6  A    between atoms: CB_12  and  CG2_14 
REMARK    7  A    between atoms: CG1_13  and  CD1_15 
REMARK    8  A    between atoms: CA_17  and  C_18 
REMARK       I    between atoms: C_18  and  N_23 
REMARK    9  A    between atoms: CA_24  and  C_25 
REMARK       I    between atoms: C_25  and  N_30 
REMARK   10  A    between atoms: N_30  and  CA_31 
REMARK   11  A    between atoms: CA_31  and  C_32 
REMARK   12  A    between atoms: CA_31  and  CB_34 
REMARK       I    between atoms: C_32  and  N_36 
REMARK   13  A    between atoms: CB_34  and  OG_35 
REMARK   14  A    between atoms: N_36  and  CA_37 
REMARK   15  A    between atoms: CA_37  and  C_38 
REMARK   16  A    between atoms: CA_37  and  CB_40 
REMARK       I    between atoms: C_38  and  N_41 
REMARK   17  A    between atoms: CA_42  and  C_43 
REMARK       I    between atoms: C_43  and  N_49 
REMARK   18  A    between atoms: CG_46  and  OD1_48 
REMARK   19  A    between atoms: N_49  and  CA_50 
REMARK   20  A    between atoms: CA_50  and  C_51 
REMARK   21  A    between atoms: CA_50  and  CB_53 
REMARK       I    between atoms: C_51  and  N_55 
REMARK   22  A    between atoms: CB_53  and  OG_54 
REMARK   23  A    between atoms: N_55  and  CA_56 
REMARK   24  A    between atoms: CA_56  and  C_57 
REMARK   25  A    between atoms: CA_56  and  CB_59 
REMARK       I    between atoms: C_57  and  N_64 
REMARK   26  A    between atoms: CB_59  and  CG_60 
REMARK   27  A    between atoms: CG_60  and  CD_61 
REMARK   28  A    between atoms: CD_61  and  CE_62 
REMARK   29  A    between atoms: CE_62  and  NZ_63 
REMARK   30  A    between atoms: N_64  and  CA_65 
REMARK   31  A    between atoms: CA_65  and  C_66 
REMARK   32  A    between atoms: CA_65  and  CB_68 
REMARK       I    between atoms: C_66  and  N_75 
REMARK   33  A    between atoms: CB_68  and  CG_69 
REMARK   34  A    between atoms: CG_69  and  CD_70 
REMARK   35  A    between atoms: CD_70  and  NE_71 
REMARK       I    between atoms: NE_71  and  CZ_72 
REMARK       I    between atoms: CZ_72  and  NH1_73 
REMARK   36  A    between atoms: N_75  and  CA_76 
REMARK   37  A    between atoms: CA_76  and  C_77 
REMARK   38  A    between atoms: CA_76  and  CB_79 
REMARK       I    between atoms: C_77  and  N_85 
REMARK   39  A    between atoms: CB_79  and  CG_80 
REMARK   40  A    between atoms: N_85  and  CA_86 
REMARK   41  A    between atoms: CA_86  and  C_87 
REMARK   42  A    between atoms: CA_86  and  CB_89 
REMARK   43  A    between atoms: CB_89  and  CG_90 
REMARK       I    between atoms: CG_90  and  ND2_92 
ROOT
ATOM      1  C   ALA d   1       6.605  55.758   4.928  0.00  0.00     0.243 C 
ATOM      2  O   ALA d   1       6.662  54.881   4.037  0.00  0.00    -0.271 OA
ATOM      3  N   HYP d   1       6.829  55.530   6.218  0.00  0.00    -0.334 N 
ATOM      4  CA  HYP d   1       6.811  54.156   6.783  0.00  0.00     0.094 C 
ATOM      5  CB  HYP d   1       7.170  54.206   8.283  0.00  0.00    -0.012 C 
ATOM      6  CG  HYP d   1       7.673  55.635   8.431  0.00  0.00     0.053 C 
ATOM      7  CD  HYP d   1       6.963  56.460   7.354  0.00  0.00     0.022 C 
ATOM      8  H45 HYP d   1       7.727  53.739   6.340  0.00  0.00     0.088 H 
ATOM      9  H46 HYP d   1       7.955  53.477   8.532  0.00  0.00     0.040 H 
ATOM     10  H47 HYP d   1       6.287  54.024   8.913  0.00  0.00     0.040 H 
ATOM     11  H48 HYP d   1       7.480  56.035   9.437  0.00  0.00     0.085 H 
ATOM     12  H49 HYP d   1       5.975  56.792   7.705  0.00  0.00     0.068 H 
ATOM     13  H50 HYP d   1       7.566  57.336   7.072  0.00  0.00     0.068 H 
ENDROOT
BRANCH   4  14
ATOM     14  C   HYP d   1       5.824  53.100   6.354  0.00  0.00     0.241 C 
ATOM     15  O   HYP d   1       4.646  53.433   6.192  0.00  0.00    -0.271 OA
ATOM     16  N   SER d   1       6.257  51.826   6.222  0.00  0.00    -0.344 N 
ATOM     17  H52 SER d   1       7.233  51.619   6.288  0.00  0.00     0.163 HD
BRANCH  16  18
ATOM     18  CA  SER d   1       5.284  50.741   5.980  0.00  0.00     0.109 C 
ATOM     19  H53 SER d   1       4.735  50.970   5.055  0.00  0.00     0.090 H 
BRANCH  18  20
ATOM     20  C   SER d   1       4.301  50.692   7.145  0.00  0.00     0.243 C 
ATOM     21  O   SER d   1       4.700  50.765   8.314  0.00  0.00    -0.271 OA
ATOM     22  N   LYS d   1       3.017  50.560   6.826  0.00  0.00    -0.346 N 
ATOM     23  H57 LYS d   1       2.751  50.546   5.862  0.00  0.00     0.163 HD
BRANCH  22  24
ATOM     24  CA  LYS d   1       1.978  50.434   7.864  0.00  0.00     0.089 C 
ATOM     25  H58 LYS d   1       2.309  50.998   8.748  0.00  0.00     0.087 H 
BRANCH  24  26
ATOM     26  C   LYS d   1       1.729  48.974   8.295  0.00  0.00     0.241 C 
ATOM     27  O   LYS d   1       0.902  48.719   9.146  0.00  0.00    -0.271 OA
ATOM     28  N   ARG d   1       2.421  48.016   7.692  0.00  0.00    -0.346 N 
ATOM     29  H70 ARG d   1       3.111  48.253   7.008  0.00  0.00     0.163 HD
BRANCH  28  30
ATOM     30  CA  ARG d   1       2.176  46.616   8.026  0.00  0.00     0.089 C 
ATOM     31  H71 ARG d   1       1.095  46.450   7.908  0.00  0.00     0.087 H 
BRANCH  30  32
ATOM     32  C   ARG d   1       2.488  46.280   9.494  0.00  0.00     0.241 C 
ATOM     33  O   ARG d   1       3.373  46.864  10.148  0.00  0.00    -0.271 OA
ATOM     34  N   HIS d   1       1.678  45.382  10.036  0.00  0.00    -0.346 N 
ATOM     35  H83 HIS d   1       1.002  44.931   9.454  0.00  0.00     0.163 HD
BRANCH  34  36
ATOM     36  CA  HIS d   1       1.736  45.029  11.443  0.00  0.00     0.094 C 
ATOM     37  H84 HIS d   1       2.780  44.801  11.704  0.00  0.00     0.088 H 
BRANCH  36  38
ATOM     38  C   HIS d   1       0.884  43.777  11.672  0.00  0.00     0.241 C 
ATOM     39  O   HIS d   1      -0.001  43.457  10.875  0.00  0.00    -0.271 OA
ATOM     40  N   ASN d   1       1.144  43.130  12.811  0.00  0.00    -0.344 N 
ATOM     41  H90 ASN d   1       1.906  43.448  13.375  0.00  0.00     0.163 HD
BRANCH  40  42
ATOM     42  CA  ASN d   1       0.372  41.983  13.272  0.00  0.00     0.104 C 
ATOM     43  H91 ASN d   1      -0.106  41.507  12.403  0.00  0.00     0.090 H 
BRANCH  42  44
ATOM     44  C   ASN d   1      -0.725  42.427  14.253  0.00  0.00     0.197 C 
ATOM     45  O   ASN d   1      -1.491  41.564  14.690  0.00  0.00    -0.646 OA
ATOM     46  OXT ASN d   1      -0.867  43.613  14.621  0.00  0.00    -0.646 OA
ENDBRANCH  42  44
BRANCH  42  47
ATOM     47  CB  ASN d   1       1.308  40.963  13.941  0.00  0.00     0.037 C 
ATOM     48  H92 ASN d   1       0.732  40.060  14.189  0.00  0.00     0.051 H 
ATOM     49  H93 ASN d   1       1.715  41.404  14.863  0.00  0.00     0.051 H 
BRANCH  47  50
ATOM     50  CG  ASN d   1       2.439  40.584  13.047  0.00  0.00     0.217 C 
ATOM     51  OD1 ASN d   1       3.515  41.195  13.096  0.00  0.00    -0.274 OA
ATOM     52  ND2 ASN d   1       2.173  39.659  12.142  0.00  0.00    -0.370 N 
ATOM     53  H94 ASN d   1       2.887  39.358  11.510  0.00  0.00     0.159 HD
ATOM     54  H95 ASN d   1       1.258  39.260  12.089  0.00  0.00     0.159 HD
ENDBRANCH  47  50
ENDBRANCH  42  47
ENDBRANCH  40  42
ENDBRANCH  36  38
BRANCH  36  55
ATOM     55  CB  HIS d   1       1.243  46.211  12.365  0.00  0.00     0.004 C 
ATOM     56  H85 HIS d   1       1.815  47.115  12.107  0.00  0.00     0.046 H 
ATOM     57  H86 HIS d   1       1.440  45.940  13.413  0.00  0.00     0.046 H 
BRANCH  55  58
ATOM     58  CG  HIS d   1      -0.213  46.517  12.222  0.00  0.00     0.053 A 
ATOM     59  ND1 HIS d   1      -1.190  45.820  12.908  0.00  0.00    -0.247 NA
ATOM     60  CE1 HIS d   1      -2.386  46.254  12.543  0.00  0.00     0.064 A 
ATOM     61  NE2 HIS d   1      -2.224  47.212  11.645  0.00  0.00    -0.359 N 
ATOM     62  H88 HIS d   1      -3.340  45.886  12.918  0.00  0.00     0.143 H 
ATOM     63  CD2 HIS d   1      -0.875  47.399  11.423  0.00  0.00     0.002 A 
ATOM     64  H89 HIS d   1      -2.983  47.735  11.185  0.00  0.00     0.166 HD
ATOM     65  H87 HIS d   1      -0.425  48.116  10.738  0.00  0.00     0.114 H 
ENDBRANCH  55  58
ENDBRANCH  36  55
ENDBRANCH  34  36
ENDBRANCH  30  32
BRANCH  30  66
ATOM     66  CB  ARG d   1       2.868  45.702   6.994  0.00  0.00    -0.036 C 
ATOM     67  H72 ARG d   1       2.775  44.652   7.308  0.00  0.00     0.036 H 
ATOM     68  H73 ARG d   1       3.932  45.969   6.917  0.00  0.00     0.036 H 
BRANCH  66  69
ATOM     69  CG  ARG d   1       2.172  45.902   5.604  0.00  0.00    -0.048 C 
ATOM     70  H74 ARG d   1       2.270  46.962   5.328  0.00  0.00     0.035 H 
ATOM     71  H75 ARG d   1       1.108  45.650   5.721  0.00  0.00     0.035 H 
BRANCH  69  72
ATOM     72  CD  ARG d   1       2.724  45.070   4.458  0.00  0.00     0.009 C 
ATOM     73  H76 ARG d   1       3.819  45.029   4.550  0.00  0.00     0.064 H 
ATOM     74  H77 ARG d   1       2.454  45.557   3.509  0.00  0.00     0.064 H 
BRANCH  72  75
ATOM     75  NE  ARG d   1       2.200  43.690   4.445  0.00  0.00    -0.227 N 
ATOM     76  CZ  ARG d   1       2.798  42.628   3.869  0.00  0.00     0.665 C 
ATOM     77  NH1 ARG d   1       3.972  42.738   3.243  0.00  0.00    -0.235 N 
ATOM     78  NH2 ARG d   1       2.224  41.420   3.918  0.00  0.00    -0.235 N 
ATOM     79  H79 ARG d   1       4.405  41.909   2.812  0.00  0.00     0.174 HD
ATOM     80  H80 ARG d   1       4.444  43.652   3.191  0.00  0.00     0.174 HD
ATOM     81  H81 ARG d   1       1.318  41.299   4.393  0.00  0.00     0.174 HD
ATOM     82  H82 ARG d   1       2.688  40.611   3.481  0.00  0.00     0.174 HD
ATOM     83  H78 ARG d   1       1.300  43.524   4.917  0.00  0.00     0.177 HD
ENDBRANCH  72  75
ENDBRANCH  69  72
ENDBRANCH  66  69
ENDBRANCH  30  66
ENDBRANCH  28  30
ENDBRANCH  24  26
BRANCH  24  84
ATOM     84  CB  LYS d   1       0.671  51.047   7.350  0.00  0.00    -0.038 C 
ATOM     85  H59 LYS d   1      -0.096  50.920   8.128  0.00  0.00     0.036 H 
ATOM     86  H60 LYS d   1       0.369  50.500   6.445  0.00  0.00     0.036 H 
BRANCH  84  87
ATOM     87  CG  LYS d   1       0.755  52.532   7.002  0.00  0.00    -0.061 C 
ATOM     88  H61 LYS d   1       1.362  52.656   6.093  0.00  0.00     0.033 H 
ATOM     89  H62 LYS d   1       1.228  53.072   7.835  0.00  0.00     0.033 H 
BRANCH  87  90
ATOM     90  CD  LYS d   1      -0.642  53.111   6.757  0.00  0.00    -0.043 C 
ATOM     91  H63 LYS d   1      -0.544  54.170   6.477  0.00  0.00     0.035 H 
ATOM     92  H64 LYS d   1      -1.228  53.029   7.684  0.00  0.00     0.035 H 
BRANCH  90  93
ATOM     93  CE  LYS d   1      -1.379  52.370   5.638  0.00  0.00     0.080 C 
ATOM     94  H65 LYS d   1      -1.715  51.397   6.027  0.00  0.00     0.075 H 
ATOM     95  H66 LYS d   1      -0.678  52.210   4.805  0.00  0.00     0.075 H 
BRANCH  93  96
ATOM     96  NZ  LYS d   1      -2.566  53.107   5.121  0.00  0.00    -0.079 N 
ATOM     97  H67 LYS d   1      -3.004  52.568   4.390  0.00  0.00     0.274 HD
ATOM     98  H68 LYS d   1      -2.274  53.998   4.752  0.00  0.00     0.274 HD
ATOM     99  H69 LYS d   1      -3.224  53.253   5.871  0.00  0.00     0.274 HD
ENDBRANCH  93  96
ENDBRANCH  90  93
ENDBRANCH  87  90
ENDBRANCH  84  87
ENDBRANCH  24  84
ENDBRANCH  22  24
ENDBRANCH  18  20
BRANCH  18 100
ATOM    100  CB  SER d   1       5.934  49.379   5.822  0.00  0.00     0.044 C 
ATOM    101  H54 SER d   1       6.509  49.132   6.726  0.00  0.00     0.077 H 
ATOM    102  H55 SER d   1       6.605  49.383   4.950  0.00  0.00     0.077 H 
BRANCH 100 103
ATOM    103  OG  SER d   1       4.890  48.414   5.629  0.00  0.00    -0.398 OA
ATOM    104  H56 SER d   1       5.273  47.551   5.527  0.00  0.00     0.209 HD
ENDBRANCH 100 103
ENDBRANCH  18 100
ENDBRANCH  16  18
ENDBRANCH   4  14
BRANCH   1 105
ATOM    105  CA  ALA d   1       6.320  57.211   4.539  0.00  0.00     0.086 C 
ATOM    106  H41 ALA d   1       7.055  57.863   5.035  0.00  0.00     0.086 H 
BRANCH 105 107
ATOM    107  N   ALA d   1       6.453  57.370   3.076  0.00  0.00    -0.346 N 
ATOM    108  C   SER d   1       6.570  58.575   2.530  0.00  0.00     0.243 C 
ATOM    109  O   SER d   1       6.661  59.598   3.220  0.00  0.00    -0.271 OA
ATOM    110  H40 ALA d   1       6.455  56.560   2.490  0.00  0.00     0.163 HD
BRANCH 108 111
ATOM    111  CA  SER d   1       6.552  58.641   0.997  0.00  0.00     0.109 C 
ATOM    112  H36 SER d   1       6.828  57.658   0.587  0.00  0.00     0.090 H 
BRANCH 111 113
ATOM    113  N   SER d   1       5.208  58.960   0.598  0.00  0.00    -0.344 N 
ATOM    114  C   PRO d   1       4.241  58.047   0.599  0.00  0.00     0.241 C 
ATOM    115  O   PRO d   1       4.446  56.826   0.688  0.00  0.00    -0.271 OA
ATOM    116  H35 SER d   1       4.995  59.894   0.312  0.00  0.00     0.163 HD
BRANCH 114 117
ATOM    117  CA  PRO d   1       2.823  58.576   0.440  0.00  0.00     0.091 C 
ATOM    118  N   PRO d   1       1.894  57.492   0.073  0.00  0.00    -0.337 N 
ATOM    119  C   PRO d   1       2.001  56.955  -1.169  0.00  0.00     0.243 C 
ATOM    120  CD  PRO d   1       0.921  57.223   1.149  0.00  0.00    -0.001 C 
ATOM    121  O   PRO d   1       2.773  57.400  -2.009  0.00  0.00    -0.271 OA
ATOM    122  CG  PRO d   1       1.546  57.903   2.343  0.00  0.00    -0.048 C 
ATOM    123  H33 PRO d   1       0.810  56.142   1.322  0.00  0.00     0.064 H 
ATOM    124  H34 PRO d   1      -0.061  57.660   0.913  0.00  0.00     0.064 H 
ATOM    125  CB  PRO d   1       2.286  59.066   1.788  0.00  0.00    -0.036 C 
ATOM    126  H31 PRO d   1       0.769  58.240   3.045  0.00  0.00     0.035 H 
ATOM    127  H32 PRO d   1       2.235  57.218   2.859  0.00  0.00     0.035 H 
ATOM    128  H29 PRO d   1       1.612  59.924   1.649  0.00  0.00     0.036 H 
ATOM    129  H30 PRO d   1       3.113  59.353   2.454  0.00  0.00     0.036 H 
ATOM    130  H28 PRO d   1       2.808  59.380  -0.310  0.00  0.00     0.087 H 
BRANCH 119 131
ATOM    131  CA  PRO d   1       1.052  55.785  -1.560  0.00  0.00     0.092 C 
ATOM    132  N   PRO d   1       0.557  55.941  -2.952  0.00  0.00    -0.337 N 
ATOM    133  C   ILE d   1      -0.134  57.078  -3.247  0.00  0.00     0.243 C 
ATOM    134  CD  PRO d   1       0.937  54.795  -3.804  0.00  0.00    -0.001 C 
ATOM    135  O   ILE d   1      -0.447  57.906  -2.385  0.00  0.00    -0.271 OA
ATOM    136  CG  PRO d   1       1.322  53.729  -2.816  0.00  0.00    -0.048 C 
ATOM    137  H26 PRO d   1       1.787  55.053  -4.453  0.00  0.00     0.064 H 
ATOM    138  H27 PRO d   1       0.089  54.468  -4.423  0.00  0.00     0.064 H 
ATOM    139  CB  PRO d   1       1.791  54.427  -1.583  0.00  0.00    -0.036 C 
ATOM    140  H24 PRO d   1       0.452  53.096  -2.585  0.00  0.00     0.035 H 
ATOM    141  H25 PRO d   1       2.130  53.106  -3.228  0.00  0.00     0.035 H 
ATOM    142  H22 PRO d   1       1.537  53.838  -0.690  0.00  0.00     0.036 H 
ATOM    143  H23 PRO d   1       2.879  54.584  -1.622  0.00  0.00     0.036 H 
ATOM    144  H21 PRO d   1       0.211  55.753  -0.851  0.00  0.00     0.087 H 
BRANCH 133 145
ATOM    145  CA  ILE d   1      -0.523  57.345  -4.710  0.00  0.00     0.092 C 
ATOM    146  H11 ILE d   1      -0.593  56.393  -5.256  0.00  0.00     0.088 H 
BRANCH 145 147
ATOM    147  N   ILE d   1      -1.830  58.030  -4.728  0.00  0.00    -0.346 N 
ATOM    148  C   PRO d   1      -2.992  57.387  -4.728  0.00  0.00     0.249 C 
ATOM    149  O   PRO d   1      -3.073  56.157  -4.647  0.00  0.00    -0.271 OA
ATOM    150  H10 ILE d   1      -1.841  59.030  -4.741  0.00  0.00     0.163 HD
BRANCH 148 151
ATOM    151  CA  PRO d   1      -4.276  58.249  -4.837  0.00  0.00     0.178 C 
ATOM    152  N   PRO d   1      -5.392  57.728  -4.052  0.00  0.00    -0.062 N 
ATOM    153  CD  PRO d   1      -6.266  58.816  -3.565  0.00  0.00     0.083 C 
ATOM    154  H1  PRO d   1      -5.027  57.221  -3.260  0.00  0.00     0.278 HD
ATOM    155  H2  PRO d   1      -5.935  57.105  -4.628  0.00  0.00     0.278 HD
ATOM    156  CG  PRO d   1      -5.492  60.078  -3.885  0.00  0.00    -0.040 C 
ATOM    157  H8  PRO d   1      -6.436  58.726  -2.482  0.00  0.00     0.075 H 
ATOM    158  H9  PRO d   1      -7.232  58.806  -4.090  0.00  0.00     0.075 H 
ATOM    159  CB  PRO d   1      -4.103  59.666  -4.258  0.00  0.00    -0.028 C 
ATOM    160  H6  PRO d   1      -5.966  60.607  -4.725  0.00  0.00     0.035 H 
ATOM    161  H7  PRO d   1      -5.465  60.737  -3.004  0.00  0.00     0.035 H 
ATOM    162  H4  PRO d   1      -3.683  60.348  -5.012  0.00  0.00     0.036 H 
ATOM    163  H5  PRO d   1      -3.450  59.650  -3.373  0.00  0.00     0.036 H 
ATOM    164  H3  PRO d   1      -4.556  58.306  -5.899  0.00  0.00     0.099 H 
ENDBRANCH 148 151
ENDBRANCH 145 147
BRANCH 145 165
ATOM    165  CB  ILE d   1       0.540  58.250  -5.378  0.00  0.00    -0.030 C 
ATOM    166  H12 ILE d   1       0.684  59.135  -4.740  0.00  0.00     0.043 H 
BRANCH 165 167
ATOM    167  CG1 ILE d   1       0.055  58.720  -6.760  0.00  0.00    -0.063 C 
ATOM    168  H13 ILE d   1      -1.036  58.591  -6.812  0.00  0.00     0.033 H 
ATOM    169  H14 ILE d   1       0.535  58.099  -7.531  0.00  0.00     0.033 H 
BRANCH 167 170
ATOM    170  CD1 ILE d   1       0.383  60.167  -7.033  0.00  0.00    -0.076 C 
ATOM    171  H18 ILE d   1       0.013  60.445  -8.031  0.00  0.00     0.027 H 
ATOM    172  H19 ILE d   1       1.473  60.310  -6.993  0.00  0.00     0.027 H 
ATOM    173  H20 ILE d   1      -0.098  60.801  -6.274  0.00  0.00     0.027 H 
ENDBRANCH 167 170
ENDBRANCH 165 167
BRANCH 165 174
ATOM    174  CG2 ILE d   1       1.873  57.545  -5.516  0.00  0.00    -0.071 C 
ATOM    175  H15 ILE d   1       2.215  57.211  -4.525  0.00  0.00     0.028 H 
ATOM    176  H16 ILE d   1       2.612  58.238  -5.945  0.00  0.00     0.028 H 
ATOM    177  H17 ILE d   1       1.760  56.674  -6.178  0.00  0.00     0.028 H 
ENDBRANCH 165 174
ENDBRANCH 145 165
ENDBRANCH 133 145
ENDBRANCH 119 131
ENDBRANCH 114 117
ENDBRANCH 111 113
BRANCH 111 178
ATOM    178  CB  SER d   1       7.552  59.680   0.485  0.00  0.00     0.044 C 
ATOM    179  H37 SER d   1       7.290  60.674   0.878  0.00  0.00     0.077 H 
ATOM    180  H38 SER d   1       7.534  59.704  -0.615  0.00  0.00     0.077 H 
BRANCH 178 181
ATOM    181  OG  SER d   1       8.850  59.309   0.938  0.00  0.00    -0.398 OA
ATOM    182  H39 SER d   1       9.069  58.449   0.598  0.00  0.00     0.209 HD
ENDBRANCH 178 181
ENDBRANCH 111 178
ENDBRANCH 108 111
ENDBRANCH 105 107
BRANCH 105 183
ATOM    183  CB  ALA d   1       4.909  57.618   5.001  0.00  0.00    -0.049 C 
ATOM    184  H42 ALA d   1       4.830  57.493   6.091  0.00  0.00     0.030 H 
ATOM    185  H43 ALA d   1       4.162  56.981   4.504  0.00  0.00     0.030 H 
ATOM    186  H44 ALA d   1       4.727  58.670   4.739  0.00  0.00     0.030 H 
ENDBRANCH 105 183
ENDBRANCH   1 105
BRANCH   6 187
ATOM    187  OD1 HYP d   1       9.079  55.608   8.138  0.00  0.00    -0.394 OA
ATOM    188  H51 HYP d   1       9.530  55.098   8.801  0.00  0.00     0.210 HD
ENDBRANCH   6 187
TORSDOF 43
