REMARK WARNING: 32 MAX_TORS EXCEEDED!!!
REMARK  43 active torsions:
REMARK  status: ('A' for Active; 'I' for Inactive)
REMARK    1  A    between atoms: CA_2  and  C_3 
REMARK       I    between atoms: C_3  and  N_8 
REMARK    2  A    between atoms: N_8  and  CA_9 
REMARK    3  A    between atoms: CA_9  and  C_10 
REMARK    4  A    between atoms: CA_9  and  CB_12 
REMARK       I    between atoms: C_10  and  N_16 
REMARK    5  A    between atoms: CB_12  and  CG1_13 
REMARK    6  A    between atoms: CB_12  and  CG2_14 
REMARK    7  A    between atoms: CG1_13  and  CD1_15 
REMARK    8  A    between atoms: CA_17  and  C_18 
REMARK       I    between atoms: C_18  and  N_23 
REMARK    9  A    between atoms: CA_24  and  C_25 
REMARK       I    between atoms: C_25  and  N_30 
REMARK   10  A    between atoms: N_30  and  CA_31 
REMARK   11  A    between atoms: CA_31  and  C_32 
REMARK   12  A    between atoms: CA_31  and  CB_34 
REMARK       I    between atoms: C_32  and  N_36 
REMARK   13  A    between atoms: CB_34  and  OG_35 
REMARK   14  A    between atoms: N_36  and  CA_37 
REMARK   15  A    between atoms: CA_37  and  C_38 
REMARK   16  A    between atoms: CA_37  and  CB_40 
REMARK       I    between atoms: C_38  and  N_41 
REMARK   17  A    between atoms: CA_42  and  C_43 
REMARK       I    between atoms: C_43  and  N_49 
REMARK   18  A    between atoms: CG_46  and  OD1_48 
REMARK   19  A    between atoms: N_49  and  CA_50 
REMARK   20  A    between atoms: CA_50  and  C_51 
REMARK   21  A    between atoms: CA_50  and  CB_53 
REMARK       I    between atoms: C_51  and  N_55 
REMARK   22  A    between atoms: CB_53  and  OG_54 
REMARK   23  A    between atoms: N_55  and  CA_56 
REMARK   24  A    between atoms: CA_56  and  C_57 
REMARK   25  A    between atoms: CA_56  and  CB_59 
REMARK       I    between atoms: C_57  and  N_64 
REMARK   26  A    between atoms: CB_59  and  CG_60 
REMARK   27  A    between atoms: CG_60  and  CD_61 
REMARK   28  A    between atoms: CD_61  and  CE_62 
REMARK   29  A    between atoms: CE_62  and  NZ_63 
REMARK   30  A    between atoms: N_64  and  CA_65 
REMARK   31  A    between atoms: CA_65  and  C_66 
REMARK   32  A    between atoms: CA_65  and  CB_68 
REMARK       I    between atoms: C_66  and  N_75 
REMARK   33  A    between atoms: CB_68  and  CG_69 
REMARK   34  A    between atoms: CG_69  and  CD_70 
REMARK   35  A    between atoms: CD_70  and  NE_71 
REMARK       I    between atoms: NE_71  and  CZ_72 
REMARK       I    between atoms: CZ_72  and  NH1_73 
REMARK   36  A    between atoms: N_75  and  CA_76 
REMARK   37  A    between atoms: CA_76  and  C_77 
REMARK   38  A    between atoms: CA_76  and  CB_79 
REMARK       I    between atoms: C_77  and  N_85 
REMARK   39  A    between atoms: CB_79  and  CG_80 
REMARK   40  A    between atoms: N_85  and  CA_86 
REMARK   41  A    between atoms: CA_86  and  C_87 
REMARK   42  A    between atoms: CA_86  and  CB_89 
REMARK   43  A    between atoms: CB_89  and  CG_90 
REMARK       I    between atoms: CG_90  and  ND2_92 
ROOT
ATOM      1  C   ALA d   1       6.635  56.094   4.968  0.00  0.00     0.243 C 
ATOM      2  O   ALA d   1       6.657  55.208   4.107  0.00  0.00    -0.271 OA
ATOM      3  N   HYP d   1       6.819  55.873   6.276  0.00  0.00    -0.334 N 
ATOM      4  CA  HYP d   1       6.878  54.496   6.829  0.00  0.00     0.094 C 
ATOM      5  CB  HYP d   1       7.324  54.530   8.293  0.00  0.00    -0.012 C 
ATOM      6  CG  HYP d   1       7.825  55.959   8.440  0.00  0.00     0.053 C 
ATOM      7  CD  HYP d   1       7.048  56.794   7.405  0.00  0.00     0.022 C 
ATOM      8  H45 HYP d   1       7.787  54.122   6.336  0.00  0.00     0.088 H 
ATOM      9  H46 HYP d   1       8.128  53.803   8.482  0.00  0.00     0.040 H 
ATOM     10  H47 HYP d   1       6.482  54.330   8.972  0.00  0.00     0.040 H 
ATOM     11  H48 HYP d   1       7.651  56.349   9.454  0.00  0.00     0.085 H 
ATOM     12  H49 HYP d   1       6.091  57.139   7.824  0.00  0.00     0.068 H 
ATOM     13  H50 HYP d   1       7.641  57.662   7.083  0.00  0.00     0.068 H 
ENDROOT
BRANCH   4  14
ATOM     14  C   HYP d   1       5.917  53.413   6.404  0.00  0.00     0.241 C 
ATOM     15  O   HYP d   1       4.731  53.720   6.265  0.00  0.00    -0.271 OA
ATOM     16  N   SER d   1       6.378  52.151   6.219  0.00  0.00    -0.344 N 
ATOM     17  H52 SER d   1       7.359  51.960   6.242  0.00  0.00     0.163 HD
BRANCH  16  18
ATOM     18  CA  SER d   1       5.393  51.046   5.980  0.00  0.00     0.109 C 
ATOM     19  H53 SER d   1       4.833  51.277   5.062  0.00  0.00     0.090 H 
BRANCH  18  20
ATOM     20  C   SER d   1       4.415  51.003   7.168  0.00  0.00     0.243 C 
ATOM     21  O   SER d   1       4.819  51.100   8.338  0.00  0.00    -0.271 OA
ATOM     22  N   LYS d   1       3.137  50.850   6.860  0.00  0.00    -0.346 N 
ATOM     23  H57 LYS d   1       2.862  50.862   5.899  0.00  0.00     0.163 HD
BRANCH  22  24
ATOM     24  CA  LYS d   1       2.105  50.661   7.905  0.00  0.00     0.089 C 
ATOM     25  H58 LYS d   1       2.460  51.170   8.813  0.00  0.00     0.087 H 
BRANCH  24  26
ATOM     26  C   LYS d   1       1.827  49.174   8.285  0.00  0.00     0.241 C 
ATOM     27  O   LYS d   1       0.993  48.907   9.133  0.00  0.00    -0.271 OA
ATOM     28  N   ARG d   1       2.519  48.227   7.671  0.00  0.00    -0.346 N 
ATOM     29  H70 ARG d   1       3.170  48.477   6.955  0.00  0.00     0.163 HD
BRANCH  28  30
ATOM     30  CA  ARG d   1       2.342  46.807   8.030  0.00  0.00     0.089 C 
ATOM     31  H71 ARG d   1       1.290  46.544   7.844  0.00  0.00     0.087 H 
BRANCH  30  32
ATOM     32  C   ARG d   1       2.622  46.550   9.509  0.00  0.00     0.241 C 
ATOM     33  O   ARG d   1       3.496  47.170  10.134  0.00  0.00    -0.271 OA
ATOM     34  N   HIS d   1       1.837  45.653  10.081  0.00  0.00    -0.346 N 
ATOM     35  H83 HIS d   1       1.138  45.208   9.521  0.00  0.00     0.163 HD
BRANCH  34  36
ATOM     36  CA  HIS d   1       1.939  45.282  11.480  0.00  0.00     0.094 C 
ATOM     37  H84 HIS d   1       2.989  45.065  11.726  0.00  0.00     0.088 H 
BRANCH  36  38
ATOM     38  C   HIS d   1       1.080  44.004  11.668  0.00  0.00     0.241 C 
ATOM     39  O   HIS d   1       0.234  43.672  10.822  0.00  0.00    -0.271 OA
ATOM     40  N   ASN d   1       1.260  43.373  12.823  0.00  0.00    -0.344 N 
ATOM     41  H90 ASN d   1       1.955  43.722  13.451  0.00  0.00     0.163 HD
BRANCH  40  42
ATOM     42  CA  ASN d   1       0.491  42.190  13.224  0.00  0.00     0.104 C 
ATOM     43  H91 ASN d   1       0.051  41.735  12.325  0.00  0.00     0.090 H 
BRANCH  42  44
ATOM     44  C   ASN d   1      -0.653  42.606  14.166  0.00  0.00     0.197 C 
ATOM     45  O   ASN d   1      -1.411  41.727  14.583  0.00  0.00    -0.646 OA
ATOM     46  OXT ASN d   1      -0.867  43.787  14.517  0.00  0.00    -0.646 OA
ENDBRANCH  42  44
BRANCH  42  47
ATOM     47  CB  ASN d   1       1.428  41.147  13.889  0.00  0.00     0.037 C 
ATOM     48  H92 ASN d   1       0.864  40.217  14.056  0.00  0.00     0.051 H 
ATOM     49  H93 ASN d   1       1.774  41.544  14.854  0.00  0.00     0.051 H 
BRANCH  47  50
ATOM     50  CG  ASN d   1       2.619  40.844  13.035  0.00  0.00     0.217 C 
ATOM     51  OD1 ASN d   1       3.645  41.544  13.093  0.00  0.00    -0.274 OA
ATOM     52  ND2 ASN d   1       2.464  39.887  12.153  0.00  0.00    -0.370 N 
ATOM     53  H94 ASN d   1       3.221  39.635  11.551  0.00  0.00     0.159 HD
ATOM     54  H95 ASN d   1       1.588  39.409  12.082  0.00  0.00     0.159 HD
ENDBRANCH  47  50
ENDBRANCH  42  47
ENDBRANCH  40  42
ENDBRANCH  36  38
BRANCH  36  55
ATOM     55  CB  HIS d   1       1.426  46.422  12.423  0.00  0.00     0.004 C 
ATOM     56  H85 HIS d   1       2.001  47.335  12.210  0.00  0.00     0.046 H 
ATOM     57  H86 HIS d   1       1.599  46.115  13.465  0.00  0.00     0.046 H 
BRANCH  55  58
ATOM     58  CG  HIS d   1      -0.034  46.731  12.255  0.00  0.00     0.053 A 
ATOM     59  ND1 HIS d   1      -1.025  46.028  12.916  0.00  0.00    -0.247 NA
ATOM     60  CE1 HIS d   1      -2.214  46.475  12.540  0.00  0.00     0.064 A 
ATOM     61  NE2 HIS d   1      -2.032  47.442  11.655  0.00  0.00    -0.359 N 
ATOM     62  H88 HIS d   1      -3.176  46.110  12.898  0.00  0.00     0.143 H 
ATOM     63  CD2 HIS d   1      -0.679  47.614  11.450  0.00  0.00     0.002 A 
ATOM     64  H89 HIS d   1      -2.780  47.979  11.194  0.00  0.00     0.166 HD
ATOM     65  H87 HIS d   1      -0.214  48.326  10.769  0.00  0.00     0.114 H 
ENDBRANCH  55  58
ENDBRANCH  36  55
ENDBRANCH  34  36
ENDBRANCH  30  32
BRANCH  30  66
ATOM     66  CB  ARG d   1       3.214  45.917   7.130  0.00  0.00    -0.036 C 
ATOM     67  H72 ARG d   1       3.162  44.880   7.492  0.00  0.00     0.036 H 
ATOM     68  H73 ARG d   1       4.255  46.270   7.176  0.00  0.00     0.036 H 
BRANCH  66  69
ATOM     69  CG  ARG d   1       2.731  45.965   5.667  0.00  0.00    -0.048 C 
ATOM     70  H74 ARG d   1       2.912  46.974   5.269  0.00  0.00     0.035 H 
ATOM     71  H75 ARG d   1       1.652  45.750   5.645  0.00  0.00     0.035 H 
BRANCH  69  72
ATOM     72  CD  ARG d   1       3.445  44.959   4.782  0.00  0.00     0.009 C 
ATOM     73  H76 ARG d   1       4.530  45.063   4.933  0.00  0.00     0.064 H 
ATOM     74  H77 ARG d   1       3.198  45.174   3.732  0.00  0.00     0.064 H 
BRANCH  72  75
ATOM     75  NE  ARG d   1       3.056  43.574   5.085  0.00  0.00    -0.227 N 
ATOM     76  CZ  ARG d   1       3.567  42.483   4.503  0.00  0.00     0.665 C 
ATOM     77  NH1 ARG d   1       4.513  42.583   3.568  0.00  0.00    -0.235 N 
ATOM     78  NH2 ARG d   1       3.125  41.277   4.852  0.00  0.00    -0.235 N 
ATOM     79  H79 ARG d   1       4.896  41.733   3.130  0.00  0.00     0.174 HD
ATOM     80  H80 ARG d   1       4.861  43.510   3.284  0.00  0.00     0.174 HD
ATOM     81  H81 ARG d   1       2.395  41.185   5.573  0.00  0.00     0.174 HD
ATOM     82  H82 ARG d   1       3.513  40.436   4.402  0.00  0.00     0.174 HD
ATOM     83  H78 ARG d   1       2.332  43.432   5.803  0.00  0.00     0.177 HD
ENDBRANCH  72  75
ENDBRANCH  69  72
ENDBRANCH  66  69
ENDBRANCH  30  66
ENDBRANCH  28  30
ENDBRANCH  24  26
BRANCH  24  84
ATOM     84  CB  LYS d   1       0.800  51.333   7.452  0.00  0.00    -0.038 C 
ATOM     85  H59 LYS d   1       0.035  51.159   8.223  0.00  0.00     0.036 H 
ATOM     86  H60 LYS d   1       0.481  50.868   6.508  0.00  0.00     0.036 H 
BRANCH  84  87
ATOM     87  CG  LYS d   1       0.923  52.842   7.228  0.00  0.00    -0.061 C 
ATOM     88  H61 LYS d   1       1.621  53.025   6.398  0.00  0.00     0.033 H 
ATOM     89  H62 LYS d   1       1.313  53.309   8.144  0.00  0.00     0.033 H 
BRANCH  87  90
ATOM     90  CD  LYS d   1      -0.431  53.470   6.887  0.00  0.00    -0.043 C 
ATOM     91  H63 LYS d   1      -0.427  54.522   7.208  0.00  0.00     0.035 H 
ATOM     92  H64 LYS d   1      -1.222  52.925   7.423  0.00  0.00     0.035 H 
BRANCH  90  93
ATOM     93  CE  LYS d   1      -0.719  53.411   5.386  0.00  0.00     0.080 C 
ATOM     94  H65 LYS d   1      -0.548  52.383   5.034  0.00  0.00     0.075 H 
ATOM     95  H66 LYS d   1      -0.031  54.095   4.867  0.00  0.00     0.075 H 
BRANCH  93  96
ATOM     96  NZ  LYS d   1      -2.125  53.804   5.057  0.00  0.00    -0.079 N 
ATOM     97  H67 LYS d   1      -2.265  53.749   4.060  0.00  0.00     0.274 HD
ATOM     98  H68 LYS d   1      -2.292  54.748   5.368  0.00  0.00     0.274 HD
ATOM     99  H69 LYS d   1      -2.766  53.179   5.521  0.00  0.00     0.274 HD
ENDBRANCH  93  96
ENDBRANCH  90  93
ENDBRANCH  87  90
ENDBRANCH  84  87
ENDBRANCH  24  84
ENDBRANCH  22  24
ENDBRANCH  18  20
BRANCH  18 100
ATOM    100  CB  SER d   1       6.040  49.678   5.806  0.00  0.00     0.044 C 
ATOM    101  H54 SER d   1       6.645  49.434   6.692  0.00  0.00     0.077 H 
ATOM    102  H55 SER d   1       6.682  49.678   4.912  0.00  0.00     0.077 H 
BRANCH 100 103
ATOM    103  OG  SER d   1       4.992  48.719   5.653  0.00  0.00    -0.398 OA
ATOM    104  H56 SER d   1       5.369  47.854   5.542  0.00  0.00     0.209 HD
ENDBRANCH 100 103
ENDBRANCH  18 100
ENDBRANCH  16  18
ENDBRANCH   4  14
BRANCH   1 105
ATOM    105  CA  ALA d   1       6.384  57.542   4.534  0.00  0.00     0.086 C 
ATOM    106  H41 ALA d   1       7.128  58.192   5.017  0.00  0.00     0.086 H 
BRANCH 105 107
ATOM    107  N   ALA d   1       6.503  57.689   3.076  0.00  0.00    -0.346 N 
ATOM    108  C   SER d   1       6.630  58.892   2.506  0.00  0.00     0.243 C 
ATOM    109  O   SER d   1       6.760  59.933   3.175  0.00  0.00    -0.271 OA
ATOM    110  H40 ALA d   1       6.489  56.873   2.499  0.00  0.00     0.163 HD
BRANCH 108 111
ATOM    111  CA  SER d   1       6.610  58.932   0.964  0.00  0.00     0.109 C 
ATOM    112  H36 SER d   1       6.943  57.958   0.577  0.00  0.00     0.090 H 
BRANCH 111 113
ATOM    113  N   SER d   1       5.274  59.173   0.513  0.00  0.00    -0.344 N 
ATOM    114  C   PRO d   1       4.314  58.260   0.640  0.00  0.00     0.241 C 
ATOM    115  O   PRO d   1       4.536  57.053   0.812  0.00  0.00    -0.271 OA
ATOM    116  H35 SER d   1       5.055  60.053   0.090  0.00  0.00     0.163 HD
BRANCH 114 117
ATOM    117  CA  PRO d   1       2.882  58.756   0.479  0.00  0.00     0.091 C 
ATOM    118  N   PRO d   1       1.974  57.627   0.142  0.00  0.00    -0.337 N 
ATOM    119  C   PRO d   1       2.171  57.026  -1.056  0.00  0.00     0.243 C 
ATOM    120  CD  PRO d   1       0.933  57.433   1.167  0.00  0.00    -0.001 C 
ATOM    121  O   PRO d   1       3.010  57.402  -1.829  0.00  0.00    -0.271 OA
ATOM    122  CG  PRO d   1       1.510  58.147   2.371  0.00  0.00    -0.048 C 
ATOM    123  H33 PRO d   1       0.778  56.364   1.377  0.00  0.00     0.064 H 
ATOM    124  H34 PRO d   1      -0.019  57.888   0.856  0.00  0.00     0.064 H 
ATOM    125  CB  PRO d   1       2.343  59.270   1.818  0.00  0.00    -0.036 C 
ATOM    126  H31 PRO d   1       0.703  58.544   3.004  0.00  0.00     0.035 H 
ATOM    127  H32 PRO d   1       2.135  57.460   2.961  0.00  0.00     0.035 H 
ATOM    128  H29 PRO d   1       1.726  60.168   1.665  0.00  0.00     0.036 H 
ATOM    129  H30 PRO d   1       3.172  59.507   2.501  0.00  0.00     0.036 H 
ATOM    130  H28 PRO d   1       2.843  59.540  -0.292  0.00  0.00     0.087 H 
BRANCH 119 131
ATOM    131  CA  PRO d   1       1.256  55.861  -1.490  0.00  0.00     0.092 C 
ATOM    132  N   PRO d   1       0.780  56.059  -2.883  0.00  0.00    -0.337 N 
ATOM    133  C   ILE d   1       0.077  57.185  -3.211  0.00  0.00     0.243 C 
ATOM    134  CD  PRO d   1       1.112  54.906  -3.750  0.00  0.00    -0.001 C 
ATOM    135  O   ILE d   1      -0.232  58.048  -2.373  0.00  0.00    -0.271 OA
ATOM    136  CG  PRO d   1       1.567  53.844  -2.778  0.00  0.00    -0.048 C 
ATOM    137  H26 PRO d   1       1.917  55.164  -4.454  0.00  0.00     0.064 H 
ATOM    138  H27 PRO d   1       0.228  54.570  -4.311  0.00  0.00     0.064 H 
ATOM    139  CB  PRO d   1       2.043  54.536  -1.561  0.00  0.00    -0.036 C 
ATOM    140  H24 PRO d   1       0.728  53.178  -2.528  0.00  0.00     0.035 H 
ATOM    141  H25 PRO d   1       2.384  53.255  -3.220  0.00  0.00     0.035 H 
ATOM    142  H22 PRO d   1       1.842  53.924  -0.670  0.00  0.00     0.036 H 
ATOM    143  H23 PRO d   1       3.122  54.736  -1.632  0.00  0.00     0.036 H 
ATOM    144  H21 PRO d   1       0.410  55.778  -0.792  0.00  0.00     0.087 H 
BRANCH 133 145
ATOM    145  CA  ILE d   1      -0.353  57.382  -4.684  0.00  0.00     0.092 C 
ATOM    146  H11 ILE d   1      -0.227  56.438  -5.234  0.00  0.00     0.088 H 
BRANCH 145 147
ATOM    147  N   ILE d   1      -1.783  57.769  -4.689  0.00  0.00    -0.346 N 
ATOM    148  C   PRO d   1      -2.759  56.874  -4.667  0.00  0.00     0.249 C 
ATOM    149  O   PRO d   1      -2.543  55.659  -4.668  0.00  0.00    -0.271 OA
ATOM    150  H10 ILE d   1      -2.020  58.740  -4.710  0.00  0.00     0.163 HD
BRANCH 148 151
ATOM    151  CA  PRO d   1      -4.206  57.425  -4.662  0.00  0.00     0.178 C 
ATOM    152  N   PRO d   1      -5.209  56.507  -4.094  0.00  0.00    -0.062 N 
ATOM    153  CD  PRO d   1      -6.123  57.191  -3.159  0.00  0.00     0.083 C 
ATOM    154  H1  PRO d   1      -4.731  55.769  -3.600  0.00  0.00     0.278 HD
ATOM    155  H2  PRO d   1      -5.750  56.112  -4.847  0.00  0.00     0.278 HD
ATOM    156  CG  PRO d   1      -5.738  58.649  -3.270  0.00  0.00    -0.040 C 
ATOM    157  H8  PRO d   1      -5.977  56.825  -2.132  0.00  0.00     0.075 H 
ATOM    158  H9  PRO d   1      -7.171  57.040  -3.456  0.00  0.00     0.075 H 
ATOM    159  CB  PRO d   1      -4.333  58.680  -3.765  0.00  0.00    -0.028 C 
ATOM    160  H6  PRO d   1      -6.402  59.164  -3.979  0.00  0.00     0.035 H 
ATOM    161  H7  PRO d   1      -5.805  59.135  -2.286  0.00  0.00     0.035 H 
ATOM    162  H4  PRO d   1      -4.147  59.594  -4.348  0.00  0.00     0.036 H 
ATOM    163  H5  PRO d   1      -3.624  58.630  -2.925  0.00  0.00     0.036 H 
ATOM    164  H3  PRO d   1      -4.478  57.671  -5.699  0.00  0.00     0.099 H 
ENDBRANCH 148 151
ENDBRANCH 145 147
BRANCH 145 165
ATOM    165  CB  ILE d   1       0.515  58.476  -5.358  0.00  0.00    -0.030 C 
ATOM    166  H12 ILE d   1       0.450  59.385  -4.741  0.00  0.00     0.043 H 
BRANCH 165 167
ATOM    167  CG1 ILE d   1      -0.019  58.818  -6.764  0.00  0.00    -0.063 C 
ATOM    168  H13 ILE d   1      -1.114  58.717  -6.759  0.00  0.00     0.033 H 
ATOM    169  H14 ILE d   1       0.411  58.109  -7.486  0.00  0.00     0.033 H 
BRANCH 167 170
ATOM    170  CD1 ILE d   1       0.336  60.227  -7.197  0.00  0.00    -0.076 C 
ATOM    171  H18 ILE d   1      -0.069  60.414  -8.203  0.00  0.00     0.027 H 
ATOM    172  H19 ILE d   1       1.430  60.340  -7.215  0.00  0.00     0.027 H 
ATOM    173  H20 ILE d   1      -0.096  60.948  -6.488  0.00  0.00     0.027 H 
ENDBRANCH 167 170
ENDBRANCH 165 167
BRANCH 165 174
ATOM    174  CG2 ILE d   1       1.974  58.059  -5.422  0.00  0.00    -0.071 C 
ATOM    175  H15 ILE d   1       2.332  57.821  -4.410  0.00  0.00     0.028 H 
ATOM    176  H16 ILE d   1       2.573  58.883  -5.838  0.00  0.00     0.028 H 
ATOM    177  H17 ILE d   1       2.074  57.172  -6.065  0.00  0.00     0.028 H 
ENDBRANCH 165 174
ENDBRANCH 145 165
ENDBRANCH 133 145
ENDBRANCH 119 131
ENDBRANCH 114 117
ENDBRANCH 111 113
BRANCH 111 178
ATOM    178  CB  SER d   1       7.566  60.011   0.458  0.00  0.00     0.044 C 
ATOM    179  H37 SER d   1       7.288  60.985   0.886  0.00  0.00     0.077 H 
ATOM    180  H38 SER d   1       7.518  60.066  -0.640  0.00  0.00     0.077 H 
BRANCH 178 181
ATOM    181  OG  SER d   1       8.871  59.668   0.862  0.00  0.00    -0.398 OA
ATOM    182  H39 SER d   1       9.104  58.825   0.492  0.00  0.00     0.209 HD
ENDBRANCH 178 181
ENDBRANCH 111 178
ENDBRANCH 108 111
ENDBRANCH 105 107
BRANCH 105 183
ATOM    183  CB  ALA d   1       4.974  57.967   4.984  0.00  0.00    -0.049 C 
ATOM    184  H42 ALA d   1       4.888  57.856   6.075  0.00  0.00     0.030 H 
ATOM    185  H43 ALA d   1       4.224  57.331   4.491  0.00  0.00     0.030 H 
ATOM    186  H44 ALA d   1       4.802  59.018   4.708  0.00  0.00     0.030 H 
ENDBRANCH 105 183
ENDBRANCH   1 105
BRANCH   6 187
ATOM    187  OD1 HYP d   1       9.227  55.907   8.159  0.00  0.00    -0.394 OA
ATOM    188  H51 HYP d   1       9.662  55.383   8.821  0.00  0.00     0.210 HD
ENDBRANCH   6 187
TORSDOF 43
