REMARK WARNING: 32 MAX_TORS EXCEEDED!!!
REMARK  61 active torsions:
REMARK  status: ('A' for Active; 'I' for Inactive)
REMARK    1  A    between atoms: N_1  and  CA_2 
REMARK    2  A    between atoms: CA_2  and  C_3 
REMARK    3  A    between atoms: CA_2  and  CB_5 
REMARK       I    between atoms: C_3  and  N_7 
REMARK    4  A    between atoms: CB_5  and  OG_6 
REMARK    5  A    between atoms: N_7  and  CA_8 
REMARK    6  A    between atoms: CA_8  and  C_9 
REMARK    7  A    between atoms: CA_8  and  CB_11 
REMARK       I    between atoms: C_9  and  N_17 
REMARK    8  A    between atoms: CB_11  and  CG_12 
REMARK    9  A    between atoms: N_17  and  CA_18 
REMARK   10  A    between atoms: CA_18  and  C_19 
REMARK   11  A    between atoms: CA_18  and  CB_21 
REMARK       I    between atoms: C_19  and  N_26 
REMARK   12  A    between atoms: CB_21  and  CG_22 
REMARK   13  A    between atoms: CG_22  and  CD_23 
REMARK       I    between atoms: CD_23  and  NE2_25 
REMARK   14  A    between atoms: N_26  and  CA_27 
REMARK   15  A    between atoms: CA_27  and  C_28 
REMARK   16  A    between atoms: CA_27  and  CB_30 
REMARK       I    between atoms: C_28  and  N_34 
REMARK   17  A    between atoms: CB_30  and  CG_31 
REMARK       I    between atoms: CG_31  and  ND2_33 
REMARK   18  A    between atoms: N_34  and  CA_35 
REMARK   19  A    between atoms: CA_35  and  C_36 
REMARK   20  A    between atoms: CA_35  and  CB_38 
REMARK       I    between atoms: C_36  and  N_41 
REMARK   21  A    between atoms: CB_38  and  CG1_39 
REMARK   22  A    between atoms: CB_38  and  CG2_40 
REMARK   23  A    between atoms: N_41  and  CA_42 
REMARK   24  A    between atoms: CA_42  and  C_43 
REMARK   25  A    between atoms: CA_42  and  CB_45 
REMARK       I    between atoms: C_43  and  N_49 
REMARK   26  A    between atoms: CB_45  and  CG_46 
REMARK   27  A    between atoms: CG_46  and  CD1_47 
REMARK   28  A    between atoms: CG_46  and  CD2_48 
REMARK   29  A    between atoms: N_49  and  CA_50 
REMARK   30  A    between atoms: CA_50  and  C_51 
REMARK   31  A    between atoms: CA_50  and  CB_53 
REMARK       I    between atoms: C_51  and  N_55 
REMARK   32  A    between atoms: CB_53  and  OG_54 
REMARK   33  A    between atoms: N_55  and  CA_56 
REMARK   34  A    between atoms: CA_56  and  C_57 
REMARK   35  A    between atoms: CA_56  and  CB_59 
REMARK       I    between atoms: C_57  and  N_63 
REMARK   36  A    between atoms: CB_59  and  CG_60 
REMARK       I    between atoms: CG_60  and  ND2_62 
REMARK   37  A    between atoms: N_63  and  CA_64 
REMARK   38  A    between atoms: CA_64  and  C_65 
REMARK   39  A    between atoms: CA_64  and  CB_67 
REMARK       I    between atoms: C_65  and  N_75 
REMARK   40  A    between atoms: CB_67  and  CG_68 
REMARK   41  A    between atoms: CZ_73  and  OH_74 
REMARK   42  A    between atoms: N_75  and  CA_76 
REMARK   43  A    between atoms: CA_76  and  C_77 
REMARK   44  A    between atoms: CA_76  and  CB_79 
REMARK       I    between atoms: C_77  and  N_86 
REMARK   45  A    between atoms: CB_79  and  CG_80 
REMARK   46  A    between atoms: CA_87  and  C_88 
REMARK       I    between atoms: C_88  and  N_93 
REMARK   47  A    between atoms: N_93  and  CA_94 
REMARK   48  A    between atoms: CA_94  and  C_95 
REMARK   49  A    between atoms: CA_94  and  CB_97 
REMARK       I    between atoms: C_95  and  N_104 
REMARK   50  A    between atoms: CB_97  and  CG_98 
REMARK   51  A    between atoms: CG_98  and  CD_99 
REMARK   52  A    between atoms: CD_99  and  NE_100 
REMARK       I    between atoms: NE_100  and  CZ_101 
REMARK       I    between atoms: CZ_101  and  NH1_102 
REMARK       I    between atoms: CZ_101  and  NH2_103 
REMARK   53  A    between atoms: N_104  and  CA_105 
REMARK   54  A    between atoms: CA_105  and  C_106 
REMARK   55  A    between atoms: CA_105  and  CB_108 
REMARK       I    between atoms: C_106  and  N_111 
REMARK   56  A    between atoms: CB_108  and  CG1_109 
REMARK   57  A    between atoms: CB_108  and  CG2_110 
REMARK   58  A    between atoms: N_111  and  CA_112 
REMARK   59  A    between atoms: CA_112  and  C_113 
REMARK   60  A    between atoms: CA_112  and  CB_115 
REMARK   61  A    between atoms: CB_115  and  OG_116 
ROOT
ATOM      1  CA  ASN d   1     -24.268 -70.063 -52.915  0.00  0.00     0.097 C 
ATOM      2  H55 ASN d   1     -24.328 -71.041 -53.415  0.00  0.00     0.088 H 
ENDROOT
BRANCH   1   3
ATOM      3  N   ASN d   1     -23.113 -69.368 -53.441  0.00  0.00    -0.345 N 
ATOM      4  C   SER d   1     -22.990 -69.223 -54.755  0.00  0.00     0.243 C 
ATOM      5  O   SER d   1     -23.811 -69.671 -55.547  0.00  0.00    -0.271 OA
ATOM      6  H54 ASN d   1     -22.417 -69.002 -52.823  0.00  0.00     0.163 HD
BRANCH   4   7
ATOM      7  CA  SER d   1     -21.774 -68.477 -55.260  0.00  0.00     0.109 C 
ATOM      8  H50 SER d   1     -22.029 -68.020 -56.227  0.00  0.00     0.090 H 
BRANCH   7   9
ATOM      9  N   SER d   1     -21.364 -67.414 -54.358  0.00  0.00    -0.344 N 
ATOM     10  C   LEU d   1     -22.150 -66.394 -54.041  0.00  0.00     0.241 C 
ATOM     11  O   LEU d   1     -23.250 -66.210 -54.547  0.00  0.00    -0.271 OA
ATOM     12  H49 SER d   1     -20.448 -67.453 -53.958  0.00  0.00     0.163 HD
BRANCH  10  13
ATOM     13  CA  LEU d   1     -21.603 -65.428 -52.999  0.00  0.00     0.089 C 
ATOM     14  H39 LEU d   1     -22.379 -65.283 -52.233  0.00  0.00     0.087 H 
BRANCH  13  15
ATOM     15  N   LEU d   1     -20.411 -65.922 -52.333  0.00  0.00    -0.346 N 
ATOM     16  C   VAL d   1     -20.481 -66.965 -51.522  0.00  0.00     0.241 C 
ATOM     17  O   VAL d   1     -21.524 -67.576 -51.321  0.00  0.00    -0.271 OA
ATOM     18  H38 LEU d   1     -19.532 -65.471 -52.488  0.00  0.00     0.163 HD
BRANCH  16  19
ATOM     19  CA  VAL d   1     -19.206 -67.374 -50.815  0.00  0.00     0.092 C 
ATOM     20  H30 VAL d   1     -18.700 -66.466 -50.457  0.00  0.00     0.088 H 
BRANCH  19  21
ATOM     21  N   VAL d   1     -19.568 -68.179 -49.664  0.00  0.00    -0.346 N 
ATOM     22  C   ASN d   1     -19.562 -67.671 -48.436  0.00  0.00     0.241 C 
ATOM     23  O   ASN d   1     -19.279 -66.496 -48.201  0.00  0.00    -0.271 OA
ATOM     24  H29 VAL d   1     -19.827 -69.136 -49.797  0.00  0.00     0.163 HD
BRANCH  22  25
ATOM     25  CA  ASN d   1     -19.923 -68.625 -47.304  0.00  0.00     0.097 C 
ATOM     26  H24 ASN d   1     -19.617 -69.640 -47.597  0.00  0.00     0.088 H 
BRANCH  25  27
ATOM     27  N   ASN d   1     -19.220 -68.273 -46.078  0.00  0.00    -0.346 N 
ATOM     28  C   GLN d   1     -17.984 -68.697 -45.834  0.00  0.00     0.241 C 
ATOM     29  O   GLN d   1     -17.366 -69.440 -46.596  0.00  0.00    -0.271 OA
ATOM     30  H23 ASN d   1     -19.679 -67.697 -45.402  0.00  0.00     0.163 HD
BRANCH  28  31
ATOM     31  CA  GLN d   1     -17.350 -68.206 -44.537  0.00  0.00     0.090 C 
ATOM     32  H16 GLN d   1     -18.108 -67.628 -43.988  0.00  0.00     0.087 H 
BRANCH  31  33
ATOM     33  N   GLN d   1     -16.921 -69.306 -43.682  0.00  0.00    -0.346 N 
ATOM     34  C   HIS d   1     -17.578 -69.618 -42.570  0.00  0.00     0.241 C 
ATOM     35  O   HIS d   1     -18.599 -69.032 -42.210  0.00  0.00    -0.271 OA
ATOM     36  H15 GLN d   1     -16.114 -69.838 -43.938  0.00  0.00     0.163 HD
BRANCH  34  37
ATOM     37  CA  HIS d   1     -16.992 -70.755 -41.729  0.00  0.00     0.094 C 
ATOM     38  H9  HIS d   1     -15.943 -70.899 -42.026  0.00  0.00     0.088 H 
BRANCH  37  39
ATOM     39  N   HIS d   1     -17.014 -70.401 -40.305  0.00  0.00    -0.346 N 
ATOM     40  C   SER d   1     -16.111 -70.930 -39.479  0.00  0.00     0.251 C 
ATOM     41  O   SER d   1     -15.438 -71.916 -39.784  0.00  0.00    -0.271 OA
ATOM     42  H8  HIS d   1     -17.703 -69.766 -39.956  0.00  0.00     0.163 HD
BRANCH  40  43
ATOM     43  CA  SER d   1     -15.927 -70.280 -38.110  0.00  0.00     0.195 C 
ATOM     44  H4  SER d   1     -16.848 -69.739 -37.847  0.00  0.00     0.102 H 
BRANCH  43  45
ATOM     45  N   SER d   1     -15.649 -71.259 -37.077  0.00  0.00    -0.064 N 
ATOM     46  H1  SER d   1     -15.535 -70.790 -36.192  0.00  0.00     0.275 HD
ATOM     47  H2  SER d   1     -14.803 -71.757 -37.305  0.00  0.00     0.275 HD
ATOM     48  H3  SER d   1     -16.416 -71.910 -37.016  0.00  0.00     0.275 HD
ENDBRANCH  43  45
BRANCH  43  49
ATOM     49  CB  SER d   1     -14.761 -69.295 -38.186  0.00  0.00     0.051 C 
ATOM     50  H5  SER d   1     -14.692 -68.902 -39.211  0.00  0.00     0.077 H 
ATOM     51  H6  SER d   1     -13.830 -69.823 -37.932  0.00  0.00     0.077 H 
BRANCH  49  52
ATOM     52  OG  SER d   1     -14.933 -68.213 -37.291  0.00  0.00    -0.398 OA
ATOM     53  H7  SER d   1     -14.193 -67.622 -37.364  0.00  0.00     0.209 HD
ENDBRANCH  49  52
ENDBRANCH  43  49
ENDBRANCH  40  43
ENDBRANCH  37  39
BRANCH  37  54
ATOM     54  CB  HIS d   1     -17.747 -72.059 -42.011  0.00  0.00     0.004 C 
ATOM     55  H10 HIS d   1     -18.763 -71.969 -41.599  0.00  0.00     0.046 H 
ATOM     56  H11 HIS d   1     -17.219 -72.882 -41.507  0.00  0.00     0.046 H 
BRANCH  54  57
ATOM     57  CG  HIS d   1     -17.855 -72.388 -43.471  0.00  0.00     0.053 A 
ATOM     58  ND1 HIS d   1     -19.056 -72.448 -44.143  0.00  0.00    -0.247 NA
ATOM     59  CE1 HIS d   1     -18.836 -72.770 -45.407  0.00  0.00     0.064 A 
ATOM     60  NE2 HIS d   1     -17.535 -72.915 -45.581  0.00  0.00    -0.359 N 
ATOM     61  H13 HIS d   1     -19.599 -72.894 -46.174  0.00  0.00     0.143 H 
ATOM     62  CD2 HIS d   1     -16.898 -72.678 -44.387  0.00  0.00     0.002 A 
ATOM     63  H14 HIS d   1     -17.073 -73.165 -46.467  0.00  0.00     0.166 HD
ATOM     64  H12 HIS d   1     -15.824 -72.716 -44.209  0.00  0.00     0.114 H 
ENDBRANCH  54  57
ENDBRANCH  37  54
ENDBRANCH  34  37
ENDBRANCH  31  33
BRANCH  31  65
ATOM     65  CB  GLN d   1     -16.172 -67.280 -44.848  0.00  0.00    -0.030 C 
ATOM     66  H17 GLN d   1     -16.113 -67.150 -45.939  0.00  0.00     0.037 H 
ATOM     67  H18 GLN d   1     -15.251 -67.760 -44.486  0.00  0.00     0.037 H 
BRANCH  65  68
ATOM     68  CG  GLN d   1     -16.278 -65.905 -44.208  0.00  0.00     0.011 C 
ATOM     69  H19 GLN d   1     -15.370 -65.333 -44.450  0.00  0.00     0.047 H 
ATOM     70  H20 GLN d   1     -16.353 -66.029 -43.118  0.00  0.00     0.047 H 
BRANCH  68  71
ATOM     71  CD  GLN d   1     -17.486 -65.128 -44.693  0.00  0.00     0.215 C 
ATOM     72  OE1 GLN d   1     -18.114 -65.491 -45.688  0.00  0.00    -0.274 OA
ATOM     73  NE2 GLN d   1     -17.818 -64.051 -43.991  0.00  0.00    -0.370 N 
ATOM     74  H21 GLN d   1     -18.606 -63.499 -44.264  0.00  0.00     0.159 HD
ATOM     75  H22 GLN d   1     -17.280 -63.791 -43.189  0.00  0.00     0.159 HD
ENDBRANCH  68  71
ENDBRANCH  65  68
ENDBRANCH  31  65
ENDBRANCH  28  31
ENDBRANCH  25  27
BRANCH  25  76
ATOM     76  CB  ASN d   1     -21.435 -68.623 -47.076  0.00  0.00     0.036 C 
ATOM     77  H25 ASN d   1     -21.923 -68.172 -47.953  0.00  0.00     0.051 H 
ATOM     78  H26 ASN d   1     -21.656 -68.020 -46.183  0.00  0.00     0.051 H 
BRANCH  76  79
ATOM     79  CG  ASN d   1     -21.995 -70.017 -46.872  0.00  0.00     0.217 C 
ATOM     80  OD1 ASN d   1     -21.333 -71.013 -47.164  0.00  0.00    -0.274 OA
ATOM     81  ND2 ASN d   1     -23.222 -70.095 -46.369  0.00  0.00    -0.370 N 
ATOM     82  H27 ASN d   1     -23.642 -70.989 -46.213  0.00  0.00     0.159 HD
ATOM     83  H28 ASN d   1     -23.725 -69.260 -46.146  0.00  0.00     0.159 HD
ENDBRANCH  76  79
ENDBRANCH  25  76
ENDBRANCH  22  25
ENDBRANCH  19  21
BRANCH  19  84
ATOM     84  CB  VAL d   1     -18.234 -68.107 -51.763  0.00  0.00    -0.033 C 
ATOM     85  H31 VAL d   1     -18.098 -67.489 -52.663  0.00  0.00     0.042 H 
BRANCH  84  86
ATOM     86  CG1 VAL d   1     -16.889 -68.264 -51.081  0.00  0.00    -0.071 C 
ATOM     87  H32 VAL d   1     -16.195 -68.787 -51.755  0.00  0.00     0.028 H 
ATOM     88  H33 VAL d   1     -17.012 -68.848 -50.157  0.00  0.00     0.028 H 
ATOM     89  H34 VAL d   1     -16.484 -67.271 -50.836  0.00  0.00     0.028 H 
ENDBRANCH  84  86
BRANCH  84  90
ATOM     90  CG2 VAL d   1     -18.780 -69.449 -52.196  0.00  0.00    -0.071 C 
ATOM     91  H35 VAL d   1     -19.754 -69.307 -52.687  0.00  0.00     0.028 H 
ATOM     92  H36 VAL d   1     -18.904 -70.096 -51.315  0.00  0.00     0.028 H 
ATOM     93  H37 VAL d   1     -18.079 -69.920 -52.901  0.00  0.00     0.028 H 
ENDBRANCH  84  90
ENDBRANCH  19  84
ENDBRANCH  16  19
ENDBRANCH  13  15
BRANCH  13  94
ATOM     94  CB  LEU d   1     -21.317 -64.086 -53.654  0.00  0.00    -0.035 C 
ATOM     95  H40 LEU d   1     -22.161 -63.836 -54.314  0.00  0.00     0.037 H 
ATOM     96  H41 LEU d   1     -20.399 -64.182 -54.253  0.00  0.00     0.037 H 
BRANCH  94  97
ATOM     97  CG  LEU d   1     -21.128 -62.949 -52.672  0.00  0.00    -0.059 C 
ATOM     98  H42 LEU d   1     -20.332 -63.213 -51.960  0.00  0.00     0.038 H 
BRANCH  97  99
ATOM     99  CD1 LEU d   1     -20.726 -61.749 -53.422  0.00  0.00    -0.073 C 
ATOM    100  H43 LEU d   1     -20.584 -60.911 -52.724  0.00  0.00     0.028 H 
ATOM    101  H44 LEU d   1     -21.510 -61.491 -54.149  0.00  0.00     0.028 H 
ATOM    102  H45 LEU d   1     -19.784 -61.947 -53.953  0.00  0.00     0.028 H 
ENDBRANCH  97  99
BRANCH  97 103
ATOM    103  CD2 LEU d   1     -22.391 -62.705 -51.912  0.00  0.00    -0.073 C 
ATOM    104  H46 LEU d   1     -22.669 -63.616 -51.361  0.00  0.00     0.028 H 
ATOM    105  H47 LEU d   1     -23.196 -62.441 -52.614  0.00  0.00     0.028 H 
ATOM    106  H48 LEU d   1     -22.238 -61.879 -51.202  0.00  0.00     0.028 H 
ENDBRANCH  97 103
ENDBRANCH  94  97
ENDBRANCH  13  94
ENDBRANCH  10  13
ENDBRANCH   7   9
BRANCH   7 107
ATOM    107  CB  SER d   1     -20.636 -69.460 -55.476  0.00  0.00     0.044 C 
ATOM    108  H51 SER d   1     -20.927 -70.187 -56.249  0.00  0.00     0.077 H 
ATOM    109  H52 SER d   1     -20.431 -69.989 -54.534  0.00  0.00     0.077 H 
BRANCH 107 110
ATOM    110  OG  SER d   1     -19.470 -68.785 -55.891  0.00  0.00    -0.398 OA
ATOM    111  H53 SER d   1     -18.770 -69.414 -56.021  0.00  0.00     0.209 HD
ENDBRANCH 107 110
ENDBRANCH   7 107
ENDBRANCH   4   7
ENDBRANCH   1   3
BRANCH   1 112
ATOM    112  C   ASN d   1     -25.562 -69.320 -53.148  0.00  0.00     0.241 C 
ATOM    113  O   ASN d   1     -26.636 -69.917 -53.047  0.00  0.00    -0.271 OA
ATOM    114  N   TYR d   1     -25.483 -68.026 -53.440  0.00  0.00    -0.346 N 
ATOM    115  H60 TYR d   1     -24.590 -67.609 -53.609  0.00  0.00     0.163 HD
BRANCH 114 116
ATOM    116  CA  TYR d   1     -26.690 -67.209 -53.516  0.00  0.00     0.093 C 
ATOM    117  H61 TYR d   1     -27.538 -67.876 -53.303  0.00  0.00     0.088 H 
BRANCH 116 118
ATOM    118  C   TYR d   1     -26.961 -66.571 -54.877  0.00  0.00     0.241 C 
ATOM    119  O   TYR d   1     -28.117 -66.381 -55.254  0.00  0.00    -0.271 OA
ATOM    120  N   PHE d   1     -25.906 -66.228 -55.609  0.00  0.00    -0.346 N 
ATOM    121  H69 PHE d   1     -24.988 -66.484 -55.308  0.00  0.00     0.163 HD
BRANCH 120 122
ATOM    122  CA  PHE d   1     -26.079 -65.485 -56.842  0.00  0.00     0.093 C 
ATOM    123  H70 PHE d   1     -27.149 -65.258 -56.959  0.00  0.00     0.088 H 
BRANCH 122 124
ATOM    124  C   PHE d   1     -25.620 -66.295 -58.031  0.00  0.00     0.243 C 
ATOM    125  O   PHE d   1     -24.617 -66.982 -57.953  0.00  0.00    -0.271 OA
ATOM    126  N   PRO d   1     -26.370 -66.225 -59.139  0.00  0.00    -0.337 N 
ATOM    127  CA  PRO d   1     -25.987 -66.908 -60.368  0.00  0.00     0.091 C 
ATOM    128  CD  PRO d   1     -27.674 -65.561 -59.274  0.00  0.00    -0.001 C 
ATOM    129  CB  PRO d   1     -27.252 -66.821 -61.207  0.00  0.00    -0.036 C 
ATOM    130  H78 PRO d   1     -25.723 -67.956 -60.165  0.00  0.00     0.087 H 
ATOM    131  CG  PRO d   1     -27.934 -65.642 -60.720  0.00  0.00    -0.048 C 
ATOM    132  H79 PRO d   1     -27.875 -67.716 -61.064  0.00  0.00     0.036 H 
ATOM    133  H80 PRO d   1     -27.004 -66.713 -62.273  0.00  0.00     0.036 H 
ATOM    134  H81 PRO d   1     -29.015 -65.727 -60.905  0.00  0.00     0.035 H 
ATOM    135  H82 PRO d   1     -27.545 -64.745 -61.224  0.00  0.00     0.035 H 
ATOM    136  H83 PRO d   1     -27.622 -64.515 -58.939  0.00  0.00     0.064 H 
ATOM    137  H84 PRO d   1     -28.450 -66.091 -58.702  0.00  0.00     0.064 H 
BRANCH 127 138
ATOM    138  C   PRO d   1     -24.806 -66.222 -61.064  0.00  0.00     0.241 C 
ATOM    139  O   PRO d   1     -24.596 -65.025 -60.909  0.00  0.00    -0.271 OA
ATOM    140  N   ARG d   1     -23.993 -66.995 -61.774  0.00  0.00    -0.346 N 
ATOM    141  H85 ARG d   1     -24.117 -67.987 -61.758  0.00  0.00     0.163 HD
BRANCH 140 142
ATOM    142  CA  ARG d   1     -22.924 -66.419 -62.574  0.00  0.00     0.089 C 
ATOM    143  H86 ARG d   1     -22.523 -65.558 -62.019  0.00  0.00     0.087 H 
BRANCH 142 144
ATOM    144  C   ARG d   1     -23.405 -65.928 -63.915  0.00  0.00     0.241 C 
ATOM    145  O   ARG d   1     -23.482 -66.710 -64.861  0.00  0.00    -0.271 OA
ATOM    146  N   VAL d   1     -23.785 -64.663 -64.009  0.00  0.00    -0.346 N 
ATOM    147  H98 VAL d   1     -23.874 -64.090 -63.194  0.00  0.00     0.163 HD
BRANCH 146 148
ATOM    148  CA  VAL d   1     -24.068 -64.133 -65.327  0.00  0.00     0.092 C 
ATOM    149  H99 VAL d   1     -24.410 -64.948 -65.982  0.00  0.00     0.088 H 
BRANCH 148 150
ATOM    150  C   VAL d   1     -22.761 -63.574 -65.831  0.00  0.00     0.241 C 
ATOM    151  O   VAL d   1     -22.361 -62.498 -65.400  0.00  0.00    -0.271 OA
ATOM    152  N   SER d   1     -22.079 -64.289 -66.720  0.00  0.00    -0.343 N 
ATOM    153 7H10 SER d   1     -22.373 -65.218 -66.947  0.00  0.00     0.163 HD
BRANCH 152 154
ATOM    154  CA  SER d   1     -20.901 -63.719 -67.365  0.00  0.00     0.116 C 
ATOM    155 8H10 SER d   1     -20.681 -62.741 -66.912  0.00  0.00     0.093 H 
BRANCH 154 156
ATOM    156  C   SER d   1     -21.286 -63.526 -68.807  0.00  0.00     0.198 C 
ATOM    157  O   SER d   1     -22.468 -63.639 -69.136  0.00  0.00    -0.646 OA
ATOM    158  OXT SER d   1     -20.413 -63.258 -69.634  0.00  0.00    -0.646 OA
ENDBRANCH 154 156
BRANCH 154 159
ATOM    159  CB  SER d   1     -19.653 -64.593 -67.225  0.00  0.00     0.045 C 
ATOM    160 9H10 SER d   1     -18.918 -64.295 -67.987  0.00  0.00     0.077 H 
ATOM    161 0H11 SER d   1     -19.933 -65.646 -67.377  0.00  0.00     0.077 H 
BRANCH 159 162
ATOM    162  OG  SER d   1     -19.074 -64.450 -65.945  0.00  0.00    -0.398 OA
ATOM    163 1H11 SER d   1     -18.303 -65.002 -65.884  0.00  0.00     0.209 HD
ENDBRANCH 159 162
ENDBRANCH 154 159
ENDBRANCH 152 154
ENDBRANCH 148 150
BRANCH 148 164
ATOM    164  CB  VAL d   1     -25.138 -63.020 -65.324  0.00  0.00    -0.033 C 
ATOM    165 0H10 VAL d   1     -24.762 -62.175 -64.729  0.00  0.00     0.042 H 
BRANCH 164 166
ATOM    166  CG1 VAL d   1     -25.393 -62.546 -66.737  0.00  0.00    -0.071 C 
ATOM    167 1H10 VAL d   1     -26.156 -61.754 -66.726  0.00  0.00     0.028 H 
ATOM    168 2H10 VAL d   1     -25.748 -63.389 -67.348  0.00  0.00     0.028 H 
ATOM    169 3H10 VAL d   1     -24.460 -62.151 -67.165  0.00  0.00     0.028 H 
ENDBRANCH 164 166
BRANCH 164 170
ATOM    170  CG2 VAL d   1     -26.438 -63.510 -64.702  0.00  0.00    -0.071 C 
ATOM    171 4H10 VAL d   1     -26.246 -63.853 -63.675  0.00  0.00     0.028 H 
ATOM    172 5H10 VAL d   1     -26.839 -64.343 -65.298  0.00  0.00     0.028 H 
ATOM    173 6H10 VAL d   1     -27.168 -62.688 -64.683  0.00  0.00     0.028 H 
ENDBRANCH 164 170
ENDBRANCH 148 164
ENDBRANCH 146 148
ENDBRANCH 142 144
BRANCH 142 174
ATOM    174  CB  ARG d   1     -21.790 -67.415 -62.797  0.00  0.00    -0.036 C 
ATOM    175  H87 ARG d   1     -22.050 -68.072 -63.640  0.00  0.00     0.036 H 
ATOM    176  H88 ARG d   1     -21.659 -68.019 -61.887  0.00  0.00     0.036 H 
BRANCH 174 177
ATOM    177  CG  ARG d   1     -20.485 -66.702 -63.110  0.00  0.00    -0.048 C 
ATOM    178  H89 ARG d   1     -20.356 -65.879 -62.392  0.00  0.00     0.035 H 
ATOM    179  H90 ARG d   1     -20.547 -66.293 -64.129  0.00  0.00     0.035 H 
BRANCH 177 180
ATOM    180  CD  ARG d   1     -19.282 -67.598 -63.028  0.00  0.00     0.009 C 
ATOM    181  H91 ARG d   1     -19.466 -68.496 -63.636  0.00  0.00     0.064 H 
ATOM    182  H92 ARG d   1     -19.128 -67.891 -61.979  0.00  0.00     0.064 H 
BRANCH 180 183
ATOM    183  NE  ARG d   1     -18.075 -66.939 -63.515  0.00  0.00    -0.227 N 
ATOM    184  CZ  ARG d   1     -17.802 -66.744 -64.799  0.00  0.00     0.665 C 
ATOM    185  NH1 ARG d   1     -18.663 -67.150 -65.723  0.00  0.00    -0.235 N 
ATOM    186  NH2 ARG d   1     -16.677 -66.136 -65.161  0.00  0.00    -0.235 N 
ATOM    187  H94 ARG d   1     -18.456 -67.001 -66.721  0.00  0.00     0.174 HD
ATOM    188  H95 ARG d   1     -19.539 -67.614 -65.442  0.00  0.00     0.174 HD
ATOM    189  H96 ARG d   1     -16.008 -65.821 -64.444  0.00  0.00     0.174 HD
ATOM    190  H97 ARG d   1     -16.474 -65.980 -66.159  0.00  0.00     0.174 HD
ATOM    191  H93 ARG d   1     -17.393 -66.605 -62.820  0.00  0.00     0.177 HD
ENDBRANCH 180 183
ENDBRANCH 177 180
ENDBRANCH 174 177
ENDBRANCH 142 174
ENDBRANCH 140 142
ENDBRANCH 127 138
ENDBRANCH 122 124
BRANCH 122 192
ATOM    192  CB  PHE d   1     -25.300 -64.170 -56.819  0.00  0.00    -0.014 C 
ATOM    193  H71 PHE d   1     -25.352 -63.722 -57.822  0.00  0.00     0.043 H 
ATOM    194  H72 PHE d   1     -24.252 -64.396 -56.572  0.00  0.00     0.043 H 
BRANCH 192 195
ATOM    195  CG  PHE d   1     -25.810 -63.157 -55.824  0.00  0.00    -0.056 A 
ATOM    196  CD1 PHE d   1     -27.128 -63.168 -55.407  0.00  0.00    -0.077 A 
ATOM    197  CE1 PHE d   1     -27.586 -62.233 -54.514  0.00  0.00    -0.082 A 
ATOM    198  H73 PHE d   1     -27.806 -63.923 -55.789  0.00  0.00     0.084 H 
ATOM    199  CZ  PHE d   1     -26.733 -61.261 -54.051  0.00  0.00    -0.083 A 
ATOM    200  H75 PHE d   1     -28.615 -62.261 -54.175  0.00  0.00     0.083 H 
ATOM    201  CE2 PHE d   1     -25.431 -61.225 -54.470  0.00  0.00    -0.082 A 
ATOM    202  H77 PHE d   1     -27.094 -60.518 -53.349  0.00  0.00     0.083 H 
ATOM    203  CD2 PHE d   1     -24.974 -62.160 -55.348  0.00  0.00    -0.077 A 
ATOM    204  H76 PHE d   1     -24.764 -60.453 -54.103  0.00  0.00     0.083 H 
ATOM    205  H74 PHE d   1     -23.942 -62.124 -55.679  0.00  0.00     0.084 H 
ENDBRANCH 192 195
ENDBRANCH 122 192
ENDBRANCH 120 122
ENDBRANCH 116 118
BRANCH 116 206
ATOM    206  CB  TYR d   1     -26.662 -66.124 -52.434  0.00  0.00    -0.014 C 
ATOM    207  H62 TYR d   1     -27.677 -65.713 -52.329  0.00  0.00     0.043 H 
ATOM    208  H63 TYR d   1     -25.976 -65.328 -52.759  0.00  0.00     0.043 H 
BRANCH 206 209
ATOM    209  CG  TYR d   1     -26.207 -66.621 -51.081  0.00  0.00    -0.056 A 
ATOM    210  CD1 TYR d   1     -27.126 -67.031 -50.125  0.00  0.00    -0.074 A 
ATOM    211  CE1 TYR d   1     -26.715 -67.486 -48.886  0.00  0.00    -0.051 A 
ATOM    212  H64 TYR d   1     -28.185 -66.994 -50.354  0.00  0.00     0.084 H 
ATOM    213  CZ  TYR d   1     -25.369 -67.534 -48.591  0.00  0.00     0.065 A 
ATOM    214  H66 TYR d   1     -27.446 -67.803 -48.151  0.00  0.00     0.087 H 
ATOM    215  CE2 TYR d   1     -24.436 -67.131 -49.523  0.00  0.00    -0.051 A 
ATOM    216  CD2 TYR d   1     -24.857 -66.678 -50.759  0.00  0.00    -0.074 A 
ATOM    217  H67 TYR d   1     -23.379 -67.169 -49.288  0.00  0.00     0.087 H 
ATOM    218  H65 TYR d   1     -24.121 -66.362 -51.489  0.00  0.00     0.084 H 
BRANCH 213 219
ATOM    219  OH  TYR d   1     -24.954 -67.985 -47.359  0.00  0.00    -0.361 OA
ATOM    220  H68 TYR d   1     -25.712 -68.222 -46.838  0.00  0.00     0.217 HD
ENDBRANCH 213 219
ENDBRANCH 206 209
ENDBRANCH 116 206
ENDBRANCH 114 116
ENDBRANCH   1 112
BRANCH   1 221
ATOM    221  CB  ASN d   1     -24.151 -70.280 -51.407  0.00  0.00     0.036 C 
ATOM    222  H56 ASN d   1     -25.124 -70.627 -51.029  0.00  0.00     0.051 H 
ATOM    223  H57 ASN d   1     -23.896 -69.319 -50.936  0.00  0.00     0.051 H 
BRANCH 221 224
ATOM    224  CG  ASN d   1     -23.114 -71.281 -51.027  0.00  0.00     0.217 C 
ATOM    225  OD1 ASN d   1     -21.917 -71.031 -51.094  0.00  0.00    -0.274 OA
ATOM    226  ND2 ASN d   1     -23.578 -72.448 -50.609  0.00  0.00    -0.370 N 
ATOM    227  H58 ASN d   1     -22.942 -73.170 -50.337  0.00  0.00     0.159 HD
ATOM    228  H59 ASN d   1     -24.564 -72.607 -50.566  0.00  0.00     0.159 HD
ENDBRANCH 221 224
ENDBRANCH   1 221
TORSDOF 61
