REMARK WARNING: 32 MAX_TORS EXCEEDED!!!
REMARK  41 active torsions:
REMARK  status: ('A' for Active; 'I' for Inactive)
REMARK    1  A    between atoms: N_1  and  CA_2 
REMARK    2  A    between atoms: CA_2  and  C_3 
REMARK       I    between atoms: C_3  and  N_5 
REMARK    3  A    between atoms: N_5  and  CA_6 
REMARK    4  A    between atoms: CA_6  and  C_7 
REMARK    5  A    between atoms: CA_6  and  CB_9 
REMARK       I    between atoms: C_7  and  N_12 
REMARK    6  A    between atoms: CB_9  and  CG1_10 
REMARK    7  A    between atoms: CB_9  and  CG2_11 
REMARK    8  A    between atoms: CA_13  and  C_14 
REMARK       I    between atoms: C_14  and  N_19 
REMARK    9  A    between atoms: CA_20  and  C_21 
REMARK       I    between atoms: C_21  and  N_26 
REMARK   10  A    between atoms: N_26  and  CA_27 
REMARK   11  A    between atoms: CA_27  and  C_28 
REMARK   12  A    between atoms: CA_27  and  CB_30 
REMARK       I    between atoms: C_28  and  N_32 
REMARK   13  A    between atoms: CB_30  and  OG_31 
REMARK   14  A    between atoms: N_32  and  CA_33 
REMARK   15  A    between atoms: CA_33  and  C_34 
REMARK       I    between atoms: C_34  and  N_36 
REMARK   16  A    between atoms: CA_37  and  C_38 
REMARK       I    between atoms: C_38  and  N_44 
REMARK   17  A    between atoms: CG_41  and  OD1_43 
REMARK   18  A    between atoms: N_44  and  CA_45 
REMARK   19  A    between atoms: CA_45  and  C_46 
REMARK   20  A    between atoms: CA_45  and  CB_48 
REMARK       I    between atoms: C_46  and  N_50 
REMARK   21  A    between atoms: CB_48  and  OG_49 
REMARK   22  A    between atoms: N_50  and  CA_51 
REMARK   23  A    between atoms: CA_51  and  C_52 
REMARK   24  A    between atoms: CA_51  and  CB_54 
REMARK       I    between atoms: C_52  and  N_58 
REMARK   25  A    between atoms: CB_54  and  CG_55 
REMARK   26  A    between atoms: CG_55  and  SD_56 
REMARK   27  A    between atoms: SD_56  and  CE_57 
REMARK   28  A    between atoms: N_58  and  CA_59 
REMARK   29  A    between atoms: CA_59  and  C_60 
REMARK   30  A    between atoms: CA_59  and  CB_62 
REMARK       I    between atoms: C_60  and  N_69 
REMARK   31  A    between atoms: CB_62  and  CG_63 
REMARK   32  A    between atoms: CG_63  and  CD_64 
REMARK   33  A    between atoms: CD_64  and  NE_65 
REMARK       I    between atoms: NE_65  and  CZ_66 
REMARK       I    between atoms: CZ_66  and  NH1_67 
REMARK   34  A    between atoms: N_69  and  CA_70 
REMARK   35  A    between atoms: CA_70  and  C_71 
REMARK   36  A    between atoms: CA_70  and  CB_73 
REMARK       I    between atoms: C_71  and  N_79 
REMARK   37  A    between atoms: CB_73  and  CG_74 
REMARK   38  A    between atoms: N_79  and  CA_80 
REMARK   39  A    between atoms: CA_80  and  C_81 
REMARK   40  A    between atoms: CA_80  and  CB_83 
REMARK   41  A    between atoms: CB_83  and  CG_84 
REMARK       I    between atoms: CG_84  and  ND2_86 
ROOT
ATOM      1  N   SER d   1       6.224  53.046   6.153  0.00  0.00    -0.344 N 
ATOM      2  H44 SER d   1       7.164  52.809   6.400  0.00  0.00     0.163 HD
ATOM      3  C   HYP d   1       5.910  54.342   6.034  0.00  0.00     0.241 C 
ATOM      4  O   HYP d   1       4.809  54.768   5.708  0.00  0.00    -0.271 OA
ENDROOT
BRANCH   3   5
ATOM      5  CA  HYP d   1       6.953  55.322   6.398  0.00  0.00     0.094 C 
ATOM      6  N   HYP d   1       7.018  56.669   5.849  0.00  0.00    -0.335 N 
ATOM      7  C   GLY d   1       6.968  56.985   4.542  0.00  0.00     0.238 C 
ATOM      8  CD  HYP d   1       7.361  57.560   6.947  0.00  0.00     0.022 C 
ATOM      9  O   GLY d   1       7.028  56.137   3.641  0.00  0.00    -0.272 OA
ATOM     10  CG  HYP d   1       7.961  56.679   8.050  0.00  0.00     0.053 C 
ATOM     11  H41 HYP d   1       6.460  58.072   7.317  0.00  0.00     0.068 H 
ATOM     12  H42 HYP d   1       8.097  58.307   6.615  0.00  0.00     0.068 H 
ATOM     13  CB  HYP d   1       7.543  55.241   7.779  0.00  0.00    -0.012 C 
ATOM     14  H40 HYP d   1       7.608  57.012   9.037  0.00  0.00     0.085 H 
ATOM     15  H38 HYP d   1       8.411  54.565   7.801  0.00  0.00     0.040 H 
ATOM     16  H39 HYP d   1       6.795  54.901   8.510  0.00  0.00     0.040 H 
ATOM     17  H37 HYP d   1       7.776  54.873   5.822  0.00  0.00     0.088 H 
BRANCH   7  18
ATOM     18  CA  GLY d   1       6.880  58.468   4.195  0.00  0.00     0.069 C 
ATOM     19  H35 GLY d   1       6.001  58.897   4.699  0.00  0.00     0.078 H 
ATOM     20  H36 GLY d   1       7.790  58.969   4.556  0.00  0.00     0.078 H 
BRANCH  18  21
ATOM     21  N   GLY d   1       6.755  58.701   2.755  0.00  0.00    -0.350 N 
ATOM     22  C   SER d   1       6.803  59.919   2.218  0.00  0.00     0.242 C 
ATOM     23  O   SER d   1       6.883  60.942   2.888  0.00  0.00    -0.271 OA
ATOM     24  H34 GLY d   1       6.629  57.914   2.151  0.00  0.00     0.163 HD
BRANCH  22  25
ATOM     25  CA  SER d   1       6.706  59.996   0.696  0.00  0.00     0.109 C 
ATOM     26  H30 SER d   1       6.949  59.011   0.270  0.00  0.00     0.090 H 
BRANCH  25  27
ATOM     27  N   SER d   1       5.329  60.342   0.342  0.00  0.00    -0.344 N 
ATOM     28  C   PRO d   1       4.347  59.435   0.321  0.00  0.00     0.241 C 
ATOM     29  O   PRO d   1       4.532  58.213   0.411  0.00  0.00    -0.271 OA
ATOM     30  H29 SER d   1       5.115  61.290   0.107  0.00  0.00     0.163 HD
BRANCH  28  31
ATOM     31  CA  PRO d   1       2.923  59.979   0.146  0.00  0.00     0.091 C 
ATOM     32  N   PRO d   1       1.977  58.966  -0.347  0.00  0.00    -0.337 N 
ATOM     33  C   PRO d   1       2.027  58.584  -1.640  0.00  0.00     0.243 C 
ATOM     34  CD  PRO d   1       1.160  58.407   0.752  0.00  0.00    -0.001 C 
ATOM     35  O   PRO d   1       2.870  59.016  -2.431  0.00  0.00    -0.271 OA
ATOM     36  CG  PRO d   1       1.669  59.114   1.987  0.00  0.00    -0.048 C 
ATOM     37  H27 PRO d   1       1.309  57.320   0.835  0.00  0.00     0.064 H 
ATOM     38  H28 PRO d   1       0.093  58.620   0.592  0.00  0.00     0.064 H 
ATOM     39  CB  PRO d   1       2.337  60.361   1.515  0.00  0.00    -0.036 C 
ATOM     40  H25 PRO d   1       0.831  59.361   2.656  0.00  0.00     0.035 H 
ATOM     41  H26 PRO d   1       2.389  58.476   2.521  0.00  0.00     0.035 H 
ATOM     42  H23 PRO d   1       1.609  61.179   1.413  0.00  0.00     0.036 H 
ATOM     43  H24 PRO d   1       3.134  60.664   2.210  0.00  0.00     0.036 H 
ATOM     44  H22 PRO d   1       2.948  60.845  -0.531  0.00  0.00     0.087 H 
BRANCH  33  45
ATOM     45  CA  PRO d   1       0.985  57.562  -2.136  0.00  0.00     0.092 C 
ATOM     46  N   PRO d   1       0.692  57.737  -3.580  0.00  0.00    -0.337 N 
ATOM     47  C   VAL d   1       0.009  58.841  -3.973  0.00  0.00     0.243 C 
ATOM     48  CD  PRO d   1       1.149  56.579  -4.379  0.00  0.00    -0.001 C 
ATOM     49  O   VAL d   1      -0.486  59.629  -3.164  0.00  0.00    -0.271 OA
ATOM     50  CG  PRO d   1       1.236  55.474  -3.363  0.00  0.00    -0.048 C 
ATOM     51  H20 PRO d   1       2.131  56.776  -4.833  0.00  0.00     0.064 H 
ATOM     52  H21 PRO d   1       0.423  56.333  -5.168  0.00  0.00     0.064 H 
ATOM     53  CB  PRO d   1       1.536  56.125  -2.043  0.00  0.00    -0.036 C 
ATOM     54  H18 PRO d   1       0.281  54.932  -3.310  0.00  0.00     0.035 H 
ATOM     55  H19 PRO d   1       2.041  54.774  -3.632  0.00  0.00     0.035 H 
ATOM     56  H16 PRO d   1       1.040  55.579  -1.227  0.00  0.00     0.036 H 
ATOM     57  H17 PRO d   1       2.621  56.144  -1.865  0.00  0.00     0.036 H 
ATOM     58  H15 PRO d   1       0.066  57.665  -1.540  0.00  0.00     0.087 H 
BRANCH  47  59
ATOM     59  CA  VAL d   1      -0.144  59.107  -5.484  0.00  0.00     0.092 C 
ATOM     60  H7  VAL d   1       0.143  58.204  -6.043  0.00  0.00     0.088 H 
BRANCH  59  61
ATOM     61  N   VAL d   1      -1.565  59.417  -5.795  0.00  0.00    -0.346 N 
ATOM     62  C   LEU d   1      -2.240  58.831  -6.793  0.00  0.00     0.243 C 
ATOM     63  O   LEU d   1      -1.757  57.962  -7.537  0.00  0.00    -0.272 OA
ATOM     64  H6  VAL d   1      -2.039  60.095  -5.233  0.00  0.00     0.163 HD
BRANCH  62  65
ATOM     65  CA  LEU d   1      -3.679  59.300  -7.014  0.00  0.00     0.152 C 
ATOM     66  H4  LEU d   1      -3.666  60.347  -7.351  0.00  0.00     0.090 H 
ATOM     67  H5  LEU d   1      -4.145  58.672  -7.787  0.00  0.00     0.090 H 
BRANCH  65  68
ATOM     68  N   LEU d   1      -4.482  59.204  -5.762  0.00  0.00    -0.071 N 
ATOM     69  H1  LEU d   1      -5.423  59.520  -5.941  0.00  0.00     0.274 HD
ATOM     70  H2  LEU d   1      -4.064  59.782  -5.050  0.00  0.00     0.274 HD
ATOM     71  H3  LEU d   1      -4.503  58.246  -5.449  0.00  0.00     0.274 HD
ENDBRANCH  65  68
ENDBRANCH  62  65
ENDBRANCH  59  61
BRANCH  59  72
ATOM     72  CB  VAL d   1       0.829  60.263  -5.873  0.00  0.00    -0.033 C 
ATOM     73  H8  VAL d   1       0.784  61.027  -5.083  0.00  0.00     0.042 H 
BRANCH  72  74
ATOM     74  CG1 VAL d   1       2.246  59.742  -5.951  0.00  0.00    -0.071 C 
ATOM     75  H9  VAL d   1       2.924  60.563  -6.226  0.00  0.00     0.028 H 
ATOM     76  H10 VAL d   1       2.304  58.949  -6.711  0.00  0.00     0.028 H 
ATOM     77  H11 VAL d   1       2.541  59.334  -4.973  0.00  0.00     0.028 H 
ENDBRANCH  72  74
BRANCH  72  78
ATOM     78  CG2 VAL d   1       0.432  60.922  -7.189  0.00  0.00    -0.071 C 
ATOM     79  H12 VAL d   1      -0.600  61.295  -7.115  0.00  0.00     0.028 H 
ATOM     80  H13 VAL d   1       0.498  60.185  -8.003  0.00  0.00     0.028 H 
ATOM     81  H14 VAL d   1       1.111  61.761  -7.398  0.00  0.00     0.028 H 
ENDBRANCH  72  78
ENDBRANCH  59  72
ENDBRANCH  47  59
ENDBRANCH  33  45
ENDBRANCH  28  31
ENDBRANCH  25  27
BRANCH  25  82
ATOM     82  CB  SER d   1       7.696  61.027   0.137  0.00  0.00     0.044 C 
ATOM     83  H31 SER d   1       7.467  62.014   0.565  0.00  0.00     0.077 H 
ATOM     84  H32 SER d   1       7.592  61.069  -0.957  0.00  0.00     0.077 H 
BRANCH  82  85
ATOM     85  OG  SER d   1       9.025  60.681   0.461  0.00  0.00    -0.398 OA
ATOM     86  H33 SER d   1       9.229  59.830   0.090  0.00  0.00     0.209 HD
ENDBRANCH  82  85
ENDBRANCH  25  82
ENDBRANCH  22  25
ENDBRANCH  18  21
ENDBRANCH   7  18
BRANCH  10  87
ATOM     87  OD1 HYP d   1       9.388  56.712   7.993  0.00  0.00    -0.394 OA
ATOM     88  H43 HYP d   1       9.678  56.390   7.147  0.00  0.00     0.210 HD
ENDBRANCH  10  87
ENDBRANCH   3   5
BRANCH   1  89
ATOM     89  CA  SER d   1       5.260  51.946   5.940  0.00  0.00     0.109 C 
ATOM     90  H45 SER d   1       4.607  52.202   5.092  0.00  0.00     0.090 H 
BRANCH  89  91
ATOM     91  C   SER d   1       4.396  51.735   7.185  0.00  0.00     0.243 C 
ATOM     92  O   SER d   1       4.946  51.631   8.291  0.00  0.00    -0.271 OA
ATOM     93  N   MET d   1       3.064  51.682   7.021  0.00  0.00    -0.346 N 
ATOM     94  H49 MET d   1       2.674  51.889   6.124  0.00  0.00     0.163 HD
BRANCH  93  95
ATOM     95  CA  MET d   1       2.156  51.322   8.142  0.00  0.00     0.090 C 
ATOM     96  H50 MET d   1       2.751  51.381   9.065  0.00  0.00     0.087 H 
BRANCH  95  97
ATOM     97  C   MET d   1       1.677  49.869   8.010  0.00  0.00     0.241 C 
ATOM     98  O   MET d   1       0.501  49.563   8.222  0.00  0.00    -0.271 OA
ATOM     99  N   ARG d   1       2.603  48.978   7.641  0.00  0.00    -0.346 N 
ATOM    100  H58 ARG d   1       3.474  49.312   7.282  0.00  0.00     0.163 HD
BRANCH  99 101
ATOM    101  CA  ARG d   1       2.393  47.533   7.741  0.00  0.00     0.089 C 
ATOM    102  H59 ARG d   1       1.327  47.313   7.580  0.00  0.00     0.087 H 
BRANCH 101 103
ATOM    103  C   ARG d   1       2.757  47.144   9.185  0.00  0.00     0.241 C 
ATOM    104  O   ARG d   1       3.818  47.480   9.674  0.00  0.00    -0.271 OA
ATOM    105  N   HIS d   1       1.826  46.495   9.873  0.00  0.00    -0.346 N 
ATOM    106  H71 HIS d   1       0.950  46.315   9.425  0.00  0.00     0.163 HD
BRANCH 105 107
ATOM    107  CA  HIS d   1       2.007  46.025  11.256  0.00  0.00     0.094 C 
ATOM    108  H72 HIS d   1       3.072  45.813  11.431  0.00  0.00     0.088 H 
BRANCH 107 109
ATOM    109  C   HIS d   1       1.189  44.725  11.449  0.00  0.00     0.241 C 
ATOM    110  O   HIS d   1       0.331  44.394  10.621  0.00  0.00    -0.271 OA
ATOM    111  N   ASN d   1       1.447  44.013  12.545  0.00  0.00    -0.344 N 
ATOM    112  H78 ASN d   1       2.227  44.269  13.116  0.00  0.00     0.163 HD
BRANCH 111 113
ATOM    113  CA  ASN d   1       0.618  42.857  12.945  0.00  0.00     0.104 C 
ATOM    114  H79 ASN d   1       0.165  42.430  12.038  0.00  0.00     0.090 H 
BRANCH 113 115
ATOM    115  C   ASN d   1      -0.516  43.305  13.894  0.00  0.00     0.197 C 
ATOM    116  O   ASN d   1      -1.376  42.511  14.272  0.00  0.00    -0.646 OA
ATOM    117  OXT ASN d   1      -0.620  44.457  14.335  0.00  0.00    -0.646 OA
ENDBRANCH 113 115
BRANCH 113 118
ATOM    118  CB  ASN d   1       1.464  41.763  13.623  0.00  0.00     0.037 C 
ATOM    119  H80 ASN d   1       0.854  40.852  13.710  0.00  0.00     0.051 H 
ATOM    120  H81 ASN d   1       1.748  42.111  14.627  0.00  0.00     0.051 H 
BRANCH 118 121
ATOM    121  CG  ASN d   1       2.727  41.428  12.853  0.00  0.00     0.217 C 
ATOM    122  OD1 ASN d   1       3.743  42.115  12.985  0.00  0.00    -0.274 OA
ATOM    123  ND2 ASN d   1       2.677  40.358  12.060  0.00  0.00    -0.370 N 
ATOM    124  H82 ASN d   1       3.481  40.091  11.529  0.00  0.00     0.159 HD
ATOM    125  H83 ASN d   1       1.835  39.822  11.996  0.00  0.00     0.159 HD
ENDBRANCH 118 121
ENDBRANCH 113 118
ENDBRANCH 111 113
ENDBRANCH 107 109
BRANCH 107 126
ATOM    126  CB  HIS d   1       1.540  47.103  12.253  0.00  0.00     0.004 C 
ATOM    127  H73 HIS d   1       2.159  48.001  12.109  0.00  0.00     0.046 H 
ATOM    128  H74 HIS d   1       1.684  46.718  13.274  0.00  0.00     0.046 H 
BRANCH 126 129
ATOM    129  CG  HIS d   1       0.097  47.489  12.090  0.00  0.00     0.053 A 
ATOM    130  ND1 HIS d   1      -0.923  46.886  12.795  0.00  0.00    -0.247 NA
ATOM    131  CE1 HIS d   1      -2.081  47.410  12.432  0.00  0.00     0.064 A 
ATOM    132  NE2 HIS d   1      -1.850  48.325  11.509  0.00  0.00    -0.359 N 
ATOM    133  H76 HIS d   1      -3.058  47.134  12.827  0.00  0.00     0.143 H 
ATOM    134  CD2 HIS d   1      -0.499  48.389  11.274  0.00  0.00     0.002 A 
ATOM    135  H77 HIS d   1      -2.567  48.898  11.041  0.00  0.00     0.166 HD
ATOM    136  H75 HIS d   1       0.001  49.044  10.562  0.00  0.00     0.114 H 
ENDBRANCH 126 129
ENDBRANCH 107 126
ENDBRANCH 105 107
ENDBRANCH 101 103
BRANCH 101 137
ATOM    137  CB  ARG d   1       3.195  46.773   6.652  0.00  0.00    -0.036 C 
ATOM    138  H60 ARG d   1       4.147  47.306   6.513  0.00  0.00     0.036 H 
ATOM    139  H61 ARG d   1       2.610  46.819   5.722  0.00  0.00     0.036 H 
BRANCH 137 140
ATOM    140  CG  ARG d   1       3.531  45.296   6.909  0.00  0.00    -0.048 C 
ATOM    141  H62 ARG d   1       4.230  45.255   7.757  0.00  0.00     0.035 H 
ATOM    142  H63 ARG d   1       4.024  44.903   6.008  0.00  0.00     0.035 H 
BRANCH 140 143
ATOM    143  CD  ARG d   1       2.348  44.373   7.234  0.00  0.00     0.009 C 
ATOM    144  H64 ARG d   1       1.790  44.168   6.309  0.00  0.00     0.064 H 
ATOM    145  H65 ARG d   1       1.689  44.877   7.956  0.00  0.00     0.064 H 
BRANCH 143 146
ATOM    146  NE  ARG d   1       2.804  43.095   7.812  0.00  0.00    -0.227 N 
ATOM    147  CZ  ARG d   1       2.081  42.260   8.575  0.00  0.00     0.665 C 
ATOM    148  NH1 ARG d   1       0.822  42.513   8.904  0.00  0.00    -0.235 N 
ATOM    149  NH2 ARG d   1       2.636  41.145   9.029  0.00  0.00    -0.235 N 
ATOM    150  H67 ARG d   1       0.300  41.848   9.492  0.00  0.00     0.174 HD
ATOM    151  H68 ARG d   1       0.366  43.375   8.572  0.00  0.00     0.174 HD
ATOM    152  H69 ARG d   1       3.613  40.922   8.790  0.00  0.00     0.174 HD
ATOM    153  H70 ARG d   1       2.091  40.502   9.621  0.00  0.00     0.174 HD
ATOM    154  H66 ARG d   1       3.774  42.815   7.610  0.00  0.00     0.177 HD
ENDBRANCH 143 146
ENDBRANCH 140 143
ENDBRANCH 137 140
ENDBRANCH 101 137
ENDBRANCH  99 101
ENDBRANCH  95  97
BRANCH  95 155
ATOM    155  CB  MET d   1       0.982  52.312   8.312  0.00  0.00    -0.030 C 
ATOM    156  H51 MET d   1       0.276  52.148   7.485  0.00  0.00     0.037 H 
ATOM    157  H52 MET d   1       1.386  53.333   8.252  0.00  0.00     0.037 H 
BRANCH 155 158
ATOM    158  CG  MET d   1       0.197  52.183   9.647  0.00  0.00    -0.021 C 
ATOM    159  H53 MET d   1      -0.426  51.281   9.559  0.00  0.00     0.049 H 
ATOM    160  H54 MET d   1      -0.449  53.070   9.719  0.00  0.00     0.049 H 
BRANCH 158 161
ATOM    161  SD  MET d   1       1.085  52.052  11.244  0.00  0.00    -0.173 SA
BRANCH 161 162
ATOM    162  CE  MET d   1       1.592  53.763  11.361  0.00  0.00    -0.035 C 
ATOM    163  H55 MET d   1       2.165  53.913  12.288  0.00  0.00     0.041 H 
ATOM    164  H56 MET d   1       0.702  54.409  11.372  0.00  0.00     0.041 H 
ATOM    165  H57 MET d   1       2.221  54.019  10.495  0.00  0.00     0.041 H 
ENDBRANCH 161 162
ENDBRANCH 158 161
ENDBRANCH 155 158
ENDBRANCH  95 155
ENDBRANCH  93  95
ENDBRANCH  89  91
BRANCH  89 166
ATOM    166  CB  SER d   1       6.021  50.658   5.618  0.00  0.00     0.044 C 
ATOM    167  H46 SER d   1       6.580  50.338   6.510  0.00  0.00     0.077 H 
ATOM    168  H47 SER d   1       6.724  50.852   4.794  0.00  0.00     0.077 H 
BRANCH 166 169
ATOM    169  OG  SER d   1       5.133  49.627   5.235  0.00  0.00    -0.398 OA
ATOM    170  H48 SER d   1       5.628  48.840   5.041  0.00  0.00     0.209 HD
ENDBRANCH 166 169
ENDBRANCH  89 166
ENDBRANCH   1  89
TORSDOF 41
