REMARK  32 active torsions:
REMARK  status: ('A' for Active; 'I' for Inactive)
REMARK    1  A    between atoms: C1_1  and  O2_3 
REMARK       I    between atoms: C1_1  and  N_11 
REMARK    2  A    between atoms: O2_3  and  C2_4 
REMARK    3  A    between atoms: C2_4  and  C3_5 
REMARK    4  A    between atoms: N_11  and  CA_12 
REMARK    5  A    between atoms: CA_12  and  C_13 
REMARK    6  A    between atoms: CA_12  and  CB_15 
REMARK       I    between atoms: C_13  and  N_16 
REMARK    7  A    between atoms: N_16  and  CA_17 
REMARK    8  A    between atoms: CA_17  and  C_18 
REMARK       I    between atoms: C_18  and  N_20 
REMARK    9  A    between atoms: N_20  and  CA_21 
REMARK   10  A    between atoms: CA_21  and  C_22 
REMARK   11  A    between atoms: CA_21  and  CB_24 
REMARK       I    between atoms: C_22  and  N_29 
REMARK   12  A    between atoms: CB_24  and  CG_25 
REMARK   13  A    between atoms: CG_25  and  CD_26 
REMARK   14  A    between atoms: N_29  and  CA_30 
REMARK   15  A    between atoms: CA_30  and  C_31 
REMARK   16  A    between atoms: CA_30  and  CB_33 
REMARK       I    between atoms: C_31  and  N_34 
REMARK   17  A    between atoms: N_34  and  CA_35 
REMARK   18  A    between atoms: CA_35  and  C_36 
REMARK   19  A    between atoms: CA_35  and  CB_38 
REMARK       I    between atoms: C_36  and  N_42 
REMARK   20  A    between atoms: CB_38  and  CG_39 
REMARK   21  A    between atoms: CG_39  and  CD1_40 
REMARK   22  A    between atoms: CG_39  and  CD2_41 
REMARK   23  A    between atoms: N_42  and  CA_43 
REMARK   24  A    between atoms: CA_43  and  C_44 
REMARK   25  A    between atoms: CA_43  and  CB_46 
REMARK       I    between atoms: C_44  and  N_54 
REMARK   26  A    between atoms: CB_46  and  CG_47 
REMARK   27  A    between atoms: CZ_52  and  OH_53 
REMARK   28  A    between atoms: N_54  and  CA_55 
REMARK   29  A    between atoms: CA_55  and  C_56 
REMARK   30  A    between atoms: CA_55  and  CB_58 
REMARK       I    between atoms: C_56  and  N_63 
REMARK   31  A    between atoms: CB_58  and  CG_59 
REMARK   32  A    between atoms: CG_59  and  CD_60 
ROOT
ATOM      1  C   PHQ d   1       3.819  20.309 103.312  0.00  0.00     0.240 C 
ATOM      2  O   PHQ d   1       3.802  19.760 104.410  0.00  0.00    -0.271 OA
ATOM      3  N   PHQ d   1       3.530  21.601 103.119  0.00  0.00    -0.346 N 
ATOM      4  H27 PHQ d   1       3.791  22.032 102.255  0.00  0.00     0.163 HD
ENDROOT
BRANCH   1   5
ATOM      5  CA  PHQ d   1       4.155  19.530 102.063  0.00  0.00     0.086 C 
ATOM      6  H23 PHQ d   1       4.722  20.197 101.397  0.00  0.00     0.086 H 
BRANCH   5   7
ATOM      7  N   PHQ d   1       4.987  18.361 102.331  0.00  0.00    -0.346 N 
ATOM      8  C   PHQ d   1       5.767  17.859 101.378  0.00  0.00     0.241 C 
ATOM      9  O   PHQ d   1       5.799  18.308 100.225  0.00  0.00    -0.271 OA
ATOM     10  H22 PHQ d   1       4.970  17.935 103.236  0.00  0.00     0.163 HD
BRANCH   8  11
ATOM     11  CA  PHQ d   1       6.633  16.682 101.755  0.00  0.00     0.090 C 
ATOM     12  H17 PHQ d   1       6.062  16.001 102.404  0.00  0.00     0.087 H 
BRANCH  11  13
ATOM     13  N   PHQ d   1       7.006  15.990 100.526  0.00  0.00    -0.346 N 
ATOM     14  C   PHQ d   1       7.006  14.673 100.410  0.00  0.00     0.236 C 
ATOM     15  O   PHQ d   1       6.501  13.912 101.228  0.00  0.00    -0.272 OA
ATOM     16  H16 PHQ d   1       7.274  16.538  99.734  0.00  0.00     0.163 HD
BRANCH  14  17
ATOM     17  CA  PHQ d   1       7.649  14.147  99.150  0.00  0.00     0.069 C 
ATOM     18  H14 PHQ d   1       7.424  14.825  98.314  0.00  0.00     0.078 H 
ATOM     19  H15 PHQ d   1       8.738  14.088  99.292  0.00  0.00     0.078 H 
BRANCH  17  20
ATOM     20  N   PHQ d   1       7.132  12.837  98.857  0.00  0.00    -0.351 N 
ATOM     21  C   PHQ d   1       5.917  12.676  98.328  0.00  0.00     0.240 C 
ATOM     22  O   PHQ d   1       5.181  13.612  98.037  0.00  0.00    -0.271 OA
ATOM     23  H13 PHQ d   1       7.693  12.033  99.053  0.00  0.00     0.163 HD
BRANCH  21  24
ATOM     24  CA  PHQ d   1       5.464  11.239  98.127  0.00  0.00     0.088 C 
ATOM     25  H9  PHQ d   1       4.717  11.232  97.320  0.00  0.00     0.087 H 
BRANCH  24  26
ATOM     26  N   PHQ d   1       6.558  10.356  97.723  0.00  0.00    -0.324 N 
ATOM     27  C1  PHQ d   1       7.076  10.440  96.493  0.00  0.00     0.361 C 
ATOM     28  O1  PHQ d   1       6.820  11.278  95.652  0.00  0.00    -0.238 OA
ATOM     29  H8  PHQ d   1       6.921   9.686  98.370  0.00  0.00     0.165 HD
BRANCH  27  30
ATOM     30  O2  PHQ d   1       7.981   9.425  96.078  0.00  0.00    -0.299 OA
BRANCH  30  31
ATOM     31  C2  PHQ d   1       9.228   9.329  96.715  0.00  0.00     0.054 C 
ATOM     32  H1  PHQ d   1       9.180   9.773  97.720  0.00  0.00     0.082 H 
ATOM     33  H2  PHQ d   1      10.000   9.843  96.124  0.00  0.00     0.082 H 
BRANCH  31  34
ATOM     34  C3  PHQ d   1       9.528   7.872  96.806  0.00  0.00    -0.034 A 
ATOM     35  C4  PHQ d   1       9.138   7.215  97.968  0.00  0.00    -0.075 A 
ATOM     36  C5  PHQ d   1       9.389   5.858  98.068  0.00  0.00    -0.082 A 
ATOM     37  H3  PHQ d   1       8.650   7.752  98.774  0.00  0.00     0.084 H 
ATOM     38  C6  PHQ d   1      10.013   5.150  97.032  0.00  0.00    -0.083 A 
ATOM     39  H4  PHQ d   1       9.096   5.330  98.969  0.00  0.00     0.083 H 
ATOM     40  C7  PHQ d   1      10.401   5.815  95.873  0.00  0.00    -0.082 A 
ATOM     41  H5  PHQ d   1      10.193   4.086  97.133  0.00  0.00     0.083 H 
ATOM     42  C8  PHQ d   1      10.150   7.189  95.750  0.00  0.00    -0.075 A 
ATOM     43  H6  PHQ d   1      10.893   5.275  95.072  0.00  0.00     0.083 H 
ATOM     44  H7  PHQ d   1      10.434   7.718  94.848  0.00  0.00     0.084 H 
ENDBRANCH  31  34
ENDBRANCH  30  31
ENDBRANCH  27  30
ENDBRANCH  24  26
BRANCH  24  45
ATOM     45  CB  PHQ d   1       4.796  10.731  99.393  0.00  0.00    -0.049 C 
ATOM     46  H10 PHQ d   1       3.979  11.411  99.675  0.00  0.00     0.030 H 
ATOM     47  H11 PHQ d   1       5.535  10.690 100.206  0.00  0.00     0.030 H 
ATOM     48  H12 PHQ d   1       4.390   9.724  99.215  0.00  0.00     0.030 H 
ENDBRANCH  24  45
ENDBRANCH  21  24
ENDBRANCH  17  20
ENDBRANCH  14  17
ENDBRANCH  11  13
BRANCH  11  49
ATOM     49  CB  PHQ d   1       7.890  17.140 102.498  0.00  0.00    -0.029 C 
ATOM     50  H18 PHQ d   1       8.471  16.249 102.779  0.00  0.00     0.037 H 
ATOM     51  H19 PHQ d   1       7.580  17.677 103.406  0.00  0.00     0.037 H 
BRANCH  49  52
ATOM     52  CG  PHQ d   1       8.788  18.062 101.675  0.00  0.00     0.018 C 
ATOM     53  H20 PHQ d   1       8.237  18.990 101.463  0.00  0.00     0.049 H 
ATOM     54  H21 PHQ d   1       9.035  17.558 100.729  0.00  0.00     0.049 H 
BRANCH  52  55
ATOM     55  CD  PHQ d   1      10.086  18.420 102.387  0.00  0.00     0.172 C 
ATOM     56  OE1 PHQ d   1      11.006  18.954 101.728  0.00  0.00    -0.648 OA
ATOM     57  OE2 PHQ d   1      10.193  18.160 103.611  0.00  0.00    -0.648 OA
ENDBRANCH  52  55
ENDBRANCH  49  52
ENDBRANCH  11  49
ENDBRANCH   8  11
ENDBRANCH   5   7
BRANCH   5  58
ATOM     58  CB  PHQ d   1       2.877  19.110 101.340  0.00  0.00    -0.049 C 
ATOM     59  H24 PHQ d   1       2.258  19.998 101.143  0.00  0.00     0.030 H 
ATOM     60  H25 PHQ d   1       2.315  18.404 101.969  0.00  0.00     0.030 H 
ATOM     61  H26 PHQ d   1       3.137  18.626 100.387  0.00  0.00     0.030 H 
ENDBRANCH   5  58
ENDBRANCH   1   5
BRANCH   3  62
ATOM     62  CA  PHQ d   1       2.842  22.405 104.134  0.00  0.00     0.089 C 
ATOM     63  H28 PHQ d   1       3.419  22.376 105.070  0.00  0.00     0.087 H 
BRANCH  62  64
ATOM     64  C   PHQ d   1       1.457  21.802 104.362  0.00  0.00     0.241 C 
ATOM     65  O   PHQ d   1       0.928  21.100 103.497  0.00  0.00    -0.271 OA
ATOM     66  N   PHQ d   1       0.874  22.095 105.513  0.00  0.00    -0.346 N 
ATOM     67  H38 PHQ d   1       1.304  22.757 106.127  0.00  0.00     0.163 HD
BRANCH  66  68
ATOM     68  CA  PHQ d   1      -0.381  21.471 105.901  0.00  0.00     0.093 C 
ATOM     69  H39 PHQ d   1      -0.260  20.380 105.838  0.00  0.00     0.088 H 
BRANCH  68  70
ATOM     70  C   PHQ d   1      -1.469  21.900 104.930  0.00  0.00     0.241 C 
ATOM     71  O   PHQ d   1      -1.515  23.044 104.556  0.00  0.00    -0.271 OA
ATOM     72  N   PHQ d   1      -2.340  20.982 104.532  0.00  0.00    -0.346 N 
ATOM     73  H47 PHQ d   1      -2.280  20.056 104.904  0.00  0.00     0.163 HD
BRANCH  72  74
ATOM     74  CA  PHQ d   1      -3.391  21.298 103.555  0.00  0.00     0.089 C 
ATOM     75  H48 PHQ d   1      -3.518  22.391 103.562  0.00  0.00     0.087 H 
BRANCH  74  76
ATOM     76  C   PHQ d   1      -4.739  20.691 103.931  0.00  0.00     0.238 C 
ATOM     77  O   PHQ d   1      -4.824  19.815 104.771  0.00  0.00    -0.271 OA
ATOM     78  N   PHQ d   1      -5.888  21.196 103.285  0.00  0.00    -0.368 N 
ATOM     79  H53 PHQ d   1      -6.790  20.823 103.505  0.00  0.00     0.159 HD
ATOM     80  H54 PHQ d   1      -5.800  21.926 102.608  0.00  0.00     0.159 HD
ENDBRANCH  74  76
BRANCH  74  81
ATOM     81  CB  PHQ d   1      -2.970  20.896 102.124  0.00  0.00    -0.029 C 
ATOM     82  H49 PHQ d   1      -2.433  21.748 101.682  0.00  0.00     0.037 H 
ATOM     83  H50 PHQ d   1      -3.887  20.702 101.548  0.00  0.00     0.037 H 
BRANCH  81  84
ATOM     84  CG  PHQ d   1      -2.070  19.661 101.996  0.00  0.00     0.018 C 
ATOM     85  H51 PHQ d   1      -2.708  18.775 101.863  0.00  0.00     0.049 H 
ATOM     86  H52 PHQ d   1      -1.485  19.556 102.922  0.00  0.00     0.049 H 
BRANCH  84  87
ATOM     87  CD  PHQ d   1      -1.103  19.746 100.816  0.00  0.00     0.172 C 
ATOM     88  OE1 PHQ d   1      -1.090  18.817  99.976  0.00  0.00    -0.648 OA
ATOM     89  OE2 PHQ d   1      -0.344  20.741 100.730  0.00  0.00    -0.648 OA
ENDBRANCH  84  87
ENDBRANCH  81  84
ENDBRANCH  74  81
ENDBRANCH  72  74
ENDBRANCH  68  70
BRANCH  68  90
ATOM     90  CB  PHQ d   1      -0.783  21.826 107.341  0.00  0.00    -0.014 C 
ATOM     91  H40 PHQ d   1      -0.841  22.920 107.444  0.00  0.00     0.043 H 
ATOM     92  H41 PHQ d   1      -0.028  21.432 108.037  0.00  0.00     0.043 H 
BRANCH  90  93
ATOM     93  CG  PHQ d   1      -2.127  21.222 107.667  0.00  0.00    -0.056 A 
ATOM     94  CD1 PHQ d   1      -2.244  19.843 107.923  0.00  0.00    -0.074 A 
ATOM     95  CE1 PHQ d   1      -3.481  19.268 108.182  0.00  0.00    -0.051 A 
ATOM     96  H42 PHQ d   1      -1.356  19.221 107.918  0.00  0.00     0.084 H 
ATOM     97  CZ  PHQ d   1      -4.625  20.068 108.171  0.00  0.00     0.065 A 
ATOM     98  H44 PHQ d   1      -3.558  18.207 108.391  0.00  0.00     0.087 H 
ATOM     99  CE2 PHQ d   1      -4.537  21.430 107.891  0.00  0.00    -0.051 A 
ATOM    100  CD2 PHQ d   1      -3.300  22.000 107.635  0.00  0.00    -0.074 A 
ATOM    101  H45 PHQ d   1      -5.432  22.041 107.874  0.00  0.00     0.087 H 
ATOM    102  H43 PHQ d   1      -3.235  23.058 107.407  0.00  0.00     0.084 H 
BRANCH  97 103
ATOM    103  OH  PHQ d   1      -5.849  19.505 108.435  0.00  0.00    -0.361 OA
ATOM    104  H46 PHQ d   1      -5.739  18.577 108.605  0.00  0.00     0.217 HD
ENDBRANCH  97 103
ENDBRANCH  90  93
ENDBRANCH  68  90
ENDBRANCH  66  68
ENDBRANCH  62  64
BRANCH  62 105
ATOM    105  CB  PHQ d   1       2.679  23.864 103.693  0.00  0.00    -0.035 C 
ATOM    106  H29 PHQ d   1       2.080  24.374 104.462  0.00  0.00     0.037 H 
ATOM    107  H30 PHQ d   1       2.127  23.859 102.742  0.00  0.00     0.037 H 
BRANCH 105 108
ATOM    108  CG  PHQ d   1       3.946  24.690 103.480  0.00  0.00    -0.059 C 
ATOM    109  H31 PHQ d   1       4.540  24.212 102.687  0.00  0.00     0.038 H 
BRANCH 108 110
ATOM    110  CD1 PHQ d   1       3.589  26.107 103.018  0.00  0.00    -0.073 C 
ATOM    111  H32 PHQ d   1       4.511  26.688 102.870  0.00  0.00     0.028 H 
ATOM    112  H33 PHQ d   1       2.967  26.596 103.782  0.00  0.00     0.028 H 
ATOM    113  H34 PHQ d   1       3.032  26.055 102.071  0.00  0.00     0.028 H 
ENDBRANCH 108 110
BRANCH 108 114
ATOM    114  CD2 PHQ d   1       4.784  24.714 104.745  0.00  0.00    -0.073 C 
ATOM    115  H35 PHQ d   1       5.021  23.683 105.047  0.00  0.00     0.028 H 
ATOM    116  H36 PHQ d   1       4.221  25.211 105.549  0.00  0.00     0.028 H 
ATOM    117  H37 PHQ d   1       5.717  25.265 104.556  0.00  0.00     0.028 H 
ENDBRANCH 108 114
ENDBRANCH 105 108
ENDBRANCH  62 105
ENDBRANCH   3  62
TORSDOF 32
