REMARK  27 active torsions:
REMARK  status: ('A' for Active; 'I' for Inactive)
REMARK    1  A    between atoms: C_1  and  CH3_3 
REMARK       I    between atoms: C_1  and  N_4 
REMARK    2  A    between atoms: N_4  and  CA_5 
REMARK    3  A    between atoms: CA_5  and  C_6 
REMARK    4  A    between atoms: CA_5  and  CB_8 
REMARK       I    between atoms: C_6  and  N_9 
REMARK    5  A    between atoms: N_9  and  CA_10 
REMARK    6  A    between atoms: CA_10  and  C_11 
REMARK       I    between atoms: C_11  and  N_13 
REMARK    7  A    between atoms: N_13  and  CA_14 
REMARK    8  A    between atoms: CA_14  and  C_15 
REMARK    9  A    between atoms: CA_14  and  CB_17 
REMARK       I    between atoms: C_15  and  N_22 
REMARK   10  A    between atoms: CB_17  and  CG_18 
REMARK   11  A    between atoms: CG_18  and  CD_19 
REMARK   12  A    between atoms: N_22  and  CA_23 
REMARK   13  A    between atoms: CA_23  and  C_24 
REMARK   14  A    between atoms: CA_23  and  CB_26 
REMARK       I    between atoms: C_24  and  N_27 
REMARK   15  A    between atoms: N_27  and  CA_28 
REMARK   16  A    between atoms: CA_28  and  C_29 
REMARK   17  A    between atoms: CA_28  and  CB_31 
REMARK       I    between atoms: C_29  and  N_35 
REMARK   18  A    between atoms: CB_31  and  CG_32 
REMARK   19  A    between atoms: CG_32  and  CD1_33 
REMARK   20  A    between atoms: CG_32  and  CD2_34 
REMARK   21  A    between atoms: N_35  and  CA_36 
REMARK   22  A    between atoms: CA_36  and  C_37 
REMARK   23  A    between atoms: CA_36  and  CB_39 
REMARK       I    between atoms: C_37  and  N_40 
REMARK   24  A    between atoms: N_40  and  CA_41 
REMARK   25  A    between atoms: CA_41  and  C_42 
REMARK   26  A    between atoms: CA_41  and  CB_44 
REMARK       I    between atoms: C_42  and  N_48 
REMARK   27  A    between atoms: CB_44  and  CG_45 
ROOT
ATOM      1  CA  ACE d   1      21.167  82.153 315.594  0.00  0.00     0.086 C 
ATOM      2  H19 ACE d   1      21.939  81.808 314.890  0.00  0.00     0.086 H 
ENDROOT
BRANCH   1   3
ATOM      3  N   ACE d   1      21.202  81.298 316.781  0.00  0.00    -0.346 N 
ATOM      4  C   ACE d   1      21.513  80.010 316.715  0.00  0.00     0.241 C 
ATOM      5  O   ACE d   1      21.855  79.460 315.691  0.00  0.00    -0.271 OA
ATOM      6  H18 ACE d   1      20.984  81.698 317.671  0.00  0.00     0.163 HD
BRANCH   4   7
ATOM      7  CA  ACE d   1      21.468  79.236 318.008  0.00  0.00     0.090 C 
ATOM      8  H13 ACE d   1      20.574  79.546 318.570  0.00  0.00     0.087 H 
BRANCH   7   9
ATOM      9  N   ACE d   1      21.359  77.783 317.727  0.00  0.00    -0.346 N 
ATOM     10  C   ACE d   1      20.221  77.103 317.865  0.00  0.00     0.236 C 
ATOM     11  O   ACE d   1      19.158  77.628 318.249  0.00  0.00    -0.272 OA
ATOM     12  H12 ACE d   1      22.175  77.293 317.421  0.00  0.00     0.163 HD
BRANCH  10  13
ATOM     13  CA  ACE d   1      20.299  75.628 317.465  0.00  0.00     0.069 C 
ATOM     14  H10 ACE d   1      20.678  75.567 316.434  0.00  0.00     0.078 H 
ATOM     15  H11 ACE d   1      21.001  75.121 318.144  0.00  0.00     0.078 H 
BRANCH  13  16
ATOM     16  N   ACE d   1      19.020  74.936 317.526  0.00  0.00    -0.351 N 
ATOM     17  C   ACE d   1      18.034  75.237 316.685  0.00  0.00     0.240 C 
ATOM     18  O   ACE d   1      18.211  76.005 315.772  0.00  0.00    -0.271 OA
ATOM     19  H9  ACE d   1      18.880  74.222 318.212  0.00  0.00     0.163 HD
BRANCH  17  20
ATOM     20  CA  ACE d   1      16.615  74.620 316.918  0.00  0.00     0.086 C 
ATOM     21  H5  ACE d   1      16.291  74.188 315.959  0.00  0.00     0.086 H 
BRANCH  20  22
ATOM     22  N   ACE d   1      16.536  73.553 317.916  0.00  0.00    -0.348 N 
ATOM     23  C   ACE d   1      17.062  72.334 317.724  0.00  0.00     0.214 C 
ATOM     24  O   ACE d   1      17.466  71.946 316.638  0.00  0.00    -0.274 OA
ATOM     25  H4  ACE d   1      16.069  73.741 318.780  0.00  0.00     0.163 HD
BRANCH  23  26
ATOM     26  CH3 ACE d   1      17.249  71.488 318.961  0.00  0.00    -0.003 C 
ATOM     27  H1  ACE d   1      16.820  72.009 319.830  0.00  0.00     0.040 H 
ATOM     28  H2  ACE d   1      18.323  71.317 319.129  0.00  0.00     0.040 H 
ATOM     29  H3  ACE d   1      16.741  70.522 318.825  0.00  0.00     0.040 H 
ENDBRANCH  23  26
ENDBRANCH  20  22
BRANCH  20  30
ATOM     30  CB  ACE d   1      15.649  75.723 317.295  0.00  0.00    -0.049 C 
ATOM     31  H6  ACE d   1      15.703  76.529 316.548  0.00  0.00     0.030 H 
ATOM     32  H7  ACE d   1      15.916  76.122 318.285  0.00  0.00     0.030 H 
ATOM     33  H8  ACE d   1      14.626  75.320 317.326  0.00  0.00     0.030 H 
ENDBRANCH  20  30
ENDBRANCH  17  20
ENDBRANCH  13  16
ENDBRANCH  10  13
ENDBRANCH   7   9
BRANCH   7  34
ATOM     34  CB  ACE d   1      22.708  79.558 318.862  0.00  0.00    -0.029 C 
ATOM     35  H14 ACE d   1      22.602  79.041 319.827  0.00  0.00     0.037 H 
ATOM     36  H15 ACE d   1      22.736  80.645 319.029  0.00  0.00     0.037 H 
BRANCH  34  37
ATOM     37  CG  ACE d   1      24.030  79.141 318.246  0.00  0.00     0.018 C 
ATOM     38  H16 ACE d   1      24.217  79.769 317.362  0.00  0.00     0.049 H 
ATOM     39  H17 ACE d   1      23.955  78.088 317.938  0.00  0.00     0.049 H 
BRANCH  37  40
ATOM     40  CD  ACE d   1      25.195  79.282 319.188  0.00  0.00     0.172 C 
ATOM     41  OE1 ACE d   1      26.261  78.707 318.889  0.00  0.00    -0.648 OA
ATOM     42  OE2 ACE d   1      25.080  79.969 320.227  0.00  0.00    -0.648 OA
ENDBRANCH  37  40
ENDBRANCH  34  37
ENDBRANCH   7  34
ENDBRANCH   4   7
ENDBRANCH   1   3
BRANCH   1  43
ATOM     43  C   ACE d   1      21.442  83.615 315.927  0.00  0.00     0.240 C 
ATOM     44  O   ACE d   1      21.301  84.019 317.084  0.00  0.00    -0.271 OA
ATOM     45  N   ACE d   1      21.832  84.396 314.916  0.00  0.00    -0.346 N 
ATOM     46  H23 ACE d   1      22.123  83.970 314.060  0.00  0.00     0.163 HD
BRANCH  45  47
ATOM     47  CA  ACE d   1      21.847  85.867 315.022  0.00  0.00     0.089 C 
ATOM     48  H24 ACE d   1      22.289  86.139 315.991  0.00  0.00     0.087 H 
BRANCH  47  49
ATOM     49  C   ACE d   1      20.437  86.414 314.962  0.00  0.00     0.241 C 
ATOM     50  O   ACE d   1      19.496  85.700 314.592  0.00  0.00    -0.271 OA
ATOM     51  N   ACE d   1      20.290  87.675 315.348  0.00  0.00    -0.346 N 
ATOM     52  H34 ACE d   1      21.090  88.179 315.672  0.00  0.00     0.163 HD
BRANCH  51  53
ATOM     53  CA  ACE d   1      18.998  88.348 315.314  0.00  0.00     0.086 C 
ATOM     54  H35 ACE d   1      18.256  87.706 315.812  0.00  0.00     0.086 H 
BRANCH  53  55
ATOM     55  C   ACE d   1      18.543  88.592 313.879  0.00  0.00     0.240 C 
ATOM     56  O   ACE d   1      19.367  88.819 313.015  0.00  0.00    -0.271 OA
ATOM     57  N   ACE d   1      17.235  88.519 313.625  0.00  0.00    -0.346 N 
ATOM     58  H39 ACE d   1      16.606  88.306 314.373  0.00  0.00     0.163 HD
BRANCH  57  59
ATOM     59  CA  ACE d   1      16.690  88.744 312.273  0.00  0.00     0.098 C 
ATOM     60  H40 ACE d   1      17.357  88.290 311.525  0.00  0.00     0.088 H 
BRANCH  59  61
ATOM     61  C   ACE d   1      16.626  90.229 312.089  0.00  0.00     0.238 C 
ATOM     62  O   ACE d   1      16.027  90.899 312.905  0.00  0.00    -0.271 OA
ATOM     63  N   ACE d   1      17.291  90.807 310.972  0.00  0.00    -0.368 N 
ATOM     64  H43 ACE d   1      17.262  91.796 310.829  0.00  0.00     0.159 HD
ATOM     65  H44 ACE d   1      17.788  90.224 310.329  0.00  0.00     0.159 HD
ENDBRANCH  59  61
BRANCH  59  66
ATOM     66  CB  ACE d   1      15.277  88.176 312.100  0.00  0.00     0.043 C 
ATOM     67  H41 ACE d   1      14.930  88.405 311.082  0.00  0.00     0.052 H 
ATOM     68  H42 ACE d   1      14.613  88.660 312.832  0.00  0.00     0.052 H 
BRANCH  66  69
ATOM     69  CG  ACE d   1      15.211  86.664 312.308  0.00  0.00     0.175 C 
ATOM     70  OD1 ACE d   1      15.972  85.927 311.632  0.00  0.00    -0.648 OA
ATOM     71  OD2 ACE d   1      14.387  86.216 313.144  0.00  0.00    -0.648 OA
ENDBRANCH  66  69
ENDBRANCH  59  66
ENDBRANCH  57  59
ENDBRANCH  53  55
BRANCH  53  72
ATOM     72  CB  ACE d   1      19.081  89.654 316.054  0.00  0.00    -0.049 C 
ATOM     73  H36 ACE d   1      18.102  90.155 316.024  0.00  0.00     0.030 H 
ATOM     74  H37 ACE d   1      19.837  90.297 315.580  0.00  0.00     0.030 H 
ATOM     75  H38 ACE d   1      19.364  89.465 317.100  0.00  0.00     0.030 H 
ENDBRANCH  53  72
ENDBRANCH  51  53
ENDBRANCH  47  49
BRANCH  47  76
ATOM     76  CB  ACE d   1      22.687  86.494 313.914  0.00  0.00    -0.035 C 
ATOM     77  H25 ACE d   1      22.602  87.588 313.995  0.00  0.00     0.037 H 
ATOM     78  H26 ACE d   1      22.281  86.165 312.946  0.00  0.00     0.037 H 
BRANCH  76  79
ATOM     79  CG  ACE d   1      24.174  86.125 313.960  0.00  0.00    -0.059 C 
ATOM     80  H27 ACE d   1      24.247  85.028 313.975  0.00  0.00     0.038 H 
BRANCH  79  81
ATOM     81  CD1 ACE d   1      24.934  86.626 312.740  0.00  0.00    -0.073 C 
ATOM     82  H28 ACE d   1      25.992  86.336 312.822  0.00  0.00     0.028 H 
ATOM     83  H29 ACE d   1      24.858  87.722 312.685  0.00  0.00     0.028 H 
ATOM     84  H30 ACE d   1      24.502  86.182 311.831  0.00  0.00     0.028 H 
ENDBRANCH  79  81
BRANCH  79  85
ATOM     85  CD2 ACE d   1      24.815  86.664 315.235  0.00  0.00    -0.073 C 
ATOM     86  H31 ACE d   1      24.258  86.296 316.109  0.00  0.00     0.028 H 
ATOM     87  H32 ACE d   1      24.791  87.764 315.221  0.00  0.00     0.028 H 
ATOM     88  H33 ACE d   1      25.858  86.321 315.294  0.00  0.00     0.028 H 
ENDBRANCH  79  85
ENDBRANCH  76  79
ENDBRANCH  47  76
ENDBRANCH  45  47
ENDBRANCH   1  43
BRANCH   1  89
ATOM     89  CB  ACE d   1      19.804  82.018 314.940  0.00  0.00    -0.049 C 
ATOM     90  H20 ACE d   1      19.762  82.656 314.045  0.00  0.00     0.030 H 
ATOM     91  H21 ACE d   1      19.024  82.331 315.650  0.00  0.00     0.030 H 
ATOM     92  H22 ACE d   1      19.638  80.970 314.651  0.00  0.00     0.030 H 
ENDBRANCH   1  89
TORSDOF 27
