REMARK  26 active torsions:
REMARK  status: ('A' for Active; 'I' for Inactive)
REMARK    1  A    between atoms: C_1  and  CH3_3 
REMARK       I    between atoms: C_1  and  N_4 
REMARK    2  A    between atoms: N_4  and  CA_5 
REMARK    3  A    between atoms: CA_5  and  C_6 
REMARK       I    between atoms: C_6  and  N_8 
REMARK    4  A    between atoms: N_8  and  CA_9 
REMARK    5  A    between atoms: CA_9  and  C_10 
REMARK       I    between atoms: C_10  and  N_12 
REMARK    6  A    between atoms: N_12  and  CA_13 
REMARK    7  A    between atoms: CA_13  and  C_14 
REMARK    8  A    between atoms: CA_13  and  CB_16 
REMARK       I    between atoms: C_14  and  N_21 
REMARK    9  A    between atoms: CB_16  and  CG_17 
REMARK   10  A    between atoms: CG_17  and  CD_18 
REMARK   11  A    between atoms: N_21  and  CA_22 
REMARK   12  A    between atoms: CA_22  and  C_23 
REMARK   13  A    between atoms: CA_22  and  CB_25 
REMARK       I    between atoms: C_23  and  N_26 
REMARK   14  A    between atoms: N_26  and  CA_27 
REMARK   15  A    between atoms: CA_27  and  C_28 
REMARK   16  A    between atoms: CA_27  and  CB_30 
REMARK       I    between atoms: C_28  and  N_34 
REMARK   17  A    between atoms: CB_30  and  CG_31 
REMARK   18  A    between atoms: CG_31  and  CD1_32 
REMARK   19  A    between atoms: CG_31  and  CD2_33 
REMARK   20  A    between atoms: N_34  and  CA_35 
REMARK   21  A    between atoms: CA_35  and  C_36 
REMARK   22  A    between atoms: CA_35  and  CB_38 
REMARK       I    between atoms: C_36  and  N_39 
REMARK   23  A    between atoms: N_39  and  CA_40 
REMARK   24  A    between atoms: CA_40  and  C_41 
REMARK   25  A    between atoms: CA_40  and  CB_43 
REMARK       I    between atoms: C_41  and  N_47 
REMARK   26  A    between atoms: CB_43  and  CG_44 
ROOT
ATOM      1  C   ACE d   1       2.148   1.599  -3.347  0.00  0.00     0.240 C 
ATOM      2  O   ACE d   1       2.945   0.966  -2.660  0.00  0.00    -0.271 OA
ATOM      3  N   ACE d   1       1.277   2.473  -2.849  0.00  0.00    -0.346 N 
ATOM      4  H21 ACE d   1       0.805   3.090  -3.479  0.00  0.00     0.163 HD
ENDROOT
BRANCH   1   5
ATOM      5  CA  ACE d   1       2.087   1.418  -4.860  0.00  0.00     0.086 C 
ATOM      6  H17 ACE d   1       1.892   2.401  -5.313  0.00  0.00     0.086 H 
BRANCH   5   7
ATOM      7  N   ACE d   1       3.337   0.907  -5.417  0.00  0.00    -0.346 N 
ATOM      8  C   ACE d   1       3.586   0.905  -6.725  0.00  0.00     0.241 C 
ATOM      9  O   ACE d   1       2.820   1.380  -7.571  0.00  0.00    -0.271 OA
ATOM     10  H16 ACE d   1       4.030   0.546  -4.794  0.00  0.00     0.163 HD
BRANCH   8  11
ATOM     11  CA  ACE d   1       4.908   0.275  -7.142  0.00  0.00     0.090 C 
ATOM     12  H11 ACE d   1       4.981  -0.713  -6.664  0.00  0.00     0.087 H 
BRANCH  11  13
ATOM     13  N   ACE d   1       4.987   0.081  -8.596  0.00  0.00    -0.346 N 
ATOM     14  C   ACE d   1       5.629  -0.946  -9.147  0.00  0.00     0.236 C 
ATOM     15  O   ACE d   1       6.268  -1.773  -8.495  0.00  0.00    -0.272 OA
ATOM     16  H10 ACE d   1       4.541   0.746  -9.195  0.00  0.00     0.163 HD
BRANCH  14  17
ATOM     17  CA  ACE d   1       5.533  -1.066 -10.653  0.00  0.00     0.069 C 
ATOM     18  H8  ACE d   1       4.535  -0.748 -10.990  0.00  0.00     0.078 H 
ATOM     19  H9  ACE d   1       6.298  -0.434 -11.127  0.00  0.00     0.078 H 
BRANCH  17  20
ATOM     20  N   ACE d   1       5.756  -2.475 -11.011  0.00  0.00    -0.351 N 
ATOM     21  C   ACE d   1       4.740  -3.335 -11.227  0.00  0.00     0.235 C 
ATOM     22  O   ACE d   1       3.579  -2.970 -10.901  0.00  0.00    -0.272 OA
ATOM     23  H7  ACE d   1       6.695  -2.807 -11.097  0.00  0.00     0.163 HD
BRANCH  21  24
ATOM     24  CA  ACE d   1       5.032  -4.727 -11.594  0.00  0.00     0.069 C 
ATOM     25  H5  ACE d   1       5.514  -5.333 -10.812  0.00  0.00     0.078 H 
ATOM     26  H6  ACE d   1       4.192  -5.290 -12.028  0.00  0.00     0.078 H 
BRANCH  24  27
ATOM     27  N   ACE d   1       5.924  -4.112 -12.542  0.00  0.00    -0.353 N 
ATOM     28  C   ACE d   1       5.684  -3.744 -13.817  0.00  0.00     0.213 C 
ATOM     29  O   ACE d   1       4.575  -3.547 -14.268  0.00  0.00    -0.274 OA
ATOM     30  H4  ACE d   1       6.850  -3.933 -12.209  0.00  0.00     0.162 HD
BRANCH  28  31
ATOM     31  CH3 ACE d   1       6.902  -3.633 -14.715  0.00  0.00    -0.003 C 
ATOM     32  H1  ACE d   1       7.809  -3.845 -14.130  0.00  0.00     0.040 H 
ATOM     33  H2  ACE d   1       6.962  -2.615 -15.128  0.00  0.00     0.040 H 
ATOM     34  H3  ACE d   1       6.818  -4.358 -15.538  0.00  0.00     0.040 H 
ENDBRANCH  28  31
ENDBRANCH  24  27
ENDBRANCH  21  24
ENDBRANCH  17  20
ENDBRANCH  14  17
ENDBRANCH  11  13
BRANCH  11  35
ATOM     35  CB  ACE d   1       6.073   1.134  -6.648  0.00  0.00    -0.029 C 
ATOM     36  H12 ACE d   1       7.010   0.631  -6.928  0.00  0.00     0.037 H 
ATOM     37  H13 ACE d   1       6.006   1.202  -5.552  0.00  0.00     0.037 H 
BRANCH  35  38
ATOM     38  CG  ACE d   1       6.112   2.553  -7.208  0.00  0.00     0.018 C 
ATOM     39  H14 ACE d   1       5.119   3.009  -7.083  0.00  0.00     0.049 H 
ATOM     40  H15 ACE d   1       6.360   2.503  -8.278  0.00  0.00     0.049 H 
BRANCH  38  41
ATOM     41  CD  ACE d   1       7.139   3.426  -6.511  0.00  0.00     0.172 C 
ATOM     42  OE1 ACE d   1       7.030   4.664  -6.608  0.00  0.00    -0.648 OA
ATOM     43  OE2 ACE d   1       8.057   2.884  -5.857  0.00  0.00    -0.648 OA
ENDBRANCH  38  41
ENDBRANCH  35  38
ENDBRANCH  11  35
ENDBRANCH   8  11
ENDBRANCH   5   7
BRANCH   5  44
ATOM     44  CB  ACE d   1       0.931   0.483  -5.212  0.00  0.00    -0.049 C 
ATOM     45  H18 ACE d   1      -0.003   0.879  -4.787  0.00  0.00     0.030 H 
ATOM     46  H19 ACE d   1       1.128  -0.516  -4.797  0.00  0.00     0.030 H 
ATOM     47  H20 ACE d   1       0.836   0.413  -6.306  0.00  0.00     0.030 H 
ENDBRANCH   5  44
ENDBRANCH   1   5
BRANCH   3  48
ATOM     48  CA  ACE d   1       0.982   2.570  -1.426  0.00  0.00     0.089 C 
ATOM     49  H22 ACE d   1       1.925   2.643  -0.864  0.00  0.00     0.087 H 
BRANCH  48  50
ATOM     50  C   ACE d   1       0.223   1.320  -0.994  0.00  0.00     0.241 C 
ATOM     51  O   ACE d   1      -0.334   0.597  -1.828  0.00  0.00    -0.271 OA
ATOM     52  N   ACE d   1       0.195   1.088   0.316  0.00  0.00    -0.346 N 
ATOM     53  H32 ACE d   1       0.684   1.712   0.925  0.00  0.00     0.163 HD
BRANCH  52  54
ATOM     54  CA  ACE d   1      -0.523  -0.042   0.897  0.00  0.00     0.086 C 
ATOM     55  H33 ACE d   1      -0.122  -0.969   0.461  0.00  0.00     0.086 H 
BRANCH  54  56
ATOM     56  C   ACE d   1      -2.017   0.032   0.585  0.00  0.00     0.240 C 
ATOM     57  O   ACE d   1      -2.577   1.124   0.466  0.00  0.00    -0.271 OA
ATOM     58  N   ACE d   1      -2.645  -1.134   0.436  0.00  0.00    -0.346 N 
ATOM     59  H37 ACE d   1      -2.106  -1.976   0.460  0.00  0.00     0.163 HD
BRANCH  58  60
ATOM     60  CA  ACE d   1      -4.094  -1.231   0.239  0.00  0.00     0.098 C 
ATOM     61  H38 ACE d   1      -4.448  -0.326  -0.276  0.00  0.00     0.088 H 
BRANCH  60  62
ATOM     62  C   ACE d   1      -4.769  -1.332   1.593  0.00  0.00     0.238 C 
ATOM     63  O   ACE d   1      -4.756  -2.381   2.216  0.00  0.00    -0.271 OA
ATOM     64  N   ACE d   1      -5.394  -0.169   2.109  0.00  0.00    -0.368 N 
ATOM     65  H41 ACE d   1      -5.849  -0.199   2.999  0.00  0.00     0.159 HD
ATOM     66  H42 ACE d   1      -5.380   0.681   1.583  0.00  0.00     0.159 HD
ENDBRANCH  60  62
BRANCH  60  67
ATOM     67  CB  ACE d   1      -4.445  -2.451  -0.610  0.00  0.00     0.043 C 
ATOM     68  H39 ACE d   1      -5.540  -2.525  -0.684  0.00  0.00     0.052 H 
ATOM     69  H40 ACE d   1      -4.049  -3.350  -0.115  0.00  0.00     0.052 H 
BRANCH  67  70
ATOM     70  CG  ACE d   1      -3.869  -2.374  -2.007  0.00  0.00     0.175 C 
ATOM     71  OD1 ACE d   1      -3.926  -1.286  -2.625  0.00  0.00    -0.648 OA
ATOM     72  OD2 ACE d   1      -3.370  -3.412  -2.491  0.00  0.00    -0.648 OA
ENDBRANCH  67  70
ENDBRANCH  60  67
ENDBRANCH  58  60
ENDBRANCH  54  56
BRANCH  54  73
ATOM     73  CB  ACE d   1      -0.307  -0.079   2.401  0.00  0.00    -0.049 C 
ATOM     74  H34 ACE d   1      -0.852  -0.933   2.829  0.00  0.00     0.030 H 
ATOM     75  H35 ACE d   1      -0.680   0.854   2.848  0.00  0.00     0.030 H 
ATOM     76  H36 ACE d   1       0.767  -0.185   2.615  0.00  0.00     0.030 H 
ENDBRANCH  54  73
ENDBRANCH  52  54
ENDBRANCH  48  50
BRANCH  48  77
ATOM     77  CB  ACE d   1       0.121   3.806  -1.133  0.00  0.00    -0.035 C 
ATOM     78  H23 ACE d   1      -0.144   3.771  -0.066  0.00  0.00     0.037 H 
ATOM     79  H24 ACE d   1      -0.792   3.716  -1.740  0.00  0.00     0.037 H 
BRANCH  77  80
ATOM     80  CG  ACE d   1       0.710   5.192  -1.406  0.00  0.00    -0.059 C 
ATOM     81  H25 ACE d   1       1.014   5.240  -2.462  0.00  0.00     0.038 H 
BRANCH  80  82
ATOM     82  CD1 ACE d   1      -0.328   6.269  -1.146  0.00  0.00    -0.073 C 
ATOM     83  H26 ACE d   1       0.111   7.257  -1.347  0.00  0.00     0.028 H 
ATOM     84  H27 ACE d   1      -0.654   6.219  -0.097  0.00  0.00     0.028 H 
ATOM     85  H28 ACE d   1      -1.193   6.111  -1.806  0.00  0.00     0.028 H 
ENDBRANCH  80  82
BRANCH  80  86
ATOM     86  CD2 ACE d   1       1.930   5.444  -0.537  0.00  0.00    -0.073 C 
ATOM     87  H29 ACE d   1       2.682   4.664  -0.726  0.00  0.00     0.028 H 
ATOM     88  H30 ACE d   1       1.636   5.422   0.523  0.00  0.00     0.028 H 
ATOM     89  H31 ACE d   1       2.355   6.429  -0.779  0.00  0.00     0.028 H 
ENDBRANCH  80  86
ENDBRANCH  77  80
ENDBRANCH  48  77
ENDBRANCH   3  48
TORSDOF 26
