REMARK  26 active torsions:
REMARK  status: ('A' for Active; 'I' for Inactive)
REMARK    1  A    between atoms: C_1  and  CH3_3 
REMARK       I    between atoms: C_1  and  N_4 
REMARK    2  A    between atoms: N_4  and  CA_5 
REMARK    3  A    between atoms: CA_5  and  C_6 
REMARK       I    between atoms: C_6  and  N_8 
REMARK    4  A    between atoms: N_8  and  CA_9 
REMARK    5  A    between atoms: CA_9  and  C_10 
REMARK       I    between atoms: C_10  and  N_12 
REMARK    6  A    between atoms: N_12  and  CA_13 
REMARK    7  A    between atoms: CA_13  and  C_14 
REMARK    8  A    between atoms: CA_13  and  CB_16 
REMARK       I    between atoms: C_14  and  N_21 
REMARK    9  A    between atoms: CB_16  and  CG_17 
REMARK   10  A    between atoms: CG_17  and  CD_18 
REMARK   11  A    between atoms: N_21  and  CA_22 
REMARK   12  A    between atoms: CA_22  and  C_23 
REMARK   13  A    between atoms: CA_22  and  CB_25 
REMARK       I    between atoms: C_23  and  N_26 
REMARK   14  A    between atoms: N_26  and  CA_27 
REMARK   15  A    between atoms: CA_27  and  C_28 
REMARK   16  A    between atoms: CA_27  and  CB_30 
REMARK       I    between atoms: C_28  and  N_34 
REMARK   17  A    between atoms: CB_30  and  CG_31 
REMARK   18  A    between atoms: CG_31  and  CD1_32 
REMARK   19  A    between atoms: CG_31  and  CD2_33 
REMARK   20  A    between atoms: N_34  and  CA_35 
REMARK   21  A    between atoms: CA_35  and  C_36 
REMARK   22  A    between atoms: CA_35  and  CB_38 
REMARK       I    between atoms: C_36  and  N_39 
REMARK   23  A    between atoms: N_39  and  CA_40 
REMARK   24  A    between atoms: CA_40  and  C_41 
REMARK   25  A    between atoms: CA_40  and  CB_43 
REMARK       I    between atoms: C_41  and  N_53 
REMARK   26  A    between atoms: CB_43  and  CG_44 
ROOT
ATOM      1  CA  ACE d   1     -14.315 -15.309  20.054  0.00  0.00     0.089 C 
ATOM      2  H22 ACE d   1     -14.726 -14.386  20.490  0.00  0.00     0.087 H 
ENDROOT
BRANCH   1   3
ATOM      3  N   ACE d   1     -14.072 -15.099  18.613  0.00  0.00    -0.346 N 
ATOM      4  C   ACE d   1     -13.408 -14.019  18.182  0.00  0.00     0.240 C 
ATOM      5  O   ACE d   1     -13.113 -13.038  18.893  0.00  0.00    -0.271 OA
ATOM      6  H21 ACE d   1     -14.407 -15.770  17.952  0.00  0.00     0.163 HD
BRANCH   4   7
ATOM      7  CA  ACE d   1     -13.039 -14.049  16.728  0.00  0.00     0.086 C 
ATOM      8  H17 ACE d   1     -13.873 -14.490  16.163  0.00  0.00     0.086 H 
BRANCH   7   9
ATOM      9  N   ACE d   1     -12.806 -12.712  16.227  0.00  0.00    -0.346 N 
ATOM     10  C   ACE d   1     -12.900 -12.430  14.933  0.00  0.00     0.241 C 
ATOM     11  O   ACE d   1     -13.258 -13.247  14.101  0.00  0.00    -0.271 OA
ATOM     12  H16 ACE d   1     -12.569 -11.984  16.870  0.00  0.00     0.163 HD
BRANCH  10  13
ATOM     13  CA  ACE d   1     -12.553 -11.000  14.525  0.00  0.00     0.090 C 
ATOM     14  H11 ACE d   1     -11.620 -10.708  15.030  0.00  0.00     0.087 H 
BRANCH  13  15
ATOM     15  N   ACE d   1     -12.331 -10.975  13.069  0.00  0.00    -0.346 N 
ATOM     16  C   ACE d   1     -11.341 -10.321  12.486  0.00  0.00     0.236 C 
ATOM     17  O   ACE d   1     -10.519  -9.660  13.108  0.00  0.00    -0.272 OA
ATOM     18  H10 ACE d   1     -12.967 -11.483  12.487  0.00  0.00     0.163 HD
BRANCH  16  19
ATOM     19  CA  ACE d   1     -11.275 -10.419  10.961  0.00  0.00     0.069 C 
ATOM     20  H8  ACE d   1     -11.402 -11.474  10.678  0.00  0.00     0.078 H 
ATOM     21  H9  ACE d   1     -12.100  -9.825  10.541  0.00  0.00     0.078 H 
BRANCH  19  22
ATOM     22  N   ACE d   1     -10.007  -9.931  10.375  0.00  0.00    -0.351 N 
ATOM     23  C   ACE d   1      -8.869 -10.597  10.489  0.00  0.00     0.235 C 
ATOM     24  O   ACE d   1      -8.905 -11.709  11.099  0.00  0.00    -0.272 OA
ATOM     25  H7  ACE d   1     -10.010  -9.066   9.874  0.00  0.00     0.163 HD
BRANCH  23  26
ATOM     26  CA  ACE d   1      -7.598 -10.448   9.865  0.00  0.00     0.069 C 
ATOM     27  H5  ACE d   1      -6.847  -9.944  10.491  0.00  0.00     0.078 H 
ATOM     28  H6  ACE d   1      -7.178 -11.386   9.472  0.00  0.00     0.078 H 
BRANCH  26  29
ATOM     29  N   ACE d   1      -8.186  -9.604   8.863  0.00  0.00    -0.353 N 
ATOM     30  C   ACE d   1      -8.473 -10.046   7.628  0.00  0.00     0.213 C 
ATOM     31  O   ACE d   1      -8.595 -11.215   7.412  0.00  0.00    -0.274 OA
ATOM     32  H4  ACE d   1      -8.389  -8.652   9.093  0.00  0.00     0.162 HD
BRANCH  30  33
ATOM     33  CH3 ACE d   1      -8.704  -9.079   6.497  0.00  0.00    -0.003 C 
ATOM     34  H1  ACE d   1      -8.553  -8.051   6.857  0.00  0.00     0.040 H 
ATOM     35  H2  ACE d   1      -9.733  -9.190   6.124  0.00  0.00     0.040 H 
ATOM     36  H3  ACE d   1      -7.994  -9.290   5.684  0.00  0.00     0.040 H 
ENDBRANCH  30  33
ENDBRANCH  26  29
ENDBRANCH  23  26
ENDBRANCH  19  22
ENDBRANCH  16  19
ENDBRANCH  13  15
BRANCH  13  37
ATOM     37  CB  ACE d   1     -13.654 -10.000  14.940  0.00  0.00    -0.029 C 
ATOM     38  H12 ACE d   1     -13.297  -8.981  14.729  0.00  0.00     0.037 H 
ATOM     39  H13 ACE d   1     -13.834 -10.109  16.020  0.00  0.00     0.037 H 
BRANCH  37  40
ATOM     40  CG  ACE d   1     -14.964 -10.209  14.212  0.00  0.00     0.018 C 
ATOM     41  H14 ACE d   1     -15.282 -11.249  14.377  0.00  0.00     0.049 H 
ATOM     42  H15 ACE d   1     -14.786 -10.046  13.139  0.00  0.00     0.049 H 
BRANCH  40  43
ATOM     43  CD  ACE d   1     -16.096  -9.300  14.641  0.00  0.00     0.172 C 
ATOM     44  OE1 ACE d   1     -17.194  -9.427  14.058  0.00  0.00    -0.648 OA
ATOM     45  OE2 ACE d   1     -15.901  -8.469  15.544  0.00  0.00    -0.648 OA
ENDBRANCH  40  43
ENDBRANCH  37  40
ENDBRANCH  13  37
ENDBRANCH  10  13
ENDBRANCH   7   9
BRANCH   7  46
ATOM     46  CB  ACE d   1     -11.813 -14.915  16.535  0.00  0.00    -0.049 C 
ATOM     47  H18 ACE d   1     -12.013 -15.925  16.922  0.00  0.00     0.030 H 
ATOM     48  H19 ACE d   1     -10.964 -14.475  17.079  0.00  0.00     0.030 H 
ATOM     49  H20 ACE d   1     -11.571 -14.975  15.464  0.00  0.00     0.030 H 
ENDBRANCH   7  46
ENDBRANCH   4   7
ENDBRANCH   1   3
BRANCH   1  50
ATOM     50  C   ACE d   1     -13.014 -15.660  20.757  0.00  0.00     0.241 C 
ATOM     51  O   ACE d   1     -12.068 -16.032  20.131  0.00  0.00    -0.271 OA
ATOM     52  N   ACE d   1     -13.009 -15.594  22.086  0.00  0.00    -0.346 N 
ATOM     53  H32 ACE d   1     -13.833 -15.266  22.548  0.00  0.00     0.163 HD
BRANCH  52  54
ATOM     54  CA  ACE d   1     -11.857 -15.978  22.909  0.00  0.00     0.086 C 
ATOM     55  H33 ACE d   1     -10.950 -15.505  22.505  0.00  0.00     0.086 H 
BRANCH  54  56
ATOM     56  C   ACE d   1     -11.668 -17.497  22.918  0.00  0.00     0.240 C 
ATOM     57  O   ACE d   1     -12.591 -18.222  22.562  0.00  0.00    -0.271 OA
ATOM     58  N   ACE d   1     -10.529 -18.005  23.393  0.00  0.00    -0.346 N 
ATOM     59  H37 ACE d   1      -9.744 -17.412  23.572  0.00  0.00     0.163 HD
BRANCH  58  60
ATOM     60  CA  ACE d   1     -10.445 -19.492  23.657  0.00  0.00     0.093 C 
ATOM     61  H38 ACE d   1     -11.460 -19.803  23.943  0.00  0.00     0.088 H 
BRANCH  60  62
ATOM     62  C   ACE d   1      -9.524 -19.953  24.784  0.00  0.00     0.238 C 
ATOM     63  O   ACE d   1      -8.592 -19.261  25.163  0.00  0.00    -0.271 OA
ATOM     64  N   ACE d   1      -9.765 -21.234  25.354  0.00  0.00    -0.368 N 
ATOM     65  H47 ACE d   1      -9.182 -21.570  26.094  0.00  0.00     0.159 HD
ATOM     66  H48 ACE d   1     -10.517 -21.799  25.015  0.00  0.00     0.159 HD
ENDBRANCH  60  62
BRANCH  60  67
ATOM     67  CB  ACE d   1     -10.076 -20.245  22.391  0.00  0.00    -0.012 C 
ATOM     68  H39 ACE d   1     -10.898 -20.132  21.669  0.00  0.00     0.044 H 
ATOM     69  H40 ACE d   1      -9.954 -21.309  22.644  0.00  0.00     0.044 H 
BRANCH  67  70
ATOM     70  CG  ACE d   1      -8.817 -19.768  21.748  0.00  0.00    -0.028 A 
ATOM     71  CD1 ACE d   1      -8.714 -18.816  20.783  0.00  0.00    -0.015 A 
ATOM     72  NE1 ACE d   1      -7.402 -18.651  20.424  0.00  0.00    -0.365 N 
ATOM     73  H41 ACE d   1      -9.552 -18.265  20.358  0.00  0.00     0.112 H 
ATOM     74  CE2 ACE d   1      -6.624 -19.495  21.174  0.00  0.00     0.042 A 
ATOM     75  H42 ACE d   1      -7.056 -17.998  19.706  0.00  0.00     0.165 HD
ATOM     76  CD2 ACE d   1      -7.492 -20.218  22.022  0.00  0.00    -0.002 A 
ATOM     77  CZ2 ACE d   1      -5.225 -19.671  21.192  0.00  0.00    -0.056 A 
ATOM     78  CE3 ACE d   1      -6.944 -21.151  22.915  0.00  0.00    -0.070 A 
ATOM     79  CZ3 ACE d   1      -5.564 -21.342  22.917  0.00  0.00    -0.082 A 
ATOM     80  H43 ACE d   1      -7.581 -21.712  23.589  0.00  0.00     0.084 H 
ATOM     81  CH2 ACE d   1      -4.722 -20.604  22.054  0.00  0.00    -0.081 A 
ATOM     82  H45 ACE d   1      -5.128 -22.069  23.592  0.00  0.00     0.083 H 
ATOM     83  H46 ACE d   1      -3.653 -20.782  22.077  0.00  0.00     0.083 H 
ATOM     84  H44 ACE d   1      -4.575 -19.090  20.548  0.00  0.00     0.086 H 
ENDBRANCH  67  70
ENDBRANCH  60  67
ENDBRANCH  58  60
ENDBRANCH  54  56
BRANCH  54  85
ATOM     85  CB  ACE d   1     -12.093 -15.496  24.335  0.00  0.00    -0.049 C 
ATOM     86  H34 ACE d   1     -11.236 -15.778  24.964  0.00  0.00     0.030 H 
ATOM     87  H35 ACE d   1     -13.008 -15.960  24.733  0.00  0.00     0.030 H 
ATOM     88  H36 ACE d   1     -12.206 -14.402  24.338  0.00  0.00     0.030 H 
ENDBRANCH  54  85
ENDBRANCH  52  54
ENDBRANCH   1  50
BRANCH   1  89
ATOM     89  CB  ACE d   1     -15.308 -16.440  20.243  0.00  0.00    -0.035 C 
ATOM     90  H23 ACE d   1     -15.377 -16.656  21.319  0.00  0.00     0.037 H 
ATOM     91  H24 ACE d   1     -14.921 -17.324  19.716  0.00  0.00     0.037 H 
BRANCH  89  92
ATOM     92  CG  ACE d   1     -16.713 -16.163  19.728  0.00  0.00    -0.059 C 
ATOM     93  H25 ACE d   1     -16.658 -15.969  18.647  0.00  0.00     0.038 H 
BRANCH  92  94
ATOM     94  CD1 ACE d   1     -17.571 -17.410  19.966  0.00  0.00    -0.073 C 
ATOM     95  H26 ACE d   1     -18.592 -17.228  19.599  0.00  0.00     0.028 H 
ATOM     96  H27 ACE d   1     -17.602 -17.633  21.043  0.00  0.00     0.028 H 
ATOM     97  H28 ACE d   1     -17.135 -18.264  19.427  0.00  0.00     0.028 H 
ENDBRANCH  92  94
BRANCH  92  98
ATOM     98  CD2 ACE d   1     -17.338 -14.949  20.396  0.00  0.00    -0.073 C 
ATOM     99  H29 ACE d   1     -16.708 -14.066  20.214  0.00  0.00     0.028 H 
ATOM    100  H30 ACE d   1     -17.417 -15.126  21.479  0.00  0.00     0.028 H 
ATOM    101  H31 ACE d   1     -18.341 -14.777  19.979  0.00  0.00     0.028 H 
ENDBRANCH  92  98
ENDBRANCH  89  92
ENDBRANCH   1  89
TORSDOF 26
