REMARK  4 active torsions:
REMARK  status: ('A' for Active; 'I' for Inactive)
REMARK    1  A    between atoms: CAC_5  and  CAF_6 
REMARK    2  A    between atoms: CAF_6  and  NAG_7 
REMARK    3  A    between atoms: NAG_7  and  CAH_8 
REMARK    4  A    between atoms: CAK_12  and  NAM_13 
ROOT
ATOM      1  CAF 6F4 d   1       7.425 -15.816  14.295  0.00  0.00     0.024 C 
ATOM      2  H4  6F4 d   1       7.773 -16.187  13.320  0.00  0.00     0.072 H 
ATOM      3  H5  6F4 d   1       8.218 -15.957  15.045  0.00  0.00     0.072 H 
ENDROOT
BRANCH   1   4
ATOM      4  CAC 6F4 d   1       6.181 -16.623  14.724  0.00  0.00     0.000 A 
ATOM      5  CAB 6F4 d   1       6.056 -17.457  15.777  0.00  0.00    -0.068 A 
ATOM      6  CAA 6F4 d   1       4.837 -18.027  15.831  0.00  0.00    -0.076 A 
ATOM      7  H1  6F4 d   1       6.848 -17.647  16.499  0.00  0.00     0.085 H 
ATOM      8  CAE 6F4 d   1       4.009 -17.680  14.835  0.00  0.00    -0.044 A 
ATOM      9  H2  6F4 d   1       4.546 -18.716  16.622  0.00  0.00     0.084 H 
ATOM     10  SAD 6F4 d   1       4.839 -16.567  13.824  0.00  0.00    -0.105 SA
ATOM     11  H3  6F4 d   1       2.991 -18.040  14.693  0.00  0.00     0.095 H 
ENDBRANCH   1   4
BRANCH   1  12
ATOM     12  NAG 6F4 d   1       7.128 -14.391  14.181  0.00  0.00    -0.363 N 
ATOM     13  H6  6F4 d   1       6.175 -14.091  13.931  0.00  0.00     0.162 HD
BRANCH  12  14
ATOM     14  CAH 6F4 d   1       8.077 -13.463  14.397  0.00  0.00     0.191 A 
ATOM     15  SAJ 6F4 d   1       9.725 -13.640  14.065  0.00  0.00    -0.011 SA
ATOM     16  CAK 6F4 d   1      10.036 -12.009  14.686  0.00  0.00     0.189 A 
ATOM     17  NAL 6F4 d   1       8.914 -11.463  15.097  0.00  0.00    -0.122 NA
ATOM     18  NAI 6F4 d   1       7.848 -12.272  14.950  0.00  0.00    -0.122 NA
BRANCH  16  19
ATOM     19  NAM 6F4 d   1      11.171 -11.396  14.744  0.00  0.00    -0.377 N 
ATOM     20  H7  6F4 d   1      11.222 -10.442  15.130  0.00  0.00     0.158 HD
ATOM     21  H8  6F4 d   1      12.025 -11.861  14.405  0.00  0.00     0.158 HD
ENDBRANCH  16  19
ENDBRANCH  12  14
ENDBRANCH   1  12
TORSDOF 4
