REMARK  9 active torsions:
REMARK  status: ('A' for Active; 'I' for Inactive)
REMARK    1  A    between atoms: PB_1  and  O3A_5 
REMARK    2  A    between atoms: O3A_5  and  PA_6 
REMARK    3  A    between atoms: PA_6  and  O5'_9 
REMARK    4  A    between atoms: O5'_9  and  C5'_10 
REMARK    5  A    between atoms: C5'_10  and  C4'_11 
REMARK    6  A    between atoms: C3'_13  and  O3'_14 
REMARK    7  A    between atoms: C2'_15  and  O2'_16 
REMARK    8  A    between atoms: C1'_17  and  N9_18 
REMARK    9  A    between atoms: C2_25  and  N2_26 
ROOT
ATOM      1  C4' GDP d   1       8.991  12.925 107.305  0.00  0.00     0.089 C 
ATOM      2  O4' GDP d   1       8.985  14.323 107.624  0.00  0.00    -0.353 OA
ATOM      3  C3' GDP d   1       9.387  12.884 105.838  0.00  0.00     0.091 C 
ATOM      4  C2' GDP d   1       8.944  14.234 105.297  0.00  0.00     0.105 C 
ATOM      5  C1' GDP d   1       8.333  14.932 106.500  0.00  0.00     0.139 C 
ATOM      6  H3  GDP d   1       8.004  12.468 107.471  0.00  0.00     0.090 H 
ATOM      7  H4  GDP d   1      10.470  12.736 105.716  0.00  0.00     0.091 H 
ATOM      8  H6  GDP d   1       9.792  14.803 104.888  0.00  0.00     0.093 H 
ATOM      9  H8  GDP d   1       7.245  14.775 106.536  0.00  0.00     0.122 H 
ENDROOT
BRANCH   5  10
ATOM     10  N9  GDP d   1       8.632  16.381 106.482  0.00  0.00    -0.295 N 
ATOM     11  C8  GDP d   1       9.585  16.988 107.183  0.00  0.00     0.071 A 
ATOM     12  N7  GDP d   1       9.537  18.285 106.896  0.00  0.00    -0.234 NA
ATOM     13  H9  GDP d   1      10.281  16.508 107.870  0.00  0.00     0.144 H 
ATOM     14  C5  GDP d   1       8.556  18.481 106.020  0.00  0.00     0.171 A 
ATOM     15  C6  GDP d   1       8.115  19.591 105.432  0.00  0.00     0.292 A 
ATOM     16  C4  GDP d   1       7.993  17.299 105.762  0.00  0.00     0.161 A 
ATOM     17  O6  GDP d   1       8.636  20.679 105.672  0.00  0.00    -0.265 OA
ATOM     18  N1  GDP d   1       7.048  19.520 104.533  0.00  0.00    -0.154 N 
ATOM     19  C2  GDP d   1       6.479  18.272 104.282  0.00  0.00     0.680 A 
ATOM     20  H10 GDP d   1       6.702  20.342 104.082  0.00  0.00     0.187 HD
ATOM     21  N3  GDP d   1       6.966  17.191 104.904  0.00  0.00    -0.174 N 
ATOM     22  H13 GDP d   1       6.548  16.267 104.722  0.00  0.00     0.186 HD
BRANCH  19  23
ATOM     23  N2  GDP d   1       5.461  18.156 103.433  0.00  0.00    -0.234 N 
ATOM     24  H11 GDP d   1       5.045  17.232 103.251  0.00  0.00     0.174 HD
ATOM     25  H12 GDP d   1       5.089  18.991 102.957  0.00  0.00     0.174 HD
ENDBRANCH  19  23
ENDBRANCH   5  10
BRANCH   4  26
ATOM     26  O2' GDP d   1       7.938  14.041 104.292  0.00  0.00    -0.388 OA
ATOM     27  H7  GDP d   1       7.193  13.592 104.674  0.00  0.00     0.210 HD
ENDBRANCH   4  26
BRANCH   1  28
ATOM     28  C5' GDP d   1      10.057  12.215 108.142  0.00  0.00     0.058 C 
ATOM     29  H1  GDP d   1      10.197  11.191 107.765  0.00  0.00     0.079 H 
ATOM     30  H2  GDP d   1      11.007  12.765 108.070  0.00  0.00     0.079 H 
BRANCH  28  31
ATOM     31  O5' GDP d   1       9.637  12.167 109.508  0.00  0.00    -0.287 OA
BRANCH  31  32
ATOM     32  PA  GDP d   1      10.691  11.791 110.660  0.00  0.00     0.418 P 
ATOM     33  O1A GDP d   1      12.018  11.577 110.044  0.00  0.00    -0.624 OA
ATOM     34  O2A GDP d   1      10.549  12.755 111.772  0.00  0.00    -0.624 OA
BRANCH  32  35
ATOM     35  O3A GDP d   1      10.136  10.365 111.161  0.00  0.00    -0.173 OA
BRANCH  35  36
ATOM     36  PB  GDP d   1      10.994   9.488 112.169  0.00  0.00     0.431 P 
ATOM     37  O1B GDP d   1      12.372   9.637 111.681  0.00  0.00    -0.616 OA
ATOM     38  O2B GDP d   1      10.407   8.146 112.056  0.00  0.00    -0.616 OA
ATOM     39  O3B GDP d   1      10.719  10.173 113.451  0.00  0.00    -0.616 OA
ENDBRANCH  35  36
ENDBRANCH  32  35
ENDBRANCH  31  32
ENDBRANCH  28  31
ENDBRANCH   1  28
BRANCH   3  40
ATOM     40  O3' GDP d   1       8.660  11.840 105.174  0.00  0.00    -0.390 OA
ATOM     41  H5  GDP d   1       7.728  12.009 105.246  0.00  0.00     0.210 HD
ENDBRANCH   3  40
TORSDOF 9
