REMARK  11 active torsions:
REMARK  status: ('A' for Active; 'I' for Inactive)
REMARK    1  A    between atoms: PG_1  and  N3B_5 
REMARK    2  A    between atoms: N3B_5  and  PB_6 
REMARK    3  A    between atoms: PB_6  and  O3A_9 
REMARK    4  A    between atoms: O3A_9  and  PA_10 
REMARK    5  A    between atoms: PA_10  and  O5'_13 
REMARK    6  A    between atoms: O5'_13  and  C5'_14 
REMARK    7  A    between atoms: C5'_14  and  C4'_15 
REMARK    8  A    between atoms: C3'_17  and  O3'_18 
REMARK    9  A    between atoms: C2'_19  and  O2'_20 
REMARK   10  A    between atoms: C1'_21  and  N9_22 
REMARK   11  A    between atoms: C2_29  and  N2_30 
ROOT
ATOM      1  C4' GNP d   1      -8.011  -2.585  17.780  0.00  0.00     0.089 C 
ATOM      2  O4' GNP d   1      -9.019  -1.594  18.026  0.00  0.00    -0.353 OA
ATOM      3  C3' GNP d   1      -7.856  -2.585  16.268  0.00  0.00     0.091 C 
ATOM      4  C2' GNP d   1      -9.202  -2.094  15.758  0.00  0.00     0.105 C 
ATOM      5  C1' GNP d   1     -10.011  -1.853  17.023  0.00  0.00     0.139 C 
ATOM      6  H4  GNP d   1      -8.316  -3.573  18.155  0.00  0.00     0.090 H 
ATOM      7  H5  GNP d   1      -7.037  -1.925  15.946  0.00  0.00     0.091 H 
ATOM      8  H7  GNP d   1      -9.098  -1.174  15.164  0.00  0.00     0.093 H 
ATOM      9  H9  GNP d   1     -10.616  -2.736  17.278  0.00  0.00     0.122 H 
ENDROOT
BRANCH   1  10
ATOM     10  C5' GNP d   1      -6.696  -2.149  18.429  0.00  0.00     0.058 C 
ATOM     11  H2  GNP d   1      -6.657  -2.520  19.464  0.00  0.00     0.079 H 
ATOM     12  H3  GNP d   1      -5.851  -2.563  17.859  0.00  0.00     0.079 H 
BRANCH  10  13
ATOM     13  O5' GNP d   1      -6.616  -0.721  18.431  0.00  0.00    -0.287 OA
BRANCH  13  14
ATOM     14  PA  GNP d   1      -5.315   0.013  17.830  0.00  0.00     0.417 P 
ATOM     15  O1A GNP d   1      -4.746  -0.852  16.774  0.00  0.00    -0.624 OA
ATOM     16  O2A GNP d   1      -5.680   1.410  17.511  0.00  0.00    -0.624 OA
BRANCH  14  17
ATOM     17  O3A GNP d   1      -4.323   0.010  19.094  0.00  0.00    -0.186 OA
BRANCH  17  18
ATOM     18  PB  GNP d   1      -3.884   1.401  19.776  0.00  0.00     0.379 P 
ATOM     19  O1B GNP d   1      -2.749   2.049  18.821  0.00  0.00    -0.629 OA
ATOM     20  O2B GNP d   1      -5.013   2.335  20.010  0.00  0.00    -0.629 OA
BRANCH  18  21
ATOM     21  N3B GNP d   1      -3.103   1.019  21.170  0.00  0.00    -0.218 N 
ATOM     22  H1  GNP d   1      -3.474   1.139  22.091  0.00  0.00     0.179 HD
BRANCH  21  23
ATOM     23  PG  GNP d   1      -1.637   0.418  20.822  0.00  0.00     0.381 P 
ATOM     24  O1G GNP d   1      -1.817  -0.530  19.522  0.00  0.00    -0.622 OA
ATOM     25  O2G GNP d   1      -1.247  -0.590  22.028  0.00  0.00    -0.622 OA
ATOM     26  O3G GNP d   1      -0.599   1.457  20.611  0.00  0.00    -0.622 OA
ENDBRANCH  21  23
ENDBRANCH  18  21
ENDBRANCH  17  18
ENDBRANCH  14  17
ENDBRANCH  13  14
ENDBRANCH  10  13
ENDBRANCH   1  10
BRANCH   3  27
ATOM     27  O3' GNP d   1      -7.630  -3.926  15.810  0.00  0.00    -0.390 OA
ATOM     28  H6  GNP d   1      -8.369  -4.471  16.053  0.00  0.00     0.210 HD
ENDBRANCH   3  27
BRANCH   5  29
ATOM     29  N9  GNP d   1     -10.886  -0.668  16.875  0.00  0.00    -0.295 N 
ATOM     30  C8  GNP d   1     -10.478   0.577  16.651  0.00  0.00     0.071 A 
ATOM     31  N7  GNP d   1     -11.556   1.351  16.580  0.00  0.00    -0.234 NA
ATOM     32  H10 GNP d   1      -9.445   0.904  16.545  0.00  0.00     0.144 H 
ATOM     33  C5  GNP d   1     -12.630   0.586  16.761  0.00  0.00     0.171 A 
ATOM     34  C6  GNP d   1     -13.927   0.886  16.779  0.00  0.00     0.292 A 
ATOM     35  C4  GNP d   1     -12.214  -0.668  16.944  0.00  0.00     0.161 A 
ATOM     36  O6  GNP d   1     -14.307   2.043  16.610  0.00  0.00    -0.265 OA
ATOM     37  N1  GNP d   1     -14.867  -0.125  16.993  0.00  0.00    -0.154 N 
ATOM     38  C2  GNP d   1     -14.404  -1.427  17.181  0.00  0.00     0.680 A 
ATOM     39  H11 GNP d   1     -15.846   0.079  17.011  0.00  0.00     0.187 HD
ATOM     40  N3  GNP d   1     -13.087  -1.666  17.152  0.00  0.00    -0.174 N 
ATOM     41  H14 GNP d   1     -12.740  -2.626  17.291  0.00  0.00     0.186 HD
BRANCH  38  42
ATOM     42  N2  GNP d   1     -15.263  -2.422  17.388  0.00  0.00    -0.234 N 
ATOM     43  H12 GNP d   1     -14.916  -3.382  17.526  0.00  0.00     0.174 HD
ATOM     44  H13 GNP d   1     -16.275  -2.232  17.410  0.00  0.00     0.174 HD
ENDBRANCH  38  42
ENDBRANCH   5  29
BRANCH   4  45
ATOM     45  O2' GNP d   1      -9.825  -3.126  14.980  0.00  0.00    -0.388 OA
ATOM     46  H8  GNP d   1      -9.268  -3.345  14.243  0.00  0.00     0.210 HD
ENDBRANCH   4  45
TORSDOF 11
