REMARK  11 active torsions:
REMARK  status: ('A' for Active; 'I' for Inactive)
REMARK    1  A    between atoms: C3_7  and  N3_8 
REMARK    2  A    between atoms: C7_19  and  C5_13 
REMARK    3  A    between atoms: N5_14  and  C8_20 
REMARK    4  A    between atoms: C9_21  and  N5_14 
REMARK       I    between atoms: N6_17  and  C15_27 
REMARK    5  A    between atoms: C16_28  and  N6_17 
REMARK    6  A    between atoms: C8_20  and  C7_19 
REMARK    7  A    between atoms: C15_27  and  C12_24 
REMARK    8  A    between atoms: C16_28  and  C17_29 
REMARK    9  A    between atoms: C18_30  and  C16_28 
REMARK   10  A    between atoms: C19_31  and  C18_30 
REMARK   11  A    between atoms: C19_31  and  C20_32 
ROOT
ATOM      1  C9  83A d   1      -6.608  21.751  -1.016  0.00  0.00     0.028 A 
ATOM      2  C10 83A d   1      -6.941  20.410  -1.023  0.00  0.00    -0.057 A 
ATOM      3  C11 83A d   1      -8.029  19.995  -0.280  0.00  0.00    -0.066 A 
ATOM      4  C12 83A d   1      -8.764  20.925   0.460  0.00  0.00     0.032 A 
ATOM      5  C13 83A d   1      -8.434  22.280   0.454  0.00  0.00    -0.066 A 
ATOM      6  C14 83A d   1      -7.344  22.685  -0.296  0.00  0.00    -0.057 A 
ATOM      7  H13 83A d   1      -6.361  19.699  -1.599  0.00  0.00     0.086 H 
ATOM      8  H14 83A d   1      -8.312  18.949  -0.271  0.00  0.00     0.085 H 
ATOM      9  H15 83A d   1      -9.016  22.997   1.022  0.00  0.00     0.085 H 
ATOM     10  H16 83A d   1      -7.064  23.732  -0.322  0.00  0.00     0.086 H 
ENDROOT
BRANCH   1  11
ATOM     11  N5  83A d   1      -5.457  22.156  -1.767  0.00  0.00    -0.390 N 
ATOM     12  H6  83A d   1      -4.532  22.132  -1.315  0.00  0.00     0.159 HD
BRANCH  11  13
ATOM     13  C8  83A d   1      -5.556  22.607  -3.171  0.00  0.00    -0.002 C 
ATOM     14  H11 83A d   1      -6.457  23.227  -3.295  0.00  0.00     0.064 H 
ATOM     15  H12 83A d   1      -5.619  21.732  -3.834  0.00  0.00     0.064 H 
BRANCH  13  16
ATOM     16  C7  83A d   1      -4.322  23.427  -3.528  0.00  0.00    -0.012 C 
ATOM     17  H9  83A d   1      -4.571  24.498  -3.544  0.00  0.00     0.044 H 
ATOM     18  H10 83A d   1      -3.522  23.247  -2.795  0.00  0.00     0.044 H 
BRANCH  16  19
ATOM     19  C5  83A d   1      -3.884  22.977  -4.893  0.00  0.00     0.013 A 
ATOM     20  N4  83A d   1      -2.654  22.828  -5.393  0.00  0.00    -0.345 N 
ATOM     21  C4  83A d   1      -2.653  22.408  -6.673  0.00  0.00     0.137 A 
ATOM     22  H5  83A d   1      -1.796  23.015  -4.856  0.00  0.00     0.167 HD
ATOM     23  C1  83A d   1      -3.986  22.244  -7.078  0.00  0.00     0.079 A 
ATOM     24  N2  83A d   1      -1.665  22.151  -7.535  0.00  0.00    -0.176 N 
ATOM     25  C2  83A d   1      -4.237  21.808  -8.361  0.00  0.00     0.273 A 
ATOM     26  C6  83A d   1      -4.667  22.605  -5.951  0.00  0.00    -0.042 A 
ATOM     27  N1  83A d   1      -3.200  21.568  -9.175  0.00  0.00    -0.156 N 
ATOM     28  O1  83A d   1      -5.381  21.652  -8.768  0.00  0.00    -0.267 OA
ATOM     29  C3  83A d   1      -1.933  21.733  -8.771  0.00  0.00     0.680 A 
ATOM     30  H1  83A d   1      -3.376  21.257 -10.109  0.00  0.00     0.187 HD
ATOM     31  H7  83A d   1      -5.755  22.597  -5.898  0.00  0.00     0.088 H 
ATOM     32  H2  83A d   1      -0.686  22.277  -7.241  0.00  0.00     0.186 HD
BRANCH  29  33
ATOM     33  N3  83A d   1      -0.866  21.455  -9.652  0.00  0.00    -0.234 N 
ATOM     34  H3  83A d   1      -1.060  21.131 -10.610  0.00  0.00     0.174 HD
ATOM     35  H4  83A d   1       0.107  21.576  -9.337  0.00  0.00     0.174 HD
ENDBRANCH  29  33
ENDBRANCH  16  19
ENDBRANCH  13  16
ENDBRANCH  11  13
ENDBRANCH   1  11
BRANCH   4  36
ATOM     36  C15 83A d   1      -9.968  20.407   1.243  0.00  0.00     0.252 C 
ATOM     37  O2  83A d   1     -10.436  21.054   2.154  0.00  0.00    -0.268 OA
ATOM     38  N6  83A d   1     -10.482  19.168   0.797  0.00  0.00    -0.342 N 
ATOM     39  H8  83A d   1     -10.012  18.706   0.045  0.00  0.00     0.163 HD
BRANCH  38  40
ATOM     40  C16 83A d   1     -11.622  18.545   1.353  0.00  0.00     0.097 C 
ATOM     41  H17 83A d   1     -12.034  19.146   2.176  0.00  0.00     0.089 H 
BRANCH  40  42
ATOM     42  C17 83A d   1     -11.251  17.168   1.857  0.00  0.00     0.196 C 
ATOM     43  O3  83A d   1     -10.059  16.932   2.180  0.00  0.00    -0.646 OA
ATOM     44  O4  83A d   1     -12.112  16.255   1.940  0.00  0.00    -0.646 OA
ENDBRANCH  40  42
BRANCH  40  45
ATOM     45  C18 83A d   1     -12.619  18.437   0.218  0.00  0.00    -0.028 C 
ATOM     46  H18 83A d   1     -13.640  18.593   0.595  0.00  0.00     0.037 H 
ATOM     47  H19 83A d   1     -12.549  17.446  -0.254  0.00  0.00     0.037 H 
BRANCH  45  48
ATOM     48  C19 83A d   1     -12.263  19.518  -0.784  0.00  0.00     0.018 C 
ATOM     49  H20 83A d   1     -11.422  19.162  -1.398  0.00  0.00     0.049 H 
ATOM     50  H21 83A d   1     -11.959  20.419  -0.232  0.00  0.00     0.049 H 
BRANCH  48  51
ATOM     51  C20 83A d   1     -13.411  19.882  -1.705  0.00  0.00     0.172 C 
ATOM     52  O5  83A d   1     -13.628  19.160  -2.712  0.00  0.00    -0.648 OA
ATOM     53  O6  83A d   1     -14.124  20.892  -1.449  0.00  0.00    -0.648 OA
ENDBRANCH  48  51
ENDBRANCH  45  48
ENDBRANCH  40  45
ENDBRANCH  38  40
ENDBRANCH   4  36
TORSDOF 11
