REMARK WARNING: 32 MAX_TORS EXCEEDED!!!
REMARK  70 active torsions:
REMARK  status: ('A' for Active; 'I' for Inactive)
REMARK    1  A    between atoms: N_1  and  CA_2 
REMARK    2  A    between atoms: CA_2  and  C_3 
REMARK    3  A    between atoms: CA_2  and  CB_5 
REMARK       I    between atoms: C_3  and  N_6 
REMARK    4  A    between atoms: N_6  and  CA_7 
REMARK    5  A    between atoms: CA_7  and  C_8 
REMARK    6  A    between atoms: CA_7  and  CB_10 
REMARK       I    between atoms: C_8  and  N_14 
REMARK    7  A    between atoms: CB_10  and  CG_11 
REMARK    8  A    between atoms: N_14  and  CA_15 
REMARK    9  A    between atoms: CA_15  and  C_16 
REMARK   10  A    between atoms: CA_15  and  CB_18 
REMARK       I    between atoms: C_16  and  N_20 
REMARK   11  A    between atoms: CB_18  and  OG_19 
REMARK   12  A    between atoms: N_20  and  CA_21 
REMARK   13  A    between atoms: CA_21  and  C_22 
REMARK   14  A    between atoms: CA_21  and  CB_24 
REMARK       I    between atoms: C_22  and  N_28 
REMARK   15  A    between atoms: CB_24  and  CG1_25 
REMARK   16  A    between atoms: CB_24  and  CG2_26 
REMARK   17  A    between atoms: CG1_25  and  CD1_27 
REMARK   18  A    between atoms: N_28  and  CA_29 
REMARK   19  A    between atoms: CA_29  and  C_30 
REMARK   20  A    between atoms: CA_29  and  CB_32 
REMARK       I    between atoms: C_30  and  N_37 
REMARK   21  A    between atoms: CB_32  and  CG_33 
REMARK   22  A    between atoms: CG_33  and  CD_34 
REMARK   23  A    between atoms: N_37  and  CA_38 
REMARK   24  A    between atoms: CA_38  and  C_39 
REMARK   25  A    between atoms: CA_38  and  CB_41 
REMARK       I    between atoms: C_39  and  N_45 
REMARK   26  A    between atoms: CB_41  and  CG1_42 
REMARK   27  A    between atoms: CB_41  and  CG2_43 
REMARK   28  A    between atoms: CG1_42  and  CD1_44 
REMARK   29  A    between atoms: N_45  and  CA_46 
REMARK   30  A    between atoms: CA_46  and  C_47 
REMARK   31  A    between atoms: CA_46  and  CB_49 
REMARK       I    between atoms: C_47  and  N_57 
REMARK   32  A    between atoms: CB_49  and  CG_50 
REMARK   33  A    between atoms: CZ_55  and  OH_56 
REMARK   34  A    between atoms: N_57  and  CA_58 
REMARK   35  A    between atoms: CA_58  and  C_59 
REMARK   36  A    between atoms: CA_58  and  CB_61 
REMARK       I    between atoms: C_59  and  N_65 
REMARK   37  A    between atoms: CB_61  and  CG1_62 
REMARK   38  A    between atoms: CB_61  and  CG2_63 
REMARK   39  A    between atoms: CG1_62  and  CD1_64 
REMARK   40  A    between atoms: CA_66  and  C_67 
REMARK       I    between atoms: C_67  and  N_72 
REMARK   41  A    between atoms: N_72  and  CA_73 
REMARK   42  A    between atoms: CA_73  and  C_74 
REMARK   43  A    between atoms: CA_73  and  CB_76 
REMARK       I    between atoms: C_74  and  N_81 
REMARK   44  A    between atoms: CB_76  and  CG_77 
REMARK   45  A    between atoms: CG_77  and  CD_78 
REMARK   46  A    between atoms: N_81  and  CA_82 
REMARK   47  A    between atoms: CA_82  and  C_83 
REMARK   48  A    between atoms: CA_82  and  CB_85 
REMARK       I    between atoms: C_83  and  N_86 
REMARK   49  A    between atoms: N_86  and  CA_87 
REMARK   50  A    between atoms: CA_87  and  C_88 
REMARK   51  A    between atoms: CA_87  and  CB_90 
REMARK       I    between atoms: C_88  and  N_95 
REMARK   52  A    between atoms: CB_90  and  CG_91 
REMARK   53  A    between atoms: CG_91  and  CD_92 
REMARK       I    between atoms: CD_92  and  NE2_94 
REMARK   54  A    between atoms: N_95  and  CA_96 
REMARK   55  A    between atoms: CA_96  and  C_97 
REMARK   56  A    between atoms: CA_96  and  CB_99 
REMARK       I    between atoms: C_97  and  N_102 
REMARK   57  A    between atoms: CB_99  and  OG1_100 
REMARK   58  A    between atoms: CB_99  and  CG2_101 
REMARK   59  A    between atoms: N_102  and  CA_103 
REMARK   60  A    between atoms: CA_103  and  C_104 
REMARK   61  A    between atoms: CA_103  and  CB_106 
REMARK       I    between atoms: C_104  and  N_113 
REMARK   62  A    between atoms: CB_106  and  CG_107 
REMARK   63  A    between atoms: CG_107  and  CD_108 
REMARK   64  A    between atoms: CD_108  and  NE_109 
REMARK       I    between atoms: NE_109  and  CZ_110 
REMARK       I    between atoms: CZ_110  and  NH1_111 
REMARK       I    between atoms: CZ_110  and  NH2_112 
REMARK   65  A    between atoms: N_113  and  CA_114 
REMARK   66  A    between atoms: CA_114  and  C_115 
REMARK   67  A    between atoms: CA_114  and  CB_117 
REMARK   68  A    between atoms: CB_117  and  CG_118 
REMARK   69  A    between atoms: CG_118  and  CD1_119 
REMARK   70  A    between atoms: CG_118  and  CD2_120 
ROOT
ATOM      1  CA  ILE d   1      26.909  32.225   4.326  0.00  0.00     0.092 C 
ATOM      2  H55 ILE d   1      27.348  33.063   3.764  0.00  0.00     0.088 H 
ENDROOT
BRANCH   1   3
ATOM      3  N   ILE d   1      27.582  30.996   3.958  0.00  0.00    -0.346 N 
ATOM      4  C   TYR d   1      28.796  30.991   3.425  0.00  0.00     0.241 C 
ATOM      5  O   TYR d   1      29.362  32.001   3.014  0.00  0.00    -0.271 OA
ATOM      6  H54 ILE d   1      27.116  30.124   4.111  0.00  0.00     0.163 HD
BRANCH   4   7
ATOM      7  CA  TYR d   1      29.449  29.628   3.302  0.00  0.00     0.093 C 
ATOM      8  H46 TYR d   1      28.771  28.867   3.716  0.00  0.00     0.088 H 
BRANCH   7   9
ATOM      9  N   TYR d   1      29.672  29.346   1.907  0.00  0.00    -0.346 N 
ATOM     10  C   ILE d   1      28.703  28.823   1.176  0.00  0.00     0.241 C 
ATOM     11  O   ILE d   1      27.632  28.426   1.661  0.00  0.00    -0.271 OA
ATOM     12  H45 TYR d   1      30.560  29.546   1.492  0.00  0.00     0.163 HD
BRANCH  10  13
ATOM     13  CA  ILE d   1      28.979  28.760  -0.318  0.00  0.00     0.092 C 
ATOM     14  H35 ILE d   1      30.060  28.870  -0.491  0.00  0.00     0.088 H 
BRANCH  13  15
ATOM     15  N   ILE d   1      28.550  27.500  -0.910  0.00  0.00    -0.346 N 
ATOM     16  C   GLU d   1      29.238  26.906  -1.877  0.00  0.00     0.241 C 
ATOM     17  O   GLU d   1      30.283  27.361  -2.338  0.00  0.00    -0.271 OA
ATOM     18  H34 ILE d   1      27.711  27.069  -0.577  0.00  0.00     0.163 HD
BRANCH  16  19
ATOM     19  CA  GLU d   1      28.655  25.610  -2.409  0.00  0.00     0.090 C 
ATOM     20  H29 GLU d   1      27.592  25.573  -2.128  0.00  0.00     0.087 H 
BRANCH  19  21
ATOM     21  N   GLU d   1      28.741  25.559  -3.867  0.00  0.00    -0.346 N 
ATOM     22  C   ILE d   1      27.724  25.937  -4.636  0.00  0.00     0.241 C 
ATOM     23  O   ILE d   1      26.628  26.290  -4.185  0.00  0.00    -0.271 OA
ATOM     24  H28 GLU d   1      29.583  25.233  -4.296  0.00  0.00     0.163 HD
BRANCH  22  25
ATOM     25  CA  ILE d   1      27.974  25.905  -6.129  0.00  0.00     0.092 C 
ATOM     26  H18 ILE d   1      28.845  25.259  -6.313  0.00  0.00     0.088 H 
BRANCH  25  27
ATOM     27  N   ILE d   1      26.847  25.345  -6.869  0.00  0.00    -0.346 N 
ATOM     28  C   SER d   1      27.050  24.439  -7.822  0.00  0.00     0.243 C 
ATOM     29  O   SER d   1      28.168  23.983  -8.079  0.00  0.00    -0.271 OA
ATOM     30  H17 ILE d   1      25.916  25.644  -6.658  0.00  0.00     0.163 HD
BRANCH  28  31
ATOM     31  CA  SER d   1      25.829  23.991  -8.620  0.00  0.00     0.109 C 
ATOM     32  H13 SER d   1      24.954  24.563  -8.277  0.00  0.00     0.090 H 
BRANCH  31  33
ATOM     33  N   SER d   1      26.044  24.266 -10.028  0.00  0.00    -0.344 N 
ATOM     34  C   ASP d   1      25.119  24.879 -10.752  0.00  0.00     0.241 C 
ATOM     35  O   ASP d   1      23.999  25.149 -10.301  0.00  0.00    -0.271 OA
ATOM     36  H12 SER d   1      26.903  23.989 -10.459  0.00  0.00     0.163 HD
BRANCH  34  37
ATOM     37  CA  ASP d   1      25.527  25.243 -12.193  0.00  0.00     0.098 C 
ATOM     38  H9  ASP d   1      26.143  24.414 -12.572  0.00  0.00     0.088 H 
BRANCH  37  39
ATOM     39  N   ASP d   1      24.404  25.392 -13.101  0.00  0.00    -0.346 N 
ATOM     40  C   ALA d   1      24.566  25.239 -14.415  0.00  0.00     0.248 C 
ATOM     41  O   ALA d   1      25.666  25.024 -14.934  0.00  0.00    -0.271 OA
ATOM     42  H8  ASP d   1      23.499  25.612 -12.736  0.00  0.00     0.163 HD
BRANCH  40  43
ATOM     43  CA  ALA d   1      23.301  25.332 -15.267  0.00  0.00     0.172 C 
ATOM     44  H4  ALA d   1      22.551  25.889 -14.686  0.00  0.00     0.098 H 
BRANCH  43  45
ATOM     45  N   ALA d   1      23.510  26.056 -16.521  0.00  0.00    -0.067 N 
ATOM     46  H1  ALA d   1      22.646  26.086 -17.040  0.00  0.00     0.275 HD
ATOM     47  H2  ALA d   1      24.214  25.585 -17.068  0.00  0.00     0.275 HD
ATOM     48  H3  ALA d   1      23.814  26.996 -16.320  0.00  0.00     0.275 HD
ENDBRANCH  43  45
BRANCH  43  49
ATOM     49  CB  ALA d   1      22.745  23.938 -15.538  0.00  0.00    -0.042 C 
ATOM     50  H5  ALA d   1      22.595  23.411 -14.584  0.00  0.00     0.030 H 
ATOM     51  H6  ALA d   1      23.456  23.374 -16.160  0.00  0.00     0.030 H 
ATOM     52  H7  ALA d   1      21.783  24.023 -16.065  0.00  0.00     0.030 H 
ENDBRANCH  43  49
ENDBRANCH  40  43
ENDBRANCH  37  39
BRANCH  37  53
ATOM     53  CB  ASP d   1      26.387  26.511 -12.213  0.00  0.00     0.043 C 
ATOM     54  H10 ASP d   1      26.055  27.174 -11.401  0.00  0.00     0.052 H 
ATOM     55  H11 ASP d   1      26.247  27.017 -13.180  0.00  0.00     0.052 H 
BRANCH  53  56
ATOM     56  CG  ASP d   1      27.866  26.218 -12.028  0.00  0.00     0.175 C 
ATOM     57  OD1 ASP d   1      28.208  25.119 -11.532  0.00  0.00    -0.648 OA
ATOM     58  OD2 ASP d   1      28.690  27.091 -12.377  0.00  0.00    -0.648 OA
ENDBRANCH  53  56
ENDBRANCH  37  53
ENDBRANCH  34  37
ENDBRANCH  31  33
BRANCH  31  59
ATOM     59  CB  SER d   1      25.554  22.506  -8.400  0.00  0.00     0.044 C 
ATOM     60  H14 SER d   1      26.494  21.943  -8.490  0.00  0.00     0.077 H 
ATOM     61  H15 SER d   1      24.840  22.150  -9.157  0.00  0.00     0.077 H 
BRANCH  59  62
ATOM     62  OG  SER d   1      25.011  22.309  -7.115  0.00  0.00    -0.398 OA
ATOM     63  H16 SER d   1      24.841  21.384  -6.982  0.00  0.00     0.209 HD
ENDBRANCH  59  62
ENDBRANCH  31  59
ENDBRANCH  28  31
ENDBRANCH  25  27
BRANCH  25  64
ATOM     64  CB  ILE d   1      28.321  27.330  -6.618  0.00  0.00    -0.030 C 
ATOM     65  H19 ILE d   1      27.428  27.963  -6.511  0.00  0.00     0.043 H 
BRANCH  64  66
ATOM     66  CG1 ILE d   1      28.734  27.303  -8.089  0.00  0.00    -0.063 C 
ATOM     67  H20 ILE d   1      28.953  26.262  -8.370  0.00  0.00     0.033 H 
ATOM     68  H21 ILE d   1      29.642  27.913  -8.207  0.00  0.00     0.033 H 
BRANCH  66  69
ATOM     69  CD1 ILE d   1      27.682  27.834  -9.019  0.00  0.00    -0.076 C 
ATOM     70  H25 ILE d   1      28.049  27.783 -10.055  0.00  0.00     0.027 H 
ATOM     71  H26 ILE d   1      27.458  28.879  -8.760  0.00  0.00     0.027 H 
ATOM     72  H27 ILE d   1      26.769  27.229  -8.924  0.00  0.00     0.027 H 
ENDBRANCH  66  69
ENDBRANCH  64  66
BRANCH  64  73
ATOM     73  CG2 ILE d   1      29.448  27.933  -5.796  0.00  0.00    -0.071 C 
ATOM     74  H22 ILE d   1      29.157  27.955  -4.736  0.00  0.00     0.028 H 
ATOM     75  H23 ILE d   1      29.647  28.958  -6.143  0.00  0.00     0.028 H 
ATOM     76  H24 ILE d   1      30.355  27.323  -5.914  0.00  0.00     0.028 H 
ENDBRANCH  64  73
ENDBRANCH  25  64
ENDBRANCH  22  25
ENDBRANCH  19  21
BRANCH  19  77
ATOM     77  CB  GLU d   1      29.354  24.408  -1.782  0.00  0.00    -0.029 C 
ATOM     78  H30 GLU d   1      29.424  24.573  -0.697  0.00  0.00     0.037 H 
ATOM     79  H31 GLU d   1      30.365  24.332  -2.208  0.00  0.00     0.037 H 
BRANCH  77  80
ATOM     80  CG  GLU d   1      28.632  23.095  -2.022  0.00  0.00     0.018 C 
ATOM     81  H32 GLU d   1      28.441  22.993  -3.100  0.00  0.00     0.049 H 
ATOM     82  H33 GLU d   1      27.675  23.118  -1.480  0.00  0.00     0.049 H 
BRANCH  80  83
ATOM     83  CD  GLU d   1      29.420  21.885  -1.556  0.00  0.00     0.172 C 
ATOM     84  OE1 GLU d   1      30.506  22.060  -0.952  0.00  0.00    -0.648 OA
ATOM     85  OE2 GLU d   1      28.950  20.753  -1.798  0.00  0.00    -0.648 OA
ENDBRANCH  80  83
ENDBRANCH  77  80
ENDBRANCH  19  77
ENDBRANCH  16  19
ENDBRANCH  13  15
BRANCH  13  86
ATOM     86  CB  ILE d   1      28.240  29.950  -0.941  0.00  0.00    -0.030 C 
ATOM     87  H36 ILE d   1      28.380  30.832  -0.298  0.00  0.00     0.043 H 
BRANCH  86  88
ATOM     88  CG1 ILE d   1      26.750  29.630  -1.026  0.00  0.00    -0.063 C 
ATOM     89  H37 ILE d   1      26.386  29.397  -0.014  0.00  0.00     0.033 H 
ATOM     90  H38 ILE d   1      26.620  28.751  -1.674  0.00  0.00     0.033 H 
BRANCH  88  91
ATOM     91  CD1 ILE d   1      25.935  30.738  -1.572  0.00  0.00    -0.076 C 
ATOM     92  H42 ILE d   1      24.878  30.435  -1.603  0.00  0.00     0.027 H 
ATOM     93  H43 ILE d   1      26.277  30.978  -2.589  0.00  0.00     0.027 H 
ATOM     94  H44 ILE d   1      26.044  31.624  -0.930  0.00  0.00     0.027 H 
ENDBRANCH  88  91
ENDBRANCH  86  88
BRANCH  86  95
ATOM     95  CG2 ILE d   1      28.790  30.261  -2.314  0.00  0.00    -0.071 C 
ATOM     96  H39 ILE d   1      29.863  30.489  -2.236  0.00  0.00     0.028 H 
ATOM     97  H40 ILE d   1      28.260  31.129  -2.733  0.00  0.00     0.028 H 
ATOM     98  H41 ILE d   1      28.647  29.391  -2.972  0.00  0.00     0.028 H 
ENDBRANCH  86  95
ENDBRANCH  13  86
ENDBRANCH  10  13
ENDBRANCH   7   9
BRANCH   7  99
ATOM     99  CB  TYR d   1      30.752  29.588   4.077  0.00  0.00    -0.014 C 
ATOM    100  H47 TYR d   1      30.595  30.082   5.047  0.00  0.00     0.043 H 
ATOM    101  H48 TYR d   1      31.514  30.137   3.505  0.00  0.00     0.043 H 
BRANCH  99 102
ATOM    102  CG  TYR d   1      31.259  28.196   4.329  0.00  0.00    -0.056 A 
ATOM    103  CD1 TYR d   1      30.822  27.468   5.426  0.00  0.00    -0.074 A 
ATOM    104  CE1 TYR d   1      31.292  26.195   5.671  0.00  0.00    -0.051 A 
ATOM    105  H49 TYR d   1      30.098  27.908   6.103  0.00  0.00     0.084 H 
ATOM    106  CZ  TYR d   1      32.219  25.639   4.813  0.00  0.00     0.065 A 
ATOM    107  H51 TYR d   1      30.937  25.636   6.529  0.00  0.00     0.087 H 
ATOM    108  CE2 TYR d   1      32.669  26.347   3.714  0.00  0.00    -0.051 A 
ATOM    109  CD2 TYR d   1      32.188  27.614   3.480  0.00  0.00    -0.074 A 
ATOM    110  H52 TYR d   1      33.396  25.906   3.041  0.00  0.00     0.087 H 
ATOM    111  H50 TYR d   1      32.541  28.167   2.617  0.00  0.00     0.084 H 
BRANCH 106 112
ATOM    112  OH  TYR d   1      32.698  24.368   5.047  0.00  0.00    -0.361 OA
ATOM    113  H53 TYR d   1      32.295  24.019   5.833  0.00  0.00     0.217 HD
ENDBRANCH 106 112
ENDBRANCH  99 102
ENDBRANCH   7  99
ENDBRANCH   4   7
ENDBRANCH   1   3
BRANCH   1 114
ATOM    114  C   ILE d   1      27.117  32.440   5.808  0.00  0.00     0.243 C 
ATOM    115  O   ILE d   1      26.931  31.525   6.605  0.00  0.00    -0.271 OA
ATOM    116  N   PRO d   1      27.534  33.647   6.184  0.00  0.00    -0.337 N 
ATOM    117  CA  PRO d   1      27.778  33.924   7.601  0.00  0.00     0.091 C 
ATOM    118  CD  PRO d   1      27.866  34.791   5.318  0.00  0.00    -0.001 C 
ATOM    119  CB  PRO d   1      28.425  35.311   7.576  0.00  0.00    -0.036 C 
ATOM    120  H65 PRO d   1      28.476  33.183   8.018  0.00  0.00     0.087 H 
ATOM    121  CG  PRO d   1      27.967  35.920   6.282  0.00  0.00    -0.048 C 
ATOM    122  H66 PRO d   1      29.522  35.228   7.599  0.00  0.00     0.036 H 
ATOM    123  H67 PRO d   1      28.084  35.914   8.431  0.00  0.00     0.036 H 
ATOM    124  H68 PRO d   1      28.698  36.662   5.928  0.00  0.00     0.035 H 
ATOM    125  H69 PRO d   1      26.987  36.403   6.411  0.00  0.00     0.035 H 
ATOM    126  H70 PRO d   1      27.071  34.972   4.579  0.00  0.00     0.064 H 
ATOM    127  H71 PRO d   1      28.821  34.629   4.797  0.00  0.00     0.064 H 
BRANCH 117 128
ATOM    128  C   PRO d   1      26.487  33.906   8.442  0.00  0.00     0.241 C 
ATOM    129  O   PRO d   1      25.400  34.218   7.954  0.00  0.00    -0.271 OA
ATOM    130  N   GLU d   1      26.623  33.509   9.703  0.00  0.00    -0.346 N 
ATOM    131  H72 GLU d   1      27.534  33.268  10.036  0.00  0.00     0.163 HD
BRANCH 130 132
ATOM    132  CA  GLU d   1      25.490  33.412  10.620  0.00  0.00     0.090 C 
ATOM    133  H73 GLU d   1      24.607  33.847  10.130  0.00  0.00     0.087 H 
BRANCH 132 134
ATOM    134  C   GLU d   1      25.769  34.187  11.907  0.00  0.00     0.241 C 
ATOM    135  O   GLU d   1      26.916  34.323  12.344  0.00  0.00    -0.271 OA
ATOM    136  N   ALA d   1      24.711  34.699  12.515  0.00  0.00    -0.346 N 
ATOM    137  H78 ALA d   1      23.803  34.588  12.111  0.00  0.00     0.163 HD
BRANCH 136 138
ATOM    138  CA  ALA d   1      24.861  35.416  13.758  0.00  0.00     0.086 C 
ATOM    139  H79 ALA d   1      25.932  35.478  14.002  0.00  0.00     0.086 H 
BRANCH 138 140
ATOM    140  C   ALA d   1      24.154  34.667  14.875  0.00  0.00     0.240 C 
ATOM    141  O   ALA d   1      23.230  33.890  14.624  0.00  0.00    -0.271 OA
ATOM    142  N   GLN d   1      24.613  34.900  16.102  0.00  0.00    -0.346 N 
ATOM    143  H83 GLN d   1      25.431  35.467  16.201  0.00  0.00     0.163 HD
BRANCH 142 144
ATOM    144  CA  GLN d   1      23.987  34.372  17.314  0.00  0.00     0.090 C 
ATOM    145  H84 GLN d   1      23.104  33.779  17.032  0.00  0.00     0.087 H 
BRANCH 144 146
ATOM    146  C   GLN d   1      23.563  35.518  18.214  0.00  0.00     0.241 C 
ATOM    147  O   GLN d   1      24.290  36.501  18.388  0.00  0.00    -0.271 OA
ATOM    148  N   THR d   1      22.386  35.383  18.799  0.00  0.00    -0.344 N 
ATOM    149  H91 THR d   1      21.853  34.551  18.646  0.00  0.00     0.163 HD
BRANCH 148 150
ATOM    150  CA  THR d   1      21.856  36.422  19.658  0.00  0.00     0.113 C 
ATOM    151  H92 THR d   1      22.702  36.974  20.094  0.00  0.00     0.091 H 
BRANCH 150 152
ATOM    152  C   THR d   1      21.049  35.808  20.788  0.00  0.00     0.243 C 
ATOM    153  O   THR d   1      20.060  35.115  20.555  0.00  0.00    -0.271 OA
ATOM    154  N   ARG d   1      21.495  36.045  22.015  0.00  0.00    -0.346 N 
ATOM    155  H98 ARG d   1      22.353  36.544  22.138  0.00  0.00     0.163 HD
BRANCH 154 156
ATOM    156  CA  ARG d   1      20.760  35.593  23.180  0.00  0.00     0.089 C 
ATOM    157  H99 ARG d   1      20.349  34.594  22.975  0.00  0.00     0.087 H 
BRANCH 156 158
ATOM    158  C   ARG d   1      19.607  36.554  23.429  0.00  0.00     0.241 C 
ATOM    159  O   ARG d   1      19.802  37.770  23.445  0.00  0.00    -0.271 OA
ATOM    160  N   LEU d   1      18.406  36.002  23.596  0.00  0.00    -0.345 N 
ATOM    161 1H11 LEU d   1      18.313  35.010  23.509  0.00  0.00     0.163 HD
BRANCH 160 162
ATOM    162  CA  LEU d   1      17.222  36.799  23.902  0.00  0.00     0.096 C 
ATOM    163 2H11 LEU d   1      17.561  37.812  24.166  0.00  0.00     0.089 H 
BRANCH 162 164
ATOM    164  C   LEU d   1      16.440  36.246  25.105  0.00  0.00     0.196 C 
ATOM    165  O   LEU d   1      16.792  35.207  25.672  0.00  0.00    -0.646 OA
ATOM    166  OXT LEU d   1      15.446  36.829  25.560  0.00  0.00    -0.646 OA
ENDBRANCH 162 164
BRANCH 162 167
ATOM    167  CB  LEU d   1      16.324  36.911  22.667  0.00  0.00    -0.034 C 
ATOM    168 3H11 LEU d   1      15.444  37.519  22.926  0.00  0.00     0.037 H 
ATOM    169 4H11 LEU d   1      15.999  35.901  22.376  0.00  0.00     0.037 H 
BRANCH 167 170
ATOM    170  CG  LEU d   1      17.037  37.563  21.468  0.00  0.00    -0.059 C 
ATOM    171 5H11 LEU d   1      18.102  37.294  21.529  0.00  0.00     0.038 H 
BRANCH 170 172
ATOM    172  CD1 LEU d   1      16.510  37.054  20.131  0.00  0.00    -0.073 C 
ATOM    173 6H11 LEU d   1      17.051  37.550  19.311  0.00  0.00     0.028 H 
ATOM    174 7H11 LEU d   1      15.436  37.279  20.051  0.00  0.00     0.028 H 
ATOM    175 8H11 LEU d   1      16.663  35.967  20.067  0.00  0.00     0.028 H 
ENDBRANCH 170 172
BRANCH 170 176
ATOM    176  CD2 LEU d   1      16.931  39.086  21.542  0.00  0.00    -0.073 C 
ATOM    177 9H11 LEU d   1      17.315  39.434  22.512  0.00  0.00     0.028 H 
ATOM    178 0H12 LEU d   1      15.878  39.386  21.436  0.00  0.00     0.028 H 
ATOM    179 1H12 LEU d   1      17.523  39.535  20.731  0.00  0.00     0.028 H 
ENDBRANCH 170 176
ENDBRANCH 167 170
ENDBRANCH 162 167
ENDBRANCH 160 162
ENDBRANCH 156 158
BRANCH 156 180
ATOM    180  CB  ARG d   1      21.683  35.491  24.405  0.00  0.00    -0.036 C 
ATOM    181 0H10 ARG d   1      22.323  36.386  24.428  0.00  0.00     0.036 H 
ATOM    182 1H10 ARG d   1      22.310  34.595  24.289  0.00  0.00     0.036 H 
BRANCH 180 183
ATOM    183  CG  ARG d   1      20.952  35.392  25.743  0.00  0.00    -0.048 C 
ATOM    184 2H10 ARG d   1      20.105  34.698  25.636  0.00  0.00     0.035 H 
ATOM    185 3H10 ARG d   1      20.577  36.389  26.019  0.00  0.00     0.035 H 
BRANCH 183 186
ATOM    186  CD  ARG d   1      21.865  34.888  26.845  0.00  0.00     0.009 C 
ATOM    187 4H10 ARG d   1      21.307  34.871  27.793  0.00  0.00     0.064 H 
ATOM    188 5H10 ARG d   1      22.724  35.569  26.938  0.00  0.00     0.064 H 
BRANCH 186 189
ATOM    189  NE  ARG d   1      22.354  33.541  26.556  0.00  0.00    -0.227 N 
ATOM    190  CZ  ARG d   1      21.701  32.421  26.863  0.00  0.00     0.665 C 
ATOM    191  NH1 ARG d   1      20.522  32.478  27.476  0.00  0.00    -0.235 N 
ATOM    192  NH2 ARG d   1      22.227  31.241  26.554  0.00  0.00    -0.235 N 
ATOM    193 7H10 ARG d   1      20.021  31.609  27.711  0.00  0.00     0.174 HD
ATOM    194 8H10 ARG d   1      20.110  33.391  27.716  0.00  0.00     0.174 HD
ATOM    195 9H10 ARG d   1      23.140  31.192  26.079  0.00  0.00     0.174 HD
ATOM    196 0H11 ARG d   1      21.722  30.375  26.789  0.00  0.00     0.174 HD
ATOM    197 6H10 ARG d   1      23.265  33.452  26.083  0.00  0.00     0.177 HD
ENDBRANCH 186 189
ENDBRANCH 183 186
ENDBRANCH 180 183
ENDBRANCH 156 180
ENDBRANCH 154 156
ENDBRANCH 150 152
BRANCH 150 198
ATOM    198  CB  THR d   1      20.990  37.415  18.865  0.00  0.00     0.060 C 
ATOM    199  H93 THR d   1      20.195  36.867  18.338  0.00  0.00     0.086 H 
BRANCH 198 200
ATOM    200  OG1 THR d   1      21.813  38.102  17.911  0.00  0.00    -0.393 OA
ATOM    201  H94 THR d   1      22.201  37.471  17.316  0.00  0.00     0.210 HD
ENDBRANCH 198 200
BRANCH 198 202
ATOM    202  CG2 THR d   1      20.367  38.426  19.807  0.00  0.00    -0.050 C 
ATOM    203  H95 THR d   1      19.750  39.132  19.232  0.00  0.00     0.031 H 
ATOM    204  H96 THR d   1      21.162  38.977  20.331  0.00  0.00     0.031 H 
ATOM    205  H97 THR d   1      19.737  37.903  20.542  0.00  0.00     0.031 H 
ENDBRANCH 198 202
ENDBRANCH 150 198
ENDBRANCH 148 150
ENDBRANCH 144 146
BRANCH 144 206
ATOM    206  CB  GLN d   1      24.958  33.493  18.089  0.00  0.00    -0.030 C 
ATOM    207  H85 GLN d   1      24.494  33.236  19.053  0.00  0.00     0.037 H 
ATOM    208  H86 GLN d   1      25.877  34.071  18.267  0.00  0.00     0.037 H 
BRANCH 206 209
ATOM    209  CG  GLN d   1      25.334  32.217  17.396  0.00  0.00     0.011 C 
ATOM    210  H87 GLN d   1      25.426  32.412  16.317  0.00  0.00     0.047 H 
ATOM    211  H88 GLN d   1      24.542  31.473  17.568  0.00  0.00     0.047 H 
BRANCH 209 212
ATOM    212  CD  GLN d   1      26.646  31.661  17.905  0.00  0.00     0.215 C 
ATOM    213  OE1 GLN d   1      27.707  32.263  17.718  0.00  0.00    -0.274 OA
ATOM    214  NE2 GLN d   1      26.583  30.511  18.559  0.00  0.00    -0.370 N 
ATOM    215  H89 GLN d   1      27.418  30.094  18.919  0.00  0.00     0.159 HD
ATOM    216  H90 GLN d   1      25.701  30.059  18.693  0.00  0.00     0.159 HD
ENDBRANCH 209 212
ENDBRANCH 206 209
ENDBRANCH 144 206
ENDBRANCH 142 144
ENDBRANCH 138 140
BRANCH 138 217
ATOM    217  CB  ALA d   1      24.316  36.828  13.617  0.00  0.00    -0.049 C 
ATOM    218  H80 ALA d   1      24.436  37.364  14.570  0.00  0.00     0.030 H 
ATOM    219  H81 ALA d   1      23.249  36.785  13.352  0.00  0.00     0.030 H 
ATOM    220  H82 ALA d   1      24.869  37.357  12.827  0.00  0.00     0.030 H 
ENDBRANCH 138 217
ENDBRANCH 136 138
ENDBRANCH 132 134
BRANCH 132 221
ATOM    221  CB  GLU d   1      25.191  31.949  10.962  0.00  0.00    -0.029 C 
ATOM    222  H74 GLU d   1      24.657  31.928  11.924  0.00  0.00     0.037 H 
ATOM    223  H75 GLU d   1      26.151  31.422  11.064  0.00  0.00     0.037 H 
BRANCH 221 224
ATOM    224  CG  GLU d   1      24.351  31.199   9.945  0.00  0.00     0.018 C 
ATOM    225  H76 GLU d   1      24.888  31.185   8.985  0.00  0.00     0.049 H 
ATOM    226  H77 GLU d   1      23.393  31.725   9.822  0.00  0.00     0.049 H 
BRANCH 224 227
ATOM    227  CD  GLU d   1      24.066  29.750  10.371  0.00  0.00     0.172 C 
ATOM    228  OE1 GLU d   1      24.950  29.117  10.989  0.00  0.00    -0.648 OA
ATOM    229  OE2 GLU d   1      22.956  29.239  10.085  0.00  0.00    -0.648 OA
ENDBRANCH 224 227
ENDBRANCH 221 224
ENDBRANCH 132 221
ENDBRANCH 130 132
ENDBRANCH 117 128
ENDBRANCH   1 114
BRANCH   1 230
ATOM    230  CB  ILE d   1      25.407  32.152   4.022  0.00  0.00    -0.030 C 
ATOM    231  H56 ILE d   1      24.992  31.273   4.538  0.00  0.00     0.043 H 
BRANCH 230 232
ATOM    232  CG1 ILE d   1      25.196  31.965   2.517  0.00  0.00    -0.063 C 
ATOM    233  H57 ILE d   1      25.704  31.042   2.202  0.00  0.00     0.033 H 
ATOM    234  H58 ILE d   1      25.637  32.824   1.990  0.00  0.00     0.033 H 
BRANCH 232 235
ATOM    235  CD1 ILE d   1      23.744  31.866   2.144  0.00  0.00    -0.076 C 
ATOM    236  H62 ILE d   1      23.653  31.733   1.056  0.00  0.00     0.027 H 
ATOM    237  H63 ILE d   1      23.224  32.787   2.445  0.00  0.00     0.027 H 
ATOM    238  H64 ILE d   1      23.291  31.005   2.658  0.00  0.00     0.027 H 
ENDBRANCH 232 235
ENDBRANCH 230 232
BRANCH 230 239
ATOM    239  CG2 ILE d   1      24.672  33.405   4.553  0.00  0.00    -0.071 C 
ATOM    240  H59 ILE d   1      24.849  33.503   5.634  0.00  0.00     0.028 H 
ATOM    241  H60 ILE d   1      23.593  33.304   4.365  0.00  0.00     0.028 H 
ATOM    242  H61 ILE d   1      25.052  34.299   4.037  0.00  0.00     0.028 H 
ENDBRANCH 230 239
ENDBRANCH   1 230
TORSDOF 70
