REMARK  16 active torsions:
REMARK  status: ('A' for Active; 'I' for Inactive)
REMARK    1  A    between atoms: C2_2  and  O3_22 
REMARK    2  A    between atoms: C9_25  and  C3_3 
REMARK    3  A    between atoms: C6_5  and  O1_26 
REMARK    4  A    between atoms: O1_26  and  C7_6 
REMARK    5  A    between atoms: O2_31  and  C8_7 
REMARK    6  A    between atoms: O3_22  and  C10_8 
REMARK    7  A    between atoms: S1_18  and  C11_9 
REMARK    8  A    between atoms: C11_9  and  C9_25 
REMARK    9  A    between atoms: C12_10  and  S1_18 
REMARK   10  A    between atoms: C18_19  and  C12_10 
REMARK   11  A    between atoms: C15_13  and  O6_23 
REMARK   12  A    between atoms: N1_30  and  C16_14 
REMARK   13  A    between atoms: O6_23  and  C19_15 
REMARK   14  A    between atoms: C20_28  and  C21_16 
REMARK   15  A    between atoms: C4_27  and  O2_31 
REMARK   16  A    between atoms: C20_28  and  N1_30 
ROOT
ATOM      1  C11 6FS d   1       7.722  -7.444   7.715  0.00  0.00     0.033 C 
ATOM      2  H12 6FS d   1       7.224  -6.564   8.148  0.00  0.00     0.056 H 
ATOM      3  H13 6FS d   1       7.601  -8.303   8.391  0.00  0.00     0.056 H 
ENDROOT
BRANCH   1   4
ATOM      4  S1  6FS d   1       9.433  -7.085   7.631  0.00  0.00     0.148 S 
ATOM      5  O4  6FS d   1      10.004  -6.873   9.044  0.00  0.00    -0.228 OA
ATOM      6  O5  6FS d   1      10.171  -8.254   6.956  0.00  0.00    -0.228 OA
BRANCH   4   7
ATOM      7  C12 6FS d   1       9.638  -5.571   6.628  0.00  0.00     0.052 C 
ATOM      8  H14 6FS d   1       9.067  -4.751   7.088  0.00  0.00     0.063 H 
ATOM      9  H15 6FS d   1       9.260  -5.755   5.612  0.00  0.00     0.063 H 
BRANCH   7  10
ATOM     10  C18 6FS d   1      10.978  -5.214   6.560  0.00  0.00    -0.042 A 
ATOM     11  C13 6FS d   1      11.691  -5.448   5.387  0.00  0.00    -0.073 A 
ATOM     12  C14 6FS d   1      12.990  -4.964   5.252  0.00  0.00    -0.048 A 
ATOM     13  H16 6FS d   1      11.235  -6.007   4.578  0.00  0.00     0.084 H 
ATOM     14  C15 6FS d   1      13.570  -4.249   6.303  0.00  0.00     0.094 A 
ATOM     15  H17 6FS d   1      13.547  -5.141   4.339  0.00  0.00     0.087 H 
ATOM     16  C16 6FS d   1      12.863  -4.034   7.473  0.00  0.00     0.062 A 
ATOM     17  C17 6FS d   1      11.565  -4.514   7.612  0.00  0.00    -0.048 A 
ATOM     18  H21 6FS d   1      11.015  -4.345   8.531  0.00  0.00     0.087 H 
BRANCH  14  19
ATOM     19  O6  6FS d   1      14.825  -3.705   6.244  0.00  0.00    -0.354 OA
BRANCH  19  20
ATOM     20  C19 6FS d   1      15.443  -3.987   4.984  0.00  0.00     0.010 C 
ATOM     21  H18 6FS d   1      16.448  -3.541   4.961  0.00  0.00     0.066 H 
ATOM     22  H19 6FS d   1      14.834  -3.561   4.173  0.00  0.00     0.066 H 
ATOM     23  H20 6FS d   1      15.522  -5.076   4.850  0.00  0.00     0.066 H 
ENDBRANCH  19  20
ENDBRANCH  14  19
BRANCH  16  24
ATOM     24  N1  6FS d   1      13.480  -3.340   8.430  0.00  0.00    -0.378 N 
ATOM     25  H26 6FS d   1      14.437  -3.001   8.257  0.00  0.00     0.160 HD
BRANCH  24  26
ATOM     26  C20 6FS d   1      12.848  -3.040   9.722  0.00  0.00     0.073 C 
ATOM     27  H24 6FS d   1      13.490  -2.358  10.299  0.00  0.00     0.080 H 
ATOM     28  H25 6FS d   1      11.868  -2.568   9.554  0.00  0.00     0.080 H 
BRANCH  26  29
ATOM     29  C21 6FS d   1      12.664  -4.351  10.494  0.00  0.00     0.191 C 
ATOM     30  O7  6FS d   1      13.493  -5.262  10.274  0.00  0.00    -0.647 OA
ATOM     31  O8  6FS d   1      11.701  -4.415  11.286  0.00  0.00    -0.647 OA
ENDBRANCH  26  29
ENDBRANCH  24  26
ENDBRANCH  16  24
ENDBRANCH   7  10
ENDBRANCH   4   7
ENDBRANCH   1   4
BRANCH   1  32
ATOM     32  C9  6FS d   1       6.990  -7.785   6.410  0.00  0.00    -0.024 C 
ATOM     33  H22 6FS d   1       7.237  -6.970   5.714  0.00  0.00     0.041 H 
ATOM     34  H23 6FS d   1       7.445  -8.721   6.055  0.00  0.00     0.041 H 
BRANCH  32  35
ATOM     35  C3  6FS d   1       5.608  -7.973   6.289  0.00  0.00     0.010 A 
ATOM     36  C2  6FS d   1       4.723  -7.593   7.302  0.00  0.00     0.080 A 
ATOM     37  C1  6FS d   1       3.344  -7.785   7.155  0.00  0.00    -0.018 A 
ATOM     38  C6  6FS d   1       2.844  -8.353   5.976  0.00  0.00     0.073 A 
ATOM     39  H1  6FS d   1       2.666  -7.495   7.950  0.00  0.00     0.092 H 
ATOM     40  C5  6FS d   1       3.722  -8.714   4.961  0.00  0.00    -0.018 A 
ATOM     41  C4  6FS d   1       5.094  -8.521   5.118  0.00  0.00     0.080 A 
ATOM     42  H2  6FS d   1       3.339  -9.147   4.044  0.00  0.00     0.092 H 
BRANCH  36  43
ATOM     43  O3  6FS d   1       5.271  -6.980   8.397  0.00  0.00    -0.355 OA
BRANCH  43  44
ATOM     44  C10 6FS d   1       4.274  -6.617   9.363  0.00  0.00     0.010 C 
ATOM     45  H9  6FS d   1       4.757  -6.129  10.223  0.00  0.00     0.066 H 
ATOM     46  H10 6FS d   1       3.746  -7.521   9.703  0.00  0.00     0.066 H 
ATOM     47  H11 6FS d   1       3.554  -5.923   8.904  0.00  0.00     0.066 H 
ENDBRANCH  43  44
ENDBRANCH  36  43
BRANCH  38  48
ATOM     48  O1  6FS d   1       1.501  -8.574   5.793  0.00  0.00    -0.356 OA
BRANCH  48  49
ATOM     49  C7  6FS d   1       0.728  -8.160   6.929  0.00  0.00     0.010 C 
ATOM     50  H3  6FS d   1      -0.338  -8.355   6.738  0.00  0.00     0.066 H 
ATOM     51  H4  6FS d   1       0.878  -7.084   7.103  0.00  0.00     0.066 H 
ATOM     52  H5  6FS d   1       1.051  -8.723   7.817  0.00  0.00     0.066 H 
ENDBRANCH  48  49
ENDBRANCH  38  48
BRANCH  41  53
ATOM     53  O2  6FS d   1       6.007  -8.823   4.139  0.00  0.00    -0.355 OA
BRANCH  53  54
ATOM     54  C8  6FS d   1       5.371  -9.380   2.975  0.00  0.00     0.010 C 
ATOM     55  H6  6FS d   1       6.133  -9.608   2.215  0.00  0.00     0.066 H 
ATOM     56  H7  6FS d   1       4.652  -8.654   2.567  0.00  0.00     0.066 H 
ATOM     57  H8  6FS d   1       4.842 -10.303   3.253  0.00  0.00     0.066 H 
ENDBRANCH  53  54
ENDBRANCH  41  53
ENDBRANCH  32  35
ENDBRANCH   1  32
TORSDOF 16
