REMARK  32 active torsions:
REMARK  status: ('A' for Active; 'I' for Inactive)
REMARK    1  A    between atoms: N_1  and  CA_2 
REMARK    2  A    between atoms: CA_2  and  C_3 
REMARK    3  A    between atoms: CA_2  and  CB_5 
REMARK       I    between atoms: C_3  and  N_6 
REMARK    4  A    between atoms: N_6  and  CA_7 
REMARK    5  A    between atoms: CA_7  and  C_8 
REMARK    6  A    between atoms: CA_7  and  CB_10 
REMARK       I    between atoms: C_8  and  N_11 
REMARK    7  A    between atoms: N_11  and  CA_12 
REMARK    8  A    between atoms: CA_12  and  C_13 
REMARK    9  A    between atoms: CA_12  and  CB_15 
REMARK       I    between atoms: C_13  and  N_22 
REMARK   10  A    between atoms: CB_15  and  CG_16 
REMARK   11  A    between atoms: N_22  and  CA_23 
REMARK   12  A    between atoms: CA_23  and  C_24 
REMARK   13  A    between atoms: CA_23  and  CB_26 
REMARK       I    between atoms: C_24  and  N_28 
REMARK   14  A    between atoms: CB_26  and  OG_27 
REMARK   15  A    between atoms: N_28  and  CA_29 
REMARK   16  A    between atoms: CA_29  and  C_30 
REMARK   17  A    between atoms: CA_29  and  CB_32 
REMARK       I    between atoms: C_30  and  N_34 
REMARK   18  A    between atoms: CB_32  and  OG_33 
REMARK   19  A    between atoms: N_34  and  CA_35 
REMARK   20  A    between atoms: CA_35  and  CB_36 
REMARK   21  A    between atoms: CA_35  and  C_43 
REMARK   22  A    between atoms: CB_36  and  CG2_37 
REMARK   23  A    between atoms: CB_36  and  OG1_38 
REMARK   24  A    between atoms: OG1_38  and  P_39 
REMARK       I    between atoms: C_43  and  N_45 
REMARK   25  A    between atoms: CA_46  and  C_47 
REMARK       I    between atoms: C_47  and  N_52 
REMARK   26  A    between atoms: N_52  and  CA_53 
REMARK   27  A    between atoms: CA_53  and  C_54 
REMARK   28  A    between atoms: CA_53  and  CB_56 
REMARK   29  A    between atoms: CB_56  and  CG_57 
REMARK   30  A    between atoms: CG_57  and  CD_58 
REMARK   31  A    between atoms: CD_58  and  CE_59 
REMARK   32  A    between atoms: CE_59  and  NZ_60 
ROOT
ATOM      1  CA  SER d   1      -5.081   1.646 -13.134  0.00  0.00     0.109 C 
ATOM      2  H28 SER d   1      -4.983   0.853 -12.378  0.00  0.00     0.090 H 
ENDROOT
BRANCH   1   3
ATOM      3  N   SER d   1      -5.648   2.829 -12.500  0.00  0.00    -0.344 N 
ATOM      4  C   SER d   1      -5.155   3.321 -11.363  0.00  0.00     0.243 C 
ATOM      5  O   SER d   1      -4.223   2.803 -10.736  0.00  0.00    -0.271 OA
ATOM      6  H27 SER d   1      -6.428   3.284 -12.929  0.00  0.00     0.163 HD
BRANCH   4   7
ATOM      7  CA  SER d   1      -5.786   4.611 -10.873  0.00  0.00     0.109 C 
ATOM      8  H23 SER d   1      -6.869   4.466 -10.749  0.00  0.00     0.090 H 
BRANCH   7   9
ATOM      9  N   SER d   1      -5.207   5.019  -9.595  0.00  0.00    -0.344 N 
ATOM     10  C   PHE d   1      -5.949   5.658  -8.696  0.00  0.00     0.241 C 
ATOM     11  O   PHE d   1      -7.182   5.754  -8.799  0.00  0.00    -0.271 OA
ATOM     12  H22 SER d   1      -4.248   4.817  -9.396  0.00  0.00     0.163 HD
BRANCH  10  13
ATOM     13  CA  PHE d   1      -5.190   6.278  -7.511  0.00  0.00     0.093 C 
ATOM     14  H14 PHE d   1      -5.843   6.308  -6.626  0.00  0.00     0.088 H 
BRANCH  13  15
ATOM     15  N   PHE d   1      -4.003   5.491  -7.241  0.00  0.00    -0.346 N 
ATOM     16  C   ALA d   1      -4.062   4.292  -6.700  0.00  0.00     0.240 C 
ATOM     17  O   ALA d   1      -5.097   3.826  -6.235  0.00  0.00    -0.271 OA
ATOM     18  H13 PHE d   1      -3.108   5.872  -7.474  0.00  0.00     0.163 HD
BRANCH  16  19
ATOM     19  CA  ALA d   1      -2.750   3.517  -6.656  0.00  0.00     0.086 C 
ATOM     20  H9  ALA d   1      -1.912   4.229  -6.646  0.00  0.00     0.086 H 
BRANCH  19  21
ATOM     21  N   ALA d   1      -2.712   2.721  -5.443  0.00  0.00    -0.346 N 
ATOM     22  C   ALA d   1      -2.559   3.304  -4.264  0.00  0.00     0.248 C 
ATOM     23  O   ALA d   1      -2.335   4.513  -4.149  0.00  0.00    -0.271 OA
ATOM     24  H8  ALA d   1      -2.802   1.727  -5.498  0.00  0.00     0.163 HD
BRANCH  22  25
ATOM     25  CA  ALA d   1      -2.666   2.394  -3.039  0.00  0.00     0.172 C 
ATOM     26  H4  ALA d   1      -3.678   2.499  -2.621  0.00  0.00     0.098 H 
BRANCH  25  27
ATOM     27  N   ALA d   1      -2.468   0.989  -3.400  0.00  0.00    -0.067 N 
ATOM     28  H1  ALA d   1      -2.544   0.416  -2.574  0.00  0.00     0.275 HD
ATOM     29  H2  ALA d   1      -1.553   0.872  -3.807  0.00  0.00     0.275 HD
ATOM     30  H3  ALA d   1      -3.170   0.711  -4.067  0.00  0.00     0.275 HD
ENDBRANCH  25  27
BRANCH  25  31
ATOM     31  CB  ALA d   1      -1.674   2.818  -1.988  0.00  0.00    -0.042 C 
ATOM     32  H5  ALA d   1      -1.840   3.875  -1.732  0.00  0.00     0.030 H 
ATOM     33  H6  ALA d   1      -0.652   2.691  -2.376  0.00  0.00     0.030 H 
ATOM     34  H7  ALA d   1      -1.805   2.198  -1.089  0.00  0.00     0.030 H 
ENDBRANCH  25  31
ENDBRANCH  22  25
ENDBRANCH  19  21
BRANCH  19  35
ATOM     35  CB  ALA d   1      -2.621   2.632  -7.870  0.00  0.00    -0.049 C 
ATOM     36  H10 ALA d   1      -2.652   3.250  -8.779  0.00  0.00     0.030 H 
ATOM     37  H11 ALA d   1      -3.452   1.911  -7.888  0.00  0.00     0.030 H 
ATOM     38  H12 ALA d   1      -1.665   2.089  -7.828  0.00  0.00     0.030 H 
ENDBRANCH  19  35
ENDBRANCH  16  19
ENDBRANCH  13  15
BRANCH  13  39
ATOM     39  CB  PHE d   1      -4.711   7.683  -7.861  0.00  0.00    -0.014 C 
ATOM     40  H15 PHE d   1      -3.985   7.603  -8.684  0.00  0.00     0.043 H 
ATOM     41  H16 PHE d   1      -4.216   8.108  -6.975  0.00  0.00     0.043 H 
BRANCH  39  42
ATOM     42  CG  PHE d   1      -5.793   8.620  -8.284  0.00  0.00    -0.056 A 
ATOM     43  CD1 PHE d   1      -6.838   8.932  -7.423  0.00  0.00    -0.077 A 
ATOM     44  CE1 PHE d   1      -7.828   9.825  -7.811  0.00  0.00    -0.082 A 
ATOM     45  H17 PHE d   1      -6.881   8.475  -6.441  0.00  0.00     0.084 H 
ATOM     46  CZ  PHE d   1      -7.761  10.428  -9.054  0.00  0.00    -0.083 A 
ATOM     47  H19 PHE d   1      -8.651  10.049  -7.142  0.00  0.00     0.083 H 
ATOM     48  CE2 PHE d   1      -6.714  10.128  -9.918  0.00  0.00    -0.082 A 
ATOM     49  H21 PHE d   1      -8.526  11.135  -9.355  0.00  0.00     0.083 H 
ATOM     50  CD2 PHE d   1      -5.738   9.233  -9.527  0.00  0.00    -0.077 A 
ATOM     51  H20 PHE d   1      -6.664  10.595 -10.895  0.00  0.00     0.083 H 
ATOM     52  H18 PHE d   1      -4.919   9.007 -10.200  0.00  0.00     0.084 H 
ENDBRANCH  39  42
ENDBRANCH  13  39
ENDBRANCH  10  13
ENDBRANCH   7   9
BRANCH   7  53
ATOM     53  CB  SER d   1      -5.527   5.691 -11.917  0.00  0.00     0.044 C 
ATOM     54  H24 SER d   1      -5.836   6.667 -11.514  0.00  0.00     0.077 H 
ATOM     55  H25 SER d   1      -6.110   5.467 -12.823  0.00  0.00     0.077 H 
BRANCH  53  56
ATOM     56  OG  SER d   1      -4.152   5.736 -12.246  0.00  0.00    -0.398 OA
ATOM     57  H26 SER d   1      -3.884   4.895 -12.596  0.00  0.00     0.209 HD
ENDBRANCH  53  56
ENDBRANCH   7  53
ENDBRANCH   4   7
ENDBRANCH   1   3
BRANCH   1  58
ATOM     58  C   SER d   1      -3.680   1.987 -13.665  0.00  0.00     0.243 C 
ATOM     59  O   SER d   1      -3.242   3.138 -13.559  0.00  0.00    -0.271 OA
ATOM     60  N   TPO d   1      -2.977   0.984 -14.197  0.00  0.00    -0.344 N 
ATOM     61  H32 TPO d   1      -3.405   0.082 -14.245  0.00  0.00     0.163 HD
BRANCH  60  62
ATOM     62  CA  TPO d   1      -1.609   1.130 -14.717  0.00  0.00     0.114 C 
ATOM     63  H33 TPO d   1      -0.969   1.395 -13.863  0.00  0.00     0.091 H 
BRANCH  62  64
ATOM     64  CB  TPO d   1      -1.110  -0.215 -15.275  0.00  0.00     0.076 C 
ATOM     65  H34 TPO d   1      -1.803  -0.588 -16.044  0.00  0.00     0.087 H 
BRANCH  64  66
ATOM     66  CG2 TPO d   1       0.290  -0.035 -15.859  0.00  0.00    -0.049 C 
ATOM     67  H35 TPO d   1       0.647  -0.996 -16.258  0.00  0.00     0.031 H 
ATOM     68  H36 TPO d   1       0.974   0.312 -15.071  0.00  0.00     0.031 H 
ATOM     69  H37 TPO d   1       0.257   0.709 -16.669  0.00  0.00     0.031 H 
ENDBRANCH  64  66
BRANCH  64  70
ATOM     70  OG1 TPO d   1      -1.006  -1.143 -14.200  0.00  0.00    -0.275 OA
BRANCH  70  71
ATOM     71  P   TPO d   1      -2.128  -2.291 -14.368  0.00  0.00     0.422 P 
ATOM     72  O1P TPO d   1      -1.853  -3.093 -15.588  0.00  0.00    -0.617 OA
ATOM     73  O2P TPO d   1      -2.089  -3.235 -13.071  0.00  0.00    -0.617 OA
ATOM     74  O3P TPO d   1      -3.559  -1.589 -14.540  0.00  0.00    -0.617 OA
ENDBRANCH  70  71
ENDBRANCH  64  70
ENDBRANCH  62  64
BRANCH  62  75
ATOM     75  C   TPO d   1      -1.441   2.253 -15.765  0.00  0.00     0.246 C 
ATOM     76  O   TPO d   1      -2.024   2.208 -16.843  0.00  0.00    -0.271 OA
ATOM     77  N   PRO d   1      -0.643   3.275 -15.431  0.00  0.00    -0.337 N 
ATOM     78  CA  PRO d   1      -0.427   4.405 -16.343  0.00  0.00     0.091 C 
ATOM     79  CD  PRO d   1       0.049   3.448 -14.140  0.00  0.00    -0.001 C 
ATOM     80  CB  PRO d   1       0.200   5.469 -15.437  0.00  0.00    -0.036 C 
ATOM     81  H38 PRO d   1      -1.387   4.751 -16.755  0.00  0.00     0.087 H 
ATOM     82  CG  PRO d   1       0.863   4.705 -14.343  0.00  0.00    -0.048 C 
ATOM     83  H39 PRO d   1      -0.575   6.134 -15.029  0.00  0.00     0.036 H 
ATOM     84  H40 PRO d   1       0.938   6.065 -15.994  0.00  0.00     0.036 H 
ATOM     85  H41 PRO d   1       0.878   5.301 -13.419  0.00  0.00     0.035 H 
ATOM     86  H42 PRO d   1       1.893   4.448 -14.630  0.00  0.00     0.035 H 
ATOM     87  H43 PRO d   1       0.700   2.588 -13.924  0.00  0.00     0.064 H 
ATOM     88  H44 PRO d   1      -0.673   3.575 -13.320  0.00  0.00     0.064 H 
BRANCH  78  89
ATOM     89  C   PRO d   1       0.528   4.088 -17.501  0.00  0.00     0.241 C 
ATOM     90  O   PRO d   1       1.171   3.030 -17.518  0.00  0.00    -0.271 OA
ATOM     91  N   LYS d   1       0.597   5.001 -18.468  0.00  0.00    -0.345 N 
ATOM     92  H45 LYS d   1      -0.081   5.736 -18.490  0.00  0.00     0.163 HD
BRANCH  91  93
ATOM     93  CA  LYS d   1       1.638   4.962 -19.503  0.00  0.00     0.096 C 
ATOM     94  H46 LYS d   1       1.727   3.932 -19.877  0.00  0.00     0.089 H 
BRANCH  93  95
ATOM     95  C   LYS d   1       2.976   5.397 -18.920  0.00  0.00     0.196 C 
ATOM     96  O   LYS d   1       3.900   4.597 -18.795  0.00  0.00    -0.646 OA
ATOM     97  OXT LYS d   1       3.161   6.558 -18.562  0.00  0.00    -0.646 OA
ENDBRANCH  93  95
BRANCH  93  98
ATOM     98  CB  LYS d   1       1.273   5.884 -20.666  0.00  0.00    -0.037 C 
ATOM     99  H47 LYS d   1       2.051   5.793 -21.438  0.00  0.00     0.036 H 
ATOM    100  H48 LYS d   1       1.246   6.918 -20.293  0.00  0.00     0.036 H 
BRANCH  98 101
ATOM    101  CG  LYS d   1      -0.061   5.571 -21.296  0.00  0.00    -0.061 C 
ATOM    102  H49 LYS d   1      -0.824   5.506 -20.506  0.00  0.00     0.033 H 
ATOM    103  H50 LYS d   1       0.008   4.606 -21.820  0.00  0.00     0.033 H 
BRANCH 101 104
ATOM    104  CD  LYS d   1      -0.472   6.655 -22.299  0.00  0.00    -0.043 C 
ATOM    105  H51 LYS d   1       0.331   6.785 -23.039  0.00  0.00     0.035 H 
ATOM    106  H52 LYS d   1      -0.632   7.601 -21.762  0.00  0.00     0.035 H 
BRANCH 104 107
ATOM    107  CE  LYS d   1      -1.761   6.264 -23.021  0.00  0.00     0.080 C 
ATOM    108  H53 LYS d   1      -2.467   5.858 -22.282  0.00  0.00     0.075 H 
ATOM    109  H54 LYS d   1      -1.524   5.490 -23.765  0.00  0.00     0.075 H 
BRANCH 107 110
ATOM    110  NZ  LYS d   1      -2.413   7.409 -23.719  0.00  0.00    -0.079 N 
ATOM    111  H55 LYS d   1      -3.254   7.090 -24.174  0.00  0.00     0.274 HD
ATOM    112  H56 LYS d   1      -1.781   7.787 -24.407  0.00  0.00     0.274 HD
ATOM    113  H57 LYS d   1      -2.645   8.124 -23.047  0.00  0.00     0.274 HD
ENDBRANCH 107 110
ENDBRANCH 104 107
ENDBRANCH 101 104
ENDBRANCH  98 101
ENDBRANCH  93  98
ENDBRANCH  91  93
ENDBRANCH  78  89
ENDBRANCH  62  75
ENDBRANCH  60  62
ENDBRANCH   1  58
BRANCH   1 114
ATOM    114  CB  SER d   1      -6.010   1.130 -14.252  0.00  0.00     0.044 C 
ATOM    115  H29 SER d   1      -6.999   0.918 -13.819  0.00  0.00     0.077 H 
ATOM    116  H30 SER d   1      -5.584   0.204 -14.665  0.00  0.00     0.077 H 
BRANCH 114 117
ATOM    117  OG  SER d   1      -6.168   2.076 -15.315  0.00  0.00    -0.398 OA
ATOM    118  H31 SER d   1      -5.320   2.261 -15.701  0.00  0.00     0.209 HD
ENDBRANCH 114 117
ENDBRANCH   1 114
TORSDOF 32
