REMARK  2 active torsions:
REMARK  status: ('A' for Active; 'I' for Inactive)
REMARK    1  A    between atoms: C7_5  and  N2_7 
REMARK    2  A    between atoms: C9_8  and  N4_11 
ROOT
ATOM      1  C4  6FD d   1      -5.980  26.339  -8.171  0.00  0.00    -0.057 A 
ATOM      2  C5  6FD d   1      -5.936  27.700  -7.868  0.00  0.00     0.015 A 
ATOM      3  C6  6FD d   1      -5.817  28.324  -6.612  0.00  0.00     0.033 A 
ATOM      4  N1  6FD d   1      -5.802  29.624  -6.411  0.00  0.00    -0.075 NA
ATOM      5  C7  6FD d   1      -5.905  30.390  -7.494  0.00  0.00     0.720 A 
ATOM      6  C8  6FD d   1      -6.029  28.620  -8.939  0.00  0.00     0.114 A 
ATOM      7  C9  6FD d   1      -6.147  28.149 -10.282  0.00  0.00     0.067 A 
ATOM      8  C10 6FD d   1      -6.136  26.775 -10.550  0.00  0.00     0.005 A 
ATOM      9  N3  6FD d   1      -6.024  29.955  -8.742  0.00  0.00    -0.060 NA
ATOM     10  C   6FD d   1      -6.149  26.244 -11.859  0.00  0.00    -0.053 A 
ATOM     11  C3  6FD d   1      -6.070  25.861  -9.476  0.00  0.00    -0.005 A 
ATOM     12  C2  6FD d   1      -6.029  24.487  -9.800  0.00  0.00     0.013 A 
ATOM     13  N   6FD d   1      -6.059  24.012 -11.043  0.00  0.00    -0.272 NA
ATOM     14  C1  6FD d   1      -6.114  24.898 -12.037  0.00  0.00     0.003 A 
ATOM     15  H1  6FD d   1      -5.943  25.624  -7.357  0.00  0.00     0.086 H 
ATOM     16  H2  6FD d   1      -5.731  27.683  -5.742  0.00  0.00     0.117 H 
ATOM     17  H7  6FD d   1      -6.187  26.907 -12.716  0.00  0.00     0.087 H 
ATOM     18  H8  6FD d   1      -5.969  23.774  -8.985  0.00  0.00     0.116 H 
ATOM     19  H9  6FD d   1      -6.132  24.520 -13.053  0.00  0.00     0.114 H 
ENDROOT
BRANCH   5  20
ATOM     20  N2  6FD d   1      -5.835  31.720  -7.305  0.00  0.00    -0.231 N 
ATOM     21  H3  6FD d   1      -5.742  32.101  -6.352  0.00  0.00     0.174 HD
ATOM     22  H4  6FD d   1      -5.874  32.358  -8.113  0.00  0.00     0.174 HD
ENDBRANCH   5  20
BRANCH   7  23
ATOM     23  N4  6FD d   1      -6.227  29.009 -11.292  0.00  0.00    -0.396 N 
ATOM     24  H5  6FD d   1      -6.236  30.022 -11.106  0.00  0.00     0.156 HD
ATOM     25  H6  6FD d   1      -6.280  28.663 -12.261  0.00  0.00     0.156 HD
ENDBRANCH   7  23
TORSDOF 2
