REMARK  1 active torsions:
REMARK  status: ('A' for Active; 'I' for Inactive)
REMARK    1  A    between atoms: C7_5  and  N2_7 
ROOT
ATOM      1  C4  6FB d   1      -6.315  29.297  -8.283  0.00  0.00    -0.057 A 
ATOM      2  C5  6FB d   1      -6.256  30.653  -7.998  0.00  0.00     0.012 A 
ATOM      3  C6  6FB d   1      -6.123  31.248  -6.733  0.00  0.00     0.033 A 
ATOM      4  N1  6FB d   1      -6.125  32.545  -6.502  0.00  0.00    -0.075 NA
ATOM      5  C7  6FB d   1      -6.282  33.336  -7.571  0.00  0.00     0.720 A 
ATOM      6  C8  6FB d   1      -6.363  31.573  -9.059  0.00  0.00     0.088 A 
ATOM      7  C9  6FB d   1      -6.471  31.098 -10.364  0.00  0.00    -0.043 A 
ATOM      8  C10 6FB d   1      -6.499  29.736 -10.640  0.00  0.00    -0.021 A 
ATOM      9  N3  6FB d   1      -6.397  32.923  -8.839  0.00  0.00    -0.063 NA
ATOM     10  C   6FB d   1      -6.510  29.235 -11.960  0.00  0.00    -0.055 A 
ATOM     11  C3  6FB d   1      -6.447  28.820  -9.578  0.00  0.00    -0.007 A 
ATOM     12  C2  6FB d   1      -6.475  27.450  -9.916  0.00  0.00     0.013 A 
ATOM     13  N   6FB d   1      -6.532  26.986 -11.171  0.00  0.00    -0.272 NA
ATOM     14  C1  6FB d   1      -6.509  27.889 -12.159  0.00  0.00     0.003 A 
ATOM     15  H1  6FB d   1      -6.256  28.587  -7.466  0.00  0.00     0.086 H 
ATOM     16  H2  6FB d   1      -6.010  30.589  -5.880  0.00  0.00     0.117 H 
ATOM     17  H5  6FB d   1      -6.535  31.806 -11.182  0.00  0.00     0.088 H 
ATOM     18  H6  6FB d   1      -6.519  29.914 -12.805  0.00  0.00     0.087 H 
ATOM     19  H7  6FB d   1      -6.449  26.727  -9.108  0.00  0.00     0.116 H 
ATOM     20  H8  6FB d   1      -6.488  27.526 -13.180  0.00  0.00     0.114 H 
ENDROOT
BRANCH   5  21
ATOM     21  N2  6FB d   1      -6.265  34.653  -7.354  0.00  0.00    -0.231 N 
ATOM     22  H3  6FB d   1      -6.178  35.016  -6.394  0.00  0.00     0.174 HD
ATOM     23  H4  6FB d   1      -6.339  35.306  -8.147  0.00  0.00     0.174 HD
ENDBRANCH   5  21
TORSDOF 1
