REMARK WARNING: 32 MAX_TORS EXCEEDED!!!
REMARK  35 active torsions:
REMARK  status: ('A' for Active; 'I' for Inactive)
REMARK    1  A    between atoms: CA_2  and  N_1 
REMARK    2  A    between atoms: C_3  and  CA_2 
REMARK       I    between atoms: N_6  and  C_3 
REMARK    3  A    between atoms: CA_8  and  N_6 
REMARK    4  A    between atoms: CA_8  and  CB1_13 
REMARK    5  A    between atoms: CA_15  and  CB_18 
REMARK    6  A    between atoms: CB_18  and  CG_19 
REMARK    7  A    between atoms: CG_19  and  CD1_20 
REMARK    8  A    between atoms: CG_19  and  CD2_21 
REMARK    9  A    between atoms: CA_23  and  CB_26 
REMARK   10  A    between atoms: CB_26  and  CG_27 
REMARK   11  A    between atoms: CA_31  and  C_32 
REMARK   12  A    between atoms: CA_31  and  CB2_33 
REMARK       I    between atoms: C_32  and  N_43 
REMARK   13  A    between atoms: N_43  and  CA_44 
REMARK   14  A    between atoms: CA_44  and  C_45 
REMARK   15  A    between atoms: CA_44  and  CB_47 
REMARK       I    between atoms: C_45  and  N_51 
REMARK   16  A    between atoms: CB_47  and  CG_48 
REMARK   17  A    between atoms: CG_48  and  CD1_49 
REMARK   18  A    between atoms: CG_48  and  CD2_50 
REMARK   19  A    between atoms: N_51  and  CA_52 
REMARK   20  A    between atoms: CA_52  and  C_53 
REMARK   21  A    between atoms: CA_52  and  CB_55 
REMARK       I    between atoms: C_53  and  N_59 
REMARK   22  A    between atoms: CB_55  and  CG_56 
REMARK   23  A    between atoms: N_59  and  CA_60 
REMARK   24  A    between atoms: CA_60  and  C_61 
REMARK   25  A    between atoms: CA_60  and  CB_63 
REMARK       I    between atoms: C_61  and  N_67 
REMARK   26  A    between atoms: CB_63  and  CG_64 
REMARK   27  A    between atoms: CG_64  and  CD1_65 
REMARK   28  A    between atoms: CG_64  and  CD2_66 
REMARK   29  A    between atoms: N_67  and  CA_68 
REMARK   30  A    between atoms: CA_68  and  C_69 
REMARK   31  A    between atoms: CA_68  and  CB_71 
REMARK       I    between atoms: C_69  and  N_72 
REMARK   32  A    between atoms: N_72  and  CA_73 
REMARK   33  A    between atoms: CA_73  and  C_74 
REMARK   34  A    between atoms: CA_73  and  CB_76 
REMARK   35  A    between atoms: CB_76  and  OG_77 
ROOT
ATOM      1  C   MK8 d   1     -13.701  12.475 -16.030  0.00  0.00     0.246 C 
ATOM      2  O   MK8 d   1     -12.973  11.504 -16.080  0.00  0.00    -0.271 OA
ATOM      3  CA  MK8 d   1     -14.638  12.723 -17.019  0.00  0.00     0.113 C 
ATOM      4  CB  MK8 d   1     -14.164  13.680 -18.098  0.00  0.00    -0.018 C 
ATOM      5  CD  MK8 d   1     -12.235  12.743 -19.231  0.00  0.00    -0.106 C 
ATOM      6  CE  MK8 d   1     -10.760  12.823 -19.439  0.00  0.00    -0.041 C 
ATOM      7  CG  MK8 d   1     -12.662  13.797 -18.308  0.00  0.00    -0.104 C 
ATOM      8  H7  MK8 d   1     -14.542  14.681 -17.843  0.00  0.00     0.043 H 
ATOM      9  H8  MK8 d   1     -14.607  13.352 -19.050  0.00  0.00     0.043 H 
ATOM     10  H9  MK8 d   1     -12.895  12.011 -19.695  0.00  0.00     0.076 H 
ATOM     11  H10 MK8 d   1     -10.243  12.593 -18.496  0.00  0.00     0.040 H 
ATOM     12  H11 MK8 d   1     -10.489  13.837 -19.768  0.00  0.00     0.040 H 
ATOM     13  H12 MK8 d   1     -12.012  14.541 -17.849  0.00  0.00     0.076 H 
ATOM     14  N   LEU d   1     -13.554  13.367 -14.994  0.00  0.00    -0.346 N 
ATOM     15  CA  LEU d   1     -12.555  13.216 -13.973  0.00  0.00     0.089 C 
ATOM     16  C   LEU d   1     -12.943  12.152 -12.996  0.00  0.00     0.241 C 
ATOM     17  O   LEU d   1     -12.119  11.644 -12.292  0.00  0.00    -0.271 OA
ATOM     18  H16 LEU d   1     -14.169  14.154 -14.949  0.00  0.00     0.163 HD
ATOM     19  H17 LEU d   1     -11.601  12.941 -14.446  0.00  0.00     0.087 H 
ATOM     20  N   ASP d   1     -14.219  11.832 -12.955  0.00  0.00    -0.346 N 
ATOM     21  CA  ASP d   1     -14.730  10.818 -12.064  0.00  0.00     0.098 C 
ATOM     22  C   ASP d   1     -14.171   9.498 -12.498  0.00  0.00     0.242 C 
ATOM     23  O   ASP d   1     -13.739   8.692 -11.714  0.00  0.00    -0.271 OA
ATOM     24  H27 ASP d   1     -14.856  12.307 -13.562  0.00  0.00     0.163 HD
ATOM     25  H28 ASP d   1     -14.421  11.035 -11.031  0.00  0.00     0.088 H 
ATOM     26  N   ZS8 d   1     -14.100   9.222 -13.803  0.00  0.00    -0.342 N 
ATOM     27  CA  ZS8 d   1     -13.602   7.989 -14.314  0.00  0.00     0.110 C 
ATOM     28  CB1 ZS8 d   1     -13.919   8.007 -15.796  0.00  0.00    -0.033 C 
ATOM     29  CG1 ZS8 d   1     -13.225   6.950 -16.606  0.00  0.00    -0.062 C 
ATOM     30  CD1 ZS8 d   1     -12.974   7.451 -17.959  0.00  0.00    -0.064 C 
ATOM     31  CZ1 ZS8 d   1     -11.898   8.441 -17.963  0.00  0.00    -0.056 C 
ATOM     32  CE1 ZS8 d   1     -11.176   8.353 -19.259  0.00  0.00    -0.009 C 
ATOM     33  CT1 ZS8 d   1     -10.867   9.574 -19.694  0.00  0.00    -0.107 C 
ATOM     34  CI1 ZS8 d   1     -10.616  10.613 -20.063  0.00  0.00    -0.106 C 
ATOM     35  CK1 ZS8 d   1     -10.355  11.832 -20.487  0.00  0.00    -0.006 C 
ATOM     36  H31 ZS8 d   1     -14.412   9.915 -14.453  0.00  0.00     0.163 HD
ATOM     37  H35 ZS8 d   1     -13.627   8.989 -16.195  0.00  0.00     0.037 H 
ATOM     38  H36 ZS8 d   1     -15.004   7.870 -15.915  0.00  0.00     0.037 H 
ATOM     39  H37 ZS8 d   1     -13.861   6.054 -16.660  0.00  0.00     0.033 H 
ATOM     40  H38 ZS8 d   1     -12.268   6.692 -16.128  0.00  0.00     0.033 H 
ATOM     41  H39 ZS8 d   1     -13.892   7.917 -18.346  0.00  0.00     0.033 H 
ATOM     42  H40 ZS8 d   1     -12.690   6.609 -18.607  0.00  0.00     0.033 H 
ATOM     43  H41 ZS8 d   1     -11.202   8.235 -17.137  0.00  0.00     0.034 H 
ATOM     44  H42 ZS8 d   1     -12.322   9.449 -17.843  0.00  0.00     0.034 H 
ATOM     45  H43 ZS8 d   1     -11.818   7.854 -20.000  0.00  0.00     0.051 H 
ATOM     46  H44 ZS8 d   1     -10.253   7.771 -19.122  0.00  0.00     0.051 H 
ATOM     47  H45 ZS8 d   1      -9.277  11.928 -20.686  0.00  0.00     0.052 H 
ATOM     48  H46 ZS8 d   1     -10.917  12.027 -21.412  0.00  0.00     0.052 H 
ENDROOT
BRANCH  27  49
ATOM     49  C   ZS8 d   1     -12.280   7.864 -14.099  0.00  0.00     0.246 C 
ATOM     50  OXT ZS8 d   1     -11.768   6.681 -14.060  0.00  0.00    -0.271 OA
ATOM     51  N   LEU d   1     -11.563   8.912 -13.993  0.00  0.00    -0.346 N 
ATOM     52  H47 LEU d   1     -11.978   9.821 -14.031  0.00  0.00     0.163 HD
BRANCH  51  53
ATOM     53  CA  LEU d   1     -10.037   8.748 -13.805  0.00  0.00     0.089 C 
ATOM     54  H48 LEU d   1      -9.674   7.998 -14.523  0.00  0.00     0.087 H 
BRANCH  53  55
ATOM     55  C   LEU d   1      -9.681   8.319 -12.460  0.00  0.00     0.241 C 
ATOM     56  O   LEU d   1      -8.530   7.993 -12.234  0.00  0.00    -0.271 OA
ATOM     57  N   ASP d   1     -10.614   8.283 -11.539  0.00  0.00    -0.346 N 
ATOM     58  H58 ASP d   1     -11.544   8.580 -11.757  0.00  0.00     0.163 HD
BRANCH  57  59
ATOM     59  CA  ASP d   1     -10.301   7.817 -10.216  0.00  0.00     0.098 C 
ATOM     60  H59 ASP d   1     -11.159   8.017  -9.557  0.00  0.00     0.088 H 
BRANCH  59  61
ATOM     61  C   ASP d   1      -9.084   8.513  -9.634  0.00  0.00     0.241 C 
ATOM     62  O   ASP d   1      -8.107   7.897  -9.278  0.00  0.00    -0.271 OA
ATOM     63  N   LEU d   1      -9.183   9.822  -9.538  0.00  0.00    -0.346 N 
ATOM     64  H62 LEU d   1     -10.030  10.260  -9.838  0.00  0.00     0.163 HD
BRANCH  63  65
ATOM     65  CA  LEU d   1      -8.130  10.648  -9.022  0.00  0.00     0.089 C 
ATOM     66  H63 LEU d   1      -7.190  10.380  -9.526  0.00  0.00     0.087 H 
BRANCH  65  67
ATOM     67  C   LEU d   1      -7.953  10.463  -7.539  0.00  0.00     0.241 C 
ATOM     68  O   LEU d   1      -8.902  10.322  -6.814  0.00  0.00    -0.271 OA
ATOM     69  N   ALA d   1      -6.712  10.472  -7.097  0.00  0.00    -0.346 N 
ATOM     70  H73 ALA d   1      -5.964  10.602  -7.748  0.00  0.00     0.163 HD
BRANCH  69  71
ATOM     71  CA  ALA d   1      -6.405  10.299  -5.703  0.00  0.00     0.086 C 
ATOM     72  H74 ALA d   1      -7.116   9.576  -5.276  0.00  0.00     0.086 H 
BRANCH  71  73
ATOM     73  C   ALA d   1      -6.538  11.597  -4.954  0.00  0.00     0.240 C 
ATOM     74  O   ALA d   1      -6.501  11.618  -3.752  0.00  0.00    -0.271 OA
ATOM     75  N   SER d   1      -6.701  12.674  -5.700  0.00  0.00    -0.343 N 
ATOM     76  H78 SER d   1      -6.734  12.555  -6.692  0.00  0.00     0.163 HD
BRANCH  75  77
ATOM     77  CA  SER d   1      -6.835  14.021  -5.171  0.00  0.00     0.116 C 
ATOM     78  H79 SER d   1      -6.477  14.708  -5.952  0.00  0.00     0.093 H 
BRANCH  77  79
ATOM     79  C   SER d   1      -5.990  14.262  -3.948  0.00  0.00     0.198 C 
ATOM     80  O   SER d   1      -4.803  14.451  -4.067  0.00  0.00    -0.646 OA
ATOM     81  OXT SER d   1      -6.504  14.265  -2.855  0.00  0.00    -0.646 OA
ENDBRANCH  77  79
BRANCH  77  82
ATOM     82  CB  SER d   1      -8.282  14.368  -4.893  0.00  0.00     0.045 C 
ATOM     83  H80 SER d   1      -8.328  15.318  -4.340  0.00  0.00     0.077 H 
ATOM     84  H81 SER d   1      -8.737  13.569  -4.289  0.00  0.00     0.077 H 
BRANCH  82  85
ATOM     85  OG  SER d   1      -8.992  14.499  -6.098  0.00  0.00    -0.398 OA
ATOM     86  H82 SER d   1      -9.897  14.716  -5.909  0.00  0.00     0.209 HD
ENDBRANCH  82  85
ENDBRANCH  77  82
ENDBRANCH  75  77
ENDBRANCH  71  73
BRANCH  71  87
ATOM     87  CB  ALA d   1      -5.013   9.754  -5.550  0.00  0.00    -0.049 C 
ATOM     88  H75 ALA d   1      -4.785   9.624  -4.482  0.00  0.00     0.030 H 
ATOM     89  H76 ALA d   1      -4.293  10.456  -5.996  0.00  0.00     0.030 H 
ATOM     90  H77 ALA d   1      -4.941   8.782  -6.061  0.00  0.00     0.030 H 
ENDBRANCH  71  87
ENDBRANCH  69  71
ENDBRANCH  65  67
BRANCH  65  91
ATOM     91  CB  LEU d   1      -8.455  12.095  -9.308  0.00  0.00    -0.035 C 
ATOM     92  H64 LEU d   1      -8.012  12.685  -8.492  0.00  0.00     0.037 H 
ATOM     93  H65 LEU d   1      -9.551  12.185  -9.273  0.00  0.00     0.037 H 
BRANCH  91  94
ATOM     94  CG  LEU d   1      -8.008  12.737 -10.599  0.00  0.00    -0.059 C 
ATOM     95  H66 LEU d   1      -7.145  13.380 -10.371  0.00  0.00     0.038 H 
BRANCH  94  96
ATOM     96  CD1 LEU d   1      -7.567  11.722 -11.606  0.00  0.00    -0.073 C 
ATOM     97  H67 LEU d   1      -7.251  12.233 -12.527  0.00  0.00     0.028 H 
ATOM     98  H68 LEU d   1      -8.402  11.042 -11.831  0.00  0.00     0.028 H 
ATOM     99  H69 LEU d   1      -6.724  11.145 -11.200  0.00  0.00     0.028 H 
ENDBRANCH  94  96
BRANCH  94 100
ATOM    100  CD2 LEU d   1      -9.096  13.605 -11.167  0.00  0.00    -0.073 C 
ATOM    101  H70 LEU d   1      -9.407  14.344 -10.413  0.00  0.00     0.028 H 
ATOM    102  H71 LEU d   1      -9.957  12.979 -11.444  0.00  0.00     0.028 H 
ATOM    103  H72 LEU d   1      -8.720  14.127 -12.059  0.00  0.00     0.028 H 
ENDBRANCH  94 100
ENDBRANCH  91  94
ENDBRANCH  65  91
ENDBRANCH  63  65
ENDBRANCH  59  61
BRANCH  59 104
ATOM    104  CB  ASP d   1     -10.077   6.325 -10.298  0.00  0.00     0.043 C 
ATOM    105  H60 ASP d   1      -9.062   6.144 -10.680  0.00  0.00     0.052 H 
ATOM    106  H61 ASP d   1     -10.813   5.898 -10.995  0.00  0.00     0.052 H 
BRANCH 104 107
ATOM    107  CG  ASP d   1     -10.216   5.649  -8.996  0.00  0.00     0.175 C 
ATOM    108  OD1 ASP d   1      -9.776   4.510  -8.893  0.00  0.00    -0.648 OA
ATOM    109  OD2 ASP d   1     -10.752   6.239  -8.068  0.00  0.00    -0.648 OA
ENDBRANCH 104 107
ENDBRANCH  59 104
ENDBRANCH  57  59
ENDBRANCH  53  55
BRANCH  53 110
ATOM    110  CB  LEU d   1      -9.362  10.070 -14.075  0.00  0.00    -0.035 C 
ATOM    111  H49 LEU d   1      -8.419  10.128 -13.512  0.00  0.00     0.037 H 
ATOM    112  H50 LEU d   1     -10.023  10.894 -13.769  0.00  0.00     0.037 H 
BRANCH 110 113
ATOM    113  CG  LEU d   1      -9.082  10.165 -15.541  0.00  0.00    -0.059 C 
ATOM    114  H51 LEU d   1     -10.002  10.003 -16.122  0.00  0.00     0.038 H 
BRANCH 113 115
ATOM    115  CD1 LEU d   1      -8.506  11.524 -15.841  0.00  0.00    -0.073 C 
ATOM    116  H52 LEU d   1      -8.296  11.604 -16.918  0.00  0.00     0.028 H 
ATOM    117  H53 LEU d   1      -7.573  11.660 -15.275  0.00  0.00     0.028 H 
ATOM    118  H54 LEU d   1      -9.228  12.301 -15.550  0.00  0.00     0.028 H 
ENDBRANCH 113 115
BRANCH 113 119
ATOM    119  CD2 LEU d   1      -8.062   9.128 -15.874  0.00  0.00    -0.073 C 
ATOM    120  H55 LEU d   1      -8.471   8.130 -15.659  0.00  0.00     0.028 H 
ATOM    121  H56 LEU d   1      -7.160   9.293 -15.267  0.00  0.00     0.028 H 
ATOM    122  H57 LEU d   1      -7.804   9.197 -16.941  0.00  0.00     0.028 H 
ENDBRANCH 113 119
ENDBRANCH 110 113
ENDBRANCH  53 110
ENDBRANCH  51  53
ENDBRANCH  27  49
BRANCH  27 123
ATOM    123  CB2 ZS8 d   1     -14.409   6.882 -13.681  0.00  0.00    -0.044 C 
ATOM    124  H32 ZS8 d   1     -14.053   5.910 -14.052  0.00  0.00     0.031 H 
ATOM    125  H33 ZS8 d   1     -15.470   7.007 -13.941  0.00  0.00     0.031 H 
ATOM    126  H34 ZS8 d   1     -14.292   6.922 -12.588  0.00  0.00     0.031 H 
ENDBRANCH  27 123
BRANCH  21 127
ATOM    127  CB  ASP d   1     -16.247  10.787 -12.147  0.00  0.00     0.043 C 
ATOM    128  H29 ASP d   1     -16.537  10.532 -13.177  0.00  0.00     0.052 H 
ATOM    129  H30 ASP d   1     -16.633  11.786 -11.894  0.00  0.00     0.052 H 
BRANCH 127 130
ATOM    130  CG  ASP d   1     -16.863   9.787 -11.216  0.00  0.00     0.175 C 
ATOM    131  OD1 ASP d   1     -17.862   9.155 -11.572  0.00  0.00    -0.648 OA
ATOM    132  OD2 ASP d   1     -16.365   9.639 -10.109  0.00  0.00    -0.648 OA
ENDBRANCH 127 130
ENDBRANCH  21 127
BRANCH  15 133
ATOM    133  CB  LEU d   1     -12.388  14.518 -13.226  0.00  0.00    -0.035 C 
ATOM    134  H18 LEU d   1     -11.696  14.335 -12.391  0.00  0.00     0.037 H 
ATOM    135  H19 LEU d   1     -13.374  14.802 -12.830  0.00  0.00     0.037 H 
BRANCH 133 136
ATOM    136  CG  LEU d   1     -11.855  15.696 -14.010  0.00  0.00    -0.059 C 
ATOM    137  H20 LEU d   1     -12.670  16.127 -14.610  0.00  0.00     0.038 H 
BRANCH 136 138
ATOM    138  CD1 LEU d   1     -11.357  16.733 -13.042  0.00  0.00    -0.073 C 
ATOM    139  H21 LEU d   1     -10.966  17.597 -13.599  0.00  0.00     0.028 H 
ATOM    140  H22 LEU d   1     -10.556  16.302 -12.423  0.00  0.00     0.028 H 
ATOM    141  H23 LEU d   1     -12.185  17.058 -12.395  0.00  0.00     0.028 H 
ENDBRANCH 136 138
BRANCH 136 142
ATOM    142  CD2 LEU d   1     -10.754  15.263 -14.935  0.00  0.00    -0.073 C 
ATOM    143  H24 LEU d   1     -11.139  14.505 -15.634  0.00  0.00     0.028 H 
ATOM    144  H25 LEU d   1      -9.929  14.834 -14.347  0.00  0.00     0.028 H 
ATOM    145  H26 LEU d   1     -10.388  16.132 -15.502  0.00  0.00     0.028 H 
ENDBRANCH 136 142
ENDBRANCH 133 136
ENDBRANCH  15 133
BRANCH   3 146
ATOM    146  N   MK8 d   1     -15.808  13.374 -16.345  0.00  0.00    -0.342 N 
ATOM    147  C   GLY d   1     -16.623  12.753 -15.616  0.00  0.00     0.244 C 
ATOM    148  O   GLY d   1     -16.525  11.538 -15.401  0.00  0.00    -0.272 OA
ATOM    149  H6  MK8 d   1     -15.948  14.355 -16.482  0.00  0.00     0.163 HD
BRANCH 147 150
ATOM    150  CA  GLY d   1     -17.728  13.533 -15.001  0.00  0.00     0.152 C 
ATOM    151  H4  GLY d   1     -18.205  14.168 -15.763  0.00  0.00     0.090 H 
ATOM    152  H5  GLY d   1     -18.475  12.848 -14.575  0.00  0.00     0.090 H 
BRANCH 150 153
ATOM    153  N   GLY d   1     -17.162  14.371 -13.941  0.00  0.00    -0.071 N 
ATOM    154  H1  GLY d   1     -17.897  14.910 -13.510  0.00  0.00     0.274 HD
ATOM    155  H2  GLY d   1     -16.476  14.995 -14.336  0.00  0.00     0.274 HD
ATOM    156  H3  GLY d   1     -16.724  13.785 -13.248  0.00  0.00     0.274 HD
ENDBRANCH 150 153
ENDBRANCH 147 150
ENDBRANCH   3 146
BRANCH   3 157
ATOM    157  CB1 MK8 d   1     -15.113  11.463 -17.704  0.00  0.00    -0.044 C 
ATOM    158  H13 MK8 d   1     -14.263  10.975 -18.203  0.00  0.00     0.031 H 
ATOM    159  H14 MK8 d   1     -15.880  11.718 -18.451  0.00  0.00     0.031 H 
ATOM    160  H15 MK8 d   1     -15.542  10.779 -16.957  0.00  0.00     0.031 H 
ENDBRANCH   3 157
TORSDOF 35
