REMARK  2 active torsions:
REMARK  status: ('A' for Active; 'I' for Inactive)
REMARK    1  A    between atoms: N3_2  and  C13_9 
REMARK    2  A    between atoms: C17_11  and  C19_25 
ROOT
ATOM      1  N1  6FQ d   1       9.925  -7.819  11.622  0.00  0.00    -0.273 N 
ATOM      2  N3  6FQ d   1       7.536  -5.788  14.307  0.00  0.00    -0.294 N 
ATOM      3  C4  6FQ d   1       9.125  -5.713  12.491  0.00  0.00     0.080 A 
ATOM      4  C5  6FQ d   1       9.095  -4.323  12.500  0.00  0.00    -0.052 A 
ATOM      5  C6  6FQ d   1       7.509  -4.389  14.324  0.00  0.00     0.053 A 
ATOM      6  C7  6FQ d   1       8.293  -3.649  13.414  0.00  0.00    -0.008 A 
ATOM      7  C8  6FQ d   1       8.244  -2.228  13.453  0.00  0.00    -0.069 A 
ATOM      8  C10 6FQ d   1       6.678  -2.328  15.266  0.00  0.00     0.046 A 
ATOM      9  C1  6FQ d   1       9.963  -6.440  11.546  0.00  0.00     0.263 A 
ATOM     10  C2  6FQ d   1       9.133  -8.483  12.539  0.00  0.00     0.350 A 
ATOM     11  N2  6FQ d   1       8.339  -7.786  13.427  0.00  0.00    -0.175 NA
ATOM     12  C3  6FQ d   1       8.333  -6.464  13.410  0.00  0.00     0.156 A 
ATOM     13  C9  6FQ d   1       6.701  -3.708  15.246  0.00  0.00    -0.036 A 
ATOM     14  C11 6FQ d   1       7.453  -1.597  14.365  0.00  0.00    -0.062 A 
ATOM     15  C12 6FQ d   1       5.847  -1.642  16.220  0.00  0.00     0.099 C 
ATOM     16  N4  6FQ d   1       5.195  -1.097  16.984  0.00  0.00    -0.191 NA
ATOM     17  O1  6FQ d   1       9.162  -9.709  12.534  0.00  0.00    -0.244 OA
ATOM     18  O2  6FQ d   1      10.688  -5.897  10.712  0.00  0.00    -0.267 OA
ATOM     19  H1  6FQ d   1      10.489  -8.354  10.993  0.00  0.00     0.173 HD
ATOM     20  H2  6FQ d   1       9.700  -3.761  11.790  0.00  0.00     0.086 H 
ATOM     21  H3  6FQ d   1       8.837  -1.647  12.756  0.00  0.00     0.085 H 
ATOM     22  H5  6FQ d   1       6.092  -4.268  15.946  0.00  0.00     0.089 H 
ATOM     23  H6  6FQ d   1       7.425  -0.514  14.391  0.00  0.00     0.085 H 
ENDROOT
BRANCH   2  24
ATOM     24  C13 6FQ d   1       6.724  -6.535  15.255  0.00  0.00     0.042 A 
ATOM     25  C14 6FQ d   1       5.433  -6.900  14.927  0.00  0.00    -0.057 A 
ATOM     26  C15 6FQ d   1       4.673  -7.615  15.833  0.00  0.00    -0.080 A 
ATOM     27  H7  6FQ d   1       5.018  -6.627  13.964  0.00  0.00     0.086 H 
ATOM     28  C16 6FQ d   1       5.201  -7.965  17.062  0.00  0.00    -0.069 A 
ATOM     29  H4  6FQ d   1       3.659  -7.902  15.579  0.00  0.00     0.083 H 
ATOM     30  C17 6FQ d   1       6.499  -7.598  17.395  0.00  0.00     0.015 A 
ATOM     31  H8  6FQ d   1       4.601  -8.527  17.768  0.00  0.00     0.085 H 
ATOM     32  C18 6FQ d   1       7.261  -6.882  16.479  0.00  0.00    -0.043 A 
ATOM     33  H9  6FQ d   1       8.277  -6.596  16.726  0.00  0.00     0.088 H 
BRANCH  30  34
ATOM     34  C19 6FQ d   1       7.070  -7.966  18.688  0.00  0.00     0.179 A 
ATOM     35  N5  6FQ d   1       6.472  -8.683  19.642  0.00  0.00    -0.108 NA
ATOM     36  N8  6FQ d   1       7.317  -8.821  20.675  0.00  0.00    -0.023 NA
ATOM     37  N7  6FQ d   1       8.404  -8.203  20.355  0.00  0.00    -0.046 NA
ATOM     38  N6  6FQ d   1       8.285  -7.659  19.117  0.00  0.00    -0.239 N 
ATOM     39  H10 6FQ d   1       8.998  -7.115  18.611  0.00  0.00     0.192 HD
ENDBRANCH  30  34
ENDBRANCH   2  24
TORSDOF 2
