REMARK  3 active torsions:
REMARK  status: ('A' for Active; 'I' for Inactive)
REMARK    1  A    between atoms: O_17  and  C6_3 
REMARK    2  A    between atoms: C11_10  and  C12_11 
REMARK    3  A    between atoms: O_17  and  C3_18 
ROOT
ATOM      1  C6  6JJ d   1     -39.479   9.028  23.701  0.00  0.00     0.089 A 
ATOM      2  C7  6JJ d   1     -39.019   8.278  22.620  0.00  0.00    -0.049 A 
ATOM      3  C8  6JJ d   1     -38.511   8.926  21.505  0.00  0.00    -0.080 A 
ATOM      4  C9  6JJ d   1     -38.463  10.301  21.460  0.00  0.00    -0.082 A 
ATOM      5  C10 6JJ d   1     -38.920  11.054  22.531  0.00  0.00    -0.068 A 
ATOM      6  C11 6JJ d   1     -39.442  10.438  23.672  0.00  0.00     0.035 A 
ATOM      7  H3  6JJ d   1     -39.058   7.195  22.651  0.00  0.00     0.087 H 
ATOM      8  H4  6JJ d   1     -38.149   8.347  20.663  0.00  0.00     0.083 H 
ATOM      9  H5  6JJ d   1     -38.066  10.798  20.582  0.00  0.00     0.083 H 
ATOM     10  H6  6JJ d   1     -38.872  12.136  22.483  0.00  0.00     0.085 H 
ENDROOT
BRANCH   1  11
ATOM     11  O   6JJ d   1     -39.934   8.373  24.848  0.00  0.00    -0.310 OA
BRANCH  11  12
ATOM     12  C3  6JJ d   1     -40.439   7.069  24.838  0.00  0.00     0.076 A 
ATOM     13  C4  6JJ d   1     -41.695   6.798  24.309  0.00  0.00    -0.050 A 
ATOM     14  C5  6JJ d   1     -42.172   5.495  24.327  0.00  0.00    -0.080 A 
ATOM     15  H1  6JJ d   1     -42.296   7.596  23.887  0.00  0.00     0.087 H 
ATOM     16  C   6JJ d   1     -41.406   4.476  24.864  0.00  0.00    -0.083 A 
ATOM     17  H2  6JJ d   1     -43.151   5.274  23.918  0.00  0.00     0.083 H 
ATOM     18  C1  6JJ d   1     -40.160   4.755  25.392  0.00  0.00    -0.080 A 
ATOM     19  H11 6JJ d   1     -41.783   3.460  24.871  0.00  0.00     0.083 H 
ATOM     20  C2  6JJ d   1     -39.668   6.053  25.385  0.00  0.00    -0.050 A 
ATOM     21  H10 6JJ d   1     -39.563   3.955  25.814  0.00  0.00     0.083 H 
ATOM     22  H9  6JJ d   1     -38.692   6.271  25.802  0.00  0.00     0.087 H 
ENDBRANCH  11  12
ENDBRANCH   1  11
BRANCH   6  23
ATOM     23  C12 6JJ d   1     -39.901  11.296  24.776  0.00  0.00     0.135 A 
ATOM     24  N   6JJ d   1     -39.775  12.582  24.742  0.00  0.00    -0.156 NA
ATOM     25  N1  6JJ d   1     -40.284  13.146  25.885  0.00  0.00    -0.200 N 
ATOM     26  C13 6JJ d   1     -40.411  14.368  26.446  0.00  0.00     0.110 A 
ATOM     27  C14 6JJ d   1     -40.803  12.284  26.795  0.00  0.00     0.191 A 
ATOM     28  N2  6JJ d   1     -40.960  14.276  27.623  0.00  0.00    -0.166 NA
ATOM     29  H8  6JJ d   1     -40.098  15.300  25.979  0.00  0.00     0.149 H 
ATOM     30  N3  6JJ d   1     -41.218  12.929  27.858  0.00  0.00    -0.254 N 
ATOM     31  H7  6JJ d   1     -41.649  12.520  28.699  0.00  0.00     0.191 HD
ATOM     32  S   6JJ d   1     -40.668  10.647  26.209  0.00  0.00    -0.028 SA
ENDBRANCH   6  23
TORSDOF 3
