REMARK  5 active torsions:
REMARK  status: ('A' for Active; 'I' for Inactive)
REMARK    1  A    between atoms: N_1  and  CA_2 
REMARK    2  A    between atoms: CA_2  and  CB_3 
REMARK    3  A    between atoms: CB_3  and  CG_4 
REMARK    4  A    between atoms: CG_4  and  CD_5 
REMARK    5  A    between atoms: CD_5  and  NE_6 
REMARK       I    between atoms: NE_6  and  CZ_7 
REMARK       I    between atoms: CZ_7  and  NH2_9 
ROOT
ATOM      1  CG  AG2 d   1      16.160  23.392 -31.560  0.00  0.00    -0.048 C 
ATOM      2  H8  AG2 d   1      16.551  24.310 -32.023  0.00  0.00     0.035 H 
ATOM      3  H9  AG2 d   1      16.998  22.734 -31.286  0.00  0.00     0.035 H 
ENDROOT
BRANCH   1   4
ATOM      4  CB  AG2 d   1      15.242  22.662 -32.563  0.00  0.00    -0.041 C 
ATOM      5  H6  AG2 d   1      14.970  21.674 -32.163  0.00  0.00     0.035 H 
ATOM      6  H7  AG2 d   1      14.330  23.255 -32.728  0.00  0.00     0.035 H 
BRANCH   4   7
ATOM      7  CA  AG2 d   1      15.967  22.496 -33.847  0.00  0.00     0.080 C 
ATOM      8  H4  AG2 d   1      16.652  23.345 -33.989  0.00  0.00     0.075 H 
ATOM      9  H5  AG2 d   1      16.544  21.560 -33.819  0.00  0.00     0.075 H 
BRANCH   7  10
ATOM     10  N   AG2 d   1      15.037  22.447 -34.946  0.00  0.00    -0.079 N 
ATOM     11  H1  AG2 d   1      15.544  22.334 -35.810  0.00  0.00     0.274 HD
ATOM     12  H2  AG2 d   1      14.507  23.304 -34.977  0.00  0.00     0.274 HD
ATOM     13  H3  AG2 d   1      14.409  21.668 -34.821  0.00  0.00     0.274 HD
ENDBRANCH   7  10
ENDBRANCH   4   7
ENDBRANCH   1   4
BRANCH   1  14
ATOM     14  CD  AG2 d   1      15.340  23.767 -30.261  0.00  0.00     0.009 C 
ATOM     15  H10 AG2 d   1      14.821  22.877 -29.876  0.00  0.00     0.064 H 
ATOM     16  H11 AG2 d   1      14.603  24.549 -30.496  0.00  0.00     0.064 H 
BRANCH  14  17
ATOM     17  NE  AG2 d   1      16.289  24.261 -29.264  0.00  0.00    -0.227 N 
ATOM     18  CZ  AG2 d   1      15.849  24.759 -27.993  0.00  0.00     0.665 C 
ATOM     19  NH1 AG2 d   1      14.589  24.800 -27.668  0.00  0.00    -0.235 N 
ATOM     20  NH2 AG2 d   1      16.852  25.237 -27.044  0.00  0.00    -0.235 N 
ATOM     21  H13 AG2 d   1      14.306  25.164 -26.747  0.00  0.00     0.174 HD
ATOM     22  H14 AG2 d   1      13.875  24.469 -28.332  0.00  0.00     0.174 HD
ATOM     23  H15 AG2 d   1      17.851  25.208 -27.293  0.00  0.00     0.174 HD
ATOM     24  H16 AG2 d   1      16.560  25.603 -26.126  0.00  0.00     0.174 HD
ATOM     25  H12 AG2 d   1      17.296  24.251 -29.479  0.00  0.00     0.177 HD
ENDBRANCH  14  17
ENDBRANCH   1  14
TORSDOF 5
