REMARK  3 active torsions:
REMARK  status: ('A' for Active; 'I' for Inactive)
REMARK    1  A    between atoms: O_18  and  C6_3 
REMARK    2  A    between atoms: C7_5  and  C11_10 
REMARK    3  A    between atoms: O_18  and  C3_19 
ROOT
ATOM      1  C6  6JH d   1     -39.669   8.796  23.542  0.00  0.00     0.182 A 
ATOM      2  C7  6JH d   1     -39.372  10.185  23.434  0.00  0.00     0.053 A 
ATOM      3  C8  6JH d   1     -38.686  10.580  22.279  0.00  0.00    -0.065 A 
ATOM      4  C9  6JH d   1     -38.328   9.655  21.313  0.00  0.00    -0.065 A 
ATOM      5  C10 6JH d   1     -38.666   8.312  21.513  0.00  0.00     0.005 A 
ATOM      6  N   6JH d   1     -39.324   7.866  22.597  0.00  0.00    -0.236 NA
ATOM      7  H3  6JH d   1     -38.432  11.624  22.139  0.00  0.00     0.085 H 
ATOM      8  H4  6JH d   1     -37.797   9.965  20.420  0.00  0.00     0.085 H 
ATOM      9  H5  6JH d   1     -38.382   7.593  20.753  0.00  0.00     0.114 H 
ENDROOT
BRANCH   1  10
ATOM     10  O   6JH d   1     -40.330   8.345  24.632  0.00  0.00    -0.291 OA
BRANCH  10  11
ATOM     11  C3  6JH d   1     -40.586   6.984  24.673  0.00  0.00     0.077 A 
ATOM     12  C4  6JH d   1     -39.513   6.121  24.877  0.00  0.00    -0.050 A 
ATOM     13  C5  6JH d   1     -39.771   4.757  24.918  0.00  0.00    -0.080 A 
ATOM     14  H1  6JH d   1     -38.506   6.502  25.000  0.00  0.00     0.087 H 
ATOM     15  C   6JH d   1     -41.069   4.282  24.759  0.00  0.00    -0.083 A 
ATOM     16  H2  6JH d   1     -38.957   4.059  25.075  0.00  0.00     0.083 H 
ATOM     17  C1  6JH d   1     -42.123   5.167  24.556  0.00  0.00    -0.080 A 
ATOM     18  H11 6JH d   1     -41.260   3.216  24.794  0.00  0.00     0.083 H 
ATOM     19  C2  6JH d   1     -41.893   6.539  24.510  0.00  0.00    -0.050 A 
ATOM     20  H10 6JH d   1     -43.130   4.785  24.433  0.00  0.00     0.083 H 
ATOM     21  H9  6JH d   1     -42.706   7.238  24.352  0.00  0.00     0.087 H 
ENDBRANCH  10  11
ENDBRANCH   1  10
BRANCH   2  22
ATOM     22  C11 6JH d   1     -39.719  11.208  24.411  0.00  0.00     0.113 A 
ATOM     23  N1  6JH d   1     -39.425  12.484  24.271  0.00  0.00    -0.239 NA
ATOM     24  C12 6JH d   1     -39.899  13.215  25.391  0.00  0.00     0.078 A 
ATOM     25  C13 6JH d   1     -39.754  14.590  25.563  0.00  0.00    -0.037 A 
ATOM     26  C16 6JH d   1     -40.557  12.445  26.372  0.00  0.00     0.053 A 
ATOM     27  C14 6JH d   1     -40.288  15.129  26.733  0.00  0.00     0.004 A 
ATOM     28  H6  6JH d   1     -39.253  15.208  24.827  0.00  0.00     0.089 H 
ATOM     29  N2  6JH d   1     -40.927  14.408  27.694  0.00  0.00    -0.272 NA
ATOM     30  H7  6JH d   1     -40.187  16.197  26.888  0.00  0.00     0.114 H 
ATOM     31  C15 6JH d   1     -41.057  13.078  27.511  0.00  0.00     0.021 A 
ATOM     32  H8  6JH d   1     -41.562  12.487  28.266  0.00  0.00     0.117 H 
ATOM     33  S   6JH d   1     -40.597  10.799  25.918  0.00  0.00    -0.066 SA
ENDBRANCH   2  22
TORSDOF 3
