REMARK  5 active torsions:
REMARK  status: ('A' for Active; 'I' for Inactive)
REMARK    1  A    between atoms: O1_21  and  C5_2 
REMARK    2  A    between atoms: C8_6  and  O1_21 
REMARK    3  A    between atoms: C14_13  and  C13_12 
REMARK    4  A    between atoms: C1_16  and  C_17 
REMARK       I    between atoms: N_18  and  C1_16 
REMARK    5  A    between atoms: C2_19  and  N_18 
ROOT
ATOM      1  C8  6JG d   1     -38.710   8.178  22.714  0.00  0.00     0.089 A 
ATOM      2  C9  6JG d   1     -38.180   7.350  21.726  0.00  0.00    -0.049 A 
ATOM      3  C10 6JG d   1     -37.485   7.909  20.662  0.00  0.00    -0.080 A 
ATOM      4  C11 6JG d   1     -37.334   9.279  20.570  0.00  0.00    -0.082 A 
ATOM      5  C12 6JG d   1     -37.850  10.106  21.556  0.00  0.00    -0.068 A 
ATOM      6  C13 6JG d   1     -38.532   9.572  22.658  0.00  0.00     0.034 A 
ATOM      7  H4  6JG d   1     -38.310   6.276  21.788  0.00  0.00     0.087 H 
ATOM      8  H5  6JG d   1     -37.059   7.267  19.900  0.00  0.00     0.083 H 
ATOM      9  H6  6JG d   1     -36.810   9.709  19.724  0.00  0.00     0.083 H 
ATOM     10  H7  6JG d   1     -37.724  11.180  21.474  0.00  0.00     0.085 H 
ENDROOT
BRANCH   1  11
ATOM     11  O1  6JG d   1     -39.466   7.632  23.758  0.00  0.00    -0.310 OA
BRANCH  11  12
ATOM     12  C5  6JG d   1     -39.750   6.268  23.866  0.00  0.00     0.076 A 
ATOM     13  C4  6JG d   1     -40.747   5.687  23.091  0.00  0.00    -0.048 A 
ATOM     14  C3  6JG d   1     -41.034   4.340  23.233  0.00  0.00    -0.054 A 
ATOM     15  H1  6JG d   1     -41.299   6.287  22.377  0.00  0.00     0.087 H 
ATOM     16  C2  6JG d   1     -40.334   3.563  24.153  0.00  0.00     0.034 A 
ATOM     17  H12 6JG d   1     -41.808   3.887  22.624  0.00  0.00     0.087 H 
ATOM     18  C7  6JG d   1     -39.338   4.155  24.928  0.00  0.00    -0.054 A 
ATOM     19  C6  6JG d   1     -39.044   5.501  24.784  0.00  0.00    -0.048 A 
ATOM     20  H3  6JG d   1     -38.790   3.558  25.648  0.00  0.00     0.087 H 
ATOM     21  H2  6JG d   1     -38.265   5.955  25.386  0.00  0.00     0.087 H 
BRANCH  16  22
ATOM     22  N   6JG d   1     -40.675   2.194  24.295  0.00  0.00    -0.328 N 
ATOM     23  C1  6JG d   1     -39.852   1.112  24.346  0.00  0.00     0.218 C 
ATOM     24  O   6JG d   1     -38.626   1.200  24.311  0.00  0.00    -0.274 OA
ATOM     25  H11 6JG d   1     -41.653   1.997  24.367  0.00  0.00     0.169 HD
BRANCH  23  26
ATOM     26  C   6JG d   1     -40.552  -0.212  24.455  0.00  0.00    -0.003 C 
ATOM     27  H8  6JG d   1     -41.640  -0.051  24.469  0.00  0.00     0.040 H 
ATOM     28  H9  6JG d   1     -40.243  -0.715  25.384  0.00  0.00     0.040 H 
ATOM     29  H10 6JG d   1     -40.285  -0.840  23.592  0.00  0.00     0.040 H 
ENDBRANCH  23  26
ENDBRANCH  16  22
ENDBRANCH  11  12
ENDBRANCH   1  11
BRANCH   6  30
ATOM     30  C14 6JG d   1     -38.985  10.511  23.699  0.00  0.00     0.112 A 
ATOM     31  N1  6JG d   1     -38.793  11.798  23.621  0.00  0.00    -0.239 NA
ATOM     32  C15 6JG d   1     -39.295  12.447  24.750  0.00  0.00     0.078 A 
ATOM     33  C19 6JG d   1     -39.885  11.605  25.702  0.00  0.00     0.053 A 
ATOM     34  C16 6JG d   1     -39.237  13.822  24.992  0.00  0.00    -0.037 A 
ATOM     35  S   6JG d   1     -39.808   9.958  25.148  0.00  0.00    -0.066 SA
ATOM     36  C18 6JG d   1     -40.383  12.225  26.876  0.00  0.00     0.021 A 
ATOM     37  N2  6JG d   1     -40.314  13.541  27.118  0.00  0.00    -0.272 NA
ATOM     38  H13 6JG d   1     -40.849  11.595  27.625  0.00  0.00     0.117 H 
ATOM     39  C17 6JG d   1     -39.747  14.308  26.182  0.00  0.00     0.004 A 
ATOM     40  H14 6JG d   1     -39.683  15.374  26.366  0.00  0.00     0.114 H 
ATOM     41  H15 6JG d   1     -38.801  14.494  24.262  0.00  0.00     0.089 H 
ENDBRANCH   6  30
TORSDOF 5
