REMARK  3 active torsions:
REMARK  status: ('A' for Active; 'I' for Inactive)
REMARK    1  A    between atoms: C2_7  and  C3_9 
REMARK    2  A    between atoms: C3_9  and  N_10 
REMARK    3  A    between atoms: N_10  and  C4_11 
ROOT
ATOM      1  C4  N56 d   1     129.446 118.552  -9.621  0.00  0.00     0.118 C 
ATOM      2  C8  N56 d   1     129.442 117.860 -10.973  0.00  0.00     0.038 C 
ATOM      3  N1  N56 d   1     130.552 118.343 -11.795  0.00  0.00    -0.214 N 
ATOM      4  C7  N56 d   1     131.858 118.077 -11.187  0.00  0.00     0.012 C 
ATOM      5  C6  N56 d   1     131.940 118.706  -9.815  0.00  0.00    -0.048 C 
ATOM      6  C5  N56 d   1     130.772 118.258  -8.945  0.00  0.00    -0.035 C 
ATOM      7  C9  N56 d   1     130.383 119.419 -12.597  0.00  0.00     0.704 A 
ATOM      8  N4  N56 d   1     129.192 120.039 -12.795  0.00  0.00    -0.061 NA
ATOM      9  C14 N56 d   1     129.422 121.086 -13.670  0.00  0.00     0.122 A 
ATOM     10  C10 N56 d   1     130.768 121.042 -13.960  0.00  0.00     0.173 A 
ATOM     11  N2  N56 d   1     131.348 119.994 -13.280  0.00  0.00    -0.171 N 
ATOM     12  C13 N56 d   1     128.611 122.060 -14.238  0.00  0.00    -0.048 A 
ATOM     13  C12 N56 d   1     129.200 122.972 -15.095  0.00  0.00    -0.041 A 
ATOM     14  C11 N56 d   1     130.559 122.843 -15.322  0.00  0.00     0.128 A 
ATOM     15  N3  N56 d   1     131.352 121.920 -14.791  0.00  0.00    -0.216 NA
ATOM     16 CL1  N56 d   1     131.343 123.967 -16.393  0.00  0.00    -0.062 Cl
ATOM     17  H8  N56 d   1     129.315 119.638  -9.737  0.00  0.00     0.086 H 
ATOM     18  H9  N56 d   1     128.492 118.071 -11.486  0.00  0.00     0.068 H 
ATOM     19  H10 N56 d   1     129.545 116.775 -10.825  0.00  0.00     0.068 H 
ATOM     20  H11 N56 d   1     132.648 118.498 -11.826  0.00  0.00     0.065 H 
ATOM     21  H12 N56 d   1     132.001 116.990 -11.096  0.00  0.00     0.065 H 
ATOM     22  H13 N56 d   1     131.914 119.801  -9.918  0.00  0.00     0.035 H 
ATOM     23  H14 N56 d   1     132.883 118.405  -9.336  0.00  0.00     0.035 H 
ATOM     24  H15 N56 d   1     130.852 117.176  -8.765  0.00  0.00     0.036 H 
ATOM     25  H16 N56 d   1     130.813 118.793  -7.985  0.00  0.00     0.036 H 
ATOM     26  H17 N56 d   1     132.340 119.716 -13.302  0.00  0.00     0.186 HD
ATOM     27  H18 N56 d   1     127.551 122.104 -14.017  0.00  0.00     0.087 H 
ATOM     28  H19 N56 d   1     128.621 123.756 -15.569  0.00  0.00     0.088 H 
ENDROOT
BRANCH   1  29
ATOM     29  N   N56 d   1     128.327 117.983  -8.847  0.00  0.00    -0.066 N 
ATOM     30  H6  N56 d   1     127.465 118.216  -9.315  0.00  0.00     0.278 HD
ATOM     31  H7  N56 d   1     128.435 116.981  -8.820  0.00  0.00     0.278 HD
BRANCH  29  32
ATOM     32  C3  N56 d   1     128.256 118.480  -7.468  0.00  0.00     0.106 C 
ATOM     33  H4  N56 d   1     127.744 117.730  -6.847  0.00  0.00     0.083 H 
ATOM     34  H5  N56 d   1     129.279 118.631  -7.092  0.00  0.00     0.083 H 
BRANCH  32  35
ATOM     35  C2  N56 d   1     127.505 119.785  -7.374  0.00  0.00    -0.029 A 
ATOM     36  C15 N56 d   1     128.192 120.992  -7.338  0.00  0.00    -0.054 A 
ATOM     37  C16 N56 d   1     127.490 122.175  -7.252  0.00  0.00     0.036 A 
ATOM     38  H2  N56 d   1     129.275 121.003  -7.377  0.00  0.00     0.086 H 
ATOM     39 CL2  N56 d   1     128.370 123.678  -7.207  0.00  0.00    -0.084 Cl
ATOM     40  C17 N56 d   1     126.112 122.207  -7.200  0.00  0.00    -0.041 A 
ATOM     41  C   N56 d   1     125.447 120.999  -7.237  0.00  0.00     0.036 A 
ATOM     42  H1  N56 d   1     125.573 123.145  -7.133  0.00  0.00     0.088 H 
ATOM     43 CL   N56 d   1     123.706 120.992  -7.174  0.00  0.00    -0.084 Cl
ATOM     44  C1  N56 d   1     126.117 119.797  -7.323  0.00  0.00    -0.054 A 
ATOM     45  H3  N56 d   1     125.563 118.866  -7.351  0.00  0.00     0.086 H 
ENDBRANCH  32  35
ENDBRANCH  29  32
ENDBRANCH   1  29
TORSDOF 3
