REMARK  7 active torsions:
REMARK  status: ('A' for Active; 'I' for Inactive)
REMARK    1  A    between atoms: C10_10  and  N_11 
REMARK    2  A    between atoms: N_11  and  C_12 
REMARK    3  A    between atoms: N_11  and  C1_13 
REMARK    4  A    between atoms: C1_13  and  C2_14 
REMARK    5  A    between atoms: C2_14  and  N1_15 
REMARK    6  A    between atoms: N1_15  and  C3_16 
REMARK    7  A    between atoms: C3_16  and  C4_17 
ROOT
ATOM      1  C1  N93 d   1     -42.971  12.050  10.866  0.00  0.00     0.034 C 
ATOM      2  H7  N93 d   1     -43.154  10.967  10.810  0.00  0.00     0.067 H 
ATOM      3  H8  N93 d   1     -42.023  12.235  11.392  0.00  0.00     0.067 H 
ENDROOT
BRANCH   1   4
ATOM      4  N   N93 d   1     -44.046  12.647  11.656  0.00  0.00    -0.218 N 
BRANCH   4   5
ATOM      5  C10 N93 d   1     -43.829  13.593  12.524  0.00  0.00     0.704 A 
ATOM      6  N2  N93 d   1     -42.688  14.158  12.817  0.00  0.00    -0.186 N 
ATOM      7  C11 N93 d   1     -43.007  15.066  13.800  0.00  0.00     0.097 A 
ATOM      8  H3  N93 d   1     -41.763  13.967  12.406  0.00  0.00     0.184 HD
ATOM      9  C12 N93 d   1     -42.241  16.059  14.402  0.00  0.00    -0.050 A 
ATOM     10  C15 N93 d   1     -44.302  15.034  14.080  0.00  0.00     0.197 A 
ATOM     11  C13 N93 d   1     -42.857  16.944  15.257  0.00  0.00    -0.042 A 
ATOM     12  H2  N93 d   1     -41.178  16.134  14.201  0.00  0.00     0.087 H 
ATOM     13  C14 N93 d   1     -44.194  16.792  15.454  0.00  0.00     0.128 A 
ATOM     14  H1  N93 d   1     -42.299  17.730  15.753  0.00  0.00     0.088 H 
ATOM     15 CL2  N93 d   1     -45.012  17.846  16.552  0.00  0.00    -0.062 Cl
ATOM     16  N3  N93 d   1     -44.947  15.869  14.891  0.00  0.00    -0.214 NA
ATOM     17  N4  N93 d   1     -44.838  14.090  13.262  0.00  0.00    -0.043 NA
ENDBRANCH   4   5
BRANCH   4  18
ATOM     18  C   N93 d   1     -45.372  12.088  11.492  0.00  0.00    -0.002 C 
ATOM     19  H4  N93 d   1     -45.348  11.308  10.717  0.00  0.00     0.057 H 
ATOM     20  H5  N93 d   1     -46.070  12.883  11.191  0.00  0.00     0.057 H 
ATOM     21  H6  N93 d   1     -45.705  11.649  12.444  0.00  0.00     0.057 H 
ENDBRANCH   4  18
ENDBRANCH   1   4
BRANCH   1  22
ATOM     22  C2  N93 d   1     -42.828  12.572   9.451  0.00  0.00     0.097 C 
ATOM     23  H9  N93 d   1     -42.670  13.660   9.473  0.00  0.00     0.078 H 
ATOM     24  H10 N93 d   1     -43.740  12.345   8.880  0.00  0.00     0.078 H 
BRANCH  22  25
ATOM     25  N1  N93 d   1     -41.676  11.920   8.819  0.00  0.00    -0.070 N 
ATOM     26  H11 N93 d   1     -41.840  10.925   8.818  0.00  0.00     0.277 HD
ATOM     27  H12 N93 d   1     -40.858  12.125   9.371  0.00  0.00     0.277 HD
BRANCH  25  28
ATOM     28  C3  N93 d   1     -41.412  12.341   7.436  0.00  0.00     0.105 C 
ATOM     29  H13 N93 d   1     -42.379  12.484   6.932  0.00  0.00     0.083 H 
ATOM     30  H14 N93 d   1     -40.852  11.537   6.935  0.00  0.00     0.083 H 
BRANCH  28  31
ATOM     31  C4  N93 d   1     -40.619  13.620   7.301  0.00  0.00    -0.029 A 
ATOM     32  C9  N93 d   1     -41.296  14.817   7.169  0.00  0.00    -0.054 A 
ATOM     33  C8  N93 d   1     -40.591  15.986   7.072  0.00  0.00     0.036 A 
ATOM     34  H15 N93 d   1     -42.380  14.830   7.142  0.00  0.00     0.086 H 
ATOM     35 CL1  N93 d   1     -41.456  17.461   6.937  0.00  0.00    -0.084 Cl
ATOM     36  C7  N93 d   1     -39.221  16.026   7.084  0.00  0.00    -0.041 A 
ATOM     37  C6  N93 d   1     -38.561  14.833   7.190  0.00  0.00     0.036 A 
ATOM     38  H16 N93 d   1     -38.683  16.964   7.012  0.00  0.00     0.088 H 
ATOM     39 CL   N93 d   1     -36.822  14.842   7.116  0.00  0.00    -0.084 Cl
ATOM     40  C5  N93 d   1     -39.228  13.633   7.309  0.00  0.00    -0.054 A 
ATOM     41  H17 N93 d   1     -38.673  12.707   7.408  0.00  0.00     0.086 H 
ENDBRANCH  28  31
ENDBRANCH  25  28
ENDBRANCH  22  25
ENDBRANCH   1  22
TORSDOF 7
