REMARK  6 active torsions:
REMARK  status: ('A' for Active; 'I' for Inactive)
REMARK    1  A    between atoms: CAJ_2  and  CAH_4 
REMARK    2  A    between atoms: CAH_4  and  CAF_5 
REMARK    3  A    between atoms: CAF_5  and  CAG_6 
REMARK    4  A    between atoms: CAG_6  and  CAI_7 
REMARK    5  A    between atoms: CAI_7  and  CAL_8 
REMARK    6  A    between atoms: CAL_8  and  CAK_9 
ROOT
ATOM      1  CAG 6GT d   1      91.829  97.404 111.414  0.00  0.00    -0.064 C 
ATOM      2  H5  6GT d   1      91.978  96.337 111.191  0.00  0.00     0.033 H 
ATOM      3  H6  6GT d   1      92.631  97.755 112.080  0.00  0.00     0.033 H 
ENDROOT
BRANCH   1   4
ATOM      4  CAF 6GT d   1      90.496  97.562 112.141  0.00  0.00    -0.056 C 
ATOM      5  H3  6GT d   1      90.671  97.490 113.225  0.00  0.00     0.033 H 
ATOM      6  H4  6GT d   1      90.076  98.550 111.902  0.00  0.00     0.033 H 
BRANCH   4   7
ATOM      7  CAH 6GT d   1      89.493  96.486 111.731  0.00  0.00     0.016 C 
ATOM      8  H1  6GT d   1      88.944  96.817 110.837  0.00  0.00     0.049 H 
ATOM      9  H2  6GT d   1      90.028  95.551 111.507  0.00  0.00     0.049 H 
BRANCH   7  10
ATOM     10  CAJ 6GT d   1      88.519  96.252 112.864  0.00  0.00     0.172 C 
ATOM     11  OAA 6GT d   1      88.106  95.096 113.081  0.00  0.00    -0.648 OA
ATOM     12  OAD 6GT d   1      88.157  97.226 113.553  0.00  0.00    -0.648 OA
ENDBRANCH   7  10
ENDBRANCH   4   7
ENDBRANCH   1   4
BRANCH   1  13
ATOM     13  CAI 6GT d   1      91.915  98.186 110.104  0.00  0.00    -0.056 C 
ATOM     14  H7  6GT d   1      92.555  99.071 110.238  0.00  0.00     0.033 H 
ATOM     15  H8  6GT d   1      90.909  98.504 109.792  0.00  0.00     0.033 H 
BRANCH  13  16
ATOM     16  CAL 6GT d   1      92.511  97.276 109.062  0.00  0.00     0.016 C 
ATOM     17  H9  6GT d   1      92.782  96.349 109.589  0.00  0.00     0.049 H 
ATOM     18  H10 6GT d   1      93.424  97.778 108.709  0.00  0.00     0.049 H 
BRANCH  16  19
ATOM     19  CAK 6GT d   1      91.852  96.894 107.962  0.00  0.00     0.172 C 
ATOM     20  OAB 6GT d   1      92.425  96.127 107.161  0.00  0.00    -0.648 OA
ATOM     21  OAE 6GT d   1      90.688  97.305 107.739  0.00  0.00    -0.648 OA
ENDBRANCH  16  19
ENDBRANCH  13  16
ENDBRANCH   1  13
TORSDOF 6
