REMARK  3 active torsions:
REMARK  status: ('A' for Active; 'I' for Inactive)
REMARK    1  A    between atoms: S15_19  and  N12_2 
REMARK    2  A    between atoms: C02_9  and  C03_10 
REMARK       I    between atoms: N09_16  and  C02_9 
REMARK    3  A    between atoms: C18_22  and  S15_19 
ROOT
ATOM      1  C10 6G1 d   1     132.084  13.400   4.941  0.00  0.00     0.013 C 
ATOM      2  N12 6G1 d   1     131.291  15.674   5.527  0.00  0.00    -0.304 N 
ATOM      3  C13 6G1 d   1     132.713  15.970   5.644  0.00  0.00     0.020 C 
ATOM      4  O01 6G1 d   1     132.939  12.486   2.494  0.00  0.00    -0.273 OA
ATOM      5  C02 6G1 d   1     133.383  13.532   2.835  0.00  0.00     0.224 C 
ATOM      6  N09 6G1 d   1     132.997  14.094   4.085  0.00  0.00    -0.349 N 
ATOM      7  C11 6G1 d   1     131.007  14.266   5.572  0.00  0.00     0.020 C 
ATOM      8  C14 6G1 d   1     133.496  15.351   4.507  0.00  0.00     0.013 C 
ATOM      9  H1  6G1 d   1     132.664  12.933   5.751  0.00  0.00     0.066 H 
ATOM     10  H2  6G1 d   1     131.588  12.618   4.348  0.00  0.00     0.066 H 
ATOM     11  H3  6G1 d   1     133.086  15.568   6.597  0.00  0.00     0.067 H 
ATOM     12  H4  6G1 d   1     132.855  17.061   5.626  0.00  0.00     0.067 H 
ATOM     13  H19 6G1 d   1     130.896  13.969   6.625  0.00  0.00     0.067 H 
ATOM     14  H20 6G1 d   1     130.062  14.086   5.039  0.00  0.00     0.067 H 
ATOM     15  H21 6G1 d   1     134.537  15.218   4.835  0.00  0.00     0.066 H 
ATOM     16  H22 6G1 d   1     133.467  16.041   3.651  0.00  0.00     0.066 H 
ENDROOT
BRANCH   2  17
ATOM     17  S15 6G1 d   1     130.214  16.694   6.308  0.00  0.00     0.261 S 
ATOM     18  O16 6G1 d   1     130.959  17.782   6.913  0.00  0.00    -0.200 OA
ATOM     19  O17 6G1 d   1     129.572  16.009   7.432  0.00  0.00    -0.200 OA
BRANCH  17  20
ATOM     20  C18 6G1 d   1     128.981  17.226   5.133  0.00  0.00     0.090 A 
ATOM     21  C19 6G1 d   1     129.201  18.335   4.237  0.00  0.00     0.000 A 
ATOM     22  C20 6G1 d   1     130.450  19.107   4.211  0.00  0.00    -0.054 A 
ATOM     23  C24 6G1 d   1     128.208  18.704   3.345  0.00  0.00    -0.007 A 
ATOM     24  C21 6G1 d   1     130.603  20.191   3.312  0.00  0.00     0.003 A 
ATOM     25  H5  6G1 d   1     131.259  18.846   4.883  0.00  0.00     0.087 H 
ATOM     26  N22 6G1 d   1     129.610  20.542   2.444  0.00  0.00    -0.272 NA
ATOM     27  H6  6G1 d   1     131.529  20.754   3.313  0.00  0.00     0.114 H 
ATOM     28  C23 6G1 d   1     128.412  19.819   2.428  0.00  0.00     0.013 A 
ATOM     29  H23 6G1 d   1     127.630  20.090   1.728  0.00  0.00     0.116 H 
ATOM     30  C25 6G1 d   1     126.973  17.978   3.312  0.00  0.00    -0.071 A 
ATOM     31  C26 6G1 d   1     126.768  16.913   4.182  0.00  0.00    -0.081 A 
ATOM     32  H24 6G1 d   1     126.198  18.259   2.608  0.00  0.00     0.084 H 
ATOM     33  C27 6G1 d   1     127.777  16.537   5.094  0.00  0.00    -0.059 A 
ATOM     34  H7  6G1 d   1     125.830  16.370   4.160  0.00  0.00     0.083 H 
ATOM     35  H25 6G1 d   1     127.611  15.705   5.768  0.00  0.00     0.085 H 
ENDBRANCH  17  20
ENDBRANCH   2  17
BRANCH   5  36
ATOM     36  C03 6G1 d   1     134.377  14.322   1.927  0.00  0.00     0.024 C 
ATOM     37  C04 6G1 d   1     135.813  14.008   2.355  0.00  0.00    -0.054 C 
ATOM     38  C05 6G1 d   1     136.819  14.732   1.458  0.00  0.00    -0.064 C 
ATOM     39  H9  6G1 d   1     135.982  12.923   2.283  0.00  0.00     0.034 H 
ATOM     40  H10 6G1 d   1     135.958  14.334   3.396  0.00  0.00     0.034 H 
ATOM     41  C06 6G1 d   1     136.606  14.373   0.017  0.00  0.00    -0.065 C 
ATOM     42  H11 6G1 d   1     137.838  14.444   1.754  0.00  0.00     0.033 H 
ATOM     43  H12 6G1 d   1     136.695  15.818   1.581  0.00  0.00     0.033 H 
ATOM     44  C07 6G1 d   1     135.183  14.581  -0.451  0.00  0.00    -0.064 C 
ATOM     45  H13 6G1 d   1     136.867  13.313  -0.120  0.00  0.00     0.033 H 
ATOM     46  H14 6G1 d   1     137.270  14.997  -0.599  0.00  0.00     0.033 H 
ATOM     47  C08 6G1 d   1     134.154  13.922   0.486  0.00  0.00    -0.054 C 
ATOM     48  H15 6G1 d   1     135.075  14.147  -1.456  0.00  0.00     0.033 H 
ATOM     49  H16 6G1 d   1     134.980  15.661  -0.495  0.00  0.00     0.033 H 
ATOM     50  H17 6G1 d   1     133.144  14.233   0.181  0.00  0.00     0.034 H 
ATOM     51  H18 6G1 d   1     134.243  12.829   0.401  0.00  0.00     0.034 H 
ATOM     52  H8  6G1 d   1     134.195  15.401   2.036  0.00  0.00     0.054 H 
ENDBRANCH   5  36
TORSDOF 3
