REMARK  6 active torsions:
REMARK  status: ('A' for Active; 'I' for Inactive)
REMARK    1  A    between atoms: C1_1  and  N1_11 
REMARK    2  A    between atoms: C4_13  and  C3_3 
REMARK    3  A    between atoms: C13_6  and  O1_23 
REMARK    4  A    between atoms: C14_7  and  C15_8 
REMARK    5  A    between atoms: O1_23  and  C14_7 
REMARK    6  A    between atoms: C7_15  and  C6_16 
ROOT
ATOM      1  C1  6G2 d   1      20.189  -9.050  15.371  0.00  0.00     0.154 A 
ATOM      2  C2  6G2 d   1      17.935  -8.747  14.712  0.00  0.00     0.016 A 
ATOM      3  C3  6G2 d   1      18.333  -8.462  13.410  0.00  0.00     0.003 A 
ATOM      4  C12 6G2 d   1      19.685  -8.488  13.077  0.00  0.00    -0.034 A 
ATOM      5  C13 6G2 d   1      20.611  -8.776  14.076  0.00  0.00     0.115 A 
ATOM      6  N2  6G2 d   1      18.889  -9.036  15.695  0.00  0.00    -0.240 NA
ATOM      7  H1  6G2 d   1      16.881  -8.745  14.967  0.00  0.00     0.116 H 
ATOM      8  H4  6G2 d   1      20.009  -8.288  12.062  0.00  0.00     0.089 H 
ENDROOT
BRANCH   3   9
ATOM      9  C4  6G2 d   1      17.412  -8.194  12.487  0.00  0.00     0.036 A 
ATOM     10  C5  6G2 d   1      17.663  -7.868  11.215  0.00  0.00     0.021 A 
ATOM     11  N3  6G2 d   1      16.545  -7.640  10.497  0.00  0.00    -0.256 NA
ATOM     12  H13 6G2 d   1      18.668  -7.794  10.801  0.00  0.00     0.117 H 
ATOM     13  C6  6G2 d   1      15.423  -7.779  11.211  0.00  0.00     0.079 A 
ATOM     14  S1  6G2 d   1      15.792  -8.192  12.748  0.00  0.00    -0.072 SA
BRANCH  13  15
ATOM     15  C7  6G2 d   1      14.013  -7.593  10.667  0.00  0.00    -0.002 C 
ATOM     16  C11 6G2 d   1      13.747  -6.124  10.384  0.00  0.00    -0.034 C 
ATOM     17  C10 6G2 d   1      12.333  -5.980   9.844  0.00  0.00     0.082 C 
ATOM     18  H2  6G2 d   1      14.467  -5.754   9.639  0.00  0.00     0.036 H 
ATOM     19  H3  6G2 d   1      13.849  -5.544  11.313  0.00  0.00     0.036 H 
ATOM     20  N4  6G2 d   1      11.347  -6.470  10.822  0.00  0.00    -0.075 N 
ATOM     21  H18 6G2 d   1      12.240  -6.563   8.916  0.00  0.00     0.075 H 
ATOM     22  H19 6G2 d   1      12.134  -4.919   9.632  0.00  0.00     0.075 H 
ATOM     23  C9  6G2 d   1      11.602  -7.890  11.107  0.00  0.00     0.082 C 
ATOM     24  H14 6G2 d   1      11.426  -5.937  11.674  0.00  0.00     0.277 HD
ATOM     25  H15 6G2 d   1      10.418  -6.365  10.444  0.00  0.00     0.277 HD
ATOM     26  C8  6G2 d   1      12.995  -8.089  11.681  0.00  0.00    -0.034 C 
ATOM     27  H16 6G2 d   1      10.859  -8.250  11.834  0.00  0.00     0.075 H 
ATOM     28  H17 6G2 d   1      11.512  -8.466  10.174  0.00  0.00     0.075 H 
ATOM     29  H10 6G2 d   1      13.095  -7.519  12.616  0.00  0.00     0.036 H 
ATOM     30  H11 6G2 d   1      13.163  -9.157  11.883  0.00  0.00     0.036 H 
ATOM     31  H12 6G2 d   1      13.909  -8.168   9.735  0.00  0.00     0.050 H 
ENDBRANCH  13  15
ENDBRANCH   3   9
BRANCH   5  32
ATOM     32  O1  6G2 d   1      21.957  -8.830  13.867  0.00  0.00    -0.343 OA
BRANCH  32  33
ATOM     33  C14 6G2 d   1      22.328  -8.553  12.511  0.00  0.00     0.050 C 
ATOM     34  H5  6G2 d   1      21.777  -9.223  11.834  0.00  0.00     0.082 H 
ATOM     35  H6  6G2 d   1      22.086  -7.508  12.269  0.00  0.00     0.082 H 
BRANCH  33  36
ATOM     36  C15 6G2 d   1      23.697  -8.762  12.363  0.00  0.00    -0.031 A 
ATOM     37  C16 6G2 d   1      24.338  -8.396  11.184  0.00  0.00    -0.058 A 
ATOM     38  C17 6G2 d   1      25.705  -8.608  11.036  0.00  0.00     0.002 A 
ATOM     39  H7  6G2 d   1      23.771  -7.944  10.378  0.00  0.00     0.086 H 
ATOM     40  N5  6G2 d   1      26.438  -9.194  12.074  0.00  0.00    -0.273 NA
ATOM     41  H20 6G2 d   1      26.202  -8.319  10.117  0.00  0.00     0.114 H 
ATOM     42  C18 6G2 d   1      25.790  -9.563  13.258  0.00  0.00     0.002 A 
ATOM     43  C19 6G2 d   1      24.423  -9.347  13.395  0.00  0.00    -0.058 A 
ATOM     44  H21 6G2 d   1      26.352 -10.016  14.066  0.00  0.00     0.114 H 
ATOM     45  H22 6G2 d   1      23.921  -9.636  14.311  0.00  0.00     0.086 H 
ENDBRANCH  33  36
ENDBRANCH  32  33
ENDBRANCH   5  32
BRANCH   1  46
ATOM     46  N1  6G2 d   1      21.140  -9.321  16.262  0.00  0.00    -0.382 N 
ATOM     47  H8  6G2 d   1      20.887  -9.532  17.238  0.00  0.00     0.157 HD
ATOM     48  H9  6G2 d   1      22.129  -9.320  15.976  0.00  0.00     0.157 HD
ENDBRANCH   1  46
TORSDOF 6
