REMARK WARNING: 32 MAX_TORS EXCEEDED!!!
REMARK  36 active torsions:
REMARK  status: ('A' for Active; 'I' for Inactive)
REMARK    1  A    between atoms: N_9  and  C4_1 
REMARK       I    between atoms: C9_24  and  N1_4 
REMARK    2  A    between atoms: C2_17  and  C1_16 
REMARK       I    between atoms: C1_16  and  N_27 
REMARK    3  A    between atoms: C3_18  and  C2_17 
REMARK    4  A    between atoms: C4_19  and  C3_18 
REMARK    5  A    between atoms: C5_20  and  C4_19 
REMARK    6  A    between atoms: C6_21  and  C5_20 
REMARK    7  A    between atoms: C7_22  and  C6_21 
REMARK    8  A    between atoms: C8_23  and  C7_22 
REMARK    9  A    between atoms: C8_23  and  C9_24 
REMARK   10  A    between atoms: N_27  and  CA_28 
REMARK   11  A    between atoms: CA_28  and  CB_29 
REMARK   12  A    between atoms: CA_28  and  C_30 
REMARK       I    between atoms: C_30  and  N_32 
REMARK   13  A    between atoms: N_32  and  CA_33 
REMARK   14  A    between atoms: CA_33  and  CB_34 
REMARK   15  A    between atoms: CA_33  and  C_41 
REMARK   16  A    between atoms: CB_34  and  CG_35 
REMARK   17  A    between atoms: CG_35  and  CD_36 
REMARK   18  A    between atoms: CD_36  and  NE_37 
REMARK       I    between atoms: NE_37  and  CZ_38 
REMARK       I    between atoms: CZ_38  and  NH1_39 
REMARK       I    between atoms: CZ_38  and  NH2_40 
REMARK       I    between atoms: C_41  and  N_43 
REMARK   19  A    between atoms: N_43  and  CA_44 
REMARK   20  A    between atoms: CA_44  and  CB_45 
REMARK   21  A    between atoms: CA_44  and  C_52 
REMARK   22  A    between atoms: CB_45  and  CG_46 
REMARK   23  A    between atoms: CG_46  and  CD_47 
REMARK   24  A    between atoms: CD_47  and  NE_48 
REMARK       I    between atoms: NE_48  and  CZ_49 
REMARK       I    between atoms: CZ_49  and  NH1_50 
REMARK       I    between atoms: CZ_49  and  NH2_51 
REMARK       I    between atoms: C_52  and  N_54 
REMARK   25  A    between atoms: N_54  and  CA_55 
REMARK   26  A    between atoms: CA_55  and  CB_56 
REMARK   27  A    between atoms: CA_55  and  C_63 
REMARK   28  A    between atoms: CB_56  and  CG_57 
REMARK   29  A    between atoms: CG_57  and  CD_58 
REMARK   30  A    between atoms: CD_58  and  NE_59 
REMARK       I    between atoms: NE_59  and  CZ_60 
REMARK       I    between atoms: CZ_60  and  NH1_61 
REMARK       I    between atoms: CZ_60  and  NH2_62 
REMARK       I    between atoms: C_63  and  N_65 
REMARK   31  A    between atoms: N_65  and  CA_66 
REMARK   32  A    between atoms: CA_66  and  CB_67 
REMARK   33  A    between atoms: CA_66  and  C_74 
REMARK   34  A    between atoms: CB_67  and  CG_68 
REMARK   35  A    between atoms: CG_68  and  CD_69 
REMARK   36  A    between atoms: CD_69  and  NE_70 
REMARK       I    between atoms: NE_70  and  CZ_71 
REMARK       I    between atoms: CZ_71  and  NH1_72 
ROOT
ATOM      1  CA  DAR d   1     -15.672  57.945  -1.439  0.00  0.00     0.089 C 
ATOM      2  H33 DAR d   1     -14.579  58.056  -1.376  0.00  0.00     0.087 H 
ENDROOT
BRANCH   1   3
ATOM      3  N   DAR d   1     -16.101  57.124  -0.295  0.00  0.00    -0.346 N 
ATOM      4  C   DAL d   1     -15.392  57.086   0.839  0.00  0.00     0.240 C 
ATOM      5  O   DAL d   1     -14.434  57.835   1.028  0.00  0.00    -0.271 OA
ATOM      6  H32 DAR d   1     -16.939  56.584  -0.367  0.00  0.00     0.163 HD
BRANCH   4   7
ATOM      7  CA  DAL d   1     -15.815  56.111   1.930  0.00  0.00     0.086 C 
ATOM      8  H28 DAL d   1     -16.400  56.672   2.674  0.00  0.00     0.086 H 
BRANCH   7   9
ATOM      9  N   DAL d   1     -14.639  55.534   2.575  0.00  0.00    -0.348 N 
ATOM     10  C1  AZ1 d   1     -13.885  56.187   3.467  0.00  0.00     0.218 C 
ATOM     11  O2  AZ1 d   1     -14.138  57.309   3.881  0.00  0.00    -0.274 OA
ATOM     12  H27 DAL d   1     -14.382  54.597   2.337  0.00  0.00     0.163 HD
BRANCH  10  13
ATOM     13  C2  AZ1 d   1     -12.625  55.506   3.963  0.00  0.00     0.009 C 
ATOM     14  H13 AZ1 d   1     -12.902  54.571   4.472  0.00  0.00     0.047 H 
ATOM     15  H14 AZ1 d   1     -12.116  56.173   4.674  0.00  0.00     0.047 H 
BRANCH  13  16
ATOM     16  C3  AZ1 d   1     -11.663  55.179   2.814  0.00  0.00    -0.057 C 
ATOM     17  H15 AZ1 d   1     -12.232  55.163   1.873  0.00  0.00     0.033 H 
ATOM     18  H16 AZ1 d   1     -11.225  54.187   2.995  0.00  0.00     0.033 H 
BRANCH  16  19
ATOM     19  C4  AZ1 d   1     -10.531  56.195   2.681  0.00  0.00    -0.065 C 
ATOM     20  H17 AZ1 d   1      -9.767  55.977   3.442  0.00  0.00     0.033 H 
ATOM     21  H18 AZ1 d   1     -10.937  57.204   2.847  0.00  0.00     0.033 H 
BRANCH  19  22
ATOM     22  C5  AZ1 d   1      -9.879  56.146   1.296  0.00  0.00    -0.065 C 
ATOM     23  H19 AZ1 d   1      -9.168  56.981   1.212  0.00  0.00     0.033 H 
ATOM     24  H20 AZ1 d   1     -10.664  56.255   0.533  0.00  0.00     0.033 H 
BRANCH  22  25
ATOM     25  C6  AZ1 d   1      -9.129  54.837   1.044  0.00  0.00    -0.065 C 
ATOM     26  H21 AZ1 d   1      -9.128  54.255   1.977  0.00  0.00     0.033 H 
ATOM     27  H22 AZ1 d   1      -8.094  55.081   0.763  0.00  0.00     0.033 H 
BRANCH  25  28
ATOM     28  C7  AZ1 d   1      -9.736  53.969  -0.064  0.00  0.00    -0.057 C 
ATOM     29  H23 AZ1 d   1     -10.830  54.055   0.010  0.00  0.00     0.033 H 
ATOM     30  H24 AZ1 d   1      -9.436  52.928   0.129  0.00  0.00     0.033 H 
BRANCH  28  31
ATOM     31  C8  AZ1 d   1      -9.344  54.302  -1.511  0.00  0.00     0.009 C 
ATOM     32  H25 AZ1 d   1      -9.978  55.137  -1.845  0.00  0.00     0.047 H 
ATOM     33  H26 AZ1 d   1      -9.553  53.414  -2.126  0.00  0.00     0.047 H 
BRANCH  31  34
ATOM     34  C9  AZ1 d   1      -7.893  54.699  -1.752  0.00  0.00     0.219 C 
ATOM     35  N1  6J9 d   1      -6.882  53.811  -1.677  0.00  0.00    -0.349 N 
ATOM     36  C2  6J9 d   1      -5.533  54.201  -2.112  0.00  0.00     0.013 C 
ATOM     37  C3  6J9 d   1      -7.016  52.434  -1.169  0.00  0.00     0.013 C 
ATOM     38  C   6J9 d   1      -4.519  53.556  -1.174  0.00  0.00     0.011 C 
ATOM     39  H8  6J9 d   1      -5.432  55.296  -2.072  0.00  0.00     0.066 H 
ATOM     40  H9  6J9 d   1      -5.360  53.854  -3.141  0.00  0.00     0.066 H 
ATOM     41  N   6J9 d   1      -4.644  52.108  -1.301  0.00  0.00    -0.362 N 
ATOM     42  H6  6J9 d   1      -3.502  53.869  -1.452  0.00  0.00     0.066 H 
ATOM     43  H7  6J9 d   1      -4.725  53.859  -0.137  0.00  0.00     0.066 H 
ATOM     44  C1  6J9 d   1      -5.912  51.561  -1.765  0.00  0.00     0.011 C 
ATOM     45  H4  6J9 d   1      -6.024  50.522  -1.421  0.00  0.00     0.066 H 
ATOM     46  H5  6J9 d   1      -5.958  51.591  -2.864  0.00  0.00     0.066 H 
ATOM     47  H10 6J9 d   1      -7.998  52.031  -1.457  0.00  0.00     0.066 H 
ATOM     48  H11 6J9 d   1      -6.929  52.438  -0.072  0.00  0.00     0.066 H 
ATOM     49  O3  AZ1 d   1      -7.710  55.878  -2.030  0.00  0.00    -0.273 OA
BRANCH  41  50
ATOM     50  C4  6J9 d   1      -3.538  51.292  -0.983  0.00  0.00     0.141 A 
ATOM     51  C5  6J9 d   1      -3.607  50.093  -0.091  0.00  0.00     0.057 A 
ATOM     52  C6  6J9 d   1      -2.355  49.362   0.137  0.00  0.00     0.142 A 
ATOM     53  C7  6J9 d   1      -4.599  49.400   0.651  0.00  0.00    -0.051 A 
ATOM     54  N4  6J9 d   1      -1.216  49.804  -0.446  0.00  0.00    -0.223 NA
ATOM     55  N3  6J9 d   1      -2.659  48.330   0.954  0.00  0.00    -0.350 N 
ATOM     56  C9  6J9 d   1      -1.212  50.887  -1.238  0.00  0.00     0.091 A 
ATOM     57  N2  6J9 d   1      -2.320  51.605  -1.494  0.00  0.00    -0.224 NA
ATOM     58  H3  6J9 d   1      -0.277  51.196  -1.690  0.00  0.00     0.146 H 
ATOM     59  C8  6J9 d   1      -3.984  48.327   1.271  0.00  0.00    -0.020 A 
ATOM     60  H12 6J9 d   1      -1.978  47.636   1.293  0.00  0.00     0.166 HD
ATOM     61  H2  6J9 d   1      -4.479  47.597   1.910  0.00  0.00     0.111 H 
ATOM     62  H1  6J9 d   1      -5.653  49.665   0.720  0.00  0.00     0.087 H 
ENDBRANCH  41  50
ENDBRANCH  31  34
ENDBRANCH  28  31
ENDBRANCH  25  28
ENDBRANCH  22  25
ENDBRANCH  19  22
ENDBRANCH  16  19
ENDBRANCH  13  16
ENDBRANCH  10  13
ENDBRANCH   7   9
BRANCH   7  63
ATOM     63  CB  DAL d   1     -16.660  54.934   1.433  0.00  0.00    -0.049 C 
ATOM     64  H29 DAL d   1     -17.564  55.316   0.936  0.00  0.00     0.030 H 
ATOM     65  H30 DAL d   1     -16.950  54.304   2.287  0.00  0.00     0.030 H 
ATOM     66  H31 DAL d   1     -16.073  54.337   0.719  0.00  0.00     0.030 H 
ENDBRANCH   7  63
ENDBRANCH   4   7
ENDBRANCH   1   3
BRANCH   1  67
ATOM     67  CB  DAR d   1     -16.290  59.346  -1.341  0.00  0.00    -0.036 C 
ATOM     68  H34 DAR d   1     -16.928  59.401  -0.447  0.00  0.00     0.036 H 
ATOM     69  H35 DAR d   1     -16.897  59.540  -2.238  0.00  0.00     0.036 H 
BRANCH  67  70
ATOM     70  CG  DAR d   1     -15.185  60.396  -1.240  0.00  0.00    -0.048 C 
ATOM     71  H36 DAR d   1     -14.598  60.372  -2.170  0.00  0.00     0.035 H 
ATOM     72  H37 DAR d   1     -14.537  60.136  -0.390  0.00  0.00     0.035 H 
BRANCH  70  73
ATOM     73  CD  DAR d   1     -15.702  61.816  -1.034  0.00  0.00     0.009 C 
ATOM     74  H38 DAR d   1     -16.285  61.866  -0.102  0.00  0.00     0.064 H 
ATOM     75  H39 DAR d   1     -16.341  62.103  -1.882  0.00  0.00     0.064 H 
BRANCH  73  76
ATOM     76  NE  DAR d   1     -14.562  62.726  -0.949  0.00  0.00    -0.227 N 
ATOM     77  CZ  DAR d   1     -14.305  63.642   0.006  0.00  0.00     0.665 C 
ATOM     78  NH1 DAR d   1     -15.097  63.878   1.064  0.00  0.00    -0.235 N 
ATOM     79  NH2 DAR d   1     -13.187  64.370  -0.108  0.00  0.00    -0.235 N 
ATOM     80  H41 DAR d   1     -14.834  64.596   1.754  0.00  0.00     0.174 HD
ATOM     81  H42 DAR d   1     -15.968  63.341   1.185  0.00  0.00     0.174 HD
ATOM     82  H43 DAR d   1     -12.553  64.219  -0.906  0.00  0.00     0.174 HD
ATOM     83  H44 DAR d   1     -12.961  65.081   0.602  0.00  0.00     0.174 HD
ATOM     84  H40 DAR d   1     -13.872  62.660  -1.710  0.00  0.00     0.177 HD
ENDBRANCH  73  76
ENDBRANCH  70  73
ENDBRANCH  67  70
ENDBRANCH   1  67
BRANCH   1  85
ATOM     85  C   DAR d   1     -15.979  57.297  -2.762  0.00  0.00     0.241 C 
ATOM     86  O   DAR d   1     -16.763  56.348  -2.840  0.00  0.00    -0.271 OA
ATOM     87  N   DAR d   1     -15.314  57.802  -3.803  0.00  0.00    -0.346 N 
ATOM     88  H45 DAR d   1     -14.733  58.601  -3.644  0.00  0.00     0.163 HD
BRANCH  87  89
ATOM     89  CA  DAR d   1     -15.380  57.258  -5.174  0.00  0.00     0.089 C 
ATOM     90  H46 DAR d   1     -16.338  56.737  -5.321  0.00  0.00     0.087 H 
BRANCH  89  91
ATOM     91  CB  DAR d   1     -14.235  56.257  -5.423  0.00  0.00    -0.036 C 
ATOM     92  H47 DAR d   1     -13.517  56.725  -6.112  0.00  0.00     0.036 H 
ATOM     93  H48 DAR d   1     -14.664  55.360  -5.894  0.00  0.00     0.036 H 
BRANCH  91  94
ATOM     94  CG  DAR d   1     -13.469  55.815  -4.168  0.00  0.00    -0.048 C 
ATOM     95  H49 DAR d   1     -14.152  55.246  -3.520  0.00  0.00     0.035 H 
ATOM     96  H50 DAR d   1     -13.119  56.711  -3.635  0.00  0.00     0.035 H 
BRANCH  94  97
ATOM     97  CD  DAR d   1     -12.265  54.940  -4.495  0.00  0.00     0.009 C 
ATOM     98  H51 DAR d   1     -12.561  54.191  -5.244  0.00  0.00     0.064 H 
ATOM     99  H52 DAR d   1     -11.934  54.431  -3.578  0.00  0.00     0.064 H 
BRANCH  97 100
ATOM    100  NE  DAR d   1     -11.161  55.727  -5.024  0.00  0.00    -0.227 N 
ATOM    101  CZ  DAR d   1      -9.893  55.306  -5.129  0.00  0.00     0.665 C 
ATOM    102  NH1 DAR d   1      -9.491  54.086  -4.743  0.00  0.00    -0.235 N 
ATOM    103  NH2 DAR d   1      -8.994  56.152  -5.641  0.00  0.00    -0.235 N 
ATOM    104  H54 DAR d   1      -8.503  53.813  -4.846  0.00  0.00     0.174 HD
ATOM    105  H55 DAR d   1     -10.170  53.422  -4.344  0.00  0.00     0.174 HD
ATOM    106  H56 DAR d   1      -9.285  57.093  -5.942  0.00  0.00     0.174 HD
ATOM    107  H57 DAR d   1      -8.010  55.863  -5.734  0.00  0.00     0.174 HD
ATOM    108  H53 DAR d   1     -11.371  56.684  -5.343  0.00  0.00     0.177 HD
ENDBRANCH  97 100
ENDBRANCH  94  97
ENDBRANCH  91  94
ENDBRANCH  89  91
BRANCH  89 109
ATOM    109  C   DAR d   1     -15.306  58.456  -6.107  0.00  0.00     0.241 C 
ATOM    110  O   DAR d   1     -14.279  59.145  -6.136  0.00  0.00    -0.271 OA
ATOM    111  N   DAR d   1     -16.376  58.707  -6.863  0.00  0.00    -0.346 N 
ATOM    112  H58 DAR d   1     -17.119  58.038  -6.885  0.00  0.00     0.163 HD
BRANCH 111 113
ATOM    113  CA  DAR d   1     -16.502  59.934  -7.665  0.00  0.00     0.089 C 
ATOM    114  H59 DAR d   1     -15.776  60.669  -7.288  0.00  0.00     0.087 H 
BRANCH 113 115
ATOM    115  CB  DAR d   1     -17.910  60.490  -7.503  0.00  0.00    -0.036 C 
ATOM    116  H60 DAR d   1     -18.075  60.757  -6.449  0.00  0.00     0.036 H 
ATOM    117  H61 DAR d   1     -18.639  59.724  -7.806  0.00  0.00     0.036 H 
BRANCH 115 118
ATOM    118  CG  DAR d   1     -18.095  61.729  -8.369  0.00  0.00    -0.048 C 
ATOM    119  H62 DAR d   1     -19.076  61.678  -8.864  0.00  0.00     0.035 H 
ATOM    120  H63 DAR d   1     -17.301  61.757  -9.130  0.00  0.00     0.035 H 
BRANCH 118 121
ATOM    121  CD  DAR d   1     -18.026  62.999  -7.531  0.00  0.00     0.009 C 
ATOM    122  H64 DAR d   1     -17.196  63.623  -7.893  0.00  0.00     0.064 H 
ATOM    123  H65 DAR d   1     -17.849  62.727  -6.480  0.00  0.00     0.064 H 
BRANCH 121 124
ATOM    124  NE  DAR d   1     -19.259  63.753  -7.623  0.00  0.00    -0.227 N 
ATOM    125  CZ  DAR d   1     -19.987  64.032  -6.546  0.00  0.00     0.665 C 
ATOM    126  NH1 DAR d   1     -19.588  63.619  -5.344  0.00  0.00    -0.235 N 
ATOM    127  NH2 DAR d   1     -21.117  64.727  -6.672  0.00  0.00    -0.235 N 
ATOM    128  H67 DAR d   1     -20.153  63.836  -4.511  0.00  0.00     0.174 HD
ATOM    129  H68 DAR d   1     -18.714  63.083  -5.248  0.00  0.00     0.174 HD
ATOM    130  H69 DAR d   1     -21.425  65.046  -7.602  0.00  0.00     0.174 HD
ATOM    131  H70 DAR d   1     -21.683  64.945  -5.840  0.00  0.00     0.174 HD
ATOM    132  H66 DAR d   1     -19.580  64.081  -8.545  0.00  0.00     0.177 HD
ENDBRANCH 121 124
ENDBRANCH 118 121
ENDBRANCH 115 118
ENDBRANCH 113 115
BRANCH 113 133
ATOM    133  C   DAR d   1     -16.242  59.719  -9.130  0.00  0.00     0.241 C 
ATOM    134  O   DAR d   1     -17.163  59.784  -9.949  0.00  0.00    -0.271 OA
ATOM    135  N   DAR d   1     -14.980  59.464  -9.464  0.00  0.00    -0.345 N 
ATOM    136  H71 DAR d   1     -14.312  59.324  -8.733  0.00  0.00     0.163 HD
BRANCH 135 137
ATOM    137  CA  DAR d   1     -14.517  59.378 -10.878  0.00  0.00     0.096 C 
ATOM    138  H72 DAR d   1     -15.162  60.029 -11.486  0.00  0.00     0.089 H 
BRANCH 137 139
ATOM    139  CB  DAR d   1     -14.567  57.968 -11.499  0.00  0.00    -0.035 C 
ATOM    140  H73 DAR d   1     -13.944  57.304 -10.882  0.00  0.00     0.036 H 
ATOM    141  H74 DAR d   1     -14.145  58.029 -12.513  0.00  0.00     0.036 H 
BRANCH 139 142
ATOM    142  CG  DAR d   1     -15.963  57.342 -11.605  0.00  0.00    -0.047 C 
ATOM    143  H75 DAR d   1     -16.627  58.040 -12.136  0.00  0.00     0.035 H 
ATOM    144  H76 DAR d   1     -16.352  57.165 -10.591  0.00  0.00     0.035 H 
BRANCH 142 145
ATOM    145  CD  DAR d   1     -15.932  56.009 -12.366  0.00  0.00     0.009 C 
ATOM    146  H77 DAR d   1     -15.133  56.060 -13.120  0.00  0.00     0.064 H 
ATOM    147  H78 DAR d   1     -16.902  55.874 -12.867  0.00  0.00     0.064 H 
BRANCH 145 148
ATOM    148  NE  DAR d   1     -15.688  54.843 -11.516  0.00  0.00    -0.227 N 
ATOM    149  CZ  DAR d   1     -15.272  53.636 -11.948  0.00  0.00     0.665 C 
ATOM    150  NH1 DAR d   1     -15.082  52.659 -11.056  0.00  0.00    -0.235 N 
ATOM    151  NH2 DAR d   1     -15.030  53.346 -13.232  0.00  0.00    -0.235 N 
ATOM    152  H80 DAR d   1     -14.764  51.730 -11.369  0.00  0.00     0.174 HD
ATOM    153  H81 DAR d   1     -15.253  52.834 -10.056  0.00  0.00     0.174 HD
ATOM    154  H82 DAR d   1     -15.162  54.066 -13.956  0.00  0.00     0.174 HD
ATOM    155  H83 DAR d   1     -14.712  52.403 -13.496  0.00  0.00     0.174 HD
ATOM    156  H79 DAR d   1     -15.847  54.954 -10.504  0.00  0.00     0.177 HD
ENDBRANCH 145 148
ENDBRANCH 142 145
ENDBRANCH 139 142
ENDBRANCH 137 139
BRANCH 137 157
ATOM    157  C   DAR d   1     -13.100  59.913 -10.917  0.00  0.00     0.196 C 
ATOM    158  O   DAR d   1     -12.624  60.469  -9.936  0.00  0.00    -0.646 OA
ATOM    159  OXT DAR d   1     -12.423  59.792 -11.930  0.00  0.00    -0.646 OA
ENDBRANCH 137 157
ENDBRANCH 135 137
ENDBRANCH 113 133
ENDBRANCH 111 113
ENDBRANCH  89 109
ENDBRANCH  87  89
ENDBRANCH   1  85
TORSDOF 36
