REMARK  12 active torsions:
REMARK  status: ('A' for Active; 'I' for Inactive)
REMARK       I    between atoms: C8_6  and  N1_1 
REMARK       I    between atoms: N1_1  and  C7_7 
REMARK    1  A    between atoms: C3_2  and  C2_30 
REMARK       I    between atoms: C8_6  and  N2_3 
REMARK    2  A    between atoms: C10_10  and  C9_5 
REMARK    3  A    between atoms: C9_5  and  N3_33 
REMARK    4  A    between atoms: C7_7  and  C6_8 
REMARK    5  A    between atoms: O1_39  and  C12_11 
REMARK    6  A    between atoms: C14_13  and  O2_40 
REMARK    7  A    between atoms: O2_40  and  C15_14 
REMARK    8  A    between atoms: C22_18  and  N4_34 
REMARK    9  A    between atoms: C1_28  and  C_26 
REMARK   10  A    between atoms: C1_28  and  N_29 
REMARK   11  A    between atoms: C2_30  and  C1_28 
REMARK   12  A    between atoms: C11_38  and  O1_39 
ROOT
ATOM      1  C10 6H5 d   1     -15.565  -1.092 -12.655  0.00  0.00     0.020 A 
ATOM      2  C20 6H5 d   1     -16.611   0.998 -14.184  0.00  0.00    -0.078 A 
ATOM      3  C22 6H5 d   1     -15.175   0.245 -12.394  0.00  0.00     0.041 A 
ATOM      4  C21 6H5 d   1     -15.694   1.265 -13.176  0.00  0.00    -0.057 A 
ATOM      5  C19 6H5 d   1     -17.013  -0.305 -14.441  0.00  0.00    -0.050 A 
ATOM      6  C11 6H5 d   1     -16.487  -1.356 -13.668  0.00  0.00     0.086 A 
ATOM      7  H14 6H5 d   1     -17.015   1.813 -14.774  0.00  0.00     0.083 H 
ATOM      8  H35 6H5 d   1     -15.379   2.287 -12.998  0.00  0.00     0.086 H 
ATOM      9  H36 6H5 d   1     -17.726  -0.511 -15.231  0.00  0.00     0.087 H 
ENDROOT
BRANCH   1  10
ATOM     10  C9  6H5 d   1     -15.034  -2.262 -11.869  0.00  0.00     0.038 C 
ATOM     11  H5  6H5 d   1     -14.122  -1.955 -11.336  0.00  0.00     0.072 H 
ATOM     12  H6  6H5 d   1     -14.796  -3.084 -12.560  0.00  0.00     0.072 H 
BRANCH  10  13
ATOM     13  N3  6H5 d   1     -16.011  -2.717 -10.912  0.00  0.00    -0.222 N 
ATOM     14  C8  6H5 d   1     -16.015  -2.419  -9.610  0.00  0.00     0.674 C 
ATOM     15  N1  6H5 d   1     -16.822  -3.010  -8.808  0.00  0.00    -0.156 N 
ATOM     16  N2  6H5 d   1     -15.153  -1.543  -9.075  0.00  0.00    -0.235 N 
ATOM     17  C7  6H5 d   1     -17.749  -3.939  -9.162  0.00  0.00     0.269 C 
ATOM     18  H1  6H5 d   1     -16.765  -2.767  -7.840  0.00  0.00     0.187 HD
ATOM     19  O3  6H5 d   1     -17.909  -4.310 -10.329  0.00  0.00    -0.267 OA
ATOM     20  H2  6H5 d   1     -14.485  -1.043  -9.679  0.00  0.00     0.174 HD
ATOM     21  H3  6H5 d   1     -15.159  -1.369  -8.060  0.00  0.00     0.174 HD
ATOM     22  H32 6H5 d   1     -16.768  -3.322 -11.261  0.00  0.00     0.178 HD
BRANCH  17  23
ATOM     23  C6  6H5 d   1     -18.656  -4.493  -8.121  0.00  0.00     0.032 A 
ATOM     24  C5  6H5 d   1     -18.376  -4.321  -6.779  0.00  0.00    -0.067 A 
ATOM     25  C4  6H5 d   1     -19.245  -4.824  -5.819  0.00  0.00    -0.076 A 
ATOM     26  H7  6H5 d   1     -17.479  -3.794  -6.475  0.00  0.00     0.085 H 
ATOM     27  C3  6H5 d   1     -20.396  -5.505  -6.186  0.00  0.00    -0.056 A 
ATOM     28  H4  6H5 d   1     -19.020  -4.682  -4.768  0.00  0.00     0.084 H 
ATOM     29  C29 6H5 d   1     -20.698  -5.650  -7.538  0.00  0.00    -0.076 A 
ATOM     30  C28 6H5 d   1     -19.837  -5.152  -8.498  0.00  0.00    -0.067 A 
ATOM     31  H31 6H5 d   1     -21.610  -6.154  -7.838  0.00  0.00     0.084 H 
ATOM     32  H19 6H5 d   1     -20.075  -5.271  -9.549  0.00  0.00     0.085 H 
BRANCH  27  33
ATOM     33  C2  6H5 d   1     -21.346  -6.011  -5.127  0.00  0.00    -0.005 C 
ATOM     34  H29 6H5 d   1     -22.338  -6.129  -5.587  0.00  0.00     0.044 H 
ATOM     35  H30 6H5 d   1     -21.400  -5.257  -4.328  0.00  0.00     0.044 H 
BRANCH  33  36
ATOM     36  C1  6H5 d   1     -20.956  -7.344  -4.494  0.00  0.00     0.186 C 
ATOM     37  H25 6H5 d   1     -20.000  -7.224  -3.964  0.00  0.00     0.101 H 
BRANCH  36  38
ATOM     38  C   6H5 d   1     -22.012  -7.734  -3.484  0.00  0.00     0.204 C 
ATOM     39  O4  6H5 d   1     -22.738  -8.750  -3.702  0.00  0.00    -0.646 OA
ATOM     40  O   6H5 d   1     -22.142  -7.051  -2.441  0.00  0.00    -0.646 OA
ENDBRANCH  36  38
BRANCH  36  41
ATOM     41  N   6H5 d   1     -20.769  -8.361  -5.572  0.00  0.00    -0.065 N 
ATOM     42  H26 6H5 d   1     -20.056  -8.046  -6.211  0.00  0.00     0.275 HD
ATOM     43  H27 6H5 d   1     -21.636  -8.485  -6.071  0.00  0.00     0.275 HD
ATOM     44  H28 6H5 d   1     -20.489  -9.238  -5.162  0.00  0.00     0.275 HD
ENDBRANCH  36  41
ENDBRANCH  33  36
ENDBRANCH  27  33
ENDBRANCH  17  23
ENDBRANCH  10  13
ENDBRANCH   1  10
BRANCH   3  45
ATOM     45  N4  6H5 d   1     -14.246   0.677 -11.429  0.00  0.00    -0.380 N 
ATOM     46  C23 6H5 d   1     -12.822   0.366 -11.673  0.00  0.00    -0.005 C 
ATOM     47  C24 6H5 d   1     -11.962   0.571 -10.433  0.00  0.00    -0.050 C 
ATOM     48  H15 6H5 d   1     -12.739  -0.684 -11.991  0.00  0.00     0.064 H 
ATOM     49  H16 6H5 d   1     -12.449   1.022 -12.474  0.00  0.00     0.064 H 
ATOM     50  C25 6H5 d   1     -12.314   1.894  -9.804  0.00  0.00    -0.062 C 
ATOM     51  H17 6H5 d   1     -10.899   0.569 -10.717  0.00  0.00     0.035 H 
ATOM     52  H18 6H5 d   1     -12.151  -0.240  -9.715  0.00  0.00     0.035 H 
ATOM     53  C26 6H5 d   1     -13.734   1.769  -9.246  0.00  0.00    -0.050 C 
ATOM     54  H22 6H5 d   1     -12.275   2.692 -10.560  0.00  0.00     0.033 H 
ATOM     55  H23 6H5 d   1     -11.609   2.124  -8.991  0.00  0.00     0.033 H 
ATOM     56  C27 6H5 d   1     -14.737   1.574 -10.376  0.00  0.00    -0.005 C 
ATOM     57  H20 6H5 d   1     -13.987   2.685  -8.692  0.00  0.00     0.035 H 
ATOM     58  H21 6H5 d   1     -13.781   0.905  -8.567  0.00  0.00     0.035 H 
ATOM     59  H33 6H5 d   1     -14.955   2.554 -10.824  0.00  0.00     0.064 H 
ATOM     60  H34 6H5 d   1     -15.661   1.149  -9.956  0.00  0.00     0.064 H 
ENDBRANCH   3  45
BRANCH   6  61
ATOM     61  O1  6H5 d   1     -16.863  -2.656 -13.902  0.00  0.00    -0.310 OA
BRANCH  61  62
ATOM     62  C12 6H5 d   1     -17.551  -3.059 -15.011  0.00  0.00     0.078 A 
ATOM     63  C13 6H5 d   1     -18.887  -3.389 -14.910  0.00  0.00    -0.018 A 
ATOM     64  C14 6H5 d   1     -19.597  -3.813 -16.036  0.00  0.00     0.070 A 
ATOM     65  H8  6H5 d   1     -19.389  -3.319 -13.951  0.00  0.00     0.092 H 
ATOM     66  C16 6H5 d   1     -18.954  -3.901 -17.262  0.00  0.00    -0.051 A 
ATOM     67  C17 6H5 d   1     -17.600  -3.565 -17.357  0.00  0.00    -0.078 A 
ATOM     68  H12 6H5 d   1     -19.498  -4.228 -18.141  0.00  0.00     0.087 H 
ATOM     69  C18 6H5 d   1     -16.893  -3.133 -16.235  0.00  0.00    -0.050 A 
ATOM     70  H13 6H5 d   1     -17.094  -3.641 -18.313  0.00  0.00     0.083 H 
ATOM     71  H24 6H5 d   1     -15.847  -2.859 -16.315  0.00  0.00     0.087 H 
BRANCH  64  72
ATOM     72  O2  6H5 d   1     -20.911  -4.145 -15.894  0.00  0.00    -0.356 OA
BRANCH  72  73
ATOM     73  C15 6H5 d   1     -21.441  -5.283 -16.578  0.00  0.00     0.010 C 
ATOM     74  H9  6H5 d   1     -22.510  -5.388 -16.341  0.00  0.00     0.066 H 
ATOM     75  H10 6H5 d   1     -20.903  -6.187 -16.257  0.00  0.00     0.066 H 
ATOM     76  H11 6H5 d   1     -21.318  -5.149 -17.663  0.00  0.00     0.066 H 
ENDBRANCH  72  73
ENDBRANCH  64  72
ENDBRANCH  61  62
ENDBRANCH   6  61
TORSDOF 12
