REMARK  7 active torsions:
REMARK  status: ('A' for Active; 'I' for Inactive)
REMARK    1  A    between atoms: C9_2  and  C11_3 
REMARK       I    between atoms: C9_2  and  N8_14 
REMARK    2  A    between atoms: C11_3  and  C12_4 
REMARK    3  A    between atoms: C11_3  and  C16_6 
REMARK       I    between atoms: C12_4  and  N1_22 
REMARK    4  A    between atoms: C16_6  and  C17_7 
REMARK    5  A    between atoms: N8_14  and  C1_15 
REMARK    6  A    between atoms: C1_15  and  C2_16 
REMARK    7  A    between atoms: N1_22  and  O2_23 
ROOT
ATOM      1  C11 6GA d   1      91.471   4.228  66.254  0.00  0.00     0.106 C 
ATOM      2  H1  6GA d   1      91.161   4.958  67.016  0.00  0.00     0.070 H 
ENDROOT
BRANCH   1   3
ATOM      3  C9  6GA d   1      92.799   3.632  66.686  0.00  0.00     0.231 C 
ATOM      4  O10 6GA d   1      93.856   4.098  66.273  0.00  0.00    -0.273 OA
ATOM      5  N8  6GA d   1      92.797   2.652  67.490  0.00  0.00    -0.356 N 
ATOM      6  H8  6GA d   1      91.904   2.332  67.807  0.00  0.00     0.162 HD
BRANCH   5   7
ATOM      7  C1  6GA d   1      93.972   1.941  68.002  0.00  0.00     0.019 C 
ATOM      8  H9  6GA d   1      94.597   2.629  68.590  0.00  0.00     0.071 H 
ATOM      9  H10 6GA d   1      94.559   1.538  67.164  0.00  0.00     0.071 H 
BRANCH   7  10
ATOM     10  C2  6GA d   1      93.489   0.813  68.878  0.00  0.00    -0.041 A 
ATOM     11  C3  6GA d   1      94.349   0.237  69.802  0.00  0.00    -0.075 A 
ATOM     12  C4  6GA d   1      93.877  -0.794  70.608  0.00  0.00    -0.082 A 
ATOM     13  H11 6GA d   1      95.372   0.585  69.894  0.00  0.00     0.084 H 
ATOM     14  C5  6GA d   1      92.552  -1.230  70.496  0.00  0.00    -0.083 A 
ATOM     15  H12 6GA d   1      94.539  -1.262  71.327  0.00  0.00     0.083 H 
ATOM     16  C6  6GA d   1      91.690  -0.641  69.574  0.00  0.00    -0.082 A 
ATOM     17  H13 6GA d   1      92.194  -2.032  71.131  0.00  0.00     0.083 H 
ATOM     18  C7  6GA d   1      92.166   0.380  68.764  0.00  0.00    -0.075 A 
ATOM     19  H14 6GA d   1      90.662  -0.975  69.490  0.00  0.00     0.083 H 
ATOM     20  H15 6GA d   1      91.507   0.844  68.039  0.00  0.00     0.084 H 
ENDBRANCH   7  10
ENDBRANCH   5   7
ENDBRANCH   1   3
BRANCH   1  21
ATOM     21  C12 6GA d   1      91.618   4.922  64.933  0.00  0.00     0.254 C 
ATOM     22  O15 6GA d   1      91.825   4.275  63.929  0.00  0.00    -0.270 OA
ATOM     23  N1  6GA d   1      91.545   6.243  64.882  0.00  0.00    -0.237 N 
ATOM     24  H16 6GA d   1      91.341   6.776  65.703  0.00  0.00     0.197 HD
BRANCH  23  25
ATOM     25  O2  6GA d   1      91.759   6.877  63.653  0.00  0.00    -0.287 OA
ATOM     26  H17 6GA d   1      91.114   6.574  63.025  0.00  0.00     0.244 HD
ENDBRANCH  23  25
ENDBRANCH   1  21
BRANCH   1  27
ATOM     27  C16 6GA d   1      90.358   3.183  66.093  0.00  0.00    -0.021 C 
ATOM     28  H2  6GA d   1      90.659   2.269  66.626  0.00  0.00     0.042 H 
ATOM     29  H3  6GA d   1      90.242   2.961  65.022  0.00  0.00     0.042 H 
BRANCH  27  30
ATOM     30  C17 6GA d   1      89.011   3.637  66.639  0.00  0.00    -0.057 A 
ATOM     31  C18 6GA d   1      88.730   4.971  66.879  0.00  0.00    -0.074 A 
ATOM     32  C19 6GA d   1      87.483   5.338  67.388  0.00  0.00    -0.045 A 
ATOM     33  H4  6GA d   1      89.477   5.729  66.672  0.00  0.00     0.084 H 
ATOM     34  C20 6GA d   1      86.490   4.398  67.658  0.00  0.00     0.116 A 
ATOM     35  H5  6GA d   1      87.281   6.386  67.579  0.00  0.00     0.088 H 
ATOM     36  C21 6GA d   1      86.761   3.060  67.412  0.00  0.00    -0.045 A 
ATOM     37  F29 6GA d   1      85.292   4.781  68.154  0.00  0.00    -0.206 F 
ATOM     38  C22 6GA d   1      88.013   2.699  66.902  0.00  0.00    -0.074 A 
ATOM     39  H7  6GA d   1      86.012   2.303  67.612  0.00  0.00     0.088 H 
ATOM     40  H6  6GA d   1      88.215   1.652  66.704  0.00  0.00     0.084 H 
ENDBRANCH  27  30
ENDBRANCH   1  27
TORSDOF 7
