REMARK  6 active torsions:
REMARK  status: ('A' for Active; 'I' for Inactive)
REMARK    1  A    between atoms: C12_5  and  N13_20 
REMARK    2  A    between atoms: N13_20  and  C14_6 
REMARK    3  A    between atoms: C02_12  and  O01_11 
REMARK    4  A    between atoms: C04_14  and  O05_15 
REMARK    5  A    between atoms: S07_17  and  C06_16 
REMARK    6  A    between atoms: N08_18  and  S07_17 
ROOT
ATOM      1  C21 P35 d   1      17.591   2.612 -37.884  0.00  0.00    -0.072 A 
ATOM      2  C10 P35 d   1      16.333   0.576 -38.142  0.00  0.00    -0.029 A 
ATOM      3  C11 P35 d   1      17.435  -0.081 -38.628  0.00  0.00    -0.049 A 
ATOM      4  C12 P35 d   1      18.640   0.592 -38.740  0.00  0.00     0.028 A 
ATOM      5  C20 P35 d   1      18.688   1.930 -38.371  0.00  0.00    -0.057 A 
ATOM      6  N08 P35 d   1      14.157   1.228 -37.549  0.00  0.00    -0.298 N 
ATOM      7  C09 P35 d   1      14.938   0.082 -37.943  0.00  0.00     0.030 C 
ATOM      8  C22 P35 d   1      16.370   1.936 -37.761  0.00  0.00    -0.032 A 
ATOM      9  C23 P35 d   1      15.048   2.354 -37.280  0.00  0.00     0.030 C 
ATOM     10  H2  P35 d   1      17.673   3.655 -37.601  0.00  0.00     0.084 H 
ATOM     11  H3  P35 d   1      17.363  -1.122 -38.923  0.00  0.00     0.087 H 
ATOM     12  H9  P35 d   1      19.627   2.462 -38.470  0.00  0.00     0.086 H 
ATOM     13  H15 P35 d   1      14.914  -0.685 -37.155  0.00  0.00     0.072 H 
ATOM     14  H16 P35 d   1      14.547  -0.342 -38.879  0.00  0.00     0.072 H 
ATOM     15  H22 P35 d   1      15.082   2.567 -36.202  0.00  0.00     0.072 H 
ATOM     16  H23 P35 d   1      14.709   3.250 -37.821  0.00  0.00     0.072 H 
ENDROOT
BRANCH   4  17
ATOM     17  N13 P35 d   1      19.787  -0.083 -39.221  0.00  0.00    -0.385 N 
ATOM     18  H17 P35 d   1      20.627   0.481 -39.416  0.00  0.00     0.160 HD
BRANCH  17  19
ATOM     19  C14 P35 d   1      19.865  -1.502 -39.458  0.00  0.00     0.013 C 
ATOM     20  C15 P35 d   1      21.305  -1.990 -39.327  0.00  0.00    -0.024 C 
ATOM     21  C16 P35 d   1      21.434  -3.465 -39.663  0.00  0.00     0.083 C 
ATOM     22  H5  P35 d   1      21.642  -1.830 -38.292  0.00  0.00     0.038 H 
ATOM     23  H6  P35 d   1      21.941  -1.412 -40.014  0.00  0.00     0.038 H 
ATOM     24  N17 P35 d   1      20.835  -3.841 -40.973  0.00  0.00    -0.075 N 
ATOM     25  H18 P35 d   1      20.933  -4.045 -38.874  0.00  0.00     0.075 H 
ATOM     26  H19 P35 d   1      22.503  -3.723 -39.684  0.00  0.00     0.075 H 
ATOM     27  C18 P35 d   1      19.426  -3.340 -41.140  0.00  0.00     0.083 C 
ATOM     28  H20 P35 d   1      21.403  -3.453 -41.709  0.00  0.00     0.277 HD
ATOM     29  H21 P35 d   1      20.829  -4.846 -41.047  0.00  0.00     0.277 HD
ATOM     30  C19 P35 d   1      19.298  -1.857 -40.807  0.00  0.00    -0.024 C 
ATOM     31  H10 P35 d   1      19.116  -3.497 -42.184  0.00  0.00     0.075 H 
ATOM     32  H11 P35 d   1      18.765  -3.911 -40.471  0.00  0.00     0.075 H 
ATOM     33  H7  P35 d   1      19.833  -1.279 -41.575  0.00  0.00     0.038 H 
ATOM     34  H8  P35 d   1      18.232  -1.586 -40.821  0.00  0.00     0.038 H 
ATOM     35  H4  P35 d   1      19.261  -2.010 -38.691  0.00  0.00     0.072 H 
ENDBRANCH  17  19
ENDBRANCH   4  17
BRANCH   6  36
ATOM     36  S07 P35 d   1      12.829   1.029 -36.622  0.00  0.00     0.264 S 
ATOM     37  O24 P35 d   1      13.227   0.709 -35.250  0.00  0.00    -0.200 OA
ATOM     38  O25 P35 d   1      12.084  -0.014 -37.288  0.00  0.00    -0.200 OA
BRANCH  36  39
ATOM     39  C06 P35 d   1      12.032   2.497 -36.591  0.00  0.00     0.112 A 
ATOM     40  C26 P35 d   1      11.798   3.218 -35.427  0.00  0.00    -0.055 A 
ATOM     41  C27 P35 d   1      11.149   4.405 -35.370  0.00  0.00    -0.049 A 
ATOM     42  H1  P35 d   1      12.162   2.800 -34.496  0.00  0.00     0.086 H 
ATOM     43  C02 P35 d   1      10.610   4.982 -36.528  0.00  0.00     0.068 A 
ATOM     44  H24 P35 d   1      11.045   4.914 -34.419  0.00  0.00     0.087 H 
ATOM     45  C03 P35 d   1      10.776   4.307 -37.729  0.00  0.00    -0.018 A 
ATOM     46  C04 P35 d   1      11.473   3.096 -37.774  0.00  0.00     0.091 A 
ATOM     47  H13 P35 d   1      10.361   4.722 -38.640  0.00  0.00     0.092 H 
BRANCH  43  48
ATOM     48  O01 P35 d   1       9.954   6.176 -36.483  0.00  0.00    -0.361 OA
ATOM     49  H12 P35 d   1       9.065   6.060 -36.798  0.00  0.00     0.217 HD
ENDBRANCH  43  48
BRANCH  46  50
ATOM     50  O05 P35 d   1      11.641   2.419 -38.948  0.00  0.00    -0.359 OA
ATOM     51  H14 P35 d   1      12.135   1.624 -38.786  0.00  0.00     0.217 HD
ENDBRANCH  46  50
ENDBRANCH  36  39
ENDBRANCH   6  36
TORSDOF 6
