REMARK  22 active torsions:
REMARK  status: ('A' for Active; 'I' for Inactive)
REMARK    1  A    between atoms: C_1  and  N_2 
REMARK    2  A    between atoms: C1_47  and  C_1 
REMARK    3  A    between atoms: C2_4  and  O_3 
REMARK    4  A    between atoms: O_3  and  C1_47 
REMARK    5  A    between atoms: C3_7  and  C2_4 
REMARK       I    between atoms: N2_5  and  C9_17 
REMARK    6  A    between atoms: C10_18  and  N2_5 
REMARK    7  A    between atoms: O1_46  and  C3_7 
REMARK    8  A    between atoms: N3_8  and  C12_20 
REMARK    9  A    between atoms: C5_13  and  C4_10 
REMARK   10  A    between atoms: C4_10  and  O1_46 
REMARK   11  A    between atoms: N4_11  and  C18_26 
REMARK   12  A    between atoms: N1_45  and  C5_13 
REMARK   13  A    between atoms: C7_15  and  C6_14 
REMARK       I    between atoms: C6_14  and  N1_45 
REMARK   14  A    between atoms: C8_16  and  C7_15 
REMARK   15  A    between atoms: C9_17  and  C8_16 
REMARK   16  A    between atoms: C11_19  and  C10_18 
REMARK   17  A    between atoms: C12_20  and  C11_19 
REMARK   18  A    between atoms: C20_24  and  S_22 
REMARK   19  A    between atoms: C19_25  and  C20_24 
REMARK   20  A    between atoms: C18_26  and  C19_25 
REMARK   21  A    between atoms: C16_35  and  C17_34 
REMARK   22  A    between atoms: C15_36  and  C16_35 
ROOT
ATOM      1  N3  6GN d   1      13.377 -35.626 -22.776  0.00  0.00    -0.377 N 
ATOM      2  C15 6GN d   1      11.242 -36.925 -21.572  0.00  0.00    -0.045 A 
ATOM      3  C14 6GN d   1      12.056 -36.071 -20.871  0.00  0.00    -0.079 A 
ATOM      4  C13 6GN d   1      13.103 -35.435 -21.484  0.00  0.00     0.011 A 
ATOM      5  C27 6GN d   1      11.528 -37.174 -22.943  0.00  0.00    -0.003 A 
ATOM      6  C32 6GN d   1      12.622 -36.500 -23.547  0.00  0.00     0.041 A 
ATOM      7  C31 6GN d   1      12.901 -36.726 -24.905  0.00  0.00    -0.057 A 
ATOM      8  C30 6GN d   1      12.125 -37.583 -25.636  0.00  0.00    -0.081 A 
ATOM      9  C29 6GN d   1      11.058 -38.242 -25.055  0.00  0.00    -0.082 A 
ATOM     10  C28 6GN d   1      10.755 -38.046 -23.749  0.00  0.00    -0.070 A 
ATOM     11  H38 6GN d   1      11.867 -35.897 -19.813  0.00  0.00     0.080 H 
ATOM     12  H39 6GN d   1      12.925 -34.356 -21.361  0.00  0.00     0.070 H 
ATOM     13  H40 6GN d   1      14.008 -35.723 -20.929  0.00  0.00     0.070 H 
ATOM     14  H41 6GN d   1      13.735 -36.219 -25.376  0.00  0.00     0.086 H 
ATOM     15  H42 6GN d   1      12.350 -37.747 -26.684  0.00  0.00     0.083 H 
ATOM     16  H43 6GN d   1      10.458 -38.922 -25.649  0.00  0.00     0.083 H 
ATOM     17  H44 6GN d   1       9.908 -38.564 -23.314  0.00  0.00     0.084 H 
ENDROOT
BRANCH   1  18
ATOM     18  C12 6GN d   1      14.539 -34.896 -23.332  0.00  0.00    -0.003 C 
ATOM     19  H23 6GN d   1      14.730 -34.000 -22.723  0.00  0.00     0.064 H 
ATOM     20  H24 6GN d   1      14.318 -34.596 -24.367  0.00  0.00     0.064 H 
BRANCH  18  21
ATOM     21  C11 6GN d   1      15.772 -35.783 -23.320  0.00  0.00    -0.035 C 
ATOM     22  H21 6GN d   1      16.163 -35.813 -22.292  0.00  0.00     0.037 H 
ATOM     23  H22 6GN d   1      15.470 -36.795 -23.627  0.00  0.00     0.037 H 
BRANCH  21  24
ATOM     24  C10 6GN d   1      16.890 -35.324 -24.239  0.00  0.00    -0.003 C 
ATOM     25  H19 6GN d   1      17.371 -34.439 -23.797  0.00  0.00     0.064 H 
ATOM     26  H20 6GN d   1      17.628 -36.135 -24.332  0.00  0.00     0.064 H 
BRANCH  24  27
ATOM     27  N2  6GN d   1      16.403 -34.978 -25.569  0.00  0.00    -0.361 N 
ATOM     28  C9  6GN d   1      16.275 -35.863 -26.565  0.00  0.00     0.217 C 
ATOM     29  O3  6GN d   1      16.506 -37.065 -26.417  0.00  0.00    -0.274 OA
ATOM     30  H8  6GN d   1      16.151 -34.027 -25.747  0.00  0.00     0.162 HD
BRANCH  28  31
ATOM     31  C8  6GN d   1      15.792 -35.318 -27.897  0.00  0.00     0.017 C 
ATOM     32  H17 6GN d   1      16.104 -36.011 -28.693  0.00  0.00     0.047 H 
ATOM     33  H18 6GN d   1      14.694 -35.257 -27.873  0.00  0.00     0.047 H 
BRANCH  31  34
ATOM     34  C7  6GN d   1      16.351 -33.929 -28.213  0.00  0.00     0.017 C 
ATOM     35  H15 6GN d   1      15.604 -33.178 -27.917  0.00  0.00     0.047 H 
ATOM     36  H16 6GN d   1      17.270 -33.783 -27.627  0.00  0.00     0.047 H 
BRANCH  34  37
ATOM     37  C6  6GN d   1      16.679 -33.726 -29.675  0.00  0.00     0.218 C 
ATOM     38  O2  6GN d   1      16.594 -34.639 -30.498  0.00  0.00    -0.274 OA
ATOM     39  N1  6GN d   1      17.108 -32.504 -29.996  0.00  0.00    -0.359 N 
ATOM     40  H45 6GN d   1      17.549 -31.959 -29.283  0.00  0.00     0.162 HD
BRANCH  39  41
ATOM     41  C5  6GN d   1      16.974 -31.916 -31.320  0.00  0.00     0.015 C 
ATOM     42  H13 6GN d   1      16.313 -32.550 -31.929  0.00  0.00     0.067 H 
ATOM     43  H14 6GN d   1      16.534 -30.913 -31.224  0.00  0.00     0.067 H 
BRANCH  41  44
ATOM     44  C4  6GN d   1      18.307 -31.803 -32.001  0.00  0.00     0.034 C 
ATOM     45  H11 6GN d   1      18.475 -32.691 -32.628  0.00  0.00     0.076 H 
ATOM     46  H12 6GN d   1      19.101 -31.733 -31.243  0.00  0.00     0.076 H 
BRANCH  44  47
ATOM     47  O1  6GN d   1      18.325 -30.637 -32.816  0.00  0.00    -0.387 OA
BRANCH  47  48
ATOM     48  C3  6GN d   1      17.539 -30.707 -34.007  0.00  0.00     0.039 C 
ATOM     49  H9  6GN d   1      18.153 -30.390 -34.863  0.00  0.00     0.077 H 
ATOM     50  H10 6GN d   1      17.205 -31.744 -34.158  0.00  0.00     0.077 H 
BRANCH  48  51
ATOM     51  C2  6GN d   1      16.333 -29.810 -33.905  0.00  0.00     0.039 C 
ATOM     52  H6  6GN d   1      15.505 -30.360 -33.434  0.00  0.00     0.077 H 
ATOM     53  H7  6GN d   1      16.582 -28.928 -33.296  0.00  0.00     0.077 H 
BRANCH  51  54
ATOM     54  O   6GN d   1      15.942 -29.390 -35.215  0.00  0.00    -0.387 OA
BRANCH  54  55
ATOM     55  C1  6GN d   1      15.828 -27.983 -35.445  0.00  0.00     0.042 C 
ATOM     56  H46 6GN d   1      15.447 -27.810 -36.462  0.00  0.00     0.076 H 
ATOM     57  H47 6GN d   1      15.130 -27.550 -34.714  0.00  0.00     0.076 H 
BRANCH  55  58
ATOM     58  C   6GN d   1      17.223 -27.302 -35.293  0.00  0.00     0.099 C 
ATOM     59  H1  6GN d   1      17.233 -26.760 -34.336  0.00  0.00     0.078 H 
ATOM     60  H2  6GN d   1      17.987 -28.093 -35.275  0.00  0.00     0.078 H 
BRANCH  58  61
ATOM     61  N   6GN d   1      17.579 -26.355 -36.352  0.00  0.00    -0.077 N 
ATOM     62  H3  6GN d   1      18.492 -25.970 -36.166  0.00  0.00     0.274 HD
ATOM     63  H4  6GN d   1      16.900 -25.610 -36.379  0.00  0.00     0.274 HD
ATOM     64  H5  6GN d   1      17.590 -26.832 -37.240  0.00  0.00     0.274 HD
ENDBRANCH  58  61
ENDBRANCH  55  58
ENDBRANCH  54  55
ENDBRANCH  51  54
ENDBRANCH  48  51
ENDBRANCH  47  48
ENDBRANCH  44  47
ENDBRANCH  41  44
ENDBRANCH  39  41
ENDBRANCH  34  37
ENDBRANCH  31  34
ENDBRANCH  28  31
ENDBRANCH  24  27
ENDBRANCH  21  24
ENDBRANCH  18  21
ENDBRANCH   1  18
BRANCH   2  65
ATOM     65  C16 6GN d   1      10.092 -37.647 -20.900  0.00  0.00    -0.013 C 
ATOM     66  H36 6GN d   1       9.258 -37.542 -21.609  0.00  0.00     0.044 H 
ATOM     67  H37 6GN d   1      10.416 -38.698 -20.868  0.00  0.00     0.044 H 
BRANCH  65  68
ATOM     68  C17 6GN d   1       9.466 -37.417 -19.563  0.00  0.00     0.065 A 
ATOM     69  N4  6GN d   1       8.575 -38.225 -18.925  0.00  0.00    -0.365 N 
ATOM     70  C21 6GN d   1       8.149 -37.732 -17.673  0.00  0.00     0.048 A 
ATOM     71  C26 6GN d   1       8.767 -36.519 -17.354  0.00  0.00     0.029 A 
ATOM     72  C22 6GN d   1       7.235 -38.293 -16.788  0.00  0.00    -0.056 A 
ATOM     73  C25 6GN d   1       8.487 -35.879 -16.153  0.00  0.00    -0.064 A 
ATOM     74  S1  6GN d   1       9.842 -36.000 -18.629  0.00  0.00    -0.102 SA
ATOM     75  C24 6GN d   1       7.584 -36.455 -15.275  0.00  0.00    -0.082 A 
ATOM     76  H31 6GN d   1       8.970 -34.940 -15.906  0.00  0.00     0.085 H 
ATOM     77  C23 6GN d   1       6.968 -37.656 -15.587  0.00  0.00    -0.081 A 
ATOM     78  H32 6GN d   1       7.357 -35.962 -14.336  0.00  0.00     0.083 H 
ATOM     79  H33 6GN d   1       6.271 -38.101 -14.886  0.00  0.00     0.083 H 
ATOM     80  H34 6GN d   1       6.735 -39.222 -17.036  0.00  0.00     0.087 H 
ATOM     81  H35 6GN d   1       8.640 -36.899 -20.072  0.00  0.00     0.091 H 
BRANCH  69  82
ATOM     82  C18 6GN d   1       8.045 -39.500 -19.466  0.00  0.00    -0.003 C 
ATOM     83  H29 6GN d   1       7.286 -39.260 -20.225  0.00  0.00     0.064 H 
ATOM     84  H30 6GN d   1       7.575 -40.053 -18.640  0.00  0.00     0.064 H 
BRANCH  82  85
ATOM     85  C19 6GN d   1       9.082 -40.399 -20.105  0.00  0.00    -0.035 C 
ATOM     86  H27 6GN d   1       9.534 -39.841 -20.939  0.00  0.00     0.036 H 
ATOM     87  H28 6GN d   1       9.850 -40.609 -19.346  0.00  0.00     0.036 H 
BRANCH  85  88
ATOM     88  C20 6GN d   1       8.622 -41.688 -20.635  0.00  0.00     0.047 C 
ATOM     89  H25 6GN d   1       9.359 -42.462 -20.375  0.00  0.00     0.060 H 
ATOM     90  H26 6GN d   1       7.653 -41.935 -20.176  0.00  0.00     0.060 H 
BRANCH  88  91
ATOM     91  S   6GN d   1       8.427 -41.653 -22.401  0.00  0.00     0.101 S 
ATOM     92  O4  6GN d   1       7.782 -42.907 -22.764  0.00  0.00    -0.595 OA
ATOM     93  O6  6GN d   1       9.768 -41.532 -22.953  0.00  0.00    -0.595 OA
ATOM     94  O5  6GN d   1       7.596 -40.493 -22.687  0.00  0.00    -0.595 OA
ENDBRANCH  88  91
ENDBRANCH  85  88
ENDBRANCH  82  85
ENDBRANCH  69  82
ENDBRANCH  65  68
ENDBRANCH   2  65
TORSDOF 22
