REMARK  7 active torsions:
REMARK  status: ('A' for Active; 'I' for Inactive)
REMARK    1  A    between atoms: C8_6  and  N_3 
REMARK    2  A    between atoms: N_3  and  C7_14 
REMARK    3  A    between atoms: N_3  and  S_15 
REMARK    4  A    between atoms: C1_17  and  C_4 
REMARK    5  A    between atoms: C9_13  and  C8_6 
REMARK    6  A    between atoms: S_15  and  C4_8 
REMARK       I    between atoms: N1_11  and  C9_13 
REMARK    7  A    between atoms: N2_20  and  C14_23 
ROOT
ATOM      1  O2  6GQ d   1       6.230 -24.217  95.723  0.00  0.00    -0.272 OA
ATOM      2  N1  6GQ d   1       6.215 -24.431  93.481  0.00  0.00    -0.348 N 
ATOM      3  C9  6GQ d   1       5.660 -24.051  94.654  0.00  0.00     0.238 C 
ATOM      4  C13 6GQ d   1       5.620 -24.282  92.146  0.00  0.00     0.013 C 
ATOM      5  C12 6GQ d   1       6.666 -23.873  91.167  0.00  0.00     0.011 C 
ATOM      6  N2  6GQ d   1       7.674 -24.930  91.030  0.00  0.00    -0.363 N 
ATOM      7  C11 6GQ d   1       7.883 -25.747  92.232  0.00  0.00     0.011 C 
ATOM      8  C10 6GQ d   1       7.575 -25.000  93.501  0.00  0.00     0.013 C 
ATOM      9  H13 6GQ d   1       4.833 -23.514  92.181  0.00  0.00     0.066 H 
ATOM     10  H14 6GQ d   1       5.182 -25.241  91.833  0.00  0.00     0.066 H 
ATOM     11  H15 6GQ d   1       7.152 -22.951  91.519  0.00  0.00     0.066 H 
ATOM     12  H16 6GQ d   1       6.197 -23.690  90.189  0.00  0.00     0.066 H 
ATOM     13  H17 6GQ d   1       8.934 -26.070  92.260  0.00  0.00     0.066 H 
ATOM     14  H18 6GQ d   1       7.229 -26.630  92.176  0.00  0.00     0.066 H 
ATOM     15  H19 6GQ d   1       7.660 -25.692  94.352  0.00  0.00     0.066 H 
ATOM     16  H20 6GQ d   1       8.302 -24.183  93.619  0.00  0.00     0.066 H 
ENDROOT
BRANCH   3  17
ATOM     17  C8  6GQ d   1       4.281 -23.392  94.609  0.00  0.00     0.078 C 
ATOM     18  H4  6GQ d   1       4.012 -23.121  95.641  0.00  0.00     0.080 H 
ATOM     19  H5  6GQ d   1       4.372 -22.479  94.002  0.00  0.00     0.080 H 
BRANCH  17  20
ATOM     20  N   6GQ d   1       3.165 -24.180  94.055  0.00  0.00    -0.302 N 
BRANCH  20  21
ATOM     21  C7  6GQ d   1       3.046 -25.566  94.518  0.00  0.00    -0.008 C 
ATOM     22  H9  6GQ d   1       3.916 -25.820  95.142  0.00  0.00     0.057 H 
ATOM     23  H10 6GQ d   1       3.008 -26.241  93.650  0.00  0.00     0.057 H 
ATOM     24  H11 6GQ d   1       2.125 -25.677  95.110  0.00  0.00     0.057 H 
ENDBRANCH  20  21
BRANCH  20  25
ATOM     25  S   6GQ d   1       2.073 -23.442  93.110  0.00  0.00     0.260 S 
ATOM     26  O1  6GQ d   1       2.681 -22.322  92.467  0.00  0.00    -0.200 OA
ATOM     27  O   6GQ d   1       1.439 -24.460  92.337  0.00  0.00    -0.200 OA
BRANCH  25  28
ATOM     28  C4  6GQ d   1       0.916 -22.796  94.266  0.00  0.00     0.079 A 
ATOM     29  C5  6GQ d   1      -0.352 -23.345  94.357  0.00  0.00    -0.060 A 
ATOM     30  C6  6GQ d   1      -1.269 -22.792  95.235  0.00  0.00    -0.076 A 
ATOM     31  H6  6GQ d   1      -0.624 -24.199  93.747  0.00  0.00     0.085 H 
ATOM     32  C1  6GQ d   1      -0.955 -21.682  96.006  0.00  0.00    -0.062 A 
ATOM     33  H8  6GQ d   1      -2.254 -23.236  95.322  0.00  0.00     0.084 H 
ATOM     34  C2  6GQ d   1       0.325 -21.158  95.903  0.00  0.00    -0.076 A 
ATOM     35  C3  6GQ d   1       1.257 -21.693  95.028  0.00  0.00    -0.060 A 
ATOM     36  H7  6GQ d   1       0.603 -20.311  96.520  0.00  0.00     0.084 H 
ATOM     37  H12 6GQ d   1       2.243 -21.252  94.942  0.00  0.00     0.085 H 
BRANCH  32  38
ATOM     38  C   6GQ d   1      -1.954 -21.106  96.980  0.00  0.00    -0.051 C 
ATOM     39  H1  6GQ d   1      -1.512 -20.236  97.487  0.00  0.00     0.033 H 
ATOM     40  H2  6GQ d   1      -2.221 -21.869  97.726  0.00  0.00     0.033 H 
ATOM     41  H3  6GQ d   1      -2.858 -20.793  96.436  0.00  0.00     0.033 H 
ENDBRANCH  32  38
ENDBRANCH  25  28
ENDBRANCH  20  25
ENDBRANCH  17  20
ENDBRANCH   3  17
BRANCH   6  42
ATOM     42  C14 6GQ d   1       8.147 -25.363  89.800  0.00  0.00     0.125 A 
ATOM     43  N3  6GQ d   1       9.207 -26.169  89.833  0.00  0.00    -0.244 NA
ATOM     44  C18 6GQ d   1       9.695 -26.606  88.664  0.00  0.00     0.004 A 
ATOM     45  C17 6GQ d   1       9.165 -26.280  87.440  0.00  0.00    -0.066 A 
ATOM     46  H21 6GQ d   1      10.562 -27.257  88.686  0.00  0.00     0.114 H 
ATOM     47  C16 6GQ d   1       8.085 -25.439  87.407  0.00  0.00    -0.078 A 
ATOM     48  H22 6GQ d   1       9.590 -26.677  86.525  0.00  0.00     0.085 H 
ATOM     49  C15 6GQ d   1       7.547 -24.957  88.588  0.00  0.00    -0.039 A 
ATOM     50  H23 6GQ d   1       7.651 -25.151  86.456  0.00  0.00     0.083 H 
ATOM     51  H24 6GQ d   1       6.693 -24.290  88.582  0.00  0.00     0.089 H 
ENDBRANCH   6  42
TORSDOF 7
