REMARK  6 active torsions:
REMARK  status: ('A' for Active; 'I' for Inactive)
REMARK    1  A    between atoms: N1_1  and  C7_5 
REMARK    2  A    between atoms: C8_6  and  N1_1 
REMARK    3  A    between atoms: C5_3  and  O1_22 
REMARK    4  A    between atoms: S_12  and  C17_10 
REMARK    5  A    between atoms: S_12  and  C14_14 
REMARK    6  A    between atoms: C2_20  and  C1_21 
ROOT
ATOM      1  C8  6GE d   1      50.540  53.604  22.399  0.00  0.00     0.046 A 
ATOM      2  C10 6GE d   1      52.850  53.031  21.933  0.00  0.00     0.005 A 
ATOM      3  C13 6GE d   1      50.465  50.148  24.817  0.00  0.00    -0.060 A 
ATOM      4  C15 6GE d   1      49.318  52.060  23.933  0.00  0.00    -0.048 A 
ATOM      5  C14 6GE d   1      49.318  50.939  24.719  0.00  0.00     0.059 A 
ATOM      6  C12 6GE d   1      51.626  50.490  24.138  0.00  0.00    -0.053 A 
ATOM      7  C16 6GE d   1      50.470  52.431  23.231  0.00  0.00     0.021 A 
ATOM      8  C11 6GE d   1      51.652  51.627  23.345  0.00  0.00     0.069 A 
ATOM      9  N2  6GE d   1      52.811  51.930  22.703  0.00  0.00    -0.260 NA
ATOM     10  C9  6GE d   1      51.753  53.877  21.767  0.00  0.00    -0.039 A 
ATOM     11  H4  6GE d   1      53.773  53.272  21.419  0.00  0.00     0.114 H 
ATOM     12  H5  6GE d   1      50.448  49.255  25.431  0.00  0.00     0.085 H 
ATOM     13  H6  6GE d   1      48.421  52.663  23.854  0.00  0.00     0.087 H 
ATOM     14  H10 6GE d   1      52.510  49.870  24.227  0.00  0.00     0.087 H 
ATOM     15  H11 6GE d   1      51.844  54.756  21.140  0.00  0.00     0.089 H 
ENDROOT
BRANCH   1  16
ATOM     16  N1  6GE d   1      49.429  54.407  22.252  0.00  0.00    -0.355 N 
ATOM     17  H1  6GE d   1      48.571  54.068  22.709  0.00  0.00     0.166 HD
BRANCH  16  18
ATOM     18  C7  6GE d   1      49.312  55.594  21.581  0.00  0.00     0.041 A 
ATOM     19  C6  6GE d   1      49.079  56.772  22.298  0.00  0.00    -0.025 A 
ATOM     20  C5  6GE d   1      48.963  57.999  21.648  0.00  0.00     0.067 A 
ATOM     21  H3  6GE d   1      48.987  56.730  23.377  0.00  0.00     0.091 H 
ATOM     22  C4  6GE d   1      49.078  58.064  20.262  0.00  0.00    -0.050 A 
ATOM     23  C3  6GE d   1      49.310  56.892  19.554  0.00  0.00    -0.072 A 
ATOM     24  H2  6GE d   1      48.988  59.012  19.745  0.00  0.00     0.087 H 
ATOM     25  C2  6GE d   1      49.434  55.651  20.184  0.00  0.00    -0.035 A 
ATOM     26  H16 6GE d   1      49.398  56.942  18.475  0.00  0.00     0.084 H 
BRANCH  20  27
ATOM     27  O1  6GE d   1      48.731  59.138  22.368  0.00  0.00    -0.361 OA
ATOM     28  H15 6GE d   1      48.679  59.880  21.777  0.00  0.00     0.217 HD
ENDBRANCH  20  27
BRANCH  25  29
ATOM     29  C1  6GE d   1      49.687  54.422  19.331  0.00  0.00    -0.049 C 
ATOM     30  H12 6GE d   1      49.744  54.716  18.273  0.00  0.00     0.033 H 
ATOM     31  H13 6GE d   1      48.865  53.705  19.468  0.00  0.00     0.033 H 
ATOM     32  H14 6GE d   1      50.636  53.955  19.633  0.00  0.00     0.033 H 
ENDBRANCH  25  29
ENDBRANCH  16  18
ENDBRANCH   1  16
BRANCH   5  33
ATOM     33  S   6GE d   1      47.858  50.471  25.636  0.00  0.00     0.171 S 
ATOM     34  O3  6GE d   1      46.725  51.201  25.123  0.00  0.00    -0.223 OA
ATOM     35  O2  6GE d   1      47.799  49.037  25.665  0.00  0.00    -0.223 OA
BRANCH  33  36
ATOM     36  C17 6GE d   1      48.179  51.015  27.187  0.00  0.00     0.020 C 
ATOM     37  H7  6GE d   1      48.228  52.114  27.187  0.00  0.00     0.049 H 
ATOM     38  H8  6GE d   1      49.141  50.605  27.528  0.00  0.00     0.049 H 
ATOM     39  H9  6GE d   1      47.378  50.684  27.865  0.00  0.00     0.049 H 
ENDBRANCH  33  36
ENDBRANCH   5  33
TORSDOF 6
