REMARK  7 active torsions:
REMARK  status: ('A' for Active; 'I' for Inactive)
REMARK    1  A    between atoms: C15_4  and  N16_22 
REMARK    2  A    between atoms: N16_22  and  C17_5 
REMARK    3  A    between atoms: C02_12  and  C01_11 
REMARK    4  A    between atoms: C02_12  and  C03_13 
REMARK    5  A    between atoms: C02_12  and  C04_14 
REMARK    6  A    between atoms: S05_15  and  C02_12 
REMARK    7  A    between atoms: S05_15  and  C08_18 
ROOT
ATOM      1  C10 6GD d   1     -40.737  38.041  -4.526  0.00  0.00    -0.053 A 
ATOM      2  N12 6GD d   1     -41.194  35.894  -3.587  0.00  0.00    -0.260 NA
ATOM      3  C13 6GD d   1     -41.108  35.063  -2.554  0.00  0.00     0.005 A 
ATOM      4  C15 6GD d   1     -39.964  36.620  -1.166  0.00  0.00     0.047 A 
ATOM      5  C28 6GD d   1     -39.476  38.881  -2.178  0.00  0.00    -0.048 A 
ATOM      6  C08 6GD d   1     -39.614  39.728  -3.271  0.00  0.00     0.061 A 
ATOM      7  C09 6GD d   1     -40.222  39.300  -4.445  0.00  0.00    -0.060 A 
ATOM      8  C11 6GD d   1     -40.647  37.144  -3.439  0.00  0.00     0.069 A 
ATOM      9  C14 6GD d   1     -40.509  35.366  -1.343  0.00  0.00    -0.039 A 
ATOM     10  C27 6GD d   1     -40.008  37.564  -2.240  0.00  0.00     0.021 A 
ATOM     11  H1  6GD d   1     -41.224  37.722  -5.441  0.00  0.00     0.087 H 
ATOM     12  H2  6GD d   1     -41.539  34.075  -2.668  0.00  0.00     0.114 H 
ATOM     13  H5  6GD d   1     -38.966  39.222  -1.284  0.00  0.00     0.087 H 
ATOM     14  H15 6GD d   1     -40.287  39.968  -5.296  0.00  0.00     0.085 H 
ATOM     15  H16 6GD d   1     -40.469  34.630  -0.548  0.00  0.00     0.089 H 
ENDROOT
BRANCH   4  16
ATOM     16  N16 6GD d   1     -39.338  36.989   0.052  0.00  0.00    -0.340 N 
ATOM     17  H17 6GD d   1     -38.771  37.847   0.001  0.00  0.00     0.167 HD
BRANCH  16  18
ATOM     18  C17 6GD d   1     -39.362  36.426   1.214  0.00  0.00     0.135 A 
ATOM     19  C26 6GD d   1     -38.728  35.139   1.464  0.00  0.00     0.043 A 
ATOM     20  C20 6GD d   1     -38.947  34.894   2.805  0.00  0.00     0.091 A 
ATOM     21  C25 6GD d   1     -38.038  34.240   0.660  0.00  0.00    -0.030 A 
ATOM     22  C21 6GD d   1     -38.474  33.714   3.397  0.00  0.00    -0.050 A 
ATOM     23  N19 6GD d   1     -39.650  35.989   3.284  0.00  0.00    -0.172 NA
ATOM     24  C22 6GD d   1     -37.788  32.796   2.617  0.00  0.00    -0.043 A 
ATOM     25  H3  6GD d   1     -38.643  33.522   4.450  0.00  0.00     0.087 H 
ATOM     26  C23 6GD d   1     -37.589  33.080   1.282  0.00  0.00     0.117 A 
ATOM     27  H4  6GD d   1     -37.416  31.874   3.048  0.00  0.00     0.088 H 
ATOM     28  F24 6GD d   1     -36.921  32.179   0.529  0.00  0.00    -0.206 F 
ATOM     29  N18 6GD d   1     -39.895  36.918   2.353  0.00  0.00    -0.261 N 
ATOM     30  H18 6GD d   1     -40.385  37.815   2.478  0.00  0.00     0.191 HD
ATOM     31  H19 6GD d   1     -37.860  34.432  -0.392  0.00  0.00     0.089 H 
ENDBRANCH  16  18
ENDBRANCH   4  16
BRANCH   6  32
ATOM     32  S05 6GD d   1     -38.932  41.355  -3.216  0.00  0.00     0.183 S 
ATOM     33  O06 6GD d   1     -37.808  41.305  -2.324  0.00  0.00    -0.222 OA
ATOM     34  O07 6GD d   1     -38.719  41.791  -4.571  0.00  0.00    -0.222 OA
BRANCH  32  35
ATOM     35  C02 6GD d   1     -40.165  42.475  -2.477  0.00  0.00     0.058 C 
BRANCH  35  36
ATOM     36  C01 6GD d   1     -39.527  43.871  -2.430  0.00  0.00    -0.056 C 
ATOM     37  H6  6GD d   1     -40.239  44.585  -1.989  0.00  0.00     0.029 H 
ATOM     38  H7  6GD d   1     -39.271  44.192  -3.451  0.00  0.00     0.029 H 
ATOM     39  H8  6GD d   1     -38.614  43.837  -1.817  0.00  0.00     0.029 H 
ENDBRANCH  35  36
BRANCH  35  40
ATOM     40  C03 6GD d   1     -41.382  42.469  -3.381  0.00  0.00    -0.056 C 
ATOM     41  H9  6GD d   1     -42.151  43.137  -2.965  0.00  0.00     0.029 H 
ATOM     42  H10 6GD d   1     -41.782  41.447  -3.450  0.00  0.00     0.029 H 
ATOM     43  H11 6GD d   1     -41.096  42.819  -4.384  0.00  0.00     0.029 H 
ENDBRANCH  35  40
BRANCH  35  44
ATOM     44  C04 6GD d   1     -40.512  41.981  -1.071  0.00  0.00    -0.056 C 
ATOM     45  H12 6GD d   1     -41.256  42.653  -0.619  0.00  0.00     0.029 H 
ATOM     46  H13 6GD d   1     -39.603  41.971  -0.451  0.00  0.00     0.029 H 
ATOM     47  H14 6GD d   1     -40.926  40.964  -1.131  0.00  0.00     0.029 H 
ENDBRANCH  35  44
ENDBRANCH  32  35
ENDBRANCH   6  32
TORSDOF 7
