REMARK  16 active torsions:
REMARK  status: ('A' for Active; 'I' for Inactive)
REMARK    1  A    between atoms: C25_2  and  C24_4 
REMARK    2  A    between atoms: C24_4  and  C23_5 
REMARK    3  A    between atoms: C23_5  and  C21_6 
REMARK       I    between atoms: C21_6  and  N20_8 
REMARK    4  A    between atoms: N20_8  and  C19_9 
REMARK    5  A    between atoms: C19_9  and  C17_10 
REMARK    6  A    between atoms: C17_10  and  C16_11 
REMARK    7  A    between atoms: C16_11  and  C13_12 
REMARK    8  A    between atoms: C13_12  and  C12_13 
REMARK    9  A    between atoms: C12_13  and  C3_14 
REMARK   10  A    between atoms: C3_14  and  O1_15 
REMARK   11  A    between atoms: O1_15  and  C60_16 
REMARK   12  A    between atoms: C60_16  and  C48_18 
REMARK   13  A    between atoms: C44_24  and  C14_28 
REMARK   14  A    between atoms: N13_29  and  C5_30 
REMARK   15  A    between atoms: C5_30  and  C6_31 
REMARK   16  A    between atoms: C15_40  and  C37_41 
ROOT
ATOM      1  C48 6GG d   1      42.375   4.988  39.678  0.00  0.00     0.122 A 
ATOM      2  N49 6GG d   1      41.548   4.265  40.434  0.00  0.00    -0.350 N 
ATOM      3  C46 6GG d   1      41.944   4.194  41.711  0.00  0.00     0.045 A 
ATOM      4  C56 6GG d   1      41.456   3.602  42.839  0.00  0.00    -0.035 A 
ATOM      5  C57 6GG d   1      42.097   3.664  44.023  0.00  0.00     0.036 A 
ATOM      6 CL1  6GG d   1      41.489   2.829  45.478  0.00  0.00    -0.084 Cl
ATOM      7  C44 6GG d   1      43.445   5.500  40.527  0.00  0.00     0.039 A 
ATOM      8  C45 6GG d   1      43.203   4.957  41.850  0.00  0.00     0.006 A 
ATOM      9  C59 6GG d   1      43.831   5.011  43.058  0.00  0.00    -0.068 A 
ATOM     10  C58 6GG d   1      43.291   4.399  44.156  0.00  0.00    -0.061 A 
ATOM     11  H18 6GG d   1      40.697   3.810  40.074  0.00  0.00     0.166 HD
ATOM     12  H19 6GG d   1      40.518   3.062  42.781  0.00  0.00     0.089 H 
ATOM     13  H20 6GG d   1      44.770   5.545  43.150  0.00  0.00     0.085 H 
ATOM     14  H21 6GG d   1      43.778   4.479  45.121  0.00  0.00     0.086 H 
ENDROOT
BRANCH   1  15
ATOM     15  C60 6GG d   1      42.213   5.345  38.297  0.00  0.00     0.311 C 
ATOM     16  O2  6GG d   1      41.189   5.064  37.712  0.00  0.00    -0.258 OA
BRANCH  15  17
ATOM     17  O1  6GG d   1      43.231   6.135  37.669  0.00  0.00    -0.316 OA
BRANCH  17  18
ATOM     18  C3  6GG d   1      42.972   6.718  36.419  0.00  0.00     0.029 C 
ATOM     19  H16 6GG d   1      42.616   5.953  35.714  0.00  0.00     0.075 H 
ATOM     20  H17 6GG d   1      42.210   7.505  36.522  0.00  0.00     0.075 H 
BRANCH  18  21
ATOM     21  C12 6GG d   1      44.260   7.311  35.926  0.00  0.00    -0.045 C 
ATOM     22  H14 6GG d   1      45.020   6.519  35.860  0.00  0.00     0.036 H 
ATOM     23  H15 6GG d   1      44.098   7.747  34.929  0.00  0.00     0.036 H 
BRANCH  21  24
ATOM     24  C13 6GG d   1      44.751   8.395  36.871  0.00  0.00    -0.063 C 
ATOM     25  H12 6GG d   1      44.164   9.317  36.745  0.00  0.00     0.033 H 
ATOM     26  H13 6GG d   1      44.687   8.059  37.916  0.00  0.00     0.033 H 
BRANCH  24  27
ATOM     27  C16 6GG d   1      46.184   8.616  36.469  0.00  0.00    -0.064 C 
ATOM     28  H10 6GG d   1      46.763   7.706  36.683  0.00  0.00     0.033 H 
ATOM     29  H11 6GG d   1      46.227   8.834  35.392  0.00  0.00     0.033 H 
BRANCH  27  30
ATOM     30  C17 6GG d   1      46.781   9.775  37.234  0.00  0.00    -0.050 C 
ATOM     31  H8  6GG d   1      46.153  10.672  37.134  0.00  0.00     0.035 H 
ATOM     32  H9  6GG d   1      46.892   9.522  38.299  0.00  0.00     0.035 H 
BRANCH  30  33
ATOM     33  C19 6GG d   1      48.137   9.995  36.590  0.00  0.00    -0.005 C 
ATOM     34  H6  6GG d   1      48.768   9.108  36.751  0.00  0.00     0.064 H 
ATOM     35  H7  6GG d   1      48.008  10.162  35.511  0.00  0.00     0.064 H 
BRANCH  33  36
ATOM     36  N20 6GG d   1      48.765  11.142  37.180  0.00  0.00    -0.361 N 
ATOM     37  C21 6GG d   1      50.081  11.236  37.232  0.00  0.00     0.218 C 
ATOM     38  O22 6GG d   1      50.861  10.363  36.868  0.00  0.00    -0.274 OA
ATOM     39  H5  6GG d   1      48.201  11.877  37.555  0.00  0.00     0.162 HD
BRANCH  37  40
ATOM     40  C23 6GG d   1      50.578  12.549  37.775  0.00  0.00     0.018 C 
ATOM     41  H3  6GG d   1      50.739  13.245  36.939  0.00  0.00     0.047 H 
ATOM     42  H4  6GG d   1      49.822  12.964  38.458  0.00  0.00     0.047 H 
BRANCH  40  43
ATOM     43  C24 6GG d   1      51.884  12.371  38.530  0.00  0.00     0.024 C 
ATOM     44  H1  6GG d   1      51.675  12.301  39.608  0.00  0.00     0.049 H 
ATOM     45  H2  6GG d   1      52.377  11.448  38.192  0.00  0.00     0.049 H 
BRANCH  43  46
ATOM     46  C25 6GG d   1      52.795  13.549  38.272  0.00  0.00     0.172 C 
ATOM     47  O28 6GG d   1      52.370  14.522  37.699  0.00  0.00    -0.648 OA
ATOM     48  O26 6GG d   1      54.064  13.509  38.651  0.00  0.00    -0.648 OA
ENDBRANCH  43  46
ENDBRANCH  40  43
ENDBRANCH  37  40
ENDBRANCH  33  36
ENDBRANCH  30  33
ENDBRANCH  27  30
ENDBRANCH  24  27
ENDBRANCH  21  24
ENDBRANCH  18  21
ENDBRANCH  17  18
ENDBRANCH  15  17
ENDBRANCH   1  15
BRANCH   7  49
ATOM     49  C14 6GG d   1      44.684   6.312  40.279  0.00  0.00     0.079 A 
ATOM     50  N13 6GG d   1      45.734   5.844  39.642  0.00  0.00    -0.334 N 
ATOM     51  C18 6GG d   1      46.688   6.804  39.729  0.00  0.00     0.067 A 
ATOM     52  N16 6GG d   1      46.283   7.864  40.466  0.00  0.00    -0.241 NA
ATOM     53  H28 6GG d   1      47.668   6.730  39.260  0.00  0.00     0.143 H 
ATOM     54  C15 6GG d   1      45.009   7.627  40.877  0.00  0.00     0.096 A 
BRANCH  50  55
ATOM     55  C5  6GG d   1      45.874   4.555  38.930  0.00  0.00     0.025 C 
ATOM     56  H22 6GG d   1      46.852   4.544  38.426  0.00  0.00     0.072 H 
ATOM     57  H23 6GG d   1      45.073   4.487  38.179  0.00  0.00     0.072 H 
BRANCH  55  58
ATOM     58  C6  6GG d   1      45.788   3.330  39.831  0.00  0.00    -0.040 A 
ATOM     59  C7  6GG d   1      45.247   2.140  39.314  0.00  0.00    -0.074 A 
ATOM     60  C8  6GG d   1      45.150   1.026  40.136  0.00  0.00    -0.061 A 
ATOM     61  H24 6GG d   1      44.909   2.093  38.285  0.00  0.00     0.084 H 
ATOM     62  C9  6GG d   1      45.591   1.101  41.409  0.00  0.00     0.034 A 
ATOM     63  H25 6GG d   1      44.724   0.104  39.759  0.00  0.00     0.086 H 
ATOM     64 CL2  6GG d   1      45.529  -0.285  42.477  0.00  0.00    -0.084 Cl
ATOM     65  C10 6GG d   1      46.115   2.261  41.973  0.00  0.00    -0.061 A 
ATOM     66  C11 6GG d   1      46.236   3.392  41.150  0.00  0.00    -0.074 A 
ATOM     67  H26 6GG d   1      46.419   2.290  43.013  0.00  0.00     0.086 H 
ATOM     68  H27 6GG d   1      46.674   4.305  41.536  0.00  0.00     0.084 H 
ENDBRANCH  55  58
ENDBRANCH  50  55
BRANCH  54  69
ATOM     69  C37 6GG d   1      44.198   8.605  41.590  0.00  0.00    -0.005 A 
ATOM     70  C38 6GG d   1      42.858   8.683  41.337  0.00  0.00    -0.068 A 
ATOM     71  C39 6GG d   1      42.094   9.683  41.937  0.00  0.00    -0.045 A 
ATOM     72  H29 6GG d   1      42.389   7.968  40.670  0.00  0.00     0.085 H 
ATOM     73  C40 6GG d   1      42.717  10.607  42.777  0.00  0.00     0.116 A 
ATOM     74  H30 6GG d   1      41.027   9.742  41.753  0.00  0.00     0.088 H 
ATOM     75  F   6GG d   1      41.982  11.546  43.397  0.00  0.00    -0.206 F 
ATOM     76  C41 6GG d   1      44.073  10.536  43.035  0.00  0.00    -0.045 A 
ATOM     77  C42 6GG d   1      44.808   9.571  42.373  0.00  0.00    -0.068 A 
ATOM     78  H31 6GG d   1      44.545  11.216  43.735  0.00  0.00     0.088 H 
ATOM     79  H32 6GG d   1      45.888   9.570  42.469  0.00  0.00     0.085 H 
ENDBRANCH  54  69
ENDBRANCH   7  49
TORSDOF 16
