REMARK  16 active torsions:
REMARK  status: ('A' for Active; 'I' for Inactive)
REMARK    1  A    between atoms: C25_2  and  C24_4 
REMARK    2  A    between atoms: C24_4  and  C23_5 
REMARK    3  A    between atoms: C23_5  and  C21_6 
REMARK       I    between atoms: C21_6  and  N20_8 
REMARK    4  A    between atoms: N20_8  and  C19_9 
REMARK    5  A    between atoms: C19_9  and  C17_10 
REMARK    6  A    between atoms: C17_10  and  C16_11 
REMARK    7  A    between atoms: C16_11  and  C13_12 
REMARK    8  A    between atoms: C13_12  and  C12_13 
REMARK    9  A    between atoms: C12_13  and  C3_14 
REMARK   10  A    between atoms: C3_14  and  O1_15 
REMARK   11  A    between atoms: O1_15  and  C60_16 
REMARK   12  A    between atoms: C60_16  and  C48_18 
REMARK   13  A    between atoms: C44_24  and  C14_28 
REMARK   14  A    between atoms: N13_29  and  C5_30 
REMARK   15  A    between atoms: C5_30  and  C6_31 
REMARK   16  A    between atoms: C15_40  and  C37_41 
ROOT
ATOM      1  C48 6GG d   1      44.838  19.846   6.295  0.00  0.00     0.122 A 
ATOM      2  N49 6GG d   1      44.012  20.530   7.044  0.00  0.00    -0.350 N 
ATOM      3  C46 6GG d   1      44.403  21.798   7.144  0.00  0.00     0.045 A 
ATOM      4  C56 6GG d   1      43.849  22.893   7.783  0.00  0.00    -0.035 A 
ATOM      5  C57 6GG d   1      44.439  24.088   7.627  0.00  0.00     0.036 A 
ATOM      6 CL1  6GG d   1      43.746  25.448   8.539  0.00  0.00    -0.084 Cl
ATOM      7  C44 6GG d   1      45.837  20.697   5.732  0.00  0.00     0.039 A 
ATOM      8  C45 6GG d   1      45.543  22.009   6.267  0.00  0.00     0.006 A 
ATOM      9  C59 6GG d   1      46.147  23.219   6.171  0.00  0.00    -0.068 A 
ATOM     10  C58 6GG d   1      45.573  24.281   6.848  0.00  0.00    -0.061 A 
ATOM     11  H18 6GG d   1      43.172  20.140   7.495  0.00  0.00     0.166 HD
ATOM     12  H19 6GG d   1      42.960  22.788   8.395  0.00  0.00     0.089 H 
ATOM     13  H20 6GG d   1      47.049  23.350   5.584  0.00  0.00     0.085 H 
ATOM     14  H21 6GG d   1      46.011  25.270   6.770  0.00  0.00     0.086 H 
ENDROOT
BRANCH   1  15
ATOM     15  C60 6GG d   1      44.724  18.449   5.989  0.00  0.00     0.311 C 
ATOM     16  O2  6GG d   1      43.783  17.836   6.429  0.00  0.00    -0.258 OA
BRANCH  15  17
ATOM     17  O1  6GG d   1      45.695  17.961   5.158  0.00  0.00    -0.316 OA
BRANCH  17  18
ATOM     18  C3  6GG d   1      45.695  16.533   4.935  0.00  0.00     0.029 C 
ATOM     19  H16 6GG d   1      46.577  16.101   5.431  0.00  0.00     0.075 H 
ATOM     20  H17 6GG d   1      44.781  16.110   5.378  0.00  0.00     0.075 H 
BRANCH  18  21
ATOM     21  C12 6GG d   1      45.736  16.166   3.489  0.00  0.00    -0.045 C 
ATOM     22  H14 6GG d   1      46.239  15.192   3.398  0.00  0.00     0.036 H 
ATOM     23  H15 6GG d   1      44.700  16.079   3.129  0.00  0.00     0.036 H 
BRANCH  21  24
ATOM     24  C13 6GG d   1      46.466  17.162   2.595  0.00  0.00    -0.063 C 
ATOM     25  H12 6GG d   1      45.908  17.312   1.659  0.00  0.00     0.033 H 
ATOM     26  H13 6GG d   1      46.579  18.126   3.113  0.00  0.00     0.033 H 
BRANCH  24  27
ATOM     27  C16 6GG d   1      47.817  16.566   2.306  0.00  0.00    -0.064 C 
ATOM     28  H10 6GG d   1      48.384  16.510   3.247  0.00  0.00     0.033 H 
ATOM     29  H11 6GG d   1      47.674  15.552   1.903  0.00  0.00     0.033 H 
BRANCH  27  30
ATOM     30  C17 6GG d   1      48.614  17.371   1.311  0.00  0.00    -0.050 C 
ATOM     31  H8  6GG d   1      48.106  17.368   0.335  0.00  0.00     0.035 H 
ATOM     32  H9  6GG d   1      48.719  18.407   1.666  0.00  0.00     0.035 H 
BRANCH  30  33
ATOM     33  C19 6GG d   1      49.982  16.729   1.183  0.00  0.00    -0.005 C 
ATOM     34  H6  6GG d   1      50.598  17.009   2.050  0.00  0.00     0.064 H 
ATOM     35  H7  6GG d   1      49.870  15.635   1.150  0.00  0.00     0.064 H 
BRANCH  33  36
ATOM     36  N20 6GG d   1      50.620  17.175  -0.014  0.00  0.00    -0.361 N 
ATOM     37  C21 6GG d   1      51.940  17.108  -0.120  0.00  0.00     0.218 C 
ATOM     38  O22 6GG d   1      52.642  16.751   0.807  0.00  0.00    -0.274 OA
ATOM     39  H5  6GG d   1      50.074  17.537  -0.769  0.00  0.00     0.162 HD
BRANCH  37  40
ATOM     40  C23 6GG d   1      52.530  17.341  -1.480  0.00  0.00     0.018 C 
ATOM     41  H3  6GG d   1      53.301  16.576  -1.652  0.00  0.00     0.047 H 
ATOM     42  H4  6GG d   1      51.727  17.226  -2.223  0.00  0.00     0.047 H 
BRANCH  40  43
ATOM     43  C24 6GG d   1      53.159  18.685  -1.683  0.00  0.00     0.024 C 
ATOM     44  H1  6GG d   1      52.421  19.404  -2.067  0.00  0.00     0.049 H 
ATOM     45  H2  6GG d   1      53.582  19.062  -0.740  0.00  0.00     0.049 H 
BRANCH  43  46
ATOM     46  C25 6GG d   1      54.254  18.448  -2.702  0.00  0.00     0.172 C 
ATOM     47  O28 6GG d   1      54.127  18.917  -3.798  0.00  0.00    -0.648 OA
ATOM     48  O26 6GG d   1      55.352  17.745  -2.454  0.00  0.00    -0.648 OA
ENDBRANCH  43  46
ENDBRANCH  40  43
ENDBRANCH  37  40
ENDBRANCH  33  36
ENDBRANCH  30  33
ENDBRANCH  27  30
ENDBRANCH  24  27
ENDBRANCH  21  24
ENDBRANCH  18  21
ENDBRANCH  17  18
ENDBRANCH  15  17
ENDBRANCH   1  15
BRANCH   7  49
ATOM     49  C14 6GG d   1      47.001  20.438   4.841  0.00  0.00     0.079 A 
ATOM     50  N13 6GG d   1      48.102  19.854   5.265  0.00  0.00    -0.334 N 
ATOM     51  C18 6GG d   1      48.977  19.889   4.263  0.00  0.00     0.067 A 
ATOM     52  N16 6GG d   1      48.502  20.586   3.220  0.00  0.00    -0.241 NA
ATOM     53  H28 6GG d   1      49.956  19.412   4.287  0.00  0.00     0.143 H 
ATOM     54  C15 6GG d   1      47.249  20.986   3.514  0.00  0.00     0.096 A 
BRANCH  50  55
ATOM     55  C5  6GG d   1      48.346  19.187   6.527  0.00  0.00     0.025 C 
ATOM     56  H22 6GG d   1      49.355  18.750   6.492  0.00  0.00     0.072 H 
ATOM     57  H23 6GG d   1      47.603  18.384   6.637  0.00  0.00     0.072 H 
BRANCH  55  58
ATOM     58  C6  6GG d   1      48.263  20.061   7.735  0.00  0.00    -0.040 A 
ATOM     59  C7  6GG d   1      47.685  19.549   8.902  0.00  0.00    -0.074 A 
ATOM     60  C8  6GG d   1      47.688  20.359  10.050  0.00  0.00    -0.061 A 
ATOM     61  H24 6GG d   1      47.248  18.557   8.920  0.00  0.00     0.084 H 
ATOM     62  C9  6GG d   1      48.253  21.615   9.986  0.00  0.00     0.034 A 
ATOM     63  H25 6GG d   1      47.251  20.001  10.975  0.00  0.00     0.086 H 
ATOM     64 CL2  6GG d   1      48.307  22.734  11.382  0.00  0.00    -0.084 Cl
ATOM     65  C10 6GG d   1      48.830  22.113   8.810  0.00  0.00    -0.061 A 
ATOM     66  C11 6GG d   1      48.835  21.300   7.701  0.00  0.00    -0.074 A 
ATOM     67  H26 6GG d   1      49.259  23.108   8.776  0.00  0.00     0.086 H 
ATOM     68  H27 6GG d   1      49.300  21.648   6.786  0.00  0.00     0.084 H 
ENDBRANCH  55  58
ENDBRANCH  50  55
BRANCH  54  69
ATOM     69  C37 6GG d   1      46.417  21.687   2.600  0.00  0.00    -0.005 A 
ATOM     70  C38 6GG d   1      45.050  21.457   2.619  0.00  0.00    -0.068 A 
ATOM     71  C39 6GG d   1      44.246  22.090   1.741  0.00  0.00    -0.045 A 
ATOM     72  H29 6GG d   1      44.627  20.767   3.341  0.00  0.00     0.085 H 
ATOM     73  C40 6GG d   1      44.849  22.964   0.855  0.00  0.00     0.116 A 
ATOM     74  H30 6GG d   1      43.175  21.921   1.730  0.00  0.00     0.088 H 
ATOM     75  F   6GG d   1      44.053  23.556  -0.041  0.00  0.00    -0.206 F 
ATOM     76  C41 6GG d   1      46.222  23.178   0.834  0.00  0.00    -0.045 A 
ATOM     77  C42 6GG d   1      47.038  22.538   1.707  0.00  0.00    -0.068 A 
ATOM     78  H31 6GG d   1      46.646  23.865   0.111  0.00  0.00     0.088 H 
ATOM     79  H32 6GG d   1      48.112  22.685   1.704  0.00  0.00     0.085 H 
ENDBRANCH  54  69
ENDBRANCH   7  49
TORSDOF 16
