REMARK WARNING: 32 MAX_TORS EXCEEDED!!!
REMARK  99 active torsions:
REMARK  status: ('A' for Active; 'I' for Inactive)
REMARK    1  A    between atoms: N_1  and  CA_2 
REMARK    2  A    between atoms: CA_2  and  C_3 
REMARK    3  A    between atoms: CA_2  and  CB_5 
REMARK       I    between atoms: C_3  and  N_9 
REMARK    4  A    between atoms: CB_5  and  CG_6 
REMARK    5  A    between atoms: CG_6  and  SD_7 
REMARK    6  A    between atoms: SD_7  and  CE_8 
REMARK    7  A    between atoms: N_9  and  CA_10 
REMARK    8  A    between atoms: CA_10  and  C_11 
REMARK    9  A    between atoms: CA_10  and  CB_13 
REMARK       I    between atoms: C_11  and  N_17 
REMARK   10  A    between atoms: CB_13  and  CG_14 
REMARK   11  A    between atoms: N_17  and  CA_18 
REMARK   12  A    between atoms: CA_18  and  C_19 
REMARK   13  A    between atoms: CA_18  and  CB_21 
REMARK       I    between atoms: C_19  and  N_23 
REMARK   14  A    between atoms: CB_21  and  SG_22 
REMARK   15  A    between atoms: N_23  and  CA_24 
REMARK   16  A    between atoms: CA_24  and  C_25 
REMARK   17  A    between atoms: CA_24  and  CB_27 
REMARK       I    between atoms: C_25  and  N_31 
REMARK   18  A    between atoms: CB_27  and  CG_28 
REMARK   19  A    between atoms: CG_28  and  CD1_29 
REMARK   20  A    between atoms: CG_28  and  CD2_30 
REMARK   21  A    between atoms: N_31  and  CA_32 
REMARK   22  A    between atoms: CA_32  and  C_33 
REMARK   23  A    between atoms: CA_32  and  CB_35 
REMARK       I    between atoms: C_33  and  N_37 
REMARK   24  A    between atoms: CB_35  and  SG_36 
REMARK   25  A    between atoms: N_37  and  CA_38 
REMARK   26  A    between atoms: CA_38  and  C_39 
REMARK   27  A    between atoms: CA_38  and  CB_41 
REMARK       I    between atoms: C_39  and  N_45 
REMARK   28  A    between atoms: CB_41  and  CG1_42 
REMARK   29  A    between atoms: CB_41  and  CG2_43 
REMARK   30  A    between atoms: CG1_42  and  CD1_44 
REMARK   31  A    between atoms: N_45  and  CA_46 
REMARK   32  A    between atoms: CA_46  and  C_47 
REMARK   33  A    between atoms: CA_46  and  CB_49 
REMARK       I    between atoms: C_47  and  N_52 
REMARK   34  A    between atoms: CB_49  and  CG1_50 
REMARK   35  A    between atoms: CB_49  and  CG2_51 
REMARK   36  A    between atoms: N_52  and  CA_53 
REMARK   37  A    between atoms: CA_53  and  C_54 
REMARK   38  A    between atoms: CA_53  and  CB_56 
REMARK       I    between atoms: C_54  and  N_59 
REMARK   39  A    between atoms: CB_56  and  OG1_57 
REMARK   40  A    between atoms: CB_56  and  CG2_58 
REMARK   41  A    between atoms: N_59  and  CA_60 
REMARK   42  A    between atoms: CA_60  and  C_61 
REMARK   43  A    between atoms: CA_60  and  CB_63 
REMARK       I    between atoms: C_61  and  N_66 
REMARK   44  A    between atoms: CB_63  and  OG1_64 
REMARK   45  A    between atoms: CB_63  and  CG2_65 
REMARK   46  A    between atoms: N_66  and  CA_67 
REMARK   47  A    between atoms: CA_67  and  C_68 
REMARK   48  A    between atoms: CA_67  and  CB_70 
REMARK       I    between atoms: C_68  and  N_75 
REMARK   49  A    between atoms: CB_70  and  CG_71 
REMARK   50  A    between atoms: CG_71  and  CD_72 
REMARK   51  A    between atoms: CD_72  and  CE_73 
REMARK   52  A    between atoms: CE_73  and  NZ_74 
REMARK   53  A    between atoms: N_75  and  CA_76 
REMARK   54  A    between atoms: CA_76  and  C_77 
REMARK   55  A    between atoms: CA_76  and  CB_79 
REMARK       I    between atoms: C_77  and  N_84 
REMARK   56  A    between atoms: CB_79  and  CG_80 
REMARK   57  A    between atoms: CG_80  and  CD_81 
REMARK   58  A    between atoms: CD_81  and  CE_82 
REMARK   59  A    between atoms: CE_82  and  NZ_83 
REMARK   60  A    between atoms: N_84  and  CA_85 
REMARK   61  A    between atoms: CA_85  and  C_86 
REMARK   62  A    between atoms: CA_85  and  CB_88 
REMARK       I    between atoms: C_86  and  N_96 
REMARK   63  A    between atoms: CB_88  and  CG_89 
REMARK   64  A    between atoms: CZ_94  and  OH_95 
REMARK   65  A    between atoms: N_96  and  CA_97 
REMARK   66  A    between atoms: CA_97  and  C_98 
REMARK   67  A    between atoms: CA_97  and  CB_100 
REMARK       I    between atoms: C_98  and  N_107 
REMARK   68  A    between atoms: CB_100  and  CG_101 
REMARK   69  A    between atoms: CG_101  and  CD_102 
REMARK   70  A    between atoms: CD_102  and  NE_103 
REMARK       I    between atoms: NE_103  and  CZ_104 
REMARK       I    between atoms: CZ_104  and  NH1_105 
REMARK   71  A    between atoms: N_107  and  CA_108 
REMARK   72  A    between atoms: CA_108  and  C_109 
REMARK   73  A    between atoms: CA_108  and  CB_111 
REMARK       I    between atoms: C_109  and  N_119 
REMARK   74  A    between atoms: CB_111  and  CG_112 
REMARK   75  A    between atoms: CZ_117  and  OH_118 
REMARK   76  A    between atoms: N_119  and  CA_120 
REMARK   77  A    between atoms: CA_120  and  C_121 
REMARK   78  A    between atoms: CA_120  and  CB_123 
REMARK       I    between atoms: C_121  and  N_128 
REMARK   79  A    between atoms: CB_123  and  CG_124 
REMARK   80  A    between atoms: CG_124  and  CD_125 
REMARK       I    between atoms: CD_125  and  NE2_127 
REMARK   81  A    between atoms: N_128  and  CA_129 
REMARK   82  A    between atoms: CA_129  and  C_130 
REMARK   83  A    between atoms: CA_129  and  CB_132 
REMARK       I    between atoms: C_130  and  N_136 
REMARK   84  A    between atoms: CB_132  and  CG_133 
REMARK   85  A    between atoms: N_136  and  CA_137 
REMARK   86  A    between atoms: CA_137  and  C_138 
REMARK   87  A    between atoms: CA_137  and  CB_140 
REMARK       I    between atoms: C_138  and  N_145 
REMARK   88  A    between atoms: CB_140  and  CG_141 
REMARK   89  A    between atoms: CG_141  and  CD_142 
REMARK   90  A    between atoms: N_145  and  CA_146 
REMARK   91  A    between atoms: CA_146  and  C_147 
REMARK   92  A    between atoms: CA_146  and  CB_149 
REMARK       I    between atoms: C_147  and  N_153 
REMARK   93  A    between atoms: CB_149  and  CG_150 
REMARK   94  A    between atoms: N_153  and  CA_154 
REMARK   95  A    between atoms: CA_154  and  CB_155 
REMARK   96  A    between atoms: CA_154  and  C_162 
REMARK   97  A    between atoms: CB_155  and  CG2_156 
REMARK   98  A    between atoms: CB_155  and  OG1_157 
REMARK   99  A    between atoms: OG1_157  and  P_158 
ROOT
ATOM      1  CA  MET d   1       3.978  -6.463  -4.378  0.00  0.00     0.089 C 
ATOM      2  H85 MET d   1       4.012  -7.544  -4.580  0.00  0.00     0.087 H 
ENDROOT
BRANCH   1   3
ATOM      3  N   MET d   1       3.173  -6.242  -3.181  0.00  0.00    -0.346 N 
ATOM      4  C   MET d   1       3.363  -6.936  -2.064  0.00  0.00     0.241 C 
ATOM      5  O   MET d   1       4.234  -7.796  -1.953  0.00  0.00    -0.271 OA
ATOM      6  H84 MET d   1       2.455  -5.546  -3.202  0.00  0.00     0.163 HD
BRANCH   4   7
ATOM      7  CA  MET d   1       2.445  -6.591  -0.892  0.00  0.00     0.089 C 
ATOM      8  H72 MET d   1       2.922  -6.927   0.041  0.00  0.00     0.087 H 
BRANCH   7   9
ATOM      9  N   MET d   1       2.239  -5.157  -0.819  0.00  0.00    -0.346 N 
ATOM     10  C   MET d   1       3.213  -4.325  -0.480  0.00  0.00     0.243 C 
ATOM     11  O   MET d   1       4.359  -4.695  -0.232  0.00  0.00    -0.271 OA
ATOM     12  H71 MET d   1       1.335  -4.785  -1.031  0.00  0.00     0.163 HD
BRANCH  10  13
ATOM     13  CA  MET d   1       2.837  -2.846  -0.460  0.00  0.00     0.113 C 
ATOM     14  H65 MET d   1       3.749  -2.241  -0.569  0.00  0.00     0.091 H 
BRANCH  13  15
ATOM     15  N   MET d   1       1.945  -2.559  -1.574  0.00  0.00    -0.344 N 
ATOM     16  C   MET d   1       2.312  -2.749  -2.841  0.00  0.00     0.243 C 
ATOM     17  O   MET d   1       3.424  -3.165  -3.160  0.00  0.00    -0.271 OA
ATOM     18  H64 MET d   1       1.028  -2.208  -1.383  0.00  0.00     0.163 HD
BRANCH  16  19
ATOM     19  CA  MET d   1       1.257  -2.441  -3.905  0.00  0.00     0.113 C 
ATOM     20  H58 MET d   1       1.508  -2.996  -4.821  0.00  0.00     0.091 H 
BRANCH  19  21
ATOM     21  N   MET d   1      -0.051  -2.878  -3.447  0.00  0.00    -0.344 N 
ATOM     22  C   MET d   1      -0.313  -4.159  -3.219  0.00  0.00     0.241 C 
ATOM     23  O   MET d   1       0.526  -5.048  -3.379  0.00  0.00    -0.271 OA
ATOM     24  H57 MET d   1      -0.770  -2.198  -3.300  0.00  0.00     0.163 HD
BRANCH  22  25
ATOM     25  CA  MET d   1      -1.714  -4.487  -2.706  0.00  0.00     0.092 C 
ATOM     26  H49 MET d   1      -1.687  -5.489  -2.252  0.00  0.00     0.088 H 
BRANCH  25  27
ATOM     27  N   MET d   1      -2.112  -3.534  -1.683  0.00  0.00    -0.346 N 
ATOM     28  C   MET d   1      -1.447  -3.427  -0.538  0.00  0.00     0.241 C 
ATOM     29  O   MET d   1      -0.457  -4.109  -0.265  0.00  0.00    -0.271 OA
ATOM     30  H48 MET d   1      -2.904  -2.946  -1.845  0.00  0.00     0.163 HD
BRANCH  28  31
ATOM     31  CA  MET d   1      -1.967  -2.370   0.426  0.00  0.00     0.092 C 
ATOM     32  H38 MET d   1      -1.199  -2.185   1.192  0.00  0.00     0.088 H 
BRANCH  31  33
ATOM     33  N   MET d   1      -2.206  -1.130  -0.298  0.00  0.00    -0.346 N 
ATOM     34  C   MET d   1      -1.220  -0.450  -0.882  0.00  0.00     0.241 C 
ATOM     35  O   MET d   1      -0.040  -0.796  -0.836  0.00  0.00    -0.271 OA
ATOM     36  H37 MET d   1      -3.140  -0.777  -0.359  0.00  0.00     0.163 HD
BRANCH  34  37
ATOM     37  CA  MET d   1      -1.635   0.807  -1.641  0.00  0.00     0.097 C 
ATOM     38  H33 MET d   1      -0.944   0.951  -2.484  0.00  0.00     0.088 H 
BRANCH  37  39
ATOM     39  N   MET d   1      -2.982   0.628  -2.173  0.00  0.00    -0.345 N 
ATOM     40  C   MET d   1      -3.209  -0.258  -3.141  0.00  0.00     0.241 C 
ATOM     41  O   MET d   1      -2.314  -0.956  -3.616  0.00  0.00    -0.271 OA
ATOM     42  H32 MET d   1      -3.738   1.173  -1.809  0.00  0.00     0.163 HD
BRANCH  40  43
ATOM     43  CA  MET d   1      -4.642  -0.410  -3.642  0.00  0.00     0.089 C 
ATOM     44  H22 MET d   1      -4.745  -1.428  -4.046  0.00  0.00     0.087 H 
BRANCH  43  45
ATOM     45  N   MET d   1      -5.614  -0.264  -2.562  0.00  0.00    -0.346 N 
ATOM     46  C   MET d   1      -5.830  -1.248  -1.702  0.00  0.00     0.241 C 
ATOM     47  O   MET d   1      -5.196  -2.309  -1.741  0.00  0.00    -0.271 OA
ATOM     48  H21 MET d   1      -6.124   0.591  -2.470  0.00  0.00     0.163 HD
BRANCH  46  49
ATOM     49  CA  MET d   1      -6.880  -0.999  -0.613  0.00  0.00     0.097 C 
ATOM     50  H17 MET d   1      -6.725  -1.741   0.184  0.00  0.00     0.088 H 
BRANCH  49  51
ATOM     51  N   MET d   1      -6.735   0.328  -0.032  0.00  0.00    -0.345 N 
ATOM     52  C   MET d   1      -5.688   0.639   0.711  0.00  0.00     0.241 C 
ATOM     53  O   MET d   1      -4.782  -0.155   0.938  0.00  0.00    -0.271 OA
ATOM     54  H16 MET d   1      -7.441   1.017  -0.198  0.00  0.00     0.163 HD
BRANCH  52  55
ATOM     55  CA  MET d   1      -5.641   2.050   1.280  0.00  0.00     0.098 C 
ATOM     56  H13 MET d   1      -4.588   2.362   1.339  0.00  0.00     0.088 H 
BRANCH  55  57
ATOM     57  N   MET d   1      -6.345   3.000   0.426  0.00  0.00    -0.345 N 
ATOM     58  C   MET d   1      -5.789   3.483  -0.671  0.00  0.00     0.249 C 
ATOM     59  O   MET d   1      -4.676   3.133  -1.060  0.00  0.00    -0.271 OA
ATOM     60  H12 MET d   1      -7.268   3.292   0.676  0.00  0.00     0.163 HD
BRANCH  58  61
ATOM     61  CA  MET d   1      -6.620   4.490  -1.457  0.00  0.00     0.176 C 
ATOM     62  H4  MET d   1      -6.318   4.446  -2.514  0.00  0.00     0.099 H 
BRANCH  61  63
ATOM     63  N   MET d   1      -8.036   4.165  -1.365  0.00  0.00    -0.066 N 
ATOM     64  H1  MET d   1      -8.570   4.840  -1.890  0.00  0.00     0.275 HD
ATOM     65  H2  MET d   1      -8.324   4.186  -0.399  0.00  0.00     0.275 HD
ATOM     66  H3  MET d   1      -8.195   3.244  -1.743  0.00  0.00     0.275 HD
ENDBRANCH  61  63
BRANCH  61  67
ATOM     67  CB  MET d   1      -6.366   5.909  -0.933  0.00  0.00    -0.022 C 
ATOM     68  H5  MET d   1      -6.810   6.625  -1.641  0.00  0.00     0.037 H 
ATOM     69  H6  MET d   1      -5.279   6.070  -0.882  0.00  0.00     0.037 H 
BRANCH  67  70
ATOM     70  CG  MET d   1      -6.955   6.170   0.447  0.00  0.00    -0.021 C 
ATOM     71  H7  MET d   1      -6.254   5.791   1.205  0.00  0.00     0.049 H 
ATOM     72  H8  MET d   1      -7.911   5.631   0.529  0.00  0.00     0.049 H 
BRANCH  70  73
ATOM     73  SD  MET d   1      -7.252   7.921   0.762  0.00  0.00    -0.173 SA
BRANCH  73  74
ATOM     74  CE  MET d   1      -8.278   7.833   2.229  0.00  0.00    -0.035 C 
ATOM     75  H9  MET d   1      -8.547   8.850   2.550  0.00  0.00     0.041 H 
ATOM     76  H10 MET d   1      -7.724   7.329   3.034  0.00  0.00     0.041 H 
ATOM     77  H11 MET d   1      -9.193   7.266   2.003  0.00  0.00     0.041 H 
ENDBRANCH  73  74
ENDBRANCH  70  73
ENDBRANCH  67  70
ENDBRANCH  61  67
ENDBRANCH  58  61
ENDBRANCH  55  57
BRANCH  55  78
ATOM     78  CB  MET d   1      -6.223   2.053   2.689  0.00  0.00     0.043 C 
ATOM     79  H14 MET d   1      -5.561   1.469   3.345  0.00  0.00     0.052 H 
ATOM     80  H15 MET d   1      -7.218   1.584   2.660  0.00  0.00     0.052 H 
BRANCH  78  81
ATOM     81  CG  MET d   1      -6.362   3.451   3.261  0.00  0.00     0.175 C 
ATOM     82  OD1 MET d   1      -7.499   3.837   3.601  0.00  0.00    -0.648 OA
ATOM     83  OD2 MET d   1      -5.339   4.164   3.366  0.00  0.00    -0.648 OA
ENDBRANCH  78  81
ENDBRANCH  55  78
ENDBRANCH  52  55
ENDBRANCH  49  51
BRANCH  49  84
ATOM     84  CB  MET d   1      -8.310  -1.180  -1.170  0.00  0.00     0.001 C 
ATOM     85  H18 MET d   1      -8.916  -1.683  -0.402  0.00  0.00     0.052 H 
ATOM     86  H19 MET d   1      -8.251  -1.817  -2.065  0.00  0.00     0.052 H 
BRANCH  84  87
ATOM     87  SG  MET d   1      -9.150   0.368  -1.630  0.00  0.00    -0.180 SA
ATOM     88  H20 MET d   1     -10.071   0.158  -1.981  0.00  0.00     0.101 HD
ENDBRANCH  84  87
ENDBRANCH  49  84
ENDBRANCH  46  49
ENDBRANCH  43  45
BRANCH  43  89
ATOM     89  CB  MET d   1      -4.938   0.578  -4.782  0.00  0.00    -0.035 C 
ATOM     90  H23 MET d   1      -5.653   0.097  -5.466  0.00  0.00     0.037 H 
ATOM     91  H24 MET d   1      -3.994   0.770  -5.314  0.00  0.00     0.037 H 
BRANCH  89  92
ATOM     92  CG  MET d   1      -5.525   1.932  -4.367  0.00  0.00    -0.059 C 
ATOM     93  H25 MET d   1      -6.118   1.787  -3.452  0.00  0.00     0.038 H 
BRANCH  92  94
ATOM     94  CD1 MET d   1      -4.420   2.928  -4.069  0.00  0.00    -0.073 C 
ATOM     95  H26 MET d   1      -4.864   3.890  -3.774  0.00  0.00     0.028 H 
ATOM     96  H27 MET d   1      -3.802   3.070  -4.968  0.00  0.00     0.028 H 
ATOM     97  H28 MET d   1      -3.794   2.546  -3.249  0.00  0.00     0.028 H 
ENDBRANCH  92  94
BRANCH  92  98
ATOM     98  CD2 MET d   1      -6.443   2.468  -5.456  0.00  0.00    -0.073 C 
ATOM     99  H29 MET d   1      -7.237   1.735  -5.660  0.00  0.00     0.028 H 
ATOM    100  H30 MET d   1      -5.861   2.642  -6.373  0.00  0.00     0.028 H 
ATOM    101  H31 MET d   1      -6.894   3.414  -5.122  0.00  0.00     0.028 H 
ENDBRANCH  92  98
ENDBRANCH  89  92
ENDBRANCH  43  89
ENDBRANCH  40  43
ENDBRANCH  37  39
BRANCH  37 102
ATOM    102  CB  MET d   1      -1.552   2.042  -0.740  0.00  0.00     0.001 C 
ATOM    103  H34 MET d   1      -2.051   2.877  -1.253  0.00  0.00     0.052 H 
ATOM    104  H35 MET d   1      -0.490   2.287  -0.588  0.00  0.00     0.052 H 
BRANCH 102 105
ATOM    105  SG  MET d   1      -2.322   1.833   0.881  0.00  0.00    -0.180 SA
ATOM    106  H36 MET d   1      -3.300   1.619   0.762  0.00  0.00     0.101 HD
ENDBRANCH 102 105
ENDBRANCH  37 102
ENDBRANCH  34  37
ENDBRANCH  31  33
BRANCH  31 107
ATOM    107  CB  MET d   1      -3.259  -2.863   1.140  0.00  0.00    -0.030 C 
ATOM    108  H39 MET d   1      -4.122  -2.407   0.632  0.00  0.00     0.043 H 
BRANCH 107 109
ATOM    109  CG1 MET d   1      -3.264  -2.407   2.604  0.00  0.00    -0.063 C 
ATOM    110  H40 MET d   1      -4.204  -2.744   3.066  0.00  0.00     0.033 H 
ATOM    111  H41 MET d   1      -3.220  -1.308   2.622  0.00  0.00     0.033 H 
BRANCH 109 112
ATOM    112  CD1 MET d   1      -2.108  -2.942   3.434  0.00  0.00    -0.076 C 
ATOM    113  H45 MET d   1      -2.192  -2.566   4.464  0.00  0.00     0.027 H 
ATOM    114  H46 MET d   1      -1.156  -2.605   2.997  0.00  0.00     0.027 H 
ATOM    115  H47 MET d   1      -2.140  -4.042   3.441  0.00  0.00     0.027 H 
ENDBRANCH 109 112
ENDBRANCH 107 109
BRANCH 107 116
ATOM    116  CG2 MET d   1      -3.416  -4.382   1.063  0.00  0.00    -0.071 C 
ATOM    117  H42 MET d   1      -3.411  -4.698   0.009  0.00  0.00     0.028 H 
ATOM    118  H43 MET d   1      -4.367  -4.676   1.530  0.00  0.00     0.028 H 
ATOM    119  H44 MET d   1      -2.582  -4.864   1.594  0.00  0.00     0.028 H 
ENDBRANCH 107 116
ENDBRANCH  31 107
ENDBRANCH  28  31
ENDBRANCH  25  27
BRANCH  25 120
ATOM    120  CB  MET d   1      -2.741  -4.512  -3.864  0.00  0.00    -0.033 C 
ATOM    121  H50 MET d   1      -2.998  -3.475  -4.125  0.00  0.00     0.042 H 
BRANCH 120 122
ATOM    122  CG1 MET d   1      -2.174  -5.193  -5.104  0.00  0.00    -0.071 C 
ATOM    123  H51 MET d   1      -2.931  -5.191  -5.902  0.00  0.00     0.028 H 
ATOM    124  H52 MET d   1      -1.901  -6.230  -4.860  0.00  0.00     0.028 H 
ATOM    125  H53 MET d   1      -1.281  -4.649  -5.445  0.00  0.00     0.028 H 
ENDBRANCH 120 122
BRANCH 120 126
ATOM    126  CG2 MET d   1      -4.000  -5.229  -3.408  0.00  0.00    -0.071 C 
ATOM    127  H54 MET d   1      -4.402  -4.731  -2.513  0.00  0.00     0.028 H 
ATOM    128  H55 MET d   1      -3.760  -6.275  -3.168  0.00  0.00     0.028 H 
ATOM    129  H56 MET d   1      -4.750  -5.200  -4.212  0.00  0.00     0.028 H 
ENDBRANCH 120 126
ENDBRANCH  25 120
ENDBRANCH  22  25
ENDBRANCH  19  21
BRANCH  19 130
ATOM    130  CB  MET d   1       1.264  -0.936  -4.231  0.00  0.00     0.060 C 
ATOM    131  H59 MET d   1       1.083  -0.373  -3.304  0.00  0.00     0.086 H 
BRANCH 130 132
ATOM    132  OG1 MET d   1       0.223  -0.634  -5.172  0.00  0.00    -0.393 OA
ATOM    133  H60 MET d   1      -0.618  -0.870  -4.799  0.00  0.00     0.210 HD
ENDBRANCH 130 132
BRANCH 130 134
ATOM    134  CG2 MET d   1       2.610  -0.514  -4.807  0.00  0.00    -0.050 C 
ATOM    135  H61 MET d   1       2.591   0.563  -5.032  0.00  0.00     0.031 H 
ATOM    136  H62 MET d   1       2.807  -1.078  -5.731  0.00  0.00     0.031 H 
ATOM    137  H63 MET d   1       3.404  -0.722  -4.074  0.00  0.00     0.031 H 
ENDBRANCH 130 134
ENDBRANCH  19 130
ENDBRANCH  16  19
ENDBRANCH  13  15
BRANCH  13 138
ATOM    138  CB  MET d   1       2.163  -2.494   0.888  0.00  0.00     0.060 C 
ATOM    139  H66 MET d   1       1.196  -3.017   0.941  0.00  0.00     0.086 H 
BRANCH 138 140
ATOM    140  OG1 MET d   1       1.930  -1.080   0.966  0.00  0.00    -0.393 OA
ATOM    141  H67 MET d   1       1.361  -0.814   0.253  0.00  0.00     0.210 HD
ENDBRANCH 138 140
BRANCH 138 142
ATOM    142  CG2 MET d   1       3.016  -2.934   2.068  0.00  0.00    -0.050 C 
ATOM    143  H68 MET d   1       2.508  -2.669   3.007  0.00  0.00     0.031 H 
ATOM    144  H69 MET d   1       3.992  -2.428   2.024  0.00  0.00     0.031 H 
ATOM    145  H70 MET d   1       3.165  -4.023   2.027  0.00  0.00     0.031 H 
ENDBRANCH 138 142
ENDBRANCH  13 138
ENDBRANCH  10  13
ENDBRANCH   7   9
BRANCH   7 146
ATOM    146  CB  MET d   1       1.102  -7.312  -1.046  0.00  0.00    -0.038 C 
ATOM    147  H73 MET d   1       0.986  -7.608  -2.099  0.00  0.00     0.036 H 
ATOM    148  H74 MET d   1       0.299  -6.612  -0.771  0.00  0.00     0.036 H 
BRANCH 146 149
ATOM    149  CG  MET d   1       0.972  -8.557  -0.180  0.00  0.00    -0.061 C 
ATOM    150  H75 MET d   1       1.872  -9.175  -0.310  0.00  0.00     0.033 H 
ATOM    151  H76 MET d   1       0.087  -9.124  -0.505  0.00  0.00     0.033 H 
BRANCH 149 152
ATOM    152  CD  MET d   1       0.821  -8.214   1.295  0.00  0.00    -0.043 C 
ATOM    153  H77 MET d   1      -0.215  -7.899   1.486  0.00  0.00     0.035 H 
ATOM    154  H78 MET d   1       1.506  -7.390   1.544  0.00  0.00     0.035 H 
BRANCH 152 155
ATOM    155  CE  MET d   1       1.146  -9.414   2.174  0.00  0.00     0.080 C 
ATOM    156  H79 MET d   1       2.231  -9.595   2.138  0.00  0.00     0.075 H 
ATOM    157  H80 MET d   1       0.615 -10.293   1.782  0.00  0.00     0.075 H 
BRANCH 155 158
ATOM    158  NZ  MET d   1       0.744  -9.206   3.588  0.00  0.00    -0.079 N 
ATOM    159  H81 MET d   1       0.979 -10.024   4.128  0.00  0.00     0.274 HD
ATOM    160  H82 MET d   1      -0.250  -9.046   3.635  0.00  0.00     0.274 HD
ATOM    161  H83 MET d   1       1.231  -8.406   3.962  0.00  0.00     0.274 HD
ENDBRANCH 155 158
ENDBRANCH 152 155
ENDBRANCH 149 152
ENDBRANCH 146 149
ENDBRANCH   7 146
ENDBRANCH   4   7
ENDBRANCH   1   3
BRANCH   1 162
ATOM    162  C   MET d   1       5.410  -5.967  -4.167  0.00  0.00     0.241 C 
ATOM    163  O   MET d   1       6.351  -6.486  -4.767  0.00  0.00    -0.271 OA
ATOM    164  N   MET d   1       5.559  -4.955  -3.318  0.00  0.00    -0.346 N 
ATOM    165  H97 MET d   1       4.748  -4.569  -2.878  0.00  0.00     0.163 HD
BRANCH 164 166
ATOM    166  CA  MET d   1       6.869  -4.388  -3.006  0.00  0.00     0.093 C 
ATOM    167  H98 MET d   1       7.470  -4.362  -3.927  0.00  0.00     0.088 H 
BRANCH 166 168
ATOM    168  C   MET d   1       7.595  -5.262  -1.981  0.00  0.00     0.241 C 
ATOM    169  O   MET d   1       8.822  -5.314  -1.950  0.00  0.00    -0.271 OA
ATOM    170  N   MET d   1       6.827  -5.955  -1.153  0.00  0.00    -0.346 N 
ATOM    171 6H10 MET d   1       5.833  -5.872  -1.226  0.00  0.00     0.163 HD
BRANCH 170 172
ATOM    172  CA  MET d   1       7.395  -6.835  -0.139  0.00  0.00     0.089 C 
ATOM    173 7H10 MET d   1       8.319  -6.375   0.240  0.00  0.00     0.087 H 
BRANCH 172 174
ATOM    174  C   MET d   1       7.738  -8.200  -0.726  0.00  0.00     0.241 C 
ATOM    175  O   MET d   1       8.876  -8.663  -0.625  0.00  0.00    -0.271 OA
ATOM    176  N   MET d   1       6.752  -8.827  -1.350  0.00  0.00    -0.346 N 
ATOM    177 9H11 MET d   1       5.861  -8.378  -1.416  0.00  0.00     0.163 HD
BRANCH 176 178
ATOM    178  CA  MET d   1       6.919 -10.147  -1.944  0.00  0.00     0.093 C 
ATOM    179 0H12 MET d   1       7.433 -10.795  -1.219  0.00  0.00     0.088 H 
BRANCH 178 180
ATOM    180  C   MET d   1       7.759 -10.087  -3.217  0.00  0.00     0.241 C 
ATOM    181  O   MET d   1       7.234  -9.897  -4.316  0.00  0.00    -0.271 OA
ATOM    182  N   MET d   1       9.064 -10.237  -3.057  0.00  0.00    -0.346 N 
ATOM    183 8H12 MET d   1       9.428 -10.364  -2.134  0.00  0.00     0.163 HD
BRANCH 182 184
ATOM    184  CA  MET d   1       9.984 -10.223  -4.183  0.00  0.00     0.090 C 
ATOM    185 9H12 MET d   1       9.400 -10.110  -5.109  0.00  0.00     0.087 H 
BRANCH 184 186
ATOM    186  C   MET d   1      10.748 -11.543  -4.252  0.00  0.00     0.241 C 
ATOM    187  O   MET d   1      10.572 -12.320  -5.192  0.00  0.00    -0.271 OA
ATOM    188  N   MET d   1      11.582 -11.798  -3.244  0.00  0.00    -0.346 N 
ATOM    189 6H13 MET d   1      11.680 -11.123  -2.513  0.00  0.00     0.163 HD
BRANCH 188 190
ATOM    190  CA  MET d   1      12.360 -13.037  -3.174  0.00  0.00     0.098 C 
ATOM    191 7H13 MET d   1      11.705 -13.875  -3.455  0.00  0.00     0.088 H 
BRANCH 190 192
ATOM    192  C   MET d   1      12.862 -13.260  -1.755  0.00  0.00     0.241 C 
ATOM    193  O   MET d   1      12.627 -14.312  -1.158  0.00  0.00    -0.271 OA
ATOM    194  N   MET d   1      13.537 -12.253  -1.215  0.00  0.00    -0.346 N 
ATOM    195 0H14 MET d   1      13.673 -11.418  -1.749  0.00  0.00     0.163 HD
BRANCH 194 196
ATOM    196  CA  MET d   1      14.087 -12.328   0.135  0.00  0.00     0.090 C 
ATOM    197 1H14 MET d   1      14.666 -13.260   0.220  0.00  0.00     0.087 H 
BRANCH 196 198
ATOM    198  C   MET d   1      12.981 -12.348   1.192  0.00  0.00     0.241 C 
ATOM    199  O   MET d   1      12.613 -13.405   1.705  0.00  0.00    -0.271 OA
ATOM    200  N   MET d   1      12.455 -11.173   1.500  0.00  0.00    -0.346 N 
ATOM    201 6H14 MET d   1      12.791 -10.355   1.033  0.00  0.00     0.163 HD
BRANCH 200 202
ATOM    202  CA  MET d   1      11.399 -11.031   2.500  0.00  0.00     0.098 C 
ATOM    203 7H14 MET d   1      11.625 -11.693   3.349  0.00  0.00     0.088 H 
BRANCH 202 204
ATOM    204  C   MET d   1      10.048 -11.435   1.916  0.00  0.00     0.241 C 
ATOM    205  O   MET d   1       9.860 -11.408   0.700  0.00  0.00    -0.271 OA
ATOM    206  N   MET d   1       9.125 -11.845   2.777  0.00  0.00    -0.343 N 
ATOM    207 0H15 MET d   1       9.348 -11.884   3.751  0.00  0.00     0.163 HD
BRANCH 206 208
ATOM    208  CA  MET d   1       7.792 -12.240   2.335  0.00  0.00     0.121 C 
ATOM    209 1H15 MET d   1       7.888 -12.714   1.347  0.00  0.00     0.093 H 
BRANCH 208 210
ATOM    210  CB  MET d   1       7.145 -13.251   3.300  0.00  0.00     0.077 C 
ATOM    211 2H15 MET d   1       6.091 -12.971   3.446  0.00  0.00     0.087 H 
BRANCH 210 212
ATOM    212  CG2 MET d   1       7.202 -14.658   2.721  0.00  0.00    -0.049 C 
ATOM    213 3H15 MET d   1       6.736 -15.363   3.425  0.00  0.00     0.031 H 
ATOM    214 4H15 MET d   1       8.251 -14.944   2.556  0.00  0.00     0.031 H 
ATOM    215 5H15 MET d   1       6.660 -14.683   1.764  0.00  0.00     0.031 H 
ENDBRANCH 210 212
BRANCH 210 216
ATOM    216  OG1 MET d   1       7.812 -13.228   4.574  0.00  0.00    -0.275 OA
BRANCH 216 217
ATOM    217  P   MET d   1       7.180 -12.433   5.811  0.00  0.00     0.422 P 
ATOM    218  O1P MET d   1       6.048 -11.551   5.482  0.00  0.00    -0.617 OA
ATOM    219  O2P MET d   1       8.183 -11.800   6.672  0.00  0.00    -0.617 OA
ATOM    220  O3P MET d   1       6.517 -13.545   6.743  0.00  0.00    -0.617 OA
ENDBRANCH 216 217
ENDBRANCH 210 216
ENDBRANCH 208 210
BRANCH 208 221
ATOM    221  C   MET d   1       6.878 -11.028   2.205  0.00  0.00     0.199 C 
ATOM    222  O   MET d   1       6.163 -10.882   1.214  0.00  0.00    -0.646 OA
ATOM    223  OXT MET d   1       6.838 -10.172   3.089  0.00  0.00    -0.646 OA
ENDBRANCH 208 221
ENDBRANCH 206 208
ENDBRANCH 202 204
BRANCH 202 224
ATOM    224  CB  MET d   1      11.356  -9.585   3.002  0.00  0.00     0.043 C 
ATOM    225 8H14 MET d   1      10.990  -8.943   2.187  0.00  0.00     0.052 H 
ATOM    226 9H14 MET d   1      12.376  -9.280   3.278  0.00  0.00     0.052 H 
BRANCH 224 227
ATOM    227  CG  MET d   1      10.456  -9.397   4.204  0.00  0.00     0.175 C 
ATOM    228  OD1 MET d   1       9.427  -8.697   4.072  0.00  0.00    -0.648 OA
ATOM    229  OD2 MET d   1      10.777  -9.939   5.280  0.00  0.00    -0.648 OA
ENDBRANCH 224 227
ENDBRANCH 202 224
ENDBRANCH 200 202
ENDBRANCH 196 198
BRANCH 196 230
ATOM    230  CB  MET d   1      15.025 -11.143   0.393  0.00  0.00    -0.029 C 
ATOM    231 2H14 MET d   1      15.295 -11.141   1.459  0.00  0.00     0.037 H 
ATOM    232 3H14 MET d   1      14.486 -10.216   0.149  0.00  0.00     0.037 H 
BRANCH 230 233
ATOM    233  CG  MET d   1      16.306 -11.181  -0.424  0.00  0.00     0.018 C 
ATOM    234 4H14 MET d   1      16.455 -10.198  -0.894  0.00  0.00     0.049 H 
ATOM    235 5H14 MET d   1      16.205 -11.950  -1.204  0.00  0.00     0.049 H 
BRANCH 233 236
ATOM    236  CD  MET d   1      17.520 -11.504   0.423  0.00  0.00     0.172 C 
ATOM    237  OE1 MET d   1      17.567 -12.612   0.998  0.00  0.00    -0.648 OA
ATOM    238  OE2 MET d   1      18.429 -10.649   0.517  0.00  0.00    -0.648 OA
ENDBRANCH 233 236
ENDBRANCH 230 233
ENDBRANCH 196 230
ENDBRANCH 194 196
ENDBRANCH 190 192
BRANCH 190 239
ATOM    239  CB  MET d   1      13.549 -13.005  -4.135  0.00  0.00     0.043 C 
ATOM    240 8H13 MET d   1      14.379 -12.467  -3.652  0.00  0.00     0.052 H 
ATOM    241 9H13 MET d   1      13.249 -12.472  -5.049  0.00  0.00     0.052 H 
BRANCH 239 242
ATOM    242  CG  MET d   1      14.026 -14.397  -4.516  0.00  0.00     0.175 C 
ATOM    243  OD1 MET d   1      14.177 -14.669  -5.728  0.00  0.00    -0.648 OA
ATOM    244  OD2 MET d   1      14.255 -15.229  -3.608  0.00  0.00    -0.648 OA
ENDBRANCH 239 242
ENDBRANCH 190 239
ENDBRANCH 188 190
ENDBRANCH 184 186
BRANCH 184 245
ATOM    245  CB  MET d   1      10.951  -9.040  -4.076  0.00  0.00    -0.030 C 
ATOM    246 0H13 MET d   1      11.886  -9.307  -4.590  0.00  0.00     0.037 H 
ATOM    247 1H13 MET d   1      11.158  -8.855  -3.012  0.00  0.00     0.037 H 
BRANCH 245 248
ATOM    248  CG  MET d   1      10.411  -7.758  -4.692  0.00  0.00     0.011 C 
ATOM    249 2H13 MET d   1      10.914  -6.901  -4.220  0.00  0.00     0.047 H 
ATOM    250 3H13 MET d   1       9.330  -7.701  -4.497  0.00  0.00     0.047 H 
BRANCH 248 251
ATOM    251  CD  MET d   1      10.639  -7.691  -6.192  0.00  0.00     0.215 C 
ATOM    252  OE1 MET d   1      10.701  -8.716  -6.873  0.00  0.00    -0.274 OA
ATOM    253  NE2 MET d   1      10.776  -6.486  -6.717  0.00  0.00    -0.370 N 
ATOM    254 4H13 MET d   1      10.928  -6.383  -7.700  0.00  0.00     0.159 HD
ATOM    255 5H13 MET d   1      10.727  -5.677  -6.131  0.00  0.00     0.159 HD
ENDBRANCH 248 251
ENDBRANCH 245 248
ENDBRANCH 184 245
ENDBRANCH 182 184
ENDBRANCH 178 180
BRANCH 178 256
ATOM    256  CB  MET d   1       5.544 -10.743  -2.251  0.00  0.00    -0.014 C 
ATOM    257 1H12 MET d   1       5.193 -10.322  -3.205  0.00  0.00     0.043 H 
ATOM    258 2H12 MET d   1       4.855 -10.450  -1.445  0.00  0.00     0.043 H 
BRANCH 256 259
ATOM    259  CG  MET d   1       5.522 -12.252  -2.365  0.00  0.00    -0.056 A 
ATOM    260  CD1 MET d   1       5.599 -13.055  -1.231  0.00  0.00    -0.074 A 
ATOM    261  CE1 MET d   1       5.549 -14.433  -1.327  0.00  0.00    -0.051 A 
ATOM    262 3H12 MET d   1       5.700 -12.592  -0.256  0.00  0.00     0.084 H 
ATOM    263  CZ  MET d   1       5.422 -15.025  -2.566  0.00  0.00     0.065 A 
ATOM    264 5H12 MET d   1       5.609 -15.044  -0.434  0.00  0.00     0.087 H 
ATOM    265  CE2 MET d   1       5.349 -14.252  -3.706  0.00  0.00    -0.051 A 
ATOM    266  CD2 MET d   1       5.394 -12.876  -3.602  0.00  0.00    -0.074 A 
ATOM    267 6H12 MET d   1       5.257 -14.722  -4.678  0.00  0.00     0.087 H 
ATOM    268 4H12 MET d   1       5.329 -12.271  -4.499  0.00  0.00     0.084 H 
BRANCH 263 269
ATOM    269  OH  MET d   1       5.362 -16.397  -2.669  0.00  0.00    -0.361 OA
ATOM    270 7H12 MET d   1       5.425 -16.782  -1.803  0.00  0.00     0.217 HD
ENDBRANCH 263 269
ENDBRANCH 256 259
ENDBRANCH 178 256
ENDBRANCH 176 178
ENDBRANCH 172 174
BRANCH 172 271
ATOM    271  CB  MET d   1       6.422  -7.013   1.029  0.00  0.00    -0.036 C 
ATOM    272 8H10 MET d   1       6.600  -8.000   1.481  0.00  0.00     0.036 H 
ATOM    273 9H10 MET d   1       5.396  -6.970   0.635  0.00  0.00     0.036 H 
BRANCH 271 274
ATOM    274  CG  MET d   1       6.563  -5.957   2.115  0.00  0.00    -0.048 C 
ATOM    275 0H11 MET d   1       5.628  -5.382   2.179  0.00  0.00     0.035 H 
ATOM    276 1H11 MET d   1       7.391  -5.282   1.853  0.00  0.00     0.035 H 
BRANCH 274 277
ATOM    277  CD  MET d   1       6.849  -6.592   3.469  0.00  0.00     0.009 C 
ATOM    278 2H11 MET d   1       7.104  -5.799   4.187  0.00  0.00     0.064 H 
ATOM    279 3H11 MET d   1       7.700  -7.281   3.366  0.00  0.00     0.064 H 
BRANCH 277 280
ATOM    280  NE  MET d   1       5.700  -7.333   3.973  0.00  0.00    -0.227 N 
ATOM    281  CZ  MET d   1       5.775  -8.516   4.575  0.00  0.00     0.665 C 
ATOM    282  NH1 MET d   1       6.939  -9.125   4.753  0.00  0.00    -0.235 N 
ATOM    283  NH2 MET d   1       4.671  -9.104   4.991  0.00  0.00    -0.235 N 
ATOM    284 5H11 MET d   1       6.974 -10.041   5.222  0.00  0.00     0.174 HD
ATOM    285 6H11 MET d   1       7.808  -8.682   4.422  0.00  0.00     0.174 HD
ATOM    286 7H11 MET d   1       3.760  -8.642   4.859  0.00  0.00     0.174 HD
ATOM    287 8H11 MET d   1       4.719 -10.026   5.448  0.00  0.00     0.174 HD
ATOM    288 4H11 MET d   1       4.767  -6.912   3.855  0.00  0.00     0.177 HD
ENDBRANCH 277 280
ENDBRANCH 274 277
ENDBRANCH 271 274
ENDBRANCH 172 271
ENDBRANCH 170 172
ENDBRANCH 166 168
BRANCH 166 289
ATOM    289  CB  MET d   1       6.701  -2.946  -2.491  0.00  0.00    -0.014 C 
ATOM    290  H99 MET d   1       5.911  -2.948  -1.726  0.00  0.00     0.043 H 
ATOM    291 0H10 MET d   1       6.390  -2.317  -3.338  0.00  0.00     0.043 H 
BRANCH 289 292
ATOM    292  CG  MET d   1       7.947  -2.326  -1.878  0.00  0.00    -0.056 A 
ATOM    293  CD1 MET d   1       8.117  -2.288  -0.500  0.00  0.00    -0.074 A 
ATOM    294  CE1 MET d   1       9.236  -1.714   0.066  0.00  0.00    -0.051 A 
ATOM    295 1H10 MET d   1       7.356  -2.717   0.142  0.00  0.00     0.084 H 
ATOM    296  CZ  MET d   1      10.211  -1.165  -0.734  0.00  0.00     0.065 A 
ATOM    297 3H10 MET d   1       9.348  -1.695   1.144  0.00  0.00     0.087 H 
ATOM    298  CE2 MET d   1      10.073  -1.187  -2.111  0.00  0.00    -0.051 A 
ATOM    299  CD2 MET d   1       8.944  -1.764  -2.677  0.00  0.00    -0.074 A 
ATOM    300 4H10 MET d   1      10.841  -0.757  -2.743  0.00  0.00     0.087 H 
ATOM    301 2H10 MET d   1       8.835  -1.778  -3.755  0.00  0.00     0.084 H 
BRANCH 296 302
ATOM    302  OH  MET d   1      11.332  -0.595  -0.147  0.00  0.00    -0.361 OA
ATOM    303 5H10 MET d   1      11.264  -0.666   0.798  0.00  0.00     0.217 HD
ENDBRANCH 296 302
ENDBRANCH 289 292
ENDBRANCH 166 289
ENDBRANCH 164 166
ENDBRANCH   1 162
BRANCH   1 304
ATOM    304  CB  MET d   1       3.335  -5.763  -5.584  0.00  0.00    -0.038 C 
ATOM    305  H86 MET d   1       3.504  -4.680  -5.489  0.00  0.00     0.036 H 
ATOM    306  H87 MET d   1       2.254  -5.968  -5.570  0.00  0.00     0.036 H 
BRANCH 304 307
ATOM    307  CG  MET d   1       3.895  -6.222  -6.924  0.00  0.00    -0.061 C 
ATOM    308  H88 MET d   1       3.060  -6.512  -7.579  0.00  0.00     0.033 H 
ATOM    309  H89 MET d   1       4.549  -7.091  -6.758  0.00  0.00     0.033 H 
BRANCH 307 310
ATOM    310  CD  MET d   1       4.697  -5.126  -7.606  0.00  0.00    -0.043 C 
ATOM    311  H90 MET d   1       5.265  -4.572  -6.844  0.00  0.00     0.035 H 
ATOM    312  H91 MET d   1       4.004  -4.441  -8.117  0.00  0.00     0.035 H 
BRANCH 310 313
ATOM    313  CE  MET d   1       5.668  -5.699  -8.626  0.00  0.00     0.080 C 
ATOM    314  H92 MET d   1       6.182  -4.870  -9.134  0.00  0.00     0.075 H 
ATOM    315  H93 MET d   1       5.104  -6.288  -9.364  0.00  0.00     0.075 H 
BRANCH 313 316
ATOM    316  NZ  MET d   1       6.683  -6.574  -7.986  0.00  0.00    -0.079 N 
ATOM    317  H94 MET d   1       7.308  -6.935  -8.690  0.00  0.00     0.274 HD
ATOM    318  H95 MET d   1       6.221  -7.340  -7.522  0.00  0.00     0.274 HD
ATOM    319  H96 MET d   1       7.209  -6.041  -7.312  0.00  0.00     0.274 HD
ENDBRANCH 313 316
ENDBRANCH 310 313
ENDBRANCH 307 310
ENDBRANCH 304 307
ENDBRANCH   1 304
TORSDOF 99
