REMARK  4 active torsions:
REMARK  status: ('A' for Active; 'I' for Inactive)
REMARK    1  A    between atoms: C2_1  and  C1_4 
REMARK    2  A    between atoms: C1_4  and  C8_7 
REMARK    3  A    between atoms: C5_5  and  C18_18 
REMARK    4  A    between atoms: C9_9  and  O17_17 
ROOT
ATOM      1  C1  6H1 d   1      41.473 -23.658  11.981  0.00  0.00    -0.014 C 
ATOM      2  H3  6H1 d   1      41.813 -24.234  11.108  0.00  0.00     0.047 H 
ATOM      3  H4  6H1 d   1      40.377 -23.570  11.958  0.00  0.00     0.047 H 
ENDROOT
BRANCH   1   4
ATOM      4  C2  6H1 d   1      42.068 -22.297  11.922  0.00  0.00    -0.054 A 
ATOM      5  C3  6H1 d   1      41.206 -21.226  11.853  0.00  0.00    -0.076 A 
ATOM      6  C4  6H1 d   1      41.684 -19.939  11.823  0.00  0.00    -0.068 A 
ATOM      7  H1  6H1 d   1      40.137 -21.401  11.822  0.00  0.00     0.084 H 
ATOM      8  C5  6H1 d   1      43.033 -19.743  11.877  0.00  0.00     0.047 A 
ATOM      9  H2  6H1 d   1      41.004 -19.097  11.758  0.00  0.00     0.084 H 
ATOM     10  C6  6H1 d   1      43.927 -20.811  11.937  0.00  0.00    -0.068 A 
ATOM     11  C7  6H1 d   1      43.439 -22.102  11.979  0.00  0.00    -0.076 A 
ATOM     12  H5  6H1 d   1      44.996 -20.630  11.951  0.00  0.00     0.084 H 
ATOM     13  H6  6H1 d   1      44.115 -22.946  12.055  0.00  0.00     0.084 H 
BRANCH   8  14
ATOM     14  C18 6H1 d   1      43.538 -18.384  11.827  0.00  0.00     0.417 C 
ATOM     15  F19 6H1 d   1      42.778 -17.548  12.511  0.00  0.00    -0.166 F 
ATOM     16  F20 6H1 d   1      43.533 -17.919  10.603  0.00  0.00    -0.166 F 
ATOM     17  F21 6H1 d   1      44.761 -18.316  12.309  0.00  0.00    -0.166 F 
ENDBRANCH   8  14
ENDBRANCH   1   4
BRANCH   1  18
ATOM     18  C8  6H1 d   1      41.878 -24.387  13.236  0.00  0.00    -0.018 A 
ATOM     19  C9  6H1 d   1      43.065 -25.141  13.303  0.00  0.00     0.075 A 
ATOM     20  C10 6H1 d   1      43.444 -25.821  14.467  0.00  0.00    -0.015 A 
ATOM     21  C11 6H1 d   1      42.635 -25.721  15.579  0.00  0.00     0.107 A 
ATOM     22  H7  6H1 d   1      44.352 -26.412  14.493  0.00  0.00     0.092 H 
ATOM     23  C12 6H1 d   1      41.497 -24.975  15.541  0.00  0.00     0.105 A 
ATOM     24  O15 6H1 d   1      42.809 -26.286  16.813  0.00  0.00    -0.323 OA
ATOM     25  C13 6H1 d   1      41.091 -24.289  14.384  0.00  0.00    -0.039 A 
ATOM     26  O14 6H1 d   1      40.847 -25.019  16.741  0.00  0.00    -0.323 OA
ATOM     27  H8  6H1 d   1      40.184 -23.695  14.383  0.00  0.00     0.088 H 
ATOM     28  C16 6H1 d   1      41.683 -25.876  17.578  0.00  0.00     0.115 A 
ATOM     29  H9  6H1 d   1      41.109 -26.758  17.897  0.00  0.00     0.118 H 
ATOM     30  H10 6H1 d   1      42.019 -25.317  18.464  0.00  0.00     0.118 H 
BRANCH  19  31
ATOM     31  O17 6H1 d   1      43.895 -25.257  12.227  0.00  0.00    -0.360 OA
ATOM     32  H11 6H1 d   1      43.541 -24.758  11.500  0.00  0.00     0.217 HD
ENDBRANCH  19  31
ENDBRANCH   1  18
TORSDOF 4
