REMARK  9 active torsions:
REMARK  status: ('A' for Active; 'I' for Inactive)
REMARK    1  A    between atoms: C13_2  and  N14_19 
REMARK    2  A    between atoms: N14_19  and  C15_5 
REMARK    3  A    between atoms: N21_22  and  C22_8 
REMARK    4  A    between atoms: C20_9  and  N21_22 
REMARK    5  A    between atoms: N02_11  and  C01_10 
REMARK    6  A    between atoms: N07_16  and  C08_17 
REMARK    7  A    between atoms: C27_27  and  N28_28 
REMARK       I    between atoms: N28_28  and  C29_29 
REMARK    8  A    between atoms: C29_29  and  C30_30 
REMARK    9  A    between atoms: C30_30  and  C31_31 
ROOT
ATOM      1  C18 6H3 d   1     -11.522 -48.060 -15.507  0.00  0.00     0.098 A 
ATOM      2  C17 6H3 d   1     -12.124 -46.845 -15.179  0.00  0.00     0.046 A 
ATOM      3  C15 6H3 d   1     -14.006 -47.497 -16.362  0.00  0.00     0.728 A 
ATOM      4  C20 6H3 d   1     -12.222 -48.988 -16.287  0.00  0.00     0.170 A 
ATOM      5  N16 6H3 d   1     -13.360 -46.610 -15.624  0.00  0.00    -0.073 NA
ATOM      6 CL19 6H3 d   1      -9.865 -48.396 -14.933  0.00  0.00    -0.079 Cl
ATOM      7  N33 6H3 d   1     -13.454 -48.677 -16.698  0.00  0.00    -0.043 NA
ATOM      8  H2  6H3 d   1     -11.601 -46.110 -14.578  0.00  0.00     0.118 H 
ENDROOT
BRANCH   3   9
ATOM      9  N14 6H3 d   1     -15.372 -47.113 -16.786  0.00  0.00    -0.188 N 
ATOM     10  H18 6H3 d   1     -15.742 -46.224 -16.419  0.00  0.00     0.184 HD
BRANCH   9  11
ATOM     11  C13 6H3 d   1     -16.258 -47.888 -17.690  0.00  0.00     0.049 A 
ATOM     12  C12 6H3 d   1     -15.774 -48.935 -18.474  0.00  0.00    -0.054 A 
ATOM     13  C11 6H3 d   1     -16.639 -49.634 -19.325  0.00  0.00    -0.055 A 
ATOM     14  H1  6H3 d   1     -14.726 -49.208 -18.424  0.00  0.00     0.087 H 
ATOM     15  C08 6H3 d   1     -17.977 -49.279 -19.387  0.00  0.00     0.030 A 
ATOM     16  H3  6H3 d   1     -16.264 -50.449 -19.933  0.00  0.00     0.087 H 
ATOM     17  C09 6H3 d   1     -18.467 -48.232 -18.610  0.00  0.00    -0.055 A 
ATOM     18  C10 6H3 d   1     -17.599 -47.539 -17.759  0.00  0.00    -0.054 A 
ATOM     19  H17 6H3 d   1     -19.514 -47.956 -18.664  0.00  0.00     0.087 H 
ATOM     20  H4  6H3 d   1     -17.976 -46.725 -17.150  0.00  0.00     0.087 H 
BRANCH  15  21
ATOM     21  N07 6H3 d   1     -18.897 -50.009 -20.267  0.00  0.00    -0.378 N 
ATOM     22  C04 6H3 d   1     -20.313 -49.690 -20.251  0.00  0.00     0.018 C 
ATOM     23  C03 6H3 d   1     -21.055 -50.245 -21.469  0.00  0.00     0.098 C 
ATOM     24  H11 6H3 d   1     -20.760 -50.117 -19.341  0.00  0.00     0.066 H 
ATOM     25  H12 6H3 d   1     -20.427 -48.596 -20.237  0.00  0.00     0.066 H 
ATOM     26  N02 6H3 d   1     -20.854 -51.591 -21.647  0.00  0.00    -0.072 N 
ATOM     27  H9  6H3 d   1     -22.132 -50.065 -21.336  0.00  0.00     0.078 H 
ATOM     28  H10 6H3 d   1     -20.703 -49.715 -22.366  0.00  0.00     0.078 H 
ATOM     29  C05 6H3 d   1     -19.528 -51.951 -21.657  0.00  0.00     0.098 C 
ATOM     30  H8  6H3 d   1     -21.300 -52.075 -20.884  0.00  0.00     0.279 HD
ATOM     31  C06 6H3 d   1     -18.780 -51.451 -20.424  0.00  0.00     0.018 C 
ATOM     32  H13 6H3 d   1     -19.053 -51.527 -22.554  0.00  0.00     0.078 H 
ATOM     33  H14 6H3 d   1     -19.460 -53.048 -21.690  0.00  0.00     0.078 H 
ATOM     34  H15 6H3 d   1     -17.716 -51.713 -20.523  0.00  0.00     0.066 H 
ATOM     35  H16 6H3 d   1     -19.197 -51.941 -19.532  0.00  0.00     0.066 H 
BRANCH  26  36
ATOM     36  C01 6H3 d   1     -21.403 -51.960 -22.746  0.00  0.00     0.066 C 
ATOM     37  H5  6H3 d   1     -22.465 -51.673 -22.740  0.00  0.00     0.068 H 
ATOM     38  H6  6H3 d   1     -21.319 -53.052 -22.849  0.00  0.00     0.068 H 
ATOM     39  H7  6H3 d   1     -20.896 -51.472 -23.591  0.00  0.00     0.068 H 
ENDBRANCH  26  36
ENDBRANCH  15  21
ENDBRANCH   9  11
ENDBRANCH   3   9
BRANCH   4  40
ATOM     40  N21 6H3 d   1     -11.586 -50.271 -16.652  0.00  0.00    -0.337 N 
ATOM     41  H19 6H3 d   1     -10.698 -50.541 -16.205  0.00  0.00     0.167 HD
BRANCH  40  42
ATOM     42  C22 6H3 d   1     -12.192 -51.159 -17.631  0.00  0.00     0.060 A 
ATOM     43  C23 6H3 d   1     -13.494 -51.590 -17.454  0.00  0.00    -0.055 A 
ATOM     44  C24 6H3 d   1     -14.084 -52.441 -18.380  0.00  0.00    -0.081 A 
ATOM     45  H20 6H3 d   1     -14.057 -51.262 -16.588  0.00  0.00     0.087 H 
ATOM     46  C25 6H3 d   1     -13.362 -52.862 -19.496  0.00  0.00    -0.081 A 
ATOM     47  H21 6H3 d   1     -15.104 -52.777 -18.235  0.00  0.00     0.083 H 
ATOM     48  C26 6H3 d   1     -12.058 -52.430 -19.679  0.00  0.00    -0.055 A 
ATOM     49  H22 6H3 d   1     -13.820 -53.526 -20.220  0.00  0.00     0.083 H 
ATOM     50  C27 6H3 d   1     -11.465 -51.586 -18.758  0.00  0.00     0.061 A 
ATOM     51  H23 6H3 d   1     -11.500 -52.756 -20.549  0.00  0.00     0.087 H 
BRANCH  50  52
ATOM     52  N28 6H3 d   1     -10.070 -51.150 -18.998  0.00  0.00    -0.325 N 
ATOM     53  C29 6H3 d   1      -8.970 -51.467 -18.056  0.00  0.00     0.221 C 
ATOM     54  O32 6H3 d   1      -9.187 -52.078 -17.065  0.00  0.00    -0.273 OA
ATOM     55  H24 6H3 d   1      -9.863 -50.624 -19.823  0.00  0.00     0.169 HD
BRANCH  53  56
ATOM     56  C30 6H3 d   1      -7.531 -50.992 -18.372  0.00  0.00     0.006 C 
ATOM     57  H25 6H3 d   1      -7.543 -50.459 -19.334  0.00  0.00     0.046 H 
ATOM     58  H26 6H3 d   1      -6.881 -51.876 -18.450  0.00  0.00     0.046 H 
BRANCH  56  59
ATOM     59  C31 6H3 d   1      -6.952 -50.056 -17.305  0.00  0.00    -0.068 C 
ATOM     60  H27 6H3 d   1      -5.933 -49.759 -17.592  0.00  0.00     0.028 H 
ATOM     61  H28 6H3 d   1      -6.923 -50.577 -16.337  0.00  0.00     0.028 H 
ATOM     62  H29 6H3 d   1      -7.585 -49.160 -17.221  0.00  0.00     0.028 H 
ENDBRANCH  56  59
ENDBRANCH  53  56
ENDBRANCH  50  52
ENDBRANCH  40  42
ENDBRANCH   4  40
TORSDOF 9
