REMARK  14 active torsions:
REMARK  status: ('A' for Active; 'I' for Inactive)
REMARK    1  A    between atoms: CBA_1  and  CBB_2 
REMARK    2  A    between atoms: CBB_2  and  CBK_3 
REMARK       I    between atoms: CBK_3  and  NBF_5 
REMARK    3  A    between atoms: NBF_5  and  CBS_6 
REMARK    4  A    between atoms: CBV_8  and  CBM_9 
REMARK       I    between atoms: CBM_9  and  NBZ_11 
REMARK    5  A    between atoms: CBO_19  and  NBH_20 
REMARK    6  A    between atoms: NBH_20  and  CBU_21 
REMARK    7  A    between atoms: NCA_25  and  CAB_26 
REMARK    8  A    between atoms: CBN_30  and  CAA_31 
REMARK    9  A    between atoms: CBR_35  and  NBG_36 
REMARK       I    between atoms: NBG_36  and  CBL_37 
REMARK   10  A    between atoms: CBL_37  and  CBP_39 
REMARK   11  A    between atoms: CBT_42  and  CCB_43 
REMARK   12  A    between atoms: CCB_43  and  CAD_44 
REMARK   13  A    between atoms: CCB_43  and  CAE_45 
REMARK   14  A    between atoms: CCB_43  and  CAC_46 
ROOT
ATOM      1  CBU N42 d   1      26.649 -28.291  95.716  0.00  0.00     0.125 A 
ATOM      2  CAW N42 d   1      27.803 -28.387  96.515  0.00  0.00    -0.041 A 
ATOM      3  CBX N42 d   1      26.723 -27.594  94.521  0.00  0.00     0.272 A 
ATOM      4  OAK N42 d   1      25.735 -27.502  93.807  0.00  0.00    -0.266 OA
ATOM      5  NCA N42 d   1      27.866 -27.031  94.133  0.00  0.00    -0.347 N 
ATOM      6  CAX N42 d   1      29.017 -27.098  94.905  0.00  0.00     0.022 A 
ATOM      7  CBQ N42 d   1      29.019 -27.781  96.107  0.00  0.00    -0.027 A 
ATOM      8  CBW N42 d   1      30.208 -27.861  96.881  0.00  0.00    -0.020 A 
ATOM      9  CBN N42 d   1      31.499 -28.094  96.360  0.00  0.00    -0.024 A 
ATOM     10  CAR N42 d   1      30.084 -27.735  98.253  0.00  0.00    -0.072 A 
ATOM     11  CAM N42 d   1      31.197 -27.834  99.069  0.00  0.00    -0.080 A 
ATOM     12  CAN N42 d   1      32.461 -28.051  98.561  0.00  0.00    -0.057 A 
ATOM     13  CBR N42 d   1      32.631 -28.164  97.198  0.00  0.00     0.041 A 
ATOM     14  H18 N42 d   1      27.762 -28.932  97.457  0.00  0.00     0.088 H 
ATOM     15  H22 N42 d   1      29.305 -26.061  95.132  0.00  0.00     0.071 H 
ATOM     16  H23 N42 d   1      29.791 -27.564  94.277  0.00  0.00     0.071 H 
ATOM     17  H27 N42 d   1      29.109 -27.558  98.692  0.00  0.00     0.084 H 
ATOM     18  H28 N42 d   1      31.072 -27.738 100.141  0.00  0.00     0.083 H 
ATOM     19  H29 N42 d   1      33.312 -28.132  99.227  0.00  0.00     0.086 H 
ENDROOT
BRANCH   1  20
ATOM     20  NBH N42 d   1      25.414 -28.796  95.936  0.00  0.00    -0.243 NA
BRANCH  20  21
ATOM     21  CBO N42 d   1      25.038 -29.582  96.970  0.00  0.00     0.059 A 
ATOM     22  CAV N42 d   1      25.889 -30.426  97.668  0.00  0.00    -0.028 A 
ATOM     23  CBS N42 d   1      25.409 -31.211  98.718  0.00  0.00     0.052 A 
ATOM     24  H7  N42 d   1      26.937 -30.477  97.396  0.00  0.00     0.090 H 
ATOM     25  CBV N42 d   1      24.066 -31.187  99.095  0.00  0.00     0.059 A 
ATOM     26  CAU N42 d   1      23.215 -30.341  98.401  0.00  0.00    -0.063 A 
ATOM     27  CAO N42 d   1      23.707 -29.566  97.356  0.00  0.00    -0.054 A 
ATOM     28  H16 N42 d   1      22.167 -30.284  98.672  0.00  0.00     0.085 H 
ATOM     29  H17 N42 d   1      23.020 -28.922  96.820  0.00  0.00     0.087 H 
BRANCH  23  30
ATOM     30  NBF N42 d   1      26.276 -31.990  99.366  0.00  0.00    -0.326 N 
ATOM     31  CBK N42 d   1      26.104 -33.294  99.596  0.00  0.00     0.221 C 
ATOM     32  OAH N42 d   1      25.130 -33.972  99.304  0.00  0.00    -0.273 OA
ATOM     33  H6  N42 d   1      27.116 -31.567  99.704  0.00  0.00     0.169 HD
BRANCH  31  34
ATOM     34  CBB N42 d   1      27.328 -33.935 100.229  0.00  0.00     0.006 C 
ATOM     35  H4  N42 d   1      27.674 -33.340 101.087  0.00  0.00     0.046 H 
ATOM     36  H5  N42 d   1      27.100 -34.959 100.560  0.00  0.00     0.046 H 
BRANCH  34  37
ATOM     37  CBA N42 d   1      28.393 -33.952  99.119  0.00  0.00    -0.068 C 
ATOM     38  H1  N42 d   1      29.318 -34.406  99.505  0.00  0.00     0.028 H 
ATOM     39  H2  N42 d   1      28.599 -32.922  98.793  0.00  0.00     0.028 H 
ATOM     40  H3  N42 d   1      28.024 -34.540  98.266  0.00  0.00     0.028 H 
ENDBRANCH  34  37
ENDBRANCH  31  34
ENDBRANCH  23  30
BRANCH  25  41
ATOM     41  CBM N42 d   1      23.581 -31.933 100.174  0.00  0.00     0.256 C 
ATOM     42  OAJ N42 d   1      24.160 -31.782 101.248  0.00  0.00    -0.267 OA
ATOM     43  NBZ N42 d   1      22.491 -32.714 100.082  0.00  0.00    -0.344 N 
ATOM     44  CBC N42 d   1      22.045 -33.425 101.301  0.00  0.00     0.018 C 
ATOM     45  CBD N42 d   1      21.747 -32.898  98.830  0.00  0.00     0.018 C 
ATOM     46  CAY N42 d   1      20.581 -33.634 101.302  0.00  0.00     0.034 C 
ATOM     47  H8  N42 d   1      22.322 -32.829 102.183  0.00  0.00     0.067 H 
ATOM     48  H9  N42 d   1      22.546 -34.403 101.347  0.00  0.00     0.067 H 
ATOM     49  OBI N42 d   1      20.212 -34.284 100.098  0.00  0.00    -0.388 OA
ATOM     50  H10 N42 d   1      20.069 -32.663 101.370  0.00  0.00     0.076 H 
ATOM     51  H11 N42 d   1      20.297 -34.259 102.162  0.00  0.00     0.076 H 
ATOM     52  CAZ N42 d   1      20.309 -33.341  99.044  0.00  0.00     0.034 C 
ATOM     53  H12 N42 d   1      19.696 -32.462  99.292  0.00  0.00     0.076 H 
ATOM     54  H13 N42 d   1      19.934 -33.800  98.117  0.00  0.00     0.076 H 
ATOM     55  H14 N42 d   1      22.261 -33.661  98.227  0.00  0.00     0.067 H 
ATOM     56  H15 N42 d   1      21.740 -31.943  98.284  0.00  0.00     0.067 H 
ENDBRANCH  25  41
ENDBRANCH  20  21
ENDBRANCH   1  20
BRANCH   5  57
ATOM     57  CAB N42 d   1      27.897 -26.299  92.860  0.00  0.00    -0.015 C 
ATOM     58  H19 N42 d   1      28.908 -25.900  92.691  0.00  0.00     0.056 H 
ATOM     59  H20 N42 d   1      27.177 -25.469  92.897  0.00  0.00     0.056 H 
ATOM     60  H21 N42 d   1      27.630 -26.980  92.039  0.00  0.00     0.056 H 
ENDBRANCH   5  57
BRANCH   9  61
ATOM     61  CAA N42 d   1      31.681 -28.242  95.002  0.00  0.00    -0.048 C 
ATOM     62  H24 N42 d   1      30.710 -28.163  94.491  0.00  0.00     0.033 H 
ATOM     63  H25 N42 d   1      32.124 -29.228  94.797  0.00  0.00     0.033 H 
ATOM     64  H26 N42 d   1      32.354 -27.454  94.634  0.00  0.00     0.033 H 
ENDBRANCH   9  61
BRANCH  13  65
ATOM     65  NBG N42 d   1      33.850 -28.405  96.648  0.00  0.00    -0.322 N 
ATOM     66  CBL N42 d   1      34.677 -27.398  96.244  0.00  0.00     0.256 C 
ATOM     67  OAI N42 d   1      34.408 -26.210  96.306  0.00  0.00    -0.267 OA
ATOM     68  H30 N42 d   1      34.151 -29.352  96.536  0.00  0.00     0.169 HD
BRANCH  66  69
ATOM     69  CBP N42 d   1      35.874 -27.783  95.633  0.00  0.00     0.032 A 
ATOM     70  CAP N42 d   1      36.891 -26.862  95.401  0.00  0.00    -0.067 A 
ATOM     71  CAS N42 d   1      38.085 -27.209  94.784  0.00  0.00    -0.075 A 
ATOM     72  H31 N42 d   1      36.745 -25.834  95.714  0.00  0.00     0.085 H 
ATOM     73  CBT N42 d   1      38.277 -28.516  94.361  0.00  0.00    -0.051 A 
ATOM     74  H32 N42 d   1      38.860 -26.466  94.634  0.00  0.00     0.084 H 
ATOM     75  CAT N42 d   1      37.267 -29.433  94.586  0.00  0.00    -0.075 A 
ATOM     76  CAQ N42 d   1      36.074 -29.083  95.206  0.00  0.00    -0.067 A 
ATOM     77  H42 N42 d   1      37.411 -30.459  94.268  0.00  0.00     0.084 H 
ATOM     78  H43 N42 d   1      35.301 -29.828  95.355  0.00  0.00     0.085 H 
BRANCH  73  79
ATOM     79  CCB N42 d   1      39.471 -28.899  93.748  0.00  0.00    -0.024 C 
BRANCH  79  80
ATOM     80  CAD N42 d   1      39.198 -29.858  92.601  0.00  0.00    -0.066 C 
ATOM     81  H33 N42 d   1      40.149 -30.148  92.131  0.00  0.00     0.028 H 
ATOM     82  H34 N42 d   1      38.556 -29.365  91.856  0.00  0.00     0.028 H 
ATOM     83  H35 N42 d   1      38.691 -30.755  92.986  0.00  0.00     0.028 H 
ENDBRANCH  79  80
BRANCH  79  84
ATOM     84  CAE N42 d   1      40.348 -29.599  94.770  0.00  0.00    -0.066 C 
ATOM     85  H36 N42 d   1      40.553 -28.915  95.607  0.00  0.00     0.028 H 
ATOM     86  H37 N42 d   1      41.296 -29.896  94.298  0.00  0.00     0.028 H 
ATOM     87  H38 N42 d   1      39.830 -30.493  95.146  0.00  0.00     0.028 H 
ENDBRANCH  79  84
BRANCH  79  88
ATOM     88  CAC N42 d   1      40.226 -27.688  93.216  0.00  0.00    -0.066 C 
ATOM     89  H39 N42 d   1      39.605 -27.167  92.472  0.00  0.00     0.028 H 
ATOM     90  H40 N42 d   1      41.163 -28.018  92.744  0.00  0.00     0.028 H 
ATOM     91  H41 N42 d   1      40.455 -27.004  94.047  0.00  0.00     0.028 H 
ENDBRANCH  79  88
ENDBRANCH  73  79
ENDBRANCH  66  69
ENDBRANCH  13  65
TORSDOF 14
