REMARK  9 active torsions:
REMARK  status: ('A' for Active; 'I' for Inactive)
REMARK    1  A    between atoms: C13_4  and  N14_18 
REMARK    2  A    between atoms: N14_18  and  C15_5 
REMARK    3  A    between atoms: C20_8  and  O21_21 
REMARK    4  A    between atoms: N02_10  and  C01_9 
REMARK    5  A    between atoms: N07_15  and  C08_16 
REMARK    6  A    between atoms: O21_21  and  C22_22 
REMARK    7  A    between atoms: C27_27  and  N28_28 
REMARK       I    between atoms: N28_28  and  C29_29 
REMARK    8  A    between atoms: C29_29  and  C30_30 
REMARK    9  A    between atoms: C30_30  and  C31_31 
ROOT
ATOM      1  N14 6H4 d   1     -15.875 -47.251 -16.734  0.00  0.00    -0.188 N 
ATOM      2  H18 6H4 d   1     -16.233 -46.312 -16.506  0.00  0.00     0.184 HD
ENDROOT
BRANCH   1   3
ATOM      3  C13 6H4 d   1     -16.738 -48.122 -17.564  0.00  0.00     0.049 A 
ATOM      4  C10 6H4 d   1     -16.212 -49.190 -18.272  0.00  0.00    -0.054 A 
ATOM      5  C09 6H4 d   1     -17.061 -50.003 -19.064  0.00  0.00    -0.055 A 
ATOM      6  H1  6H4 d   1     -15.151 -49.404 -18.220  0.00  0.00     0.087 H 
ATOM      7  C08 6H4 d   1     -18.412 -49.730 -19.136  0.00  0.00     0.030 A 
ATOM      8  H17 6H4 d   1     -16.648 -50.841 -19.614  0.00  0.00     0.087 H 
ATOM      9  C11 6H4 d   1     -18.953 -48.643 -18.430  0.00  0.00    -0.055 A 
ATOM     10  C12 6H4 d   1     -18.111 -47.840 -17.645  0.00  0.00    -0.054 A 
ATOM     11  H2  6H4 d   1     -20.013 -48.426 -18.491  0.00  0.00     0.087 H 
ATOM     12  H3  6H4 d   1     -18.522 -46.999 -17.099  0.00  0.00     0.087 H 
BRANCH   7  13
ATOM     13  N07 6H4 d   1     -19.283 -50.611 -19.989  0.00  0.00    -0.378 N 
ATOM     14  C04 6H4 d   1     -20.675 -50.254 -20.255  0.00  0.00     0.018 C 
ATOM     15  C03 6H4 d   1     -21.334 -51.073 -21.391  0.00  0.00     0.098 C 
ATOM     16  H11 6H4 d   1     -21.254 -50.414 -19.334  0.00  0.00     0.066 H 
ATOM     17  H12 6H4 d   1     -20.712 -49.190 -20.531  0.00  0.00     0.066 H 
ATOM     18  N02 6H4 d   1     -20.869 -52.347 -21.418  0.00  0.00    -0.072 N 
ATOM     19  H9  6H4 d   1     -22.422 -51.093 -21.233  0.00  0.00     0.078 H 
ATOM     20  H10 6H4 d   1     -21.112 -50.591 -22.355  0.00  0.00     0.078 H 
ATOM     21  C05 6H4 d   1     -19.538 -52.384 -21.802  0.00  0.00     0.098 C 
ATOM     22  H8  6H4 d   1     -20.949 -52.739 -20.493  0.00  0.00     0.279 HD
ATOM     23  C06 6H4 d   1     -18.680 -51.300 -21.126  0.00  0.00     0.018 C 
ATOM     24  H13 6H4 d   1     -19.485 -52.242 -22.892  0.00  0.00     0.078 H 
ATOM     25  H14 6H4 d   1     -19.126 -53.370 -21.540  0.00  0.00     0.078 H 
ATOM     26  H15 6H4 d   1     -18.438 -50.543 -21.886  0.00  0.00     0.066 H 
ATOM     27  H16 6H4 d   1     -17.753 -51.777 -20.775  0.00  0.00     0.066 H 
BRANCH  18  28
ATOM     28  C01 6H4 d   1     -21.571 -53.052 -22.231  0.00  0.00     0.066 C 
ATOM     29  H5  6H4 d   1     -22.627 -53.022 -21.925  0.00  0.00     0.068 H 
ATOM     30  H6  6H4 d   1     -21.215 -54.093 -22.216  0.00  0.00     0.068 H 
ATOM     31  H7  6H4 d   1     -21.472 -52.645 -23.248  0.00  0.00     0.068 H 
ENDBRANCH  18  28
ENDBRANCH   7  13
ENDBRANCH   1   3
BRANCH   1  32
ATOM     32  C15 6H4 d   1     -14.583 -47.604 -16.221  0.00  0.00     0.729 A 
ATOM     33  N16 6H4 d   1     -13.900 -46.634 -15.614  0.00  0.00    -0.073 NA
ATOM     34  C17 6H4 d   1     -12.705 -46.833 -15.103  0.00  0.00     0.046 A 
ATOM     35  C18 6H4 d   1     -12.167 -48.088 -15.207  0.00  0.00     0.105 A 
ATOM     36  H4  6H4 d   1     -12.164 -46.030 -14.616  0.00  0.00     0.118 H 
ATOM     37  C20 6H4 d   1     -12.904 -49.102 -15.852  0.00  0.00     0.212 A 
ATOM     38 CL19 6H4 d   1     -10.553 -48.426 -14.535  0.00  0.00    -0.078 Cl
ATOM     39  N33 6H4 d   1     -14.096 -48.818 -16.336  0.00  0.00    -0.036 NA
BRANCH  37  40
ATOM     40  O21 6H4 d   1     -12.340 -50.393 -15.947  0.00  0.00    -0.288 OA
BRANCH  40  41
ATOM     41  C22 6H4 d   1     -12.746 -51.124 -17.089  0.00  0.00     0.104 A 
ATOM     42  C23 6H4 d   1     -13.908 -51.869 -17.066  0.00  0.00    -0.048 A 
ATOM     43  C24 6H4 d   1     -14.295 -52.616 -18.222  0.00  0.00    -0.080 A 
ATOM     44  H19 6H4 d   1     -14.525 -51.888 -16.175  0.00  0.00     0.087 H 
ATOM     45  C25 6H4 d   1     -13.489 -52.609 -19.393  0.00  0.00    -0.081 A 
ATOM     46  H20 6H4 d   1     -15.212 -53.194 -18.205  0.00  0.00     0.083 H 
ATOM     47  C26 6H4 d   1     -12.311 -51.868 -19.414  0.00  0.00    -0.054 A 
ATOM     48  H21 6H4 d   1     -13.790 -53.178 -20.265  0.00  0.00     0.083 H 
ATOM     49  C27 6H4 d   1     -11.927 -51.129 -18.269  0.00  0.00     0.069 A 
ATOM     50  H22 6H4 d   1     -11.691 -51.857 -20.303  0.00  0.00     0.087 H 
BRANCH  49  51
ATOM     51  N28 6H4 d   1     -10.691 -50.362 -18.304  0.00  0.00    -0.325 N 
ATOM     52  C29 6H4 d   1      -9.439 -51.004 -18.660  0.00  0.00     0.221 C 
ATOM     53  O32 6H4 d   1      -9.377 -52.144 -18.927  0.00  0.00    -0.273 OA
ATOM     54  H23 6H4 d   1     -10.704 -49.387 -18.081  0.00  0.00     0.169 HD
BRANCH  52  55
ATOM     55  C30 6H4 d   1      -8.191 -50.145 -18.667  0.00  0.00     0.006 C 
ATOM     56  H24 6H4 d   1      -7.962 -49.827 -19.695  0.00  0.00     0.046 H 
ATOM     57  H25 6H4 d   1      -7.342 -50.715 -18.261  0.00  0.00     0.046 H 
BRANCH  55  58
ATOM     58  C31 6H4 d   1      -8.472 -48.864 -17.752  0.00  0.00    -0.068 C 
ATOM     59  H26 6H4 d   1      -7.580 -48.220 -17.738  0.00  0.00     0.028 H 
ATOM     60  H27 6H4 d   1      -8.705 -49.189 -16.727  0.00  0.00     0.028 H 
ATOM     61  H28 6H4 d   1      -9.324 -48.301 -18.161  0.00  0.00     0.028 H 
ENDBRANCH  55  58
ENDBRANCH  52  55
ENDBRANCH  49  51
ENDBRANCH  40  41
ENDBRANCH  37  40
ENDBRANCH   1  32
TORSDOF 9
