REMARK  6 active torsions:
REMARK  status: ('A' for Active; 'I' for Inactive)
REMARK    1  A    between atoms: N01_1  and  C02_2 
REMARK    2  A    between atoms: C02_2  and  C03_3 
REMARK    3  A    between atoms: C06_6  and  C09_9 
REMARK       I    between atoms: C09_9  and  N11_11 
REMARK    4  A    between atoms: N11_11  and  C12_12 
REMARK    5  A    between atoms: B17_17  and  O18_18 
REMARK    6  A    between atoms: C20_19  and  C24_23 
ROOT
ATOM      1  C12 OK3 d   1      14.937   5.099 305.596  0.00  0.00     0.050 C 
ATOM      2  C13 OK3 d   1      14.465   6.167 306.544  0.00  0.00    -0.022 C 
ATOM      3  C14 OK3 d   1      15.712   6.756 307.265  0.00  0.00    -0.024 A 
ATOM      4  C15 OK3 d   1      16.875   6.894 306.528  0.00  0.00     0.075 A 
ATOM      5  O16 OK3 d   1      16.926   6.533 305.111  0.00  0.00    -0.386 OA
ATOM      6  B17 OK3 d   1      16.098   5.545 304.658  0.00  0.00     0.522 B 
ATOM      7  C20 OK3 d   1      18.044   7.426 307.135  0.00  0.00     0.073 A 
ATOM      8  C21 OK3 d   1      18.019   7.783 308.488  0.00  0.00    -0.064 A 
ATOM      9  C22 OK3 d   1      16.836   7.628 309.241  0.00  0.00    -0.081 A 
ATOM     10  C23 OK3 d   1      15.685   7.110 308.640  0.00  0.00    -0.074 A 
ATOM     11  H11 OK3 d   1      14.105   4.748 304.968  0.00  0.00     0.065 H 
ATOM     12  H13 OK3 d   1      13.777   5.732 307.284  0.00  0.00     0.042 H 
ATOM     13  H14 OK3 d   1      13.948   6.961 305.985  0.00  0.00     0.042 H 
ATOM     14  H18 OK3 d   1      18.911   8.180 308.959  0.00  0.00     0.085 H 
ATOM     15  H19 OK3 d   1      16.820   7.911 310.287  0.00  0.00     0.083 H 
ATOM     16  H20 OK3 d   1      14.778   6.979 309.219  0.00  0.00     0.084 H 
ENDROOT
BRANCH   1  17
ATOM     17  N11 OK3 d   1      15.443   3.988 306.460  0.00  0.00    -0.355 N 
ATOM     18  C09 OK3 d   1      14.492   3.115 307.186  0.00  0.00     0.251 C 
ATOM     19  O10 OK3 d   1      13.374   3.289 307.079  0.00  0.00    -0.268 OA
ATOM     20  H10 OK3 d   1      16.427   3.834 306.548  0.00  0.00     0.162 HD
BRANCH  18  21
ATOM     21  C06 OK3 d   1      15.030   1.949 308.105  0.00  0.00     0.032 A 
ATOM     22  C05 OK3 d   1      16.394   1.720 308.204  0.00  0.00    -0.067 A 
ATOM     23  C04 OK3 d   1      16.882   0.691 309.013  0.00  0.00    -0.074 A 
ATOM     24  H7  OK3 d   1      17.086   2.344 307.650  0.00  0.00     0.085 H 
ATOM     25  C03 OK3 d   1      16.008  -0.090 309.713  0.00  0.00    -0.033 A 
ATOM     26  H6  OK3 d   1      17.949   0.514 309.085  0.00  0.00     0.084 H 
ATOM     27  C08 OK3 d   1      14.629   0.139 309.622  0.00  0.00    -0.074 A 
ATOM     28  C07 OK3 d   1      14.148   1.157 308.820  0.00  0.00    -0.067 A 
ATOM     29  H9  OK3 d   1      13.939  -0.482 310.181  0.00  0.00     0.084 H 
ATOM     30  H8  OK3 d   1      13.081   1.335 308.751  0.00  0.00     0.085 H 
BRANCH  25  31
ATOM     31  C02 OK3 d   1      16.547  -1.224 310.608  0.00  0.00     0.103 C 
ATOM     32  H4  OK3 d   1      15.762  -1.980 310.756  0.00  0.00     0.082 H 
ATOM     33  H5  OK3 d   1      17.419  -1.690 310.126  0.00  0.00     0.082 H 
BRANCH  31  34
ATOM     34  N01 OK3 d   1      16.934  -0.680 311.876  0.00  0.00    -0.075 N 
ATOM     35  H1  OK3 d   1      17.287  -1.418 312.465  0.00  0.00     0.274 HD
ATOM     36  H2  OK3 d   1      16.134  -0.253 312.316  0.00  0.00     0.274 HD
ATOM     37  H3  OK3 d   1      17.653   0.013 311.739  0.00  0.00     0.274 HD
ENDBRANCH  31  34
ENDBRANCH  25  31
ENDBRANCH  18  21
ENDBRANCH   1  17
BRANCH   6  38
ATOM     38  O18 OK3 d   1      16.859   4.433 304.396  0.00  0.00    -0.436 OA
ATOM     39  H16 OK3 d   1      17.295   4.154 305.193  0.00  0.00     0.185 HD
ENDBRANCH   6  38
BRANCH   7  40
ATOM     40  C24 OK3 d   1      19.335   7.593 306.307  0.00  0.00     0.212 C 
ATOM     41  O25 OK3 d   1      19.721   8.737 305.947  0.00  0.00    -0.644 OA
ATOM     42  O26 OK3 d   1      20.011   6.574 305.986  0.00  0.00    -0.644 OA
ENDBRANCH   7  40
TORSDOF 6
