REMARK  11 active torsions:
REMARK  status: ('A' for Active; 'I' for Inactive)
REMARK    1  A    between atoms: C3_7  and  N3_8 
REMARK    2  A    between atoms: C7_19  and  C5_13 
REMARK    3  A    between atoms: N5_14  and  C8_20 
REMARK    4  A    between atoms: C9_21  and  N5_14 
REMARK       I    between atoms: N6_17  and  C15_27 
REMARK    5  A    between atoms: C16_28  and  N6_17 
REMARK    6  A    between atoms: C8_20  and  C7_19 
REMARK    7  A    between atoms: C15_27  and  C12_24 
REMARK    8  A    between atoms: C16_28  and  C17_29 
REMARK    9  A    between atoms: C18_30  and  C16_28 
REMARK   10  A    between atoms: C19_31  and  C18_30 
REMARK   11  A    between atoms: C19_31  and  C20_32 
ROOT
ATOM      1  C9  83A d   1      26.169 -13.183 -18.346  0.00  0.00     0.028 A 
ATOM      2  C10 83A d   1      24.834 -12.927 -18.009  0.00  0.00    -0.057 A 
ATOM      3  C11 83A d   1      24.537 -11.864 -17.162  0.00  0.00    -0.066 A 
ATOM      4  C12 83A d   1      25.589 -11.104 -16.657  0.00  0.00     0.032 A 
ATOM      5  C13 83A d   1      26.911 -11.376 -16.996  0.00  0.00    -0.066 A 
ATOM      6  C14 83A d   1      27.210 -12.429 -17.841  0.00  0.00    -0.057 A 
ATOM      7  H13 83A d   1      24.040 -13.551 -18.404  0.00  0.00     0.086 H 
ATOM      8  H14 83A d   1      23.511 -11.633 -16.901  0.00  0.00     0.085 H 
ATOM      9  H15 83A d   1      27.709 -10.761 -16.596  0.00  0.00     0.085 H 
ATOM     10  H16 83A d   1      28.237 -12.657 -18.101  0.00  0.00     0.086 H 
ENDROOT
BRANCH   1  11
ATOM     11  N5  83A d   1      26.510 -14.254 -19.218  0.00  0.00    -0.390 N 
ATOM     12  H6  83A d   1      25.733 -14.838 -19.559  0.00  0.00     0.159 HD
BRANCH  11  13
ATOM     13  C8  83A d   1      27.861 -14.614 -19.683  0.00  0.00    -0.002 C 
ATOM     14  H11 83A d   1      27.836 -15.635 -20.091  0.00  0.00     0.064 H 
ATOM     15  H12 83A d   1      28.552 -14.578 -18.828  0.00  0.00     0.064 H 
BRANCH  13  16
ATOM     16  C7  83A d   1      28.366 -13.663 -20.765  0.00  0.00    -0.012 C 
ATOM     17  H9  83A d   1      28.735 -12.745 -20.284  0.00  0.00     0.044 H 
ATOM     18  H10 83A d   1      29.190 -14.150 -21.307  0.00  0.00     0.044 H 
BRANCH  16  19
ATOM     19  C5  83A d   1      27.287 -13.292 -21.755  0.00  0.00     0.013 A 
ATOM     20  N4  83A d   1      27.136 -12.062 -22.289  0.00  0.00    -0.345 N 
ATOM     21  C4  83A d   1      26.115 -11.978 -23.148  0.00  0.00     0.137 A 
ATOM     22  H5  83A d   1      27.747 -11.266 -22.058  0.00  0.00     0.167 HD
ATOM     23  C1  83A d   1      25.491 -13.250 -23.239  0.00  0.00     0.079 A 
ATOM     24  N2  83A d   1      25.666 -10.947 -23.855  0.00  0.00    -0.176 N 
ATOM     25  C2  83A d   1      24.396 -13.372 -24.102  0.00  0.00     0.273 A 
ATOM     26  C6  83A d   1      26.252 -14.021 -22.357  0.00  0.00    -0.042 A 
ATOM     27  N1  83A d   1      23.999 -12.277 -24.783  0.00  0.00    -0.156 N 
ATOM     28  O1  83A d   1      23.761 -14.448 -24.253  0.00  0.00    -0.267 OA
ATOM     29  C3  83A d   1      24.603 -11.090 -24.653  0.00  0.00     0.680 A 
ATOM     30  H1  83A d   1      23.223 -12.355 -25.409  0.00  0.00     0.187 HD
ATOM     31  H7  83A d   1      26.062 -15.075 -22.159  0.00  0.00     0.088 H 
ATOM     32  H2  83A d   1      26.139 -10.034 -23.788  0.00  0.00     0.186 HD
BRANCH  29  33
ATOM     33  N3  83A d   1      24.141  -9.982 -25.403  0.00  0.00    -0.234 N 
ATOM     34  H3  83A d   1      23.323 -10.083 -26.020  0.00  0.00     0.174 HD
ATOM     35  H4  83A d   1      24.623  -9.075 -25.331  0.00  0.00     0.174 HD
ENDBRANCH  29  33
ENDBRANCH  16  19
ENDBRANCH  13  16
ENDBRANCH  11  13
ENDBRANCH   1  11
BRANCH   4  36
ATOM     36  C15 83A d   1      25.366  -9.901 -15.734  0.00  0.00     0.252 C 
ATOM     37  O2  83A d   1      24.375  -9.774 -15.025  0.00  0.00    -0.268 OA
ATOM     38  N6  83A d   1      26.437  -8.959 -15.852  0.00  0.00    -0.342 N 
ATOM     39  H8  83A d   1      27.156  -9.210 -16.500  0.00  0.00     0.163 HD
BRANCH  38  40
ATOM     40  C16 83A d   1      26.629  -7.721 -15.186  0.00  0.00     0.097 C 
ATOM     41  H17 83A d   1      25.782  -7.516 -14.514  0.00  0.00     0.089 H 
BRANCH  40  42
ATOM     42  C17 83A d   1      26.754  -6.626 -16.222  0.00  0.00     0.196 C 
ATOM     43  O3  83A d   1      26.282  -5.481 -15.954  0.00  0.00    -0.646 OA
ATOM     44  O4  83A d   1      27.335  -6.857 -17.335  0.00  0.00    -0.646 OA
ENDBRANCH  40  42
BRANCH  40  45
ATOM     45  C18 83A d   1      27.926  -7.782 -14.395  0.00  0.00    -0.028 C 
ATOM     46  H18 83A d   1      28.287  -6.759 -14.211  0.00  0.00     0.037 H 
ATOM     47  H19 83A d   1      28.678  -8.337 -14.975  0.00  0.00     0.037 H 
BRANCH  45  48
ATOM     48  C19 83A d   1      27.705  -8.480 -13.065  0.00  0.00     0.018 C 
ATOM     49  H20 83A d   1      27.995  -9.537 -13.156  0.00  0.00     0.049 H 
ATOM     50  H21 83A d   1      26.642  -8.414 -12.791  0.00  0.00     0.049 H 
BRANCH  48  51
ATOM     51  C20 83A d   1      28.546  -7.818 -11.983  0.00  0.00     0.172 C 
ATOM     52  O5  83A d   1      28.065  -6.878 -11.281  0.00  0.00    -0.648 OA
ATOM     53  O6  83A d   1      29.733  -8.207 -11.783  0.00  0.00    -0.648 OA
ENDBRANCH  48  51
ENDBRANCH  45  48
ENDBRANCH  40  45
ENDBRANCH  38  40
ENDBRANCH   4  36
TORSDOF 11
