REMARK WARNING: 32 MAX_TORS EXCEEDED!!!
REMARK  47 active torsions:
REMARK  status: ('A' for Active; 'I' for Inactive)
REMARK    1  A    between atoms: N_1  and  CA_2 
REMARK    2  A    between atoms: CA_2  and  C_3 
REMARK    3  A    between atoms: CA_2  and  CB_5 
REMARK       I    between atoms: C_3  and  N_9 
REMARK    4  A    between atoms: CB_5  and  CG_6 
REMARK       I    between atoms: CG_6  and  ND2_8 
REMARK    5  A    between atoms: N_9  and  CA_10 
REMARK    6  A    between atoms: CA_10  and  C_11 
REMARK    7  A    between atoms: CA_10  and  CB_13 
REMARK       I    between atoms: C_11  and  N_17 
REMARK    8  A    between atoms: CB_13  and  CG_14 
REMARK    9  A    between atoms: CG_14  and  CD1_15 
REMARK   10  A    between atoms: CG_14  and  CD2_16 
REMARK   11  A    between atoms: N_17  and  CA_18 
REMARK   12  A    between atoms: CA_18  and  C_19 
REMARK   13  A    between atoms: CA_18  and  CB_21 
REMARK       I    between atoms: C_19  and  N_25 
REMARK   14  A    between atoms: CB_21  and  CG1_22 
REMARK   15  A    between atoms: CB_21  and  CG2_23 
REMARK   16  A    between atoms: CG1_22  and  CD1_24 
REMARK   17  A    between atoms: N_25  and  CA_26 
REMARK   18  A    between atoms: CA_26  and  C_27 
REMARK   19  A    between atoms: CA_26  and  CB_29 
REMARK       I    between atoms: C_27  and  N_37 
REMARK   20  A    between atoms: CB_29  and  CG_30 
REMARK   21  A    between atoms: CZ_35  and  OH_36 
REMARK   22  A    between atoms: N_37  and  CA_38 
REMARK   23  A    between atoms: CA_38  and  C_39 
REMARK   24  A    between atoms: CA_38  and  CB_41 
REMARK       I    between atoms: C_39  and  N_45 
REMARK   25  A    between atoms: CB_41  and  CG_42 
REMARK   26  A    between atoms: CG_42  and  CD1_43 
REMARK   27  A    between atoms: CG_42  and  CD2_44 
REMARK   28  A    between atoms: N_45  and  CA_46 
REMARK   29  A    between atoms: CA_46  and  C_47 
REMARK   30  A    between atoms: CA_46  and  CB_49 
REMARK       I    between atoms: C_47  and  N_53 
REMARK   31  A    between atoms: CB_49  and  CG_50 
REMARK   32  A    between atoms: N_53  and  CA_54 
REMARK   33  A    between atoms: CA_54  and  C_55 
REMARK   34  A    between atoms: CA_54  and  CB_57 
REMARK       I    between atoms: C_55  and  N_61 
REMARK   35  A    between atoms: CB_57  and  CG_58 
REMARK   36  A    between atoms: CG_58  and  CD1_59 
REMARK   37  A    between atoms: CG_58  and  CD2_60 
REMARK   38  A    between atoms: N_61  and  CA_62 
REMARK   39  A    between atoms: CA_62  and  C_63 
REMARK   40  A    between atoms: CA_62  and  CB_65 
REMARK       I    between atoms: C_63  and  N_69 
REMARK   41  A    between atoms: CB_65  and  CG_66 
REMARK       I    between atoms: CG_66  and  ND2_68 
REMARK   42  A    between atoms: N_69  and  CA_70 
REMARK   43  A    between atoms: CA_70  and  C_71 
REMARK   44  A    between atoms: CA_70  and  CB_73 
REMARK   45  A    between atoms: CB_73  and  CG_74 
REMARK   46  A    between atoms: CG_74  and  CD1_75 
REMARK   47  A    between atoms: CG_74  and  CD2_76 
ROOT
ATOM      1  CA  LEU d   1      11.708   3.027  19.673  0.00  0.00     0.089 C 
ATOM      2  H41 LEU d   1      12.746   3.026  20.037  0.00  0.00     0.087 H 
ENDROOT
BRANCH   1   3
ATOM      3  N   LEU d   1      11.554   1.946  18.715  0.00  0.00    -0.346 N 
ATOM      4  C   TYR d   1      12.330   0.869  18.768  0.00  0.00     0.241 C 
ATOM      5  O   TYR d   1      13.289   0.776  19.533  0.00  0.00    -0.271 OA
ATOM      6  H40 LEU d   1      10.853   2.014  18.005  0.00  0.00     0.163 HD
BRANCH   4   7
ATOM      7  CA  TYR d   1      11.976  -0.268  17.817  0.00  0.00     0.093 C 
ATOM      8  H32 TYR d   1      10.980  -0.065  17.396  0.00  0.00     0.088 H 
BRANCH   7   9
ATOM      9  N   TYR d   1      12.922  -0.363  16.726  0.00  0.00    -0.346 N 
ATOM     10  C   ILE d   1      12.566  -0.847  15.544  0.00  0.00     0.241 C 
ATOM     11  O   ILE d   1      11.401  -1.123  15.251  0.00  0.00    -0.271 OA
ATOM     12  H31 TYR d   1      13.864  -0.057  16.866  0.00  0.00     0.163 HD
BRANCH  10  13
ATOM     13  CA  ILE d   1      13.701  -1.039  14.549  0.00  0.00     0.092 C 
ATOM     14  H21 ILE d   1      14.645  -1.125  15.108  0.00  0.00     0.088 H 
BRANCH  13  15
ATOM     15  N   ILE d   1      13.524  -2.268  13.780  0.00  0.00    -0.346 N 
ATOM     16  C   LEU d   1      13.539  -3.463  14.369  0.00  0.00     0.241 C 
ATOM     17  O   LEU d   1      13.766  -3.613  15.570  0.00  0.00    -0.271 OA
ATOM     18  H20 ILE d   1      13.389  -2.211  12.791  0.00  0.00     0.163 HD
BRANCH  16  19
ATOM     19  CA  LEU d   1      13.243  -4.673  13.476  0.00  0.00     0.089 C 
ATOM     20  H10 LEU d   1      13.508  -4.397  12.445  0.00  0.00     0.087 H 
BRANCH  19  21
ATOM     21  N   LEU d   1      14.000  -5.879  13.816  0.00  0.00    -0.346 N 
ATOM     22  C   ASN d   1      15.329  -5.911  13.894  0.00  0.00     0.249 C 
ATOM     23  O   ASN d   1      16.040  -4.899  13.923  0.00  0.00    -0.271 OA
ATOM     24  H9  LEU d   1      13.493  -6.721  13.999  0.00  0.00     0.163 HD
BRANCH  22  25
ATOM     25  CA  ASN d   1      15.948  -7.302  13.983  0.00  0.00     0.183 C 
ATOM     26  H4  ASN d   1      17.017  -7.181  14.210  0.00  0.00     0.099 H 
BRANCH  25  27
ATOM     27  N   ASN d   1      15.367  -8.141  15.032  0.00  0.00    -0.066 N 
ATOM     28  H1  ASN d   1      15.822  -9.041  15.033  0.00  0.00     0.275 HD
ATOM     29  H2  ASN d   1      14.382  -8.263  14.858  0.00  0.00     0.275 HD
ATOM     30  H3  ASN d   1      15.498  -7.698  15.928  0.00  0.00     0.275 HD
ENDBRANCH  25  27
BRANCH  25  31
ATOM     31  CB  ASN d   1      15.814  -7.984  12.621  0.00  0.00     0.044 C 
ATOM     32  H5  ASN d   1      15.484  -7.236  11.885  0.00  0.00     0.051 H 
ATOM     33  H6  ASN d   1      15.058  -8.779  12.700  0.00  0.00     0.051 H 
BRANCH  31  34
ATOM     34  CG  ASN d   1      17.115  -8.599  12.137  0.00  0.00     0.217 C 
ATOM     35  OD1 ASN d   1      17.942  -9.041  12.933  0.00  0.00    -0.274 OA
ATOM     36  ND2 ASN d   1      17.296  -8.635  10.820  0.00  0.00    -0.370 N 
ATOM     37  H7  ASN d   1      18.134  -9.028  10.441  0.00  0.00     0.159 HD
ATOM     38  H8  ASN d   1      16.594  -8.269  10.209  0.00  0.00     0.159 HD
ENDBRANCH  31  34
ENDBRANCH  25  31
ENDBRANCH  22  25
ENDBRANCH  19  21
BRANCH  19  39
ATOM     39  CB  LEU d   1      11.741  -4.977  13.530  0.00  0.00    -0.035 C 
ATOM     40  H11 LEU d   1      11.228  -4.173  12.981  0.00  0.00     0.037 H 
ATOM     41  H12 LEU d   1      11.442  -4.947  14.588  0.00  0.00     0.037 H 
BRANCH  39  42
ATOM     42  CG  LEU d   1      11.239  -6.308  12.956  0.00  0.00    -0.059 C 
ATOM     43  H13 LEU d   1      11.657  -7.116  13.575  0.00  0.00     0.038 H 
BRANCH  42  44
ATOM     44  CD1 LEU d   1       9.733  -6.387  13.034  0.00  0.00    -0.073 C 
ATOM     45  H14 LEU d   1       9.394  -7.347  12.618  0.00  0.00     0.028 H 
ATOM     46  H15 LEU d   1       9.292  -5.561  12.456  0.00  0.00     0.028 H 
ATOM     47  H16 LEU d   1       9.416  -6.310  14.084  0.00  0.00     0.028 H 
ENDBRANCH  42  44
BRANCH  42  48
ATOM     48  CD2 LEU d   1      11.694  -6.537  11.533  0.00  0.00    -0.073 C 
ATOM     49  H17 LEU d   1      12.791  -6.478  11.485  0.00  0.00     0.028 H 
ATOM     50  H18 LEU d   1      11.256  -5.768  10.880  0.00  0.00     0.028 H 
ATOM     51  H19 LEU d   1      11.366  -7.532  11.199  0.00  0.00     0.028 H 
ENDBRANCH  42  48
ENDBRANCH  39  42
ENDBRANCH  19  39
ENDBRANCH  16  19
ENDBRANCH  13  15
BRANCH  13  52
ATOM     52  CB  ILE d   1      13.785   0.208  13.651  0.00  0.00    -0.030 C 
ATOM     53  H22 ILE d   1      13.393   1.066  14.217  0.00  0.00     0.043 H 
BRANCH  52  54
ATOM     54  CG1 ILE d   1      12.921   0.033  12.398  0.00  0.00    -0.063 C 
ATOM     55  H23 ILE d   1      11.880  -0.132  12.714  0.00  0.00     0.033 H 
ATOM     56  H24 ILE d   1      13.281  -0.848  11.847  0.00  0.00     0.033 H 
BRANCH  54  57
ATOM     57  CD1 ILE d   1      12.955   1.234  11.460  0.00  0.00    -0.076 C 
ATOM     58  H28 ILE d   1      12.315   1.036  10.588  0.00  0.00     0.027 H 
ATOM     59  H29 ILE d   1      13.988   1.408  11.124  0.00  0.00     0.027 H 
ATOM     60  H30 ILE d   1      12.587   2.124  11.991  0.00  0.00     0.027 H 
ENDBRANCH  54  57
ENDBRANCH  52  54
BRANCH  52  61
ATOM     61  CG2 ILE d   1      15.232   0.505  13.286  0.00  0.00    -0.071 C 
ATOM     62  H25 ILE d   1      15.825   0.625  14.205  0.00  0.00     0.028 H 
ATOM     63  H26 ILE d   1      15.278   1.432  12.696  0.00  0.00     0.028 H 
ATOM     64  H27 ILE d   1      15.639  -0.328  12.693  0.00  0.00     0.028 H 
ENDBRANCH  52  61
ENDBRANCH  13  52
ENDBRANCH  10  13
ENDBRANCH   7   9
BRANCH   7  65
ATOM     65  CB  TYR d   1      11.926  -1.599  18.565  0.00  0.00    -0.014 C 
ATOM     66  H33 TYR d   1      12.957  -1.900  18.803  0.00  0.00     0.043 H 
ATOM     67  H34 TYR d   1      11.468  -2.350  17.904  0.00  0.00     0.043 H 
BRANCH  65  68
ATOM     68  CG  TYR d   1      11.139  -1.556  19.846  0.00  0.00    -0.056 A 
ATOM     69  CD1 TYR d   1       9.752  -1.539  19.830  0.00  0.00    -0.074 A 
ATOM     70  CE1 TYR d   1       9.022  -1.511  21.006  0.00  0.00    -0.051 A 
ATOM     71  H35 TYR d   1       9.230  -1.548  18.880  0.00  0.00     0.084 H 
ATOM     72  CZ  TYR d   1       9.675  -1.487  22.217  0.00  0.00     0.065 A 
ATOM     73  H37 TYR d   1       7.939  -1.508  20.973  0.00  0.00     0.087 H 
ATOM     74  CE2 TYR d   1      11.056  -1.500  22.259  0.00  0.00    -0.051 A 
ATOM     75  CD2 TYR d   1      11.780  -1.535  21.076  0.00  0.00    -0.074 A 
ATOM     76  H38 TYR d   1      11.572  -1.483  23.212  0.00  0.00     0.087 H 
ATOM     77  H36 TYR d   1      12.863  -1.546  21.113  0.00  0.00     0.084 H 
BRANCH  72  78
ATOM     78  OH  TYR d   1       8.945  -1.452  23.385  0.00  0.00    -0.361 OA
ATOM     79  H39 TYR d   1       8.018  -1.448  23.178  0.00  0.00     0.217 HD
ENDBRANCH  72  78
ENDBRANCH  65  68
ENDBRANCH   7  65
ENDBRANCH   4   7
ENDBRANCH   1   3
BRANCH   1  80
ATOM     80  C   LEU d   1      10.777   2.802  20.857  0.00  0.00     0.241 C 
ATOM     81  O   LEU d   1       9.552   2.770  20.711  0.00  0.00    -0.271 OA
ATOM     82  N   ASP d   1      11.369   2.620  22.030  0.00  0.00    -0.346 N 
ATOM     83  H51 ASP d   1      12.364   2.525  22.070  0.00  0.00     0.163 HD
BRANCH  82  84
ATOM     84  CA  ASP d   1      10.596   2.557  23.256  0.00  0.00     0.098 C 
ATOM     85  H52 ASP d   1       9.806   1.799  23.146  0.00  0.00     0.088 H 
BRANCH  84  86
ATOM     86  C   ASP d   1       9.950   3.922  23.474  0.00  0.00     0.241 C 
ATOM     87  O   ASP d   1      10.517   4.942  23.086  0.00  0.00    -0.271 OA
ATOM     88  N   LEU d   1       8.765   3.952  24.076  0.00  0.00    -0.346 N 
ATOM     89  H55 LEU d   1       8.369   3.107  24.435  0.00  0.00     0.163 HD
BRANCH  88  90
ATOM     90  CA  LEU d   1       8.037   5.211  24.217  0.00  0.00     0.089 C 
ATOM     91  H56 LEU d   1       8.726   6.025  23.948  0.00  0.00     0.087 H 
BRANCH  90  92
ATOM     92  C   LEU d   1       7.545   5.472  25.639  0.00  0.00     0.241 C 
ATOM     93  O   LEU d   1       6.559   6.175  25.845  0.00  0.00    -0.271 OA
ATOM     94  N   ASN d   1       8.233   4.881  26.608  0.00  0.00    -0.346 N 
ATOM     95  H66 ASN d   1       8.880   4.160  26.362  0.00  0.00     0.163 HD
BRANCH  94  96
ATOM     96  CA  ASN d   1       8.089   5.234  28.012  0.00  0.00     0.097 C 
ATOM     97  H67 ASN d   1       7.681   6.252  28.096  0.00  0.00     0.088 H 
BRANCH  96  98
ATOM     98  C   ASN d   1       9.503   5.204  28.593  0.00  0.00     0.241 C 
ATOM     99  O   ASN d   1      10.441   4.904  27.854  0.00  0.00    -0.271 OA
ATOM    100  N   LEU d   1       9.657   5.550  29.873  0.00  0.00    -0.345 N 
ATOM    101  H72 LEU d   1       8.875   5.951  30.350  0.00  0.00     0.163 HD
BRANCH 100 102
ATOM    102  CA  LEU d   1      10.912   5.375  30.624  0.00  0.00     0.096 C 
ATOM    103  H73 LEU d   1      11.095   4.296  30.737  0.00  0.00     0.089 H 
BRANCH 102 104
ATOM    104  C   LEU d   1      10.767   5.992  32.010  0.00  0.00     0.196 C 
ATOM    105  O   LEU d   1       9.965   6.903  32.218  0.00  0.00    -0.646 OA
ATOM    106  OXT LEU d   1      11.448   5.595  32.956  0.00  0.00    -0.646 OA
ENDBRANCH 102 104
BRANCH 102 107
ATOM    107  CB  LEU d   1      12.124   5.991  29.899  0.00  0.00    -0.034 C 
ATOM    108  H74 LEU d   1      12.251   7.015  30.279  0.00  0.00     0.037 H 
ATOM    109  H75 LEU d   1      11.885   6.025  28.826  0.00  0.00     0.037 H 
BRANCH 107 110
ATOM    110  CG  LEU d   1      13.477   5.272  30.048  0.00  0.00    -0.059 C 
ATOM    111  H76 LEU d   1      13.983   5.687  30.932  0.00  0.00     0.038 H 
BRANCH 110 112
ATOM    112  CD1 LEU d   1      13.302   3.776  30.269  0.00  0.00    -0.073 C 
ATOM    113  H77 LEU d   1      14.290   3.302  30.370  0.00  0.00     0.028 H 
ATOM    114  H78 LEU d   1      12.771   3.338  29.411  0.00  0.00     0.028 H 
ATOM    115  H79 LEU d   1      12.719   3.607  31.186  0.00  0.00     0.028 H 
ENDBRANCH 110 112
BRANCH 110 116
ATOM    116  CD2 LEU d   1      14.363   5.527  28.831  0.00  0.00    -0.073 C 
ATOM    117  H80 LEU d   1      14.480   6.611  28.684  0.00  0.00     0.028 H 
ATOM    118  H81 LEU d   1      13.897   5.084  27.939  0.00  0.00     0.028 H 
ATOM    119  H82 LEU d   1      15.350   5.070  28.994  0.00  0.00     0.028 H 
ENDBRANCH 110 116
ENDBRANCH 107 110
ENDBRANCH 102 107
ENDBRANCH 100 102
ENDBRANCH  96  98
BRANCH  96 120
ATOM    120  CB  ASN d   1       7.137   4.270  28.742  0.00  0.00     0.036 C 
ATOM    121  H68 ASN d   1       7.478   4.161  29.782  0.00  0.00     0.051 H 
ATOM    122  H69 ASN d   1       7.175   3.292  28.240  0.00  0.00     0.051 H 
BRANCH 120 123
ATOM    123  CG  ASN d   1       5.684   4.759  28.752  0.00  0.00     0.217 C 
ATOM    124  OD1 ASN d   1       5.420   5.959  28.675  0.00  0.00    -0.274 OA
ATOM    125  ND2 ASN d   1       4.741   3.823  28.851  0.00  0.00    -0.370 N 
ATOM    126  H70 ASN d   1       3.776   4.085  28.862  0.00  0.00     0.159 HD
ATOM    127  H71 ASN d   1       4.998   2.859  28.914  0.00  0.00     0.159 HD
ENDBRANCH 120 123
ENDBRANCH  96 120
ENDBRANCH  94  96
ENDBRANCH  90  92
BRANCH  90 128
ATOM    128  CB  LEU d   1       6.857   5.244  23.250  0.00  0.00    -0.035 C 
ATOM    129  H57 LEU d   1       6.349   6.211  23.378  0.00  0.00     0.037 H 
ATOM    130  H58 LEU d   1       6.173   4.430  23.532  0.00  0.00     0.037 H 
BRANCH 128 131
ATOM    131  CG  LEU d   1       7.177   5.084  21.764  0.00  0.00    -0.059 C 
ATOM    132  H59 LEU d   1       7.835   4.211  21.639  0.00  0.00     0.038 H 
BRANCH 131 133
ATOM    133  CD1 LEU d   1       5.896   4.836  20.989  0.00  0.00    -0.073 C 
ATOM    134  H60 LEU d   1       6.130   4.721  19.920  0.00  0.00     0.028 H 
ATOM    135  H61 LEU d   1       5.214   5.688  21.125  0.00  0.00     0.028 H 
ATOM    136  H62 LEU d   1       5.415   3.919  21.359  0.00  0.00     0.028 H 
ENDBRANCH 131 133
BRANCH 131 137
ATOM    137  CD2 LEU d   1       7.907   6.313  21.239  0.00  0.00    -0.073 C 
ATOM    138  H63 LEU d   1       8.829   6.467  21.819  0.00  0.00     0.028 H 
ATOM    139  H64 LEU d   1       7.258   7.196  21.340  0.00  0.00     0.028 H 
ATOM    140  H65 LEU d   1       8.161   6.164  20.179  0.00  0.00     0.028 H 
ENDBRANCH 131 137
ENDBRANCH 128 131
ENDBRANCH  90 128
ENDBRANCH  88  90
ENDBRANCH  84  86
BRANCH  84 141
ATOM    141  CB  ASP d   1      11.480   2.167  24.438  0.00  0.00     0.043 C 
ATOM    142  H53 ASP d   1      12.194   2.982  24.629  0.00  0.00     0.052 H 
ATOM    143  H54 ASP d   1      12.030   1.250  24.180  0.00  0.00     0.052 H 
BRANCH 141 144
ATOM    144  CG  ASP d   1      10.682   1.916  25.699  0.00  0.00     0.175 C 
ATOM    145  OD1 ASP d   1      10.159   2.891  26.277  0.00  0.00    -0.648 OA
ATOM    146  OD2 ASP d   1      10.570   0.743  26.112  0.00  0.00    -0.648 OA
ENDBRANCH 141 144
ENDBRANCH  84 141
ENDBRANCH  82  84
ENDBRANCH   1  80
BRANCH   1 147
ATOM    147  CB  LEU d   1      11.428   4.384  19.020  0.00  0.00    -0.035 C 
ATOM    148  H42 LEU d   1      10.467   4.752  19.409  0.00  0.00     0.037 H 
ATOM    149  H43 LEU d   1      11.347   4.224  17.935  0.00  0.00     0.037 H 
BRANCH 147 150
ATOM    150  CG  LEU d   1      12.477   5.477  19.254  0.00  0.00    -0.059 C 
ATOM    151  H44 LEU d   1      12.236   6.330  18.602  0.00  0.00     0.038 H 
BRANCH 150 152
ATOM    152  CD1 LEU d   1      12.485   5.971  20.689  0.00  0.00    -0.073 C 
ATOM    153  H45 LEU d   1      13.252   6.751  20.804  0.00  0.00     0.028 H 
ATOM    154  H46 LEU d   1      12.711   5.133  21.364  0.00  0.00     0.028 H 
ATOM    155  H47 LEU d   1      11.498   6.388  20.939  0.00  0.00     0.028 H 
ENDBRANCH 150 152
BRANCH 150 156
ATOM    156  CD2 LEU d   1      13.850   4.946  18.872  0.00  0.00    -0.073 C 
ATOM    157  H48 LEU d   1      13.829   4.592  17.831  0.00  0.00     0.028 H 
ATOM    158  H49 LEU d   1      14.119   4.112  19.538  0.00  0.00     0.028 H 
ATOM    159  H50 LEU d   1      14.595   5.750  18.971  0.00  0.00     0.028 H 
ENDBRANCH 150 156
ENDBRANCH 147 150
ENDBRANCH   1 147
TORSDOF 47
