REMARK  8 active torsions:
REMARK  status: ('A' for Active; 'I' for Inactive)
REMARK    1  A    between atoms: C01_1  and  N02_2 
REMARK    2  A    between atoms: N07_7  and  C08_8 
REMARK    3  A    between atoms: C13_13  and  N14_14 
REMARK    4  A    between atoms: N14_14  and  C15_15 
REMARK    5  A    between atoms: C22_22  and  O23_23 
REMARK    6  A    between atoms: O23_23  and  C24_24 
REMARK    7  A    between atoms: C27_27  and  N28_28 
REMARK       I    between atoms: N28_28  and  C29_29 
REMARK    8  A    between atoms: C29_29  and  C30_30 
ROOT
ATOM      1  C15 6HF d   1     -14.848 -47.198 -16.224  0.00  0.00     0.731 A 
ATOM      2  N16 6HF d   1     -14.015 -46.419 -15.533  0.00  0.00    -0.044 NA
ATOM      3  C17 6HF d   1     -12.869 -46.917 -14.966  0.00  0.00     0.161 A 
ATOM      4  C18 6HF d   1     -12.588 -48.248 -15.125  0.00  0.00     0.066 A 
ATOM      5  C19 6HF d   1     -11.387 -48.469 -14.455  0.00  0.00    -0.050 A 
ATOM      6  C20 6HF d   1     -10.975 -47.261 -13.911  0.00  0.00    -0.020 A 
ATOM      7  N21 6HF d   1     -11.879 -46.341 -14.228  0.00  0.00    -0.349 N 
ATOM      8  C22 6HF d   1     -13.503 -49.061 -15.886  0.00  0.00     0.203 A 
ATOM      9  N35 6HF d   1     -14.602 -48.501 -16.397  0.00  0.00    -0.037 NA
ATOM     10  H18 6HF d   1     -10.864 -49.421 -14.373  0.00  0.00     0.087 H 
ATOM     11  H19 6HF d   1     -10.070 -47.096 -13.327  0.00  0.00     0.111 H 
ATOM     12  H20 6HF d   1     -11.838 -45.348 -13.958  0.00  0.00     0.166 HD
ENDROOT
BRANCH   1  13
ATOM     13  N14 6HF d   1     -16.052 -46.601 -16.809  0.00  0.00    -0.188 N 
ATOM     14  H17 6HF d   1     -16.208 -45.586 -16.729  0.00  0.00     0.184 HD
BRANCH  13  15
ATOM     15  C13 6HF d   1     -17.027 -47.426 -17.501  0.00  0.00     0.049 A 
ATOM     16  C10 6HF d   1     -18.379 -47.291 -17.203  0.00  0.00    -0.054 A 
ATOM     17  C09 6HF d   1     -19.323 -48.082 -17.869  0.00  0.00    -0.055 A 
ATOM     18  H14 6HF d   1     -18.701 -46.574 -16.456  0.00  0.00     0.087 H 
ATOM     19  C08 6HF d   1     -18.905 -49.024 -18.845  0.00  0.00     0.030 A 
ATOM     20  H13 6HF d   1     -20.377 -47.975 -17.638  0.00  0.00     0.087 H 
ATOM     21  C11 6HF d   1     -17.556 -49.156 -19.140  0.00  0.00    -0.055 A 
ATOM     22  C12 6HF d   1     -16.610 -48.363 -18.477  0.00  0.00    -0.054 A 
ATOM     23  H15 6HF d   1     -17.233 -49.874 -19.885  0.00  0.00     0.087 H 
ATOM     24  H16 6HF d   1     -15.557 -48.467 -18.712  0.00  0.00     0.087 H 
BRANCH  19  25
ATOM     25  N07 6HF d   1     -19.912 -49.857 -19.538  0.00  0.00    -0.378 N 
ATOM     26  C04 6HF d   1     -21.256 -49.346 -19.826  0.00  0.00     0.018 C 
ATOM     27  C03 6HF d   1     -22.268 -50.478 -20.061  0.00  0.00     0.098 C 
ATOM     28  H7  6HF d   1     -21.595 -48.739 -18.973  0.00  0.00     0.066 H 
ATOM     29  H8  6HF d   1     -21.211 -48.718 -20.728  0.00  0.00     0.066 H 
ATOM     30  N02 6HF d   1     -21.875 -51.368 -21.027  0.00  0.00    -0.072 N 
ATOM     31  H5  6HF d   1     -22.404 -51.026 -19.117  0.00  0.00     0.078 H 
ATOM     32  H6  6HF d   1     -23.226 -50.032 -20.367  0.00  0.00     0.078 H 
ATOM     33  C05 6HF d   1     -20.600 -51.880 -20.813  0.00  0.00     0.098 C 
ATOM     34  H4  6HF d   1     -22.504 -52.153 -20.954  0.00  0.00     0.279 HD
ATOM     35  C06 6HF d   1     -19.544 -50.787 -20.585  0.00  0.00     0.018 C 
ATOM     36  H9  6HF d   1     -20.308 -52.472 -21.693  0.00  0.00     0.078 H 
ATOM     37  H10 6HF d   1     -20.628 -52.531 -19.927  0.00  0.00     0.078 H 
ATOM     38  H11 6HF d   1     -19.412 -50.226 -21.522  0.00  0.00     0.066 H 
ATOM     39  H12 6HF d   1     -18.595 -51.269 -20.309  0.00  0.00     0.066 H 
BRANCH  30  40
ATOM     40  C01 6HF d   1     -22.030 -50.892 -22.230  0.00  0.00     0.066 C 
ATOM     41  H1  6HF d   1     -23.053 -50.502 -22.341  0.00  0.00     0.068 H 
ATOM     42  H2  6HF d   1     -21.860 -51.692 -22.966  0.00  0.00     0.068 H 
ATOM     43  H3  6HF d   1     -21.308 -50.080 -22.399  0.00  0.00     0.068 H 
ENDBRANCH  30  40
ENDBRANCH  19  25
ENDBRANCH  13  15
ENDBRANCH   1  13
BRANCH   8  44
ATOM     44  O23 6HF d   1     -13.245 -50.443 -16.053  0.00  0.00    -0.291 OA
BRANCH  44  45
ATOM     45  C24 6HF d   1     -13.337 -50.895 -17.391  0.00  0.00     0.078 A 
ATOM     46  C25 6HF d   1     -14.478 -51.531 -17.828  0.00  0.00    -0.048 A 
ATOM     47  C26 6HF d   1     -14.566 -51.997 -19.149  0.00  0.00    -0.054 A 
ATOM     48  H21 6HF d   1     -15.311 -51.672 -17.149  0.00  0.00     0.087 H 
ATOM     49  C27 6HF d   1     -13.504 -51.819 -20.020  0.00  0.00     0.035 A 
ATOM     50  H22 6HF d   1     -15.466 -52.497 -19.488  0.00  0.00     0.087 H 
ATOM     51  C33 6HF d   1     -12.358 -51.194 -19.578  0.00  0.00    -0.054 A 
ATOM     52  C34 6HF d   1     -12.271 -50.729 -18.258  0.00  0.00    -0.048 A 
ATOM     53  H27 6HF d   1     -11.521 -51.061 -20.253  0.00  0.00     0.087 H 
ATOM     54  H28 6HF d   1     -11.367 -50.239 -17.916  0.00  0.00     0.087 H 
BRANCH  49  55
ATOM     55  N28 6HF d   1     -13.571 -52.309 -21.409  0.00  0.00    -0.324 N 
ATOM     56  C29 6HF d   1     -14.840 -52.283 -22.197  0.00  0.00     0.244 C 
ATOM     57  O32 6HF d   1     -15.853 -51.855 -21.717  0.00  0.00    -0.268 OA
ATOM     58  H23 6HF d   1     -12.742 -52.670 -21.837  0.00  0.00     0.169 HD
BRANCH  56  59
ATOM     59  C30 6HF d   1     -14.832 -52.822 -23.648  0.00  0.00    -0.026 C 
ATOM     60  C31 6HF d   1     -15.978 -53.055 -24.291  0.00  0.00    -0.116 C 
ATOM     61  H25 6HF d   1     -15.962 -53.434 -25.312  0.00  0.00     0.067 H 
ATOM     62  H26 6HF d   1     -16.929 -52.866 -23.795  0.00  0.00     0.067 H 
ATOM     63  H24 6HF d   1     -13.884 -53.013 -24.148  0.00  0.00     0.090 H 
ENDBRANCH  56  59
ENDBRANCH  49  55
ENDBRANCH  44  45
ENDBRANCH   8  44
TORSDOF 8
