REMARK  4 active torsions:
REMARK  status: ('A' for Active; 'I' for Inactive)
REMARK    1  A    between atoms: CBB_7  and  CBC_6 
REMARK    2  A    between atoms: CAZ_8  and  CBB_7 
REMARK       I    between atoms: NAW_10  and  CAZ_8 
REMARK    3  A    between atoms: CAY_15  and  NAM_16 
REMARK    4  A    between atoms: CAO_20  and  CAC_21 
ROOT
ATOM      1  C4  6HL d   1       0.320  51.376 -21.183  0.00  0.00     0.164 A 
ATOM      2  C5  6HL d   1       0.670  52.052 -22.297  0.00  0.00     0.088 A 
ATOM      3  C6  6HL d   1       1.620  53.043 -22.175  0.00  0.00     0.139 A 
ATOM      4  N1  6HL d   1       2.187  53.342 -20.986  0.00  0.00    -0.224 NA
ATOM      5  N3  6HL d   1       0.854  51.646 -19.969  0.00  0.00    -0.222 NA
ATOM      6  NAM 6HL d   1      -0.579  50.461 -21.536  0.00  0.00    -0.244 N 
ATOM      7  NAN 6HL d   1      -0.815  50.523 -22.714  0.00  0.00    -0.169 NA
ATOM      8  C2  6HL d   1       1.823  52.658 -19.839  0.00  0.00     0.091 A 
ATOM      9  NBD 6HL d   1       2.024  53.787 -23.231  0.00  0.00    -0.383 N 
ATOM     10  CAO 6HL d   1      -0.085  51.467 -23.280  0.00  0.00     0.106 A 
ATOM     11  H15 6HL d   1       2.267  52.893 -18.878  0.00  0.00     0.146 H 
ATOM     12  H16 6HL d   1       2.737  54.520 -23.102  0.00  0.00     0.157 HD
ATOM     13  H17 6HL d   1       1.619  53.621 -24.163  0.00  0.00     0.157 HD
ENDROOT
BRANCH   6  14
ATOM     14  CAY 6HL d   1      -1.288  49.522 -20.626  0.00  0.00     0.052 C 
ATOM     15  CAX 6HL d   1      -2.813  49.586 -20.959  0.00  0.00     0.018 C 
ATOM     16  NAW 6HL d   1      -3.574  48.588 -20.166  0.00  0.00    -0.350 N 
ATOM     17  H6  6HL d   1      -3.190  50.593 -20.727  0.00  0.00     0.067 H 
ATOM     18  H7  6HL d   1      -2.956  49.379 -22.030  0.00  0.00     0.067 H 
ATOM     19  CAZ 6HL d   1      -4.706  48.791 -19.499  0.00  0.00     0.219 C 
ATOM     20  CAV 6HL d   1      -3.039  47.253 -20.174  0.00  0.00    -0.002 C 
ATOM     21  OBA 6HL d   1      -5.293  47.877 -18.926  0.00  0.00    -0.273 OA
ATOM     22  CAU 6HL d   1      -1.663  47.346 -19.584  0.00  0.00    -0.048 C 
ATOM     23  H8  6HL d   1      -2.986  46.870 -21.204  0.00  0.00     0.064 H 
ATOM     24  H9  6HL d   1      -3.669  46.587 -19.567  0.00  0.00     0.064 H 
ATOM     25  CAT 6HL d   1      -0.771  48.054 -20.584  0.00  0.00    -0.041 C 
ATOM     26  H10 6HL d   1      -1.273  46.337 -19.385  0.00  0.00     0.035 H 
ATOM     27  H11 6HL d   1      -1.698  47.917 -18.645  0.00  0.00     0.035 H 
ATOM     28  H12 6HL d   1      -0.857  47.587 -21.576  0.00  0.00     0.036 H 
ATOM     29  H13 6HL d   1       0.278  48.024 -20.254  0.00  0.00     0.036 H 
ATOM     30  H14 6HL d   1      -1.155  49.915 -19.607  0.00  0.00     0.078 H 
BRANCH  19  31
ATOM     31  CBB 6HL d   1      -5.288  50.184 -19.409  0.00  0.00     0.006 C 
ATOM     32  H4  6HL d   1      -4.498  50.948 -19.368  0.00  0.00     0.046 H 
ATOM     33  H5  6HL d   1      -5.958  50.395 -20.255  0.00  0.00     0.046 H 
BRANCH  31  34
ATOM     34  CBC 6HL d   1      -6.034  50.108 -18.134  0.00  0.00    -0.068 C 
ATOM     35  H1  6HL d   1      -6.520  51.075 -17.936  0.00  0.00     0.028 H 
ATOM     36  H2  6HL d   1      -5.338  49.873 -17.315  0.00  0.00     0.028 H 
ATOM     37  H3  6HL d   1      -6.798  49.320 -18.203  0.00  0.00     0.028 H 
ENDBRANCH  31  34
ENDBRANCH  19  31
ENDBRANCH   6  14
BRANCH  10  38
ATOM     38  CAC 6HL d   1      -0.165  51.728 -24.620  0.00  0.00     0.006 A 
ATOM     39  CAD 6HL d   1       0.948  51.631 -25.484  0.00  0.00    -0.013 A 
ATOM     40  CAG 6HL d   1       2.197  51.227 -25.026  0.00  0.00    -0.071 A 
ATOM     41  CAE 6HL d   1       0.855  51.929 -26.850  0.00  0.00    -0.025 A 
ATOM     42  CAH 6HL d   1       3.327  51.132 -25.850  0.00  0.00    -0.082 A 
ATOM     43  H18 6HL d   1       2.302  50.972 -23.978  0.00  0.00     0.084 H 
ATOM     44  CAI 6HL d   1       3.222  51.417 -27.201  0.00  0.00    -0.082 A 
ATOM     45  H19 6HL d   1       4.282  50.836 -25.430  0.00  0.00     0.083 H 
ATOM     46  CAJ 6HL d   1       1.972  51.823 -27.693  0.00  0.00    -0.072 A 
ATOM     47  H20 6HL d   1       4.079  51.329 -27.859  0.00  0.00     0.083 H 
ATOM     48  H21 6HL d   1       1.867  52.060 -28.746  0.00  0.00     0.084 H 
ATOM     49  CAF 6HL d   1      -0.361  52.314 -27.392  0.00  0.00    -0.072 A 
ATOM     50  CAA 6HL d   1      -1.482  52.407 -26.571  0.00  0.00    -0.081 A 
ATOM     51  H22 6HL d   1      -0.439  52.541 -28.449  0.00  0.00     0.084 H 
ATOM     52  CAB 6HL d   1      -1.387  52.113 -25.207  0.00  0.00    -0.070 A 
ATOM     53  H23 6HL d   1      -2.434  52.709 -26.992  0.00  0.00     0.083 H 
ATOM     54  H24 6HL d   1      -2.273  52.183 -24.587  0.00  0.00     0.084 H 
ENDBRANCH  10  38
TORSDOF 4
