REMARK  6 active torsions:
REMARK  status: ('A' for Active; 'I' for Inactive)
REMARK    1  A    between atoms: C6_3  and  NAY_19 
REMARK    2  A    between atoms: CBB_7  and  CBD_6 
REMARK    3  A    between atoms: CBA_8  and  CBB_7 
REMARK       I    between atoms: NAW_10  and  CBA_8 
REMARK    4  A    between atoms: CAS_15  and  NAG_16 
REMARK    5  A    between atoms: CAI_20  and  CAJ_21 
REMARK    6  A    between atoms: NAM_28  and  CAZ_29 
ROOT
ATOM      1  C4  6HJ d   1       0.361  52.406 -21.868  0.00  0.00     0.164 A 
ATOM      2  C5  6HJ d   1       0.813  53.052 -22.983  0.00  0.00     0.088 A 
ATOM      3  C6  6HJ d   1       1.789  53.995 -22.761  0.00  0.00     0.139 A 
ATOM      4  N1  6HJ d   1       2.275  54.268 -21.530  0.00  0.00    -0.224 NA
ATOM      5  N3  6HJ d   1       0.813  52.628 -20.617  0.00  0.00    -0.222 NA
ATOM      6  NAG 6HJ d   1      -0.550  51.528 -22.233  0.00  0.00    -0.244 N 
ATOM      7  NAH 6HJ d   1      -0.724  51.606 -23.595  0.00  0.00    -0.169 NA
ATOM      8  C2  6HJ d   1       1.779  53.566 -20.427  0.00  0.00     0.091 A 
ATOM      9  CAI 6HJ d   1       0.135  52.492 -24.061  0.00  0.00     0.107 A 
ATOM     10  H15 6HJ d   1       2.160  53.767 -19.432  0.00  0.00     0.146 H 
ENDROOT
BRANCH   6  11
ATOM     11  CAS 6HJ d   1      -1.322  50.676 -21.327  0.00  0.00     0.052 C 
ATOM     12  CAX 6HJ d   1      -2.720  50.348 -21.934  0.00  0.00     0.018 C 
ATOM     13  NAW 6HJ d   1      -3.422  49.556 -20.918  0.00  0.00    -0.350 N 
ATOM     14  H6  6HJ d   1      -3.272  51.275 -22.146  0.00  0.00     0.067 H 
ATOM     15  H7  6HJ d   1      -2.608  49.768 -22.862  0.00  0.00     0.067 H 
ATOM     16  CBA 6HJ d   1      -4.636  49.799 -20.374  0.00  0.00     0.219 C 
ATOM     17  CAV 6HJ d   1      -2.733  48.353 -20.486  0.00  0.00    -0.002 C 
ATOM     18  OBC 6HJ d   1      -5.125  49.033 -19.547  0.00  0.00    -0.273 OA
ATOM     19  CAU 6HJ d   1      -1.485  48.787 -19.819  0.00  0.00    -0.048 C 
ATOM     20  H8  6HJ d   1      -2.497  47.720 -21.354  0.00  0.00     0.064 H 
ATOM     21  H9  6HJ d   1      -3.362  47.789 -19.781  0.00  0.00     0.064 H 
ATOM     22  CAT 6HJ d   1      -0.596  49.432 -20.871  0.00  0.00    -0.041 C 
ATOM     23  H10 6HJ d   1      -0.974  47.918 -19.379  0.00  0.00     0.035 H 
ATOM     24  H11 6HJ d   1      -1.717  49.515 -19.028  0.00  0.00     0.035 H 
ATOM     25  H12 6HJ d   1      -0.446  48.745 -21.717  0.00  0.00     0.036 H 
ATOM     26  H13 6HJ d   1       0.379  49.697 -20.436  0.00  0.00     0.036 H 
ATOM     27  H14 6HJ d   1      -1.502  51.273 -20.421  0.00  0.00     0.078 H 
BRANCH  16  28
ATOM     28  CBB 6HJ d   1      -5.480  51.000 -20.848  0.00  0.00     0.006 C 
ATOM     29  H4  6HJ d   1      -4.833  51.854 -21.100  0.00  0.00     0.046 H 
ATOM     30  H5  6HJ d   1      -6.085  50.727 -21.725  0.00  0.00     0.046 H 
BRANCH  28  31
ATOM     31  CBD 6HJ d   1      -6.373  51.334 -19.661  0.00  0.00    -0.068 C 
ATOM     32  H1  6HJ d   1      -7.016  52.190 -19.915  0.00  0.00     0.028 H 
ATOM     33  H2  6HJ d   1      -5.748  51.590 -18.793  0.00  0.00     0.028 H 
ATOM     34  H3  6HJ d   1      -7.000  50.464 -19.418  0.00  0.00     0.028 H 
ENDBRANCH  28  31
ENDBRANCH  16  28
ENDBRANCH   6  11
BRANCH   9  35
ATOM     35  CAJ 6HJ d   1       0.149  52.700 -25.414  0.00  0.00     0.024 A 
ATOM     36  CAK 6HJ d   1       1.196  52.555 -26.255  0.00  0.00     0.005 A 
ATOM     37  CAO 6HJ d   1       2.489  52.231 -26.057  0.00  0.00    -0.070 A 
ATOM     38  CAL 6HJ d   1       0.758  52.833 -27.502  0.00  0.00     0.045 A 
ATOM     39  CAP 6HJ d   1       3.399  52.203 -27.159  0.00  0.00    -0.082 A 
ATOM     40  H18 6HJ d   1       2.840  51.991 -25.060  0.00  0.00     0.084 H 
ATOM     41  CAQ 6HJ d   1       2.925  52.512 -28.465  0.00  0.00    -0.081 A 
ATOM     42  H19 6HJ d   1       4.441  51.949 -27.001  0.00  0.00     0.083 H 
ATOM     43  CAR 6HJ d   1       1.567  52.828 -28.607  0.00  0.00    -0.056 A 
ATOM     44  H20 6HJ d   1       3.591  52.503 -29.320  0.00  0.00     0.083 H 
ATOM     45  H21 6HJ d   1       1.160  53.066 -29.583  0.00  0.00     0.087 H 
ATOM     46  NAM 6HJ d   1      -0.555  53.078 -27.403  0.00  0.00    -0.359 N 
ATOM     47  CAN 6HJ d   1      -0.936  52.977 -26.141  0.00  0.00    -0.007 A 
ATOM     48  H25 6HJ d   1      -1.950  53.098 -25.763  0.00  0.00     0.113 H 
BRANCH  46  49
ATOM     49  CAZ 6HJ d   1      -1.423  53.441 -28.507  0.00  0.00    -0.014 C 
ATOM     50  H22 6HJ d   1      -2.449  53.582 -28.136  0.00  0.00     0.057 H 
ATOM     51  H23 6HJ d   1      -1.413  52.640 -29.261  0.00  0.00     0.057 H 
ATOM     52  H24 6HJ d   1      -1.066  54.377 -28.962  0.00  0.00     0.057 H 
ENDBRANCH  46  49
ENDBRANCH   9  35
BRANCH   3  53
ATOM     53  NAY 6HJ d   1       2.277  54.733 -23.760  0.00  0.00    -0.383 N 
ATOM     54  H16 6HJ d   1       3.008  55.434 -23.573  0.00  0.00     0.157 HD
ATOM     55  H17 6HJ d   1       1.923  54.601 -24.718  0.00  0.00     0.157 HD
ENDBRANCH   3  53
TORSDOF 6
