REMARK  1 active torsions:
REMARK  status: ('A' for Active; 'I' for Inactive)
REMARK    1  A    between atoms: C8_6  and  C6_4 
REMARK       I    between atoms: N10_14  and  C8_6 
ROOT
ATOM      1  C8  6HO d   1      19.702   5.957  -3.854  0.00  0.00     0.254 C 
ATOM      2  O9  6HO d   1      19.793   5.166  -2.916  0.00  0.00    -0.267 OA
ATOM      3  C11 6HO d   1      22.088   6.371  -3.693  0.00  0.00     0.013 C 
ATOM      4  C12 6HO d   1      23.021   7.073  -4.625  0.00  0.00    -0.088 C 
ATOM      5  C13 6HO d   1      22.391   7.620  -5.618  0.00  0.00    -0.088 C 
ATOM      6  C14 6HO d   1      20.955   7.232  -5.653  0.00  0.00     0.013 C 
ATOM      7  N10 6HO d   1      20.786   6.600  -4.338  0.00  0.00    -0.341 N 
ATOM      8  H4  6HO d   1      22.119   6.814  -2.687  0.00  0.00     0.070 H 
ATOM      9  H5  6HO d   1      22.319   5.298  -3.629  0.00  0.00     0.070 H 
ATOM     10  H6  6HO d   1      24.100   7.120  -4.487  0.00  0.00     0.079 H 
ATOM     11  H7  6HO d   1      22.859   8.286  -6.342  0.00  0.00     0.079 H 
ATOM     12  H8  6HO d   1      20.751   6.522  -6.468  0.00  0.00     0.070 H 
ATOM     13  H9  6HO d   1      20.304   8.112  -5.762  0.00  0.00     0.070 H 
ENDROOT
BRANCH   1  14
ATOM     14  C6  6HO d   1      18.349   6.191  -4.458  0.00  0.00     0.035 A 
ATOM     15  C5  6HO d   1      17.905   7.440  -4.891  0.00  0.00    -0.068 A 
ATOM     16  C4  6HO d   1      16.638   7.586  -5.442  0.00  0.00    -0.079 A 
ATOM     17  H2  6HO d   1      18.553   8.304  -4.797  0.00  0.00     0.085 H 
ATOM     18  C3  6HO d   1      15.801   6.491  -5.548  0.00  0.00    -0.046 A 
ATOM     19  H10 6HO d   1      16.306   8.558  -5.789  0.00  0.00     0.083 H 
ATOM     20  C2  6HO d   1      16.252   5.277  -5.113  0.00  0.00     0.117 A 
ATOM     21  H1  6HO d   1      14.807   6.593  -5.968  0.00  0.00     0.088 H 
ATOM     22  C7  6HO d   1      17.494   5.098  -4.570  0.00  0.00    -0.030 A 
ATOM     23  F1  6HO d   1      15.429   4.199  -5.222  0.00  0.00    -0.206 F 
ATOM     24  H3  6HO d   1      17.809   4.118  -4.231  0.00  0.00     0.089 H 
ENDBRANCH   1  14
TORSDOF 1
