REMARK  7 active torsions:
REMARK  status: ('A' for Active; 'I' for Inactive)
REMARK    1  A    between atoms: C2_2  and  C1_1 
REMARK    2  A    between atoms: C2_2  and  C3_3 
REMARK    3  A    between atoms: C4_11  and  C2_2 
REMARK    4  A    between atoms: O5_12  and  C6_4 
REMARK    5  A    between atoms: N10_13  and  C11_8 
REMARK    6  A    between atoms: N14_15  and  C15_10 
REMARK    7  A    between atoms: C4_11  and  O5_12 
ROOT
ATOM      1  C6  6HP d   1      29.064  -1.776  -3.886  0.00  0.00     0.153 A 
ATOM      2  C7  6HP d   1      29.384  -0.512  -4.257  0.00  0.00     0.032 A 
ATOM      3  C8  6HP d   1      29.175   0.606  -3.392  0.00  0.00     0.255 A 
ATOM      4  O9  6HP d   1      29.446   1.766  -3.679  0.00  0.00    -0.268 OA
ATOM      5  C12 6HP d   1      28.275  -0.981  -1.715  0.00  0.00     0.332 A 
ATOM      6  N10 6HP d   1      28.622   0.304  -2.144  0.00  0.00    -0.271 N 
ATOM      7  O13 6HP d   1      27.796  -1.178  -0.612  0.00  0.00    -0.246 OA
ATOM      8  N14 6HP d   1      28.506  -2.014  -2.606  0.00  0.00    -0.284 N 
ATOM      9  H8  6HP d   1      29.813  -0.344  -5.244  0.00  0.00     0.098 H 
ENDROOT
BRANCH   1  10
ATOM     10  O5  6HP d   1      29.411  -2.542  -4.971  0.00  0.00    -0.335 OA
BRANCH  10  11
ATOM     11  C4  6HP d   1      29.861  -3.868  -4.690  0.00  0.00     0.030 C 
ATOM     12  H15 6HP d   1      30.398  -3.879  -3.730  0.00  0.00     0.075 H 
ATOM     13  H16 6HP d   1      28.997  -4.546  -4.634  0.00  0.00     0.075 H 
BRANCH  11  14
ATOM     14  C2  6HP d   1      30.798  -4.326  -5.804  0.00  0.00    -0.040 C 
ATOM     15  H4  6HP d   1      31.324  -3.440  -6.189  0.00  0.00     0.042 H 
BRANCH  14  16
ATOM     16  C1  6HP d   1      31.848  -5.299  -5.262  0.00  0.00    -0.071 C 
ATOM     17  H1  6HP d   1      32.511  -5.616  -6.080  0.00  0.00     0.028 H 
ATOM     18  H2  6HP d   1      31.346  -6.180  -4.835  0.00  0.00     0.028 H 
ATOM     19  H3  6HP d   1      32.441  -4.801  -4.481  0.00  0.00     0.028 H 
ENDBRANCH  14  16
BRANCH  14  20
ATOM     20  C3  6HP d   1      30.016  -4.948  -6.964  0.00  0.00    -0.071 C 
ATOM     21  H5  6HP d   1      29.271  -4.227  -7.332  0.00  0.00     0.028 H 
ATOM     22  H6  6HP d   1      29.505  -5.858  -6.616  0.00  0.00     0.028 H 
ATOM     23  H7  6HP d   1      30.710  -5.205  -7.778  0.00  0.00     0.028 H 
ENDBRANCH  14  20
ENDBRANCH  11  14
ENDBRANCH  10  11
ENDBRANCH   1  10
BRANCH   8  24
ATOM     24  C15 6HP d   1      28.148  -3.374  -2.170  0.00  0.00    -0.008 C 
ATOM     25  H12 6HP d   1      28.384  -4.090  -2.971  0.00  0.00     0.057 H 
ATOM     26  H13 6HP d   1      27.072  -3.416  -1.946  0.00  0.00     0.057 H 
ATOM     27  H14 6HP d   1      28.721  -3.632  -1.267  0.00  0.00     0.057 H 
ENDBRANCH   8  24
BRANCH   6  28
ATOM     28  C11 6HP d   1      28.390   1.426  -1.221  0.00  0.00    -0.007 C 
ATOM     29  H9  6HP d   1      28.710   2.365  -1.697  0.00  0.00     0.057 H 
ATOM     30  H10 6HP d   1      28.967   1.267  -0.298  0.00  0.00     0.057 H 
ATOM     31  H11 6HP d   1      27.319   1.485  -0.978  0.00  0.00     0.057 H 
ENDBRANCH   6  28
TORSDOF 7
