REMARK  3 active torsions:
REMARK  status: ('A' for Active; 'I' for Inactive)
REMARK    1  A    between atoms: C2_2  and  C1_1 
REMARK    2  A    between atoms: C5_4  and  N6_13 
REMARK    3  A    between atoms: C9_14  and  C8_6 
ROOT
ATOM      1  C2  6HX d   1      15.287   7.351  -5.886  0.00  0.00    -0.051 A 
ATOM      2  C3  6HX d   1      15.491   6.054  -5.421  0.00  0.00    -0.074 A 
ATOM      3  C5  6HX d   1      17.734   6.604  -4.725  0.00  0.00     0.026 A 
ATOM      4  C7  6HX d   1      17.533   7.894  -5.199  0.00  0.00    -0.046 A 
ATOM      5  C8  6HX d   1      16.326   8.289  -5.774  0.00  0.00    -0.016 A 
ATOM      6  C4  6HX d   1      16.695   5.682  -4.847  0.00  0.00    -0.057 A 
ATOM      7  H4  6HX d   1      14.694   5.324  -5.510  0.00  0.00     0.084 H 
ATOM      8  H5  6HX d   1      18.338   8.615  -5.120  0.00  0.00     0.088 H 
ATOM      9  H10 6HX d   1      16.831   4.667  -4.490  0.00  0.00     0.086 H 
ENDROOT
BRANCH   5  10
ATOM     10  C9  6HX d   1      16.208   9.707  -6.244  0.00  0.00    -0.004 A 
ATOM     11  C10 6HX d   1      16.839  10.099  -7.424  0.00  0.00    -0.071 A 
ATOM     12  C11 6HX d   1      16.743  11.404  -7.872  0.00  0.00    -0.082 A 
ATOM     13  H6  6HX d   1      17.409   9.375  -7.995  0.00  0.00     0.084 H 
ATOM     14  C12 6HX d   1      16.023  12.336  -7.155  0.00  0.00    -0.081 A 
ATOM     15  H7  6HX d   1      17.237  11.696  -8.792  0.00  0.00     0.083 H 
ATOM     16  C13 6HX d   1      15.396  11.971  -5.980  0.00  0.00    -0.061 A 
ATOM     17  H8  6HX d   1      15.949  13.356  -7.514  0.00  0.00     0.083 H 
ATOM     18  C14 6HX d   1      15.491  10.667  -5.533  0.00  0.00     0.045 A 
ATOM     19  H9  6HX d   1      14.833  12.703  -5.412  0.00  0.00     0.086 H 
ATOM     20 CL   6HX d   1      14.691  10.236  -4.061  0.00  0.00    -0.083 Cl
ENDBRANCH   5  10
BRANCH   1  21
ATOM     21  C1  6HX d   1      13.962   7.697  -6.517  0.00  0.00    -0.050 C 
ATOM     22  H1  6HX d   1      13.305   6.815  -6.497  0.00  0.00     0.033 H 
ATOM     23  H2  6HX d   1      14.123   8.010  -7.559  0.00  0.00     0.033 H 
ATOM     24  H3  6HX d   1      13.492   8.518  -5.956  0.00  0.00     0.033 H 
ENDBRANCH   1  21
BRANCH   3  25
ATOM     25  N6  6HX d   1      18.925   6.250  -4.149  0.00  0.00    -0.399 N 
ATOM     26  H11 6HX d   1      19.683   6.942  -4.066  0.00  0.00     0.156 HD
ATOM     27  H12 6HX d   1      19.063   5.291  -3.799  0.00  0.00     0.156 HD
ENDBRANCH   3  25
TORSDOF 3
