REMARK  4 active torsions:
REMARK  status: ('A' for Active; 'I' for Inactive)
REMARK    1  A    between atoms: C2_2  and  C1_1 
REMARK    2  A    between atoms: C8_7  and  C7_6 
REMARK    3  A    between atoms: C15_13  and  C10_8 
REMARK    4  A    between atoms: C13_11  and  C14_12 
REMARK       I    between atoms: N17_19  and  C15_13 
ROOT
ATOM      1  C8  6HZ d   1      16.626   8.105  -5.630  0.00  0.00    -0.018 A 
ATOM      2  C10 6HZ d   1      18.146   6.587  -4.506  0.00  0.00     0.033 A 
ATOM      3  C11 6HZ d   1      17.250   5.548  -4.713  0.00  0.00    -0.067 A 
ATOM      4  C12 6HZ d   1      16.064   5.770  -5.387  0.00  0.00    -0.075 A 
ATOM      5  C13 6HZ d   1      15.737   7.038  -5.861  0.00  0.00    -0.051 A 
ATOM      6  C9  6HZ d   1      17.817   7.857  -4.959  0.00  0.00    -0.056 A 
ATOM      7  H7  6HZ d   1      17.482   4.556  -4.344  0.00  0.00     0.085 H 
ATOM      8  H8  6HZ d   1      15.379   4.946  -5.549  0.00  0.00     0.084 H 
ATOM      9  H16 6HZ d   1      18.506   8.675  -4.785  0.00  0.00     0.086 H 
ENDROOT
BRANCH   1  10
ATOM     10  C7  6HZ d   1      16.385   9.502  -6.101  0.00  0.00    -0.019 A 
ATOM     11  C2  6HZ d   1      15.580  10.437  -5.421  0.00  0.00    -0.051 A 
ATOM     12  C3  6HZ d   1      15.446  11.721  -5.942  0.00  0.00    -0.076 A 
ATOM     13  C4  6HZ d   1      16.086  12.081  -7.107  0.00  0.00    -0.082 A 
ATOM     14  H4  6HZ d   1      14.830  12.447  -5.424  0.00  0.00     0.084 H 
ATOM     15  C5  6HZ d   1      16.873  11.174  -7.768  0.00  0.00    -0.082 A 
ATOM     16  H15 6HZ d   1      15.967  13.084  -7.502  0.00  0.00     0.083 H 
ATOM     17  C6  6HZ d   1      17.030   9.896  -7.273  0.00  0.00    -0.072 A 
ATOM     18  H5  6HZ d   1      17.375  11.463  -8.685  0.00  0.00     0.083 H 
ATOM     19  H6  6HZ d   1      17.662   9.190  -7.801  0.00  0.00     0.084 H 
BRANCH  11  20
ATOM     20  C1  6HZ d   1      14.853  10.102  -4.145  0.00  0.00    -0.050 C 
ATOM     21  H1  6HZ d   1      14.292  10.983  -3.800  0.00  0.00     0.033 H 
ATOM     22  H2  6HZ d   1      15.581   9.806  -3.375  0.00  0.00     0.033 H 
ATOM     23  H3  6HZ d   1      14.155   9.272  -4.328  0.00  0.00     0.033 H 
ENDBRANCH  11  20
ENDBRANCH   1  10
BRANCH   5  24
ATOM     24  C14 6HZ d   1      14.430   7.236  -6.585  0.00  0.00    -0.050 C 
ATOM     25  H9  6HZ d   1      14.334   8.289  -6.888  0.00  0.00     0.033 H 
ATOM     26  H10 6HZ d   1      13.597   6.969  -5.918  0.00  0.00     0.033 H 
ATOM     27  H11 6HZ d   1      14.405   6.594  -7.478  0.00  0.00     0.033 H 
ENDBRANCH   5  24
BRANCH   2  28
ATOM     28  C15 6HZ d   1      19.427   6.339  -3.768  0.00  0.00     0.254 C 
ATOM     29  O16 6HZ d   1      19.382   5.828  -2.652  0.00  0.00    -0.267 OA
ATOM     30  N17 6HZ d   1      20.596   6.677  -4.333  0.00  0.00    -0.341 N 
ATOM     31  C21 6HZ d   1      21.835   6.674  -3.546  0.00  0.00     0.013 C 
ATOM     32  C18 6HZ d   1      20.820   7.223  -5.678  0.00  0.00     0.013 C 
ATOM     33  C20 6HZ d   1      22.850   7.027  -4.577  0.00  0.00    -0.088 C 
ATOM     34  H13 6HZ d   1      22.032   5.682  -3.113  0.00  0.00     0.070 H 
ATOM     35  H14 6HZ d   1      21.802   7.425  -2.743  0.00  0.00     0.070 H 
ATOM     36  C19 6HZ d   1      22.303   7.351  -5.708  0.00  0.00    -0.088 C 
ATOM     37  H19 6HZ d   1      23.925   7.015  -4.402  0.00  0.00     0.079 H 
ATOM     38  H12 6HZ d   1      22.865   7.679  -6.581  0.00  0.00     0.079 H 
ATOM     39  H17 6HZ d   1      20.461   6.533  -6.456  0.00  0.00     0.070 H 
ATOM     40  H18 6HZ d   1      20.331   8.200  -5.801  0.00  0.00     0.070 H 
ENDBRANCH   2  28
TORSDOF 4
