REMARK  5 active torsions:
REMARK  status: ('A' for Active; 'I' for Inactive)
REMARK    1  A    between atoms: C2_2  and  C1_1 
REMARK    2  A    between atoms: C8_7  and  C7_6 
REMARK    3  A    between atoms: C15_13  and  C10_8 
REMARK    4  A    between atoms: C13_11  and  C14_12 
REMARK    5  A    between atoms: C17_19  and  C15_13 
ROOT
ATOM      1  C8  6HV d   1      16.599   7.998  -5.861  0.00  0.00    -0.018 A 
ATOM      2  C10 6HV d   1      18.061   6.435  -4.720  0.00  0.00     0.018 A 
ATOM      3  C11 6HV d   1      17.058   5.471  -4.782  0.00  0.00    -0.069 A 
ATOM      4  C12 6HV d   1      15.839   5.759  -5.371  0.00  0.00    -0.075 A 
ATOM      5  C13 6HV d   1      15.591   7.016  -5.920  0.00  0.00    -0.051 A 
ATOM      6  C9  6HV d   1      17.815   7.694  -5.250  0.00  0.00    -0.058 A 
ATOM      7  H7  6HV d   1      17.233   4.486  -4.365  0.00  0.00     0.085 H 
ATOM      8  H8  6HV d   1      15.068   4.998  -5.406  0.00  0.00     0.084 H 
ATOM      9  H14 6HV d   1      18.583   8.456  -5.188  0.00  0.00     0.086 H 
ENDROOT
BRANCH   1  10
ATOM     10  C7  6HV d   1      16.415   9.387  -6.382  0.00  0.00    -0.019 A 
ATOM     11  C2  6HV d   1      15.692  10.344  -5.647  0.00  0.00    -0.051 A 
ATOM     12  C3  6HV d   1      15.558  11.633  -6.159  0.00  0.00    -0.076 A 
ATOM     13  C4  6HV d   1      16.111  11.967  -7.377  0.00  0.00    -0.082 A 
ATOM     14  H4  6HV d   1      15.013  12.381  -5.594  0.00  0.00     0.084 H 
ATOM     15  C5  6HV d   1      16.815  11.033  -8.096  0.00  0.00    -0.082 A 
ATOM     16  H13 6HV d   1      15.989  12.971  -7.768  0.00  0.00     0.083 H 
ATOM     17  C6  6HV d   1      16.979   9.753  -7.604  0.00  0.00    -0.072 A 
ATOM     18  H5  6HV d   1      17.244  11.302  -9.055  0.00  0.00     0.083 H 
ATOM     19  H6  6HV d   1      17.550   9.027  -8.172  0.00  0.00     0.084 H 
BRANCH  11  20
ATOM     20  C1  6HV d   1      15.073  10.002  -4.316  0.00  0.00    -0.050 C 
ATOM     21  H1  6HV d   1      14.557  10.886  -3.913  0.00  0.00     0.033 H 
ATOM     22  H2  6HV d   1      15.860   9.686  -3.616  0.00  0.00     0.033 H 
ATOM     23  H3  6HV d   1      14.350   9.184  -4.447  0.00  0.00     0.033 H 
ENDBRANCH  11  20
ENDBRANCH   1  10
BRANCH   5  24
ATOM     24  C14 6HV d   1      14.249   7.276  -6.557  0.00  0.00    -0.050 C 
ATOM     25  H9  6HV d   1      14.218   8.307  -6.938  0.00  0.00     0.033 H 
ATOM     26  H10 6HV d   1      13.455   7.137  -5.809  0.00  0.00     0.033 H 
ATOM     27  H11 6HV d   1      14.096   6.573  -7.389  0.00  0.00     0.033 H 
ENDBRANCH   5  24
BRANCH   2  28
ATOM     28  C15 6HV d   1      19.361   6.088  -4.066  0.00  0.00     0.217 C 
ATOM     29  O16 6HV d   1      19.352   5.345  -3.091  0.00  0.00    -0.284 OA
BRANCH  28  30
ATOM     30  C17 6HV d   1      20.660   6.603  -4.563  0.00  0.00     0.148 A 
ATOM     31  N18 6HV d   1      20.837   7.209  -5.713  0.00  0.00    -0.249 NA
ATOM     32  C19 6HV d   1      22.170   7.547  -5.859  0.00  0.00     0.010 A 
ATOM     33  C20 6HV d   1      22.960   7.186  -4.840  0.00  0.00    -0.026 A 
ATOM     34  H12 6HV d   1      22.549   8.068  -6.737  0.00  0.00     0.115 H 
ATOM     35  S21 6HV d   1      22.083   6.402  -3.623  0.00  0.00    -0.077 SA
ATOM     36  H15 6HV d   1      24.032   7.373  -4.799  0.00  0.00     0.097 H 
ENDBRANCH  28  30
ENDBRANCH   2  28
TORSDOF 5
