REMARK  5 active torsions:
REMARK  status: ('A' for Active; 'I' for Inactive)
REMARK    1  A    between atoms: C2_2  and  C1_1 
REMARK    2  A    between atoms: C8_7  and  C7_6 
REMARK    3  A    between atoms: N11_15  and  C10_8 
REMARK    4  A    between atoms: C12_9  and  N11_15 
REMARK    5  A    between atoms: C19_12  and  C20_20 
ROOT
ATOM      1  C8  6HW d   1      16.058   8.033  -5.735  0.00  0.00    -0.017 A 
ATOM      2  C10 6HW d   1      17.503   6.409  -4.670  0.00  0.00     0.035 A 
ATOM      3  C19 6HW d   1      15.068   7.046  -5.894  0.00  0.00    -0.051 A 
ATOM      4  C9  6HW d   1      17.251   7.695  -5.126  0.00  0.00    -0.046 A 
ATOM      5  C17 6HW d   1      16.516   5.442  -4.809  0.00  0.00    -0.057 A 
ATOM      6  C18 6HW d   1      15.314   5.758  -5.423  0.00  0.00    -0.074 A 
ATOM      7  H10 6HW d   1      18.012   8.457  -5.001  0.00  0.00     0.088 H 
ATOM      8  H12 6HW d   1      16.686   4.438  -4.437  0.00  0.00     0.086 H 
ATOM      9  H13 6HW d   1      14.555   4.993  -5.538  0.00  0.00     0.084 H 
ENDROOT
BRANCH   1  10
ATOM     10  C7  6HW d   1      15.941   9.453  -6.193  0.00  0.00    -0.019 A 
ATOM     11  C2  6HW d   1      15.268  10.440  -5.452  0.00  0.00    -0.051 A 
ATOM     12  C3  6HW d   1      15.252  11.750  -5.924  0.00  0.00    -0.076 A 
ATOM     13  C4  6HW d   1      15.875  12.077  -7.108  0.00  0.00    -0.082 A 
ATOM     14  H4  6HW d   1      14.744  12.520  -5.354  0.00  0.00     0.084 H 
ATOM     15  C5  6HW d   1      16.529  11.115  -7.833  0.00  0.00    -0.082 A 
ATOM     16  H9  6HW d   1      15.848  13.099  -7.468  0.00  0.00     0.083 H 
ATOM     17  C6  6HW d   1      16.583   9.818  -7.375  0.00  0.00    -0.072 A 
ATOM     18  H5  6HW d   1      17.006  11.377  -8.771  0.00  0.00     0.083 H 
ATOM     19  H6  6HW d   1      17.131   9.072  -7.940  0.00  0.00     0.084 H 
BRANCH  11  20
ATOM     20  C1  6HW d   1      14.573  10.123  -4.158  0.00  0.00    -0.050 C 
ATOM     21  H1  6HW d   1      14.117  11.038  -3.753  0.00  0.00     0.033 H 
ATOM     22  H2  6HW d   1      15.303   9.727  -3.437  0.00  0.00     0.033 H 
ATOM     23  H3  6HW d   1      13.790   9.371  -4.337  0.00  0.00     0.033 H 
ENDBRANCH  11  20
ENDBRANCH   1  10
BRANCH   3  24
ATOM     24  C20 6HW d   1      13.758   7.348  -6.571  0.00  0.00    -0.050 C 
ATOM     25  H14 6HW d   1      13.738   8.405  -6.875  0.00  0.00     0.033 H 
ATOM     26  H15 6HW d   1      12.931   7.152  -5.873  0.00  0.00     0.033 H 
ATOM     27  H16 6HW d   1      13.648   6.708  -7.459  0.00  0.00     0.033 H 
ENDBRANCH   3  24
BRANCH   2  28
ATOM     28  N11 6HW d   1      18.728   6.154  -4.025  0.00  0.00    -0.335 N 
ATOM     29  H11 6HW d   1      18.655   5.591  -3.165  0.00  0.00     0.168 HD
BRANCH  28  30
ATOM     30  C12 6HW d   1      19.989   6.531  -4.355  0.00  0.00     0.170 A 
ATOM     31  N13 6HW d   1      20.982   6.421  -3.510  0.00  0.00    -0.236 NA
ATOM     32  C14 6HW d   1      22.165   6.863  -4.072  0.00  0.00     0.011 A 
ATOM     33  C15 6HW d   1      22.031   7.299  -5.332  0.00  0.00    -0.025 A 
ATOM     34  H7  6HW d   1      23.116   6.857  -3.541  0.00  0.00     0.115 H 
ATOM     35  S16 6HW d   1      20.422   7.188  -5.903  0.00  0.00    -0.062 SA
ATOM     36  H8  6HW d   1      22.857   7.683  -5.928  0.00  0.00     0.097 H 
ENDBRANCH  28  30
ENDBRANCH   2  28
TORSDOF 5
