REMARK  8 active torsions:
REMARK  status: ('A' for Active; 'I' for Inactive)
REMARK    1  A    between atoms: C2_2  and  C1_1 
REMARK    2  A    between atoms: C8_7  and  C7_6 
REMARK    3  A    between atoms: N11_20  and  C10_8 
REMARK    4  A    between atoms: C14_10  and  C15_11 
REMARK    5  A    between atoms: C15_11  and  C16_12 
REMARK    6  A    between atoms: C16_12  and  C17_22 
REMARK    7  A    between atoms: C23_16  and  C24_17 
REMARK    8  A    between atoms: C17_22  and  O18_23 
ROOT
ATOM      1  C8  6HR d   1      16.003   8.427  -5.990  0.00  0.00    -0.017 A 
ATOM      2  C10 6HR d   1      17.419   6.753  -4.961  0.00  0.00     0.035 A 
ATOM      3  C21 6HR d   1      16.393   5.822  -5.087  0.00  0.00    -0.057 A 
ATOM      4  C22 6HR d   1      15.186   6.180  -5.663  0.00  0.00    -0.074 A 
ATOM      5  C23 6HR d   1      14.971   7.477  -6.125  0.00  0.00    -0.051 A 
ATOM      6  C9  6HR d   1      17.207   8.049  -5.407  0.00  0.00    -0.046 A 
ATOM      7  H12 6HR d   1      16.540   4.809  -4.731  0.00  0.00     0.086 H 
ATOM      8  H13 6HR d   1      14.398   5.442  -5.756  0.00  0.00     0.084 H 
ATOM      9  H18 6HR d   1      17.997   8.783  -5.299  0.00  0.00     0.088 H 
ENDROOT
BRANCH   2  10
ATOM     10  N11 6HR d   1      18.654   6.430  -4.365  0.00  0.00    -0.335 N 
ATOM     11  C12 6HR d   1      19.911   6.762  -4.768  0.00  0.00     0.171 A 
ATOM     12  N13 6HR d   1      20.954   6.601  -3.996  0.00  0.00    -0.229 NA
ATOM     13  S20 6HR d   1      20.265   7.440  -6.321  0.00  0.00    -0.062 SA
ATOM     14  C14 6HR d   1      22.129   7.009  -4.605  0.00  0.00     0.044 A 
ATOM     15  C19 6HR d   1      21.916   7.488  -5.851  0.00  0.00    -0.018 A 
ATOM     16  H11 6HR d   1      22.711   7.866  -6.492  0.00  0.00     0.098 H 
ATOM     17  H19 6HR d   1      18.598   5.865  -3.506  0.00  0.00     0.168 HD
BRANCH  14  18
ATOM     18  C15 6HR d   1      23.416   6.915  -3.854  0.00  0.00    -0.022 C 
ATOM     19  H7  6HR d   1      24.254   7.063  -4.551  0.00  0.00     0.042 H 
ATOM     20  H8  6HR d   1      23.494   5.920  -3.393  0.00  0.00     0.042 H 
BRANCH  18  21
ATOM     21  C16 6HR d   1      23.476   7.975  -2.769  0.00  0.00    -0.040 C 
ATOM     22  H9  6HR d   1      22.557   7.905  -2.169  0.00  0.00     0.036 H 
ATOM     23  H10 6HR d   1      23.523   8.961  -3.254  0.00  0.00     0.036 H 
BRANCH  21  24
ATOM     24  C17 6HR d   1      24.656   7.851  -1.839  0.00  0.00     0.017 C 
ATOM     25  H20 6HR d   1      24.625   8.673  -1.108  0.00  0.00     0.073 H 
ATOM     26  H21 6HR d   1      25.584   7.917  -2.426  0.00  0.00     0.073 H 
BRANCH  24  27
ATOM     27  O18 6HR d   1      24.634   6.615  -1.146  0.00  0.00    -0.401 OA
ATOM     28  H22 6HR d   1      24.665   5.901  -1.772  0.00  0.00     0.209 HD
ENDBRANCH  24  27
ENDBRANCH  21  24
ENDBRANCH  18  21
ENDBRANCH  14  18
ENDBRANCH   2  10
BRANCH   1  29
ATOM     29  C7  6HR d   1      15.904   9.846  -6.448  0.00  0.00    -0.019 A 
ATOM     30  C2  6HR d   1      15.202  10.835  -5.738  0.00  0.00    -0.051 A 
ATOM     31  C3  6HR d   1      15.191  12.138  -6.227  0.00  0.00    -0.076 A 
ATOM     32  C4  6HR d   1      15.856  12.458  -7.392  0.00  0.00    -0.082 A 
ATOM     33  H4  6HR d   1      14.654  12.909  -5.687  0.00  0.00     0.084 H 
ATOM     34  C5  6HR d   1      16.548  11.490  -8.083  0.00  0.00    -0.082 A 
ATOM     35  H17 6HR d   1      15.834  13.476  -7.765  0.00  0.00     0.083 H 
ATOM     36  C6  6HR d   1      16.582  10.193  -7.613  0.00  0.00    -0.072 A 
ATOM     37  H5  6HR d   1      17.068  11.747  -8.999  0.00  0.00     0.083 H 
ATOM     38  H6  6HR d   1      17.141   9.439  -8.155  0.00  0.00     0.084 H 
BRANCH  30  39
ATOM     39  C1  6HR d   1      14.464  10.517  -4.465  0.00  0.00    -0.050 C 
ATOM     40  H1  6HR d   1      13.989  11.431  -4.079  0.00  0.00     0.033 H 
ATOM     41  H2  6HR d   1      15.172  10.128  -3.718  0.00  0.00     0.033 H 
ATOM     42  H3  6HR d   1      13.692   9.760  -4.668  0.00  0.00     0.033 H 
ENDBRANCH  30  39
ENDBRANCH   1  29
BRANCH   5  43
ATOM     43  C24 6HR d   1      13.643   7.825  -6.751  0.00  0.00    -0.050 C 
ATOM     44  H14 6HR d   1      13.647   8.882  -7.056  0.00  0.00     0.033 H 
ATOM     45  H15 6HR d   1      12.838   7.658  -6.020  0.00  0.00     0.033 H 
ATOM     46  H16 6HR d   1      13.475   7.189  -7.633  0.00  0.00     0.033 H 
ENDBRANCH   5  43
TORSDOF 8
