REMARK  15 active torsions:
REMARK  status: ('A' for Active; 'I' for Inactive)
REMARK    1  A    between atoms: O2_18  and  C1_1 
REMARK    2  A    between atoms: C6_3  and  C3_2 
REMARK    3  A    between atoms: C3_2  and  O2_18 
REMARK    4  A    between atoms: C3_2  and  C4_19 
REMARK    5  A    between atoms: N7_21  and  C6_3 
REMARK    6  A    between atoms: N11_23  and  C10_5 
REMARK    7  A    between atoms: C12_6  and  N11_23 
REMARK    8  A    between atoms: C14_8  and  C23_12 
REMARK    9  A    between atoms: C15_9  and  C16_10 
REMARK   10  A    between atoms: C20_27  and  C21_11 
REMARK   11  A    between atoms: C21_11  and  N22_28 
REMARK   12  A    between atoms: C28_17  and  C29_29 
REMARK   13  A    between atoms: C4_19  and  O5_20 
REMARK   14  A    between atoms: O19_26  and  C18_25 
REMARK   15  A    between atoms: O19_26  and  C20_27 
ROOT
ATOM      1  C12 6HU d   1      17.525   6.535  -4.901  0.00  0.00     0.068 A 
ATOM      2  C13 6HU d   1      17.319   7.814  -5.394  0.00  0.00    -0.043 A 
ATOM      3  C14 6HU d   1      16.109   8.193  -5.976  0.00  0.00    -0.017 A 
ATOM      4  C15 6HU d   1      15.045   7.274  -6.035  0.00  0.00    -0.048 A 
ATOM      5  C17 6HU d   1      15.244   5.996  -5.531  0.00  0.00    -0.042 A 
ATOM      6  C18 6HU d   1      16.453   5.622  -4.961  0.00  0.00     0.096 A 
ATOM      7  H8  6HU d   1      18.121   8.540  -5.325  0.00  0.00     0.088 H 
ATOM      8  H23 6HU d   1      14.437   5.274  -5.584  0.00  0.00     0.088 H 
ENDROOT
BRANCH   1   9
ATOM      9  N11 6HU d   1      18.740   6.156  -4.307  0.00  0.00    -0.337 N 
ATOM     10  H22 6HU d   1      18.661   5.564  -3.468  0.00  0.00     0.167 HD
BRANCH   9  11
ATOM     11  C10 6HU d   1      20.041   6.475  -4.702  0.00  0.00     0.149 A 
ATOM     12  C9  6HU d   1      20.449   7.076  -5.878  0.00  0.00    -0.020 A 
ATOM     13  C8  6HU d   1      21.796   7.198  -5.774  0.00  0.00     0.002 A 
ATOM     14  H21 6HU d   1      19.821   7.386  -6.712  0.00  0.00     0.091 H 
ATOM     15  N7  6HU d   1      22.150   6.700  -4.578  0.00  0.00    -0.276 N 
ATOM     16  H7  6HU d   1      22.466   7.621  -6.521  0.00  0.00     0.114 H 
ATOM     17  N30 6HU d   1      21.071   6.244  -3.893  0.00  0.00    -0.155 NA
BRANCH  15  18
ATOM     18  C6  6HU d   1      23.491   6.598  -4.013  0.00  0.00     0.042 C 
ATOM     19  H5  6HU d   1      23.657   5.559  -3.691  0.00  0.00     0.071 H 
ATOM     20  H6  6HU d   1      24.220   6.861  -4.793  0.00  0.00     0.071 H 
BRANCH  18  21
ATOM     21  C3  6HU d   1      23.710   7.522  -2.811  0.00  0.00     0.075 C 
ATOM     22  H4  6HU d   1      22.850   7.447  -2.130  0.00  0.00     0.089 H 
BRANCH  21  23
ATOM     23  O2  6HU d   1      23.819   8.854  -3.332  0.00  0.00    -0.387 OA
BRANCH  23  24
ATOM     24  C1  6HU d   1      23.439   9.872  -2.406  0.00  0.00     0.005 C 
ATOM     25  H1  6HU d   1      23.550  10.859  -2.880  0.00  0.00     0.066 H 
ATOM     26  H2  6HU d   1      24.084   9.818  -1.516  0.00  0.00     0.066 H 
ATOM     27  H3  6HU d   1      22.390   9.724  -2.109  0.00  0.00     0.066 H 
ENDBRANCH  23  24
ENDBRANCH  21  23
BRANCH  21  28
ATOM     28  C4  6HU d   1      24.995   7.193  -2.036  0.00  0.00     0.042 C 
ATOM     29  H18 6HU d   1      25.269   8.059  -1.416  0.00  0.00     0.077 H 
ATOM     30  H19 6HU d   1      25.802   6.986  -2.755  0.00  0.00     0.077 H 
BRANCH  28  31
ATOM     31  O5  6HU d   1      24.826   6.060  -1.195  0.00  0.00    -0.398 OA
ATOM     32  H20 6HU d   1      24.594   5.306  -1.724  0.00  0.00     0.209 HD
ENDBRANCH  28  31
ENDBRANCH  21  28
ENDBRANCH  18  21
ENDBRANCH  15  18
ENDBRANCH   9  11
ENDBRANCH   1   9
BRANCH   6  33
ATOM     33  O19 6HU d   1      16.717   4.385  -4.442  0.00  0.00    -0.347 OA
BRANCH  33  34
ATOM     34  C20 6HU d   1      15.808   3.318  -4.735  0.00  0.00     0.048 C 
ATOM     35  H24 6HU d   1      14.880   3.447  -4.159  0.00  0.00     0.077 H 
ATOM     36  H25 6HU d   1      15.574   3.310  -5.810  0.00  0.00     0.077 H 
BRANCH  34  37
ATOM     37  C21 6HU d   1      16.481   2.021  -4.344  0.00  0.00     0.100 C 
ATOM     38  H12 6HU d   1      17.499   2.004  -4.760  0.00  0.00     0.078 H 
ATOM     39  H13 6HU d   1      15.904   1.179  -4.753  0.00  0.00     0.078 H 
BRANCH  37  40
ATOM     40  N22 6HU d   1      16.557   1.887  -2.869  0.00  0.00    -0.077 N 
ATOM     41  H26 6HU d   1      17.008   1.017  -2.634  0.00  0.00     0.274 HD
ATOM     42  H27 6HU d   1      15.626   1.898  -2.482  0.00  0.00     0.274 HD
ATOM     43  H28 6HU d   1      17.088   2.655  -2.489  0.00  0.00     0.274 HD
ENDBRANCH  37  40
ENDBRANCH  34  37
ENDBRANCH  33  34
ENDBRANCH   6  33
BRANCH   3  44
ATOM     44  C23 6HU d   1      15.990   9.600  -6.456  0.00  0.00    -0.019 A 
ATOM     45  C24 6HU d   1      16.621   9.970  -7.639  0.00  0.00    -0.072 A 
ATOM     46  C25 6HU d   1      16.548  11.264  -8.096  0.00  0.00    -0.082 A 
ATOM     47  H14 6HU d   1      17.175   9.231  -8.206  0.00  0.00     0.084 H 
ATOM     48  C26 6HU d   1      15.852  12.208  -7.387  0.00  0.00    -0.082 A 
ATOM     49  H15 6HU d   1      17.043  11.539  -9.021  0.00  0.00     0.083 H 
ATOM     50  C27 6HU d   1      15.219  11.868  -6.213  0.00  0.00    -0.076 A 
ATOM     51  H16 6HU d   1      15.800  13.227  -7.753  0.00  0.00     0.083 H 
ATOM     52  C28 6HU d   1      15.271  10.566  -5.728  0.00  0.00    -0.051 A 
ATOM     53  H17 6HU d   1      14.674  12.624  -5.660  0.00  0.00     0.084 H 
BRANCH  52  54
ATOM     54  C29 6HU d   1      14.588  10.239  -4.424  0.00  0.00    -0.050 C 
ATOM     55  H29 6HU d   1      14.729   9.173  -4.194  0.00  0.00     0.033 H 
ATOM     56  H30 6HU d   1      13.513  10.457  -4.508  0.00  0.00     0.033 H 
ATOM     57  H31 6HU d   1      15.024  10.849  -3.619  0.00  0.00     0.033 H 
ENDBRANCH  52  54
ENDBRANCH   3  44
BRANCH   4  58
ATOM     58  C16 6HU d   1      13.713   7.622  -6.650  0.00  0.00    -0.050 C 
ATOM     59  H9  6HU d   1      13.040   6.754  -6.584  0.00  0.00     0.033 H 
ATOM     60  H10 6HU d   1      13.857   7.894  -7.706  0.00  0.00     0.033 H 
ATOM     61  H11 6HU d   1      13.270   8.471  -6.109  0.00  0.00     0.033 H 
ENDBRANCH   4  58
TORSDOF 15
