REMARK  10 active torsions:
REMARK  status: ('A' for Active; 'I' for Inactive)
REMARK       I    between atoms: C4_2  and  N9_3 
REMARK    1  A    between atoms: C4_2  and  C3_6 
REMARK    2  A    between atoms: N9_3  and  O10_4 
REMARK    3  A    between atoms: N9_3  and  C11_5 
REMARK    4  A    between atoms: C3_6  and  C2_7 
REMARK    5  A    between atoms: C2_7  and  C1_8 
REMARK    6  A    between atoms: C2_7  and  C13_13 
REMARK    7  A    between atoms: C1_8  and  P5_9 
REMARK    8  A    between atoms: C13_13  and  C14_14 
REMARK    9  A    between atoms: C14_14  and  C15_15 
REMARK   10  A    between atoms: C15_15  and  C16_16 
ROOT
ATOM      1  C13 LC5 d   1       0.300  13.757  19.145  0.00  0.00    -0.060 C 
ATOM      2  H10 LC5 d   1       1.116  13.701  18.409  0.00  0.00     0.033 H 
ATOM      3  H11 LC5 d   1      -0.497  14.409  18.759  0.00  0.00     0.033 H 
ENDROOT
BRANCH   1   4
ATOM      4  C2  LC5 d   1       0.863  14.383  20.473  0.00  0.00    -0.034 C 
ATOM      5  H7  LC5 d   1       1.211  15.399  20.233  0.00  0.00     0.041 H 
BRANCH   4   6
ATOM      6  C3  LC5 d   1       2.081  13.589  21.011  0.00  0.00     0.015 C 
ATOM      7  H5  LC5 d   1       2.137  13.690  22.105  0.00  0.00     0.047 H 
ATOM      8  H6  LC5 d   1       1.978  12.526  20.746  0.00  0.00     0.047 H 
BRANCH   6   9
ATOM      9  C4  LC5 d   1       3.332  14.152  20.383  0.00  0.00     0.243 C 
ATOM     10  O12 LC5 d   1       3.764  15.196  20.821  0.00  0.00    -0.271 OA
ATOM     11  N9  LC5 d   1       3.902  13.568  19.295  0.00  0.00    -0.233 N 
BRANCH  11  12
ATOM     12  O10 LC5 d   1       4.993  14.183  18.687  0.00  0.00    -0.285 OA
ATOM     13  H1  LC5 d   1       5.702  14.259  19.314  0.00  0.00     0.245 HD
ENDBRANCH  11  12
BRANCH  11  14
ATOM     14  C11 LC5 d   1       3.407  12.305  18.738  0.00  0.00     0.009 C 
ATOM     15  H2  LC5 d   1       4.017  12.025  17.866  0.00  0.00     0.060 H 
ATOM     16  H3  LC5 d   1       2.359  12.427  18.428  0.00  0.00     0.060 H 
ATOM     17  H4  LC5 d   1       3.474  11.516  19.502  0.00  0.00     0.060 H 
ENDBRANCH  11  14
ENDBRANCH   6   9
ENDBRANCH   4   6
BRANCH   4  18
ATOM     18  C1  LC5 d   1      -0.223  14.511  21.548  0.00  0.00     0.043 C 
ATOM     19  H8  LC5 d   1       0.213  14.290  22.533  0.00  0.00     0.054 H 
ATOM     20  H9  LC5 d   1      -1.031  13.795  21.335  0.00  0.00     0.054 H 
BRANCH  18  21
ATOM     21  P5  LC5 d   1      -0.905  16.202  21.558  0.00  0.00     0.259 P 
ATOM     22  O6  LC5 d   1      -2.281  16.140  22.193  0.00  0.00    -0.640 OA
ATOM     23  O7  LC5 d   1      -0.015  17.113  22.382  0.00  0.00    -0.640 OA
ATOM     24  O8  LC5 d   1      -1.022  16.713  20.150  0.00  0.00    -0.640 OA
ENDBRANCH  18  21
ENDBRANCH   4  18
ENDBRANCH   1   4
BRANCH   1  25
ATOM     25  C14 LC5 d   1      -0.283  12.327  19.351  0.00  0.00    -0.061 C 
ATOM     26  H12 LC5 d   1      -1.167  12.387  20.002  0.00  0.00     0.033 H 
ATOM     27  H13 LC5 d   1       0.479  11.690  19.824  0.00  0.00     0.033 H 
BRANCH  25  28
ATOM     28  C15 LC5 d   1      -0.694  11.705  17.985  0.00  0.00    -0.040 C 
ATOM     29  H14 LC5 d   1      -1.218  12.466  17.388  0.00  0.00     0.040 H 
ATOM     30  H15 LC5 d   1      -1.367  10.855  18.167  0.00  0.00     0.040 H 
BRANCH  28  31
ATOM     31  C16 LC5 d   1       0.533  11.212  17.201  0.00  0.00    -0.047 A 
ATOM     32  C17 LC5 d   1       1.221  10.031  17.576  0.00  0.00    -0.020 A 
ATOM     33  C23 LC5 d   1       0.819   9.282  18.700  0.00  0.00    -0.072 A 
ATOM     34  C19 LC5 d   1       2.327   9.618  16.834  0.00  0.00    -0.025 A 
ATOM     35  C25 LC5 d   1       1.509   8.130  19.044  0.00  0.00    -0.082 A 
ATOM     36  H16 LC5 d   1      -0.028   9.606  19.294  0.00  0.00     0.084 H 
ATOM     37  C24 LC5 d   1       2.610   7.738  18.309  0.00  0.00    -0.082 A 
ATOM     38  H17 LC5 d   1       1.184   7.536  19.891  0.00  0.00     0.083 H 
ATOM     39  C22 LC5 d   1       3.014   8.476  17.197  0.00  0.00    -0.072 A 
ATOM     40  H18 LC5 d   1       3.163   6.852  18.598  0.00  0.00     0.083 H 
ATOM     41  H19 LC5 d   1       3.870   8.152  16.616  0.00  0.00     0.084 H 
ATOM     42  C21 LC5 d   1       2.754  10.364  15.731  0.00  0.00    -0.072 A 
ATOM     43  C20 LC5 d   1       2.071  11.503  15.355  0.00  0.00    -0.082 A 
ATOM     44  H20 LC5 d   1       3.625  10.046  15.169  0.00  0.00     0.084 H 
ATOM     45  C18 LC5 d   1       0.955  11.924  16.077  0.00  0.00    -0.076 A 
ATOM     46  H21 LC5 d   1       2.404  12.073  14.495  0.00  0.00     0.083 H 
ATOM     47  H22 LC5 d   1       0.412  12.809  15.764  0.00  0.00     0.084 H 
ENDBRANCH  28  31
ENDBRANCH  25  28
ENDBRANCH   1  25
TORSDOF 10
