REMARK  12 active torsions:
REMARK  status: ('A' for Active; 'I' for Inactive)
REMARK    1  A    between atoms: C2_2  and  C1_1 
REMARK    2  A    between atoms: C1_1  and  P5_18 
REMARK    3  A    between atoms: C2_2  and  C3_3 
REMARK    4  A    between atoms: C13_8  and  C2_2 
REMARK    5  A    between atoms: C3_3  and  C4_4 
REMARK       I    between atoms: C4_4  and  N9_16 
REMARK    6  A    between atoms: N9_16  and  C11_7 
REMARK    7  A    between atoms: C14_9  and  C13_8 
REMARK    8  A    between atoms: C15_10  and  C14_9 
REMARK    9  A    between atoms: C16_11  and  C15_10 
REMARK   10  A    between atoms: O22_22  and  C23_14 
REMARK   11  A    between atoms: N9_16  and  O10_17 
REMARK   12  A    between atoms: C21_21  and  O22_22 
ROOT
ATOM      1  C13 6J8 d   1       0.283  13.416  19.314  0.00  0.00    -0.060 C 
ATOM      2  H9  6J8 d   1       0.996  13.388  18.477  0.00  0.00     0.033 H 
ATOM      3  H10 6J8 d   1      -0.592  14.020  19.031  0.00  0.00     0.033 H 
ENDROOT
BRANCH   1   4
ATOM      4  C2  6J8 d   1       0.978  14.089  20.535  0.00  0.00    -0.034 C 
ATOM      5  H3  6J8 d   1       1.313  15.089  20.222  0.00  0.00     0.041 H 
BRANCH   4   6
ATOM      6  C1  6J8 d   1      -0.007  14.265  21.696  0.00  0.00     0.043 C 
ATOM      7  H1  6J8 d   1       0.525  14.138  22.651  0.00  0.00     0.054 H 
ATOM      8  H2  6J8 d   1      -0.804  13.511  21.618  0.00  0.00     0.054 H 
BRANCH   6   9
ATOM      9  P5  6J8 d   1      -0.736  15.928  21.625  0.00  0.00     0.259 P 
ATOM     10  O6  6J8 d   1      -2.119  15.876  22.226  0.00  0.00    -0.640 OA
ATOM     11  O7  6J8 d   1       0.119  16.884  22.409  0.00  0.00    -0.640 OA
ATOM     12  O8  6J8 d   1      -0.833  16.381  20.207  0.00  0.00    -0.640 OA
ENDBRANCH   6   9
ENDBRANCH   4   6
BRANCH   4  13
ATOM     13  C3  6J8 d   1       2.227  13.292  20.986  0.00  0.00     0.015 C 
ATOM     14  H4  6J8 d   1       2.130  12.244  20.668  0.00  0.00     0.047 H 
ATOM     15  H5  6J8 d   1       2.317  13.336  22.081  0.00  0.00     0.047 H 
BRANCH  13  16
ATOM     16  C4  6J8 d   1       3.468  13.909  20.346  0.00  0.00     0.243 C 
ATOM     17  O12 6J8 d   1       3.950  14.907  20.865  0.00  0.00    -0.271 OA
ATOM     18  N9  6J8 d   1       4.001  13.399  19.190  0.00  0.00    -0.233 N 
BRANCH  18  19
ATOM     19  C11 6J8 d   1       3.443  12.183  18.535  0.00  0.00     0.009 C 
ATOM     20  H6  6J8 d   1       4.022  11.957  17.628  0.00  0.00     0.060 H 
ATOM     21  H7  6J8 d   1       2.392  12.362  18.264  0.00  0.00     0.060 H 
ATOM     22  H8  6J8 d   1       3.502  11.332  19.230  0.00  0.00     0.060 H 
ENDBRANCH  18  19
BRANCH  18  23
ATOM     23  O10 6J8 d   1       5.119  14.029  18.617  0.00  0.00    -0.285 OA
ATOM     24  H20 6J8 d   1       5.359  14.784  19.141  0.00  0.00     0.245 HD
ENDBRANCH  18  23
ENDBRANCH  13  16
ENDBRANCH   4  13
ENDBRANCH   1   4
BRANCH   1  25
ATOM     25  C14 6J8 d   1      -0.190  11.971  19.608  0.00  0.00    -0.061 C 
ATOM     26  H11 6J8 d   1      -0.937  11.987  20.415  0.00  0.00     0.033 H 
ATOM     27  H12 6J8 d   1       0.671  11.359  19.917  0.00  0.00     0.033 H 
BRANCH  25  28
ATOM     28  C15 6J8 d   1      -0.822  11.365  18.334  0.00  0.00    -0.041 C 
ATOM     29  H13 6J8 d   1      -1.518  12.094  17.893  0.00  0.00     0.040 H 
ATOM     30  H14 6J8 d   1      -1.371  10.450  18.602  0.00  0.00     0.040 H 
BRANCH  28  31
ATOM     31  C16 6J8 d   1       0.254  11.022  17.316  0.00  0.00    -0.058 A 
ATOM     32  C17 6J8 d   1       1.068   9.926  17.519  0.00  0.00    -0.074 A 
ATOM     33  C19 6J8 d   1       2.050   9.603  16.598  0.00  0.00    -0.050 A 
ATOM     34  H15 6J8 d   1       0.938   9.315  18.405  0.00  0.00     0.084 H 
ATOM     35  C21 6J8 d   1       2.238  10.388  15.471  0.00  0.00     0.068 A 
ATOM     36  H21 6J8 d   1       2.675   8.732  16.759  0.00  0.00     0.087 H 
ATOM     37  C20 6J8 d   1       1.406  11.497  15.255  0.00  0.00    -0.050 A 
ATOM     38  C18 6J8 d   1       0.421  11.812  16.180  0.00  0.00    -0.074 A 
ATOM     39  H22 6J8 d   1       1.532  12.106  14.367  0.00  0.00     0.087 H 
ATOM     40  H16 6J8 d   1      -0.218  12.672  16.019  0.00  0.00     0.084 H 
BRANCH  35  41
ATOM     41  O22 6J8 d   1       3.215  10.035  14.553  0.00  0.00    -0.356 OA
BRANCH  41  42
ATOM     42  C23 6J8 d   1       3.779  11.001  13.641  0.00  0.00     0.010 C 
ATOM     43  H17 6J8 d   1       4.531  10.510  13.006  0.00  0.00     0.066 H 
ATOM     44  H18 6J8 d   1       4.255  11.811  14.213  0.00  0.00     0.066 H 
ATOM     45  H19 6J8 d   1       2.981  11.418  13.009  0.00  0.00     0.066 H 
ENDBRANCH  41  42
ENDBRANCH  35  41
ENDBRANCH  28  31
ENDBRANCH  25  28
ENDBRANCH   1  25
TORSDOF 12
