REMARK  12 active torsions:
REMARK  status: ('A' for Active; 'I' for Inactive)
REMARK    1  A    between atoms: C2_2  and  C1_1 
REMARK    2  A    between atoms: C1_1  and  P5_15 
REMARK    3  A    between atoms: C2_2  and  C3_3 
REMARK    4  A    between atoms: C13_20  and  C2_2 
REMARK    5  A    between atoms: C3_3  and  C4_4 
REMARK       I    between atoms: C4_4  and  N9_17 
REMARK    6  A    between atoms: N9_17  and  C11_7 
REMARK    7  A    between atoms: C15_9  and  C14_8 
REMARK    8  A    between atoms: C14_8  and  C13_20 
REMARK    9  A    between atoms: C16_21  and  C15_9 
REMARK   10  A    between atoms: C19_12  and  O22_22 
REMARK   11  A    between atoms: N9_17  and  O10_18 
REMARK   12  A    between atoms: O22_22  and  C23_23 
ROOT
ATOM      1  C13 6JB d   1       0.428  13.558  19.036  0.00  0.00    -0.060 C 
ATOM      2  H18 6JB d   1       1.281  13.540  18.341  0.00  0.00     0.033 H 
ATOM      3  H19 6JB d   1      -0.342  14.244  18.654  0.00  0.00     0.033 H 
ENDROOT
BRANCH   1   4
ATOM      4  C2  6JB d   1       0.933  14.119  20.395  0.00  0.00    -0.034 C 
ATOM      5  H3  6JB d   1       1.282  15.143  20.197  0.00  0.00     0.041 H 
BRANCH   4   6
ATOM      6  C1  6JB d   1      -0.200  14.232  21.438  0.00  0.00     0.043 C 
ATOM      7  H1  6JB d   1       0.193  13.961  22.429  0.00  0.00     0.054 H 
ATOM      8  H2  6JB d   1      -1.013  13.543  21.165  0.00  0.00     0.054 H 
BRANCH   6   9
ATOM      9  P5  6JB d   1      -0.852  15.935  21.497  0.00  0.00     0.259 P 
ATOM     10  O7  6JB d   1       0.066  16.781  22.337  0.00  0.00    -0.640 OA
ATOM     11  O8  6JB d   1      -0.957  16.536  20.136  0.00  0.00    -0.640 OA
ATOM     12  O6  6JB d   1      -2.226  15.875  22.113  0.00  0.00    -0.640 OA
ENDBRANCH   6   9
ENDBRANCH   4   6
BRANCH   4  13
ATOM     13  C3  6JB d   1       2.149  13.340  20.953  0.00  0.00     0.015 C 
ATOM     14  H4  6JB d   1       2.044  12.268  20.729  0.00  0.00     0.047 H 
ATOM     15  H5  6JB d   1       2.220  13.482  22.041  0.00  0.00     0.047 H 
BRANCH  13  16
ATOM     16  C4  6JB d   1       3.387  13.892  20.277  0.00  0.00     0.243 C 
ATOM     17  N9  6JB d   1       3.986  13.316  19.208  0.00  0.00    -0.233 N 
ATOM     18  O12 6JB d   1       3.815  14.950  20.715  0.00  0.00    -0.271 OA
BRANCH  17  19
ATOM     19  C11 6JB d   1       3.565  12.042  18.587  0.00  0.00     0.009 C 
ATOM     20  H6  6JB d   1       4.226  11.812  17.738  0.00  0.00     0.060 H 
ATOM     21  H7  6JB d   1       2.529  12.133  18.230  0.00  0.00     0.060 H 
ATOM     22  H8  6JB d   1       3.627  11.234  19.330  0.00  0.00     0.060 H 
ENDBRANCH  17  19
BRANCH  17  23
ATOM     23  O10 6JB d   1       5.080  13.977  18.631  0.00  0.00    -0.285 OA
ATOM     24  H17 6JB d   1       5.255  14.777  19.113  0.00  0.00     0.245 HD
ENDBRANCH  17  23
ENDBRANCH  13  16
ENDBRANCH   4  13
ENDBRANCH   1   4
BRANCH   1  25
ATOM     25  C14 6JB d   1      -0.183  12.133  19.075  0.00  0.00    -0.061 C 
ATOM     26  H9  6JB d   1       0.559  11.430  19.481  0.00  0.00     0.033 H 
ATOM     27  H10 6JB d   1      -1.075  12.137  19.719  0.00  0.00     0.033 H 
BRANCH  25  28
ATOM     28  C15 6JB d   1      -0.583  11.689  17.647  0.00  0.00    -0.041 C 
ATOM     29  H11 6JB d   1      -1.047  12.540  17.128  0.00  0.00     0.040 H 
ATOM     30  H12 6JB d   1      -1.308  10.866  17.722  0.00  0.00     0.040 H 
BRANCH  28  31
ATOM     31  C16 6JB d   1       0.612  11.216  16.838  0.00  0.00    -0.056 A 
ATOM     32  C17 6JB d   1       1.231  10.038  17.184  0.00  0.00    -0.045 A 
ATOM     33  C19 6JB d   1       2.333   9.588  16.464  0.00  0.00     0.068 A 
ATOM     34  H13 6JB d   1       0.859   9.458  18.021  0.00  0.00     0.088 H 
ATOM     35  C21 6JB d   1       2.800  10.323  15.378  0.00  0.00    -0.051 A 
ATOM     36  C20 6JB d   1       2.179  11.509  15.025  0.00  0.00    -0.080 A 
ATOM     37  H16 6JB d   1       3.651   9.966  14.808  0.00  0.00     0.087 H 
ATOM     38  C18 6JB d   1       1.079  11.952  15.751  0.00  0.00    -0.077 A 
ATOM     39  H15 6JB d   1       2.548  12.089  14.187  0.00  0.00     0.083 H 
ATOM     40  H14 6JB d   1       0.583  12.874  15.470  0.00  0.00     0.084 H 
BRANCH  33  41
ATOM     41  O22 6JB d   1       2.967   8.424  16.776  0.00  0.00    -0.356 OA
BRANCH  41  42
ATOM     42  C23 6JB d   1       2.729   7.665  17.992  0.00  0.00     0.010 C 
ATOM     43  H20 6JB d   1       3.368   6.770  17.996  0.00  0.00     0.066 H 
ATOM     44  H21 6JB d   1       1.673   7.361  18.034  0.00  0.00     0.066 H 
ATOM     45  H22 6JB d   1       2.966   8.289  18.866  0.00  0.00     0.066 H 
ENDBRANCH  41  42
ENDBRANCH  33  41
ENDBRANCH  28  31
ENDBRANCH  25  28
ENDBRANCH   1  25
TORSDOF 12
