REMARK  9 active torsions:
REMARK  status: ('A' for Active; 'I' for Inactive)
REMARK    1  A    between atoms: C6_4  and  C7_7 
REMARK    2  A    between atoms: C11_9  and  O26_10 
REMARK    3  A    between atoms: O26_10  and  C29_11 
REMARK    4  A    between atoms: C10_12  and  O25_13 
REMARK    5  A    between atoms: O25_13  and  C28_14 
REMARK    6  A    between atoms: C9_15  and  O24_16 
REMARK    7  A    between atoms: O24_16  and  C27_17 
REMARK    8  A    between atoms: C3_21  and  S30_22 
REMARK    9  A    between atoms: S30_22  and  C31_23 
ROOT
ATOM      1  C2  NV4 d   1     -18.730  65.102 -45.317  0.00  0.00    -0.034 A 
ATOM      2  C4  NV4 d   1     -19.962  67.012 -44.185  0.00  0.00    -0.003 C 
ATOM      3  C5  NV4 d   1     -19.838  66.175 -42.900  0.00  0.00     0.048 C 
ATOM      4  C6  NV4 d   1     -18.661  65.185 -42.704  0.00  0.00     0.010 C 
ATOM      5  O16 NV4 d   1     -20.271  66.975 -40.672  0.00  0.00    -0.265 OA
ATOM      6  C13 NV4 d   1     -20.083  67.214 -41.854  0.00  0.00     0.264 C 
ATOM      7  O14 NV4 d   1     -20.153  68.544 -42.442  0.00  0.00    -0.321 OA
ATOM      8  C15 NV4 d   1     -19.772  68.485 -43.817  0.00  0.00     0.034 C 
ATOM      9  C3  NV4 d   1     -19.301  66.476 -45.469  0.00  0.00     0.030 C 
ATOM     10  C17 NV4 d   1     -18.491  64.390 -46.501  0.00  0.00    -0.040 A 
ATOM     11  C18 NV4 d   1     -17.980  63.107 -46.391  0.00  0.00     0.105 A 
ATOM     12  O21 NV4 d   1     -17.685  62.201 -47.356  0.00  0.00    -0.323 OA
ATOM     13  C22 NV4 d   1     -17.245  60.975 -46.732  0.00  0.00     0.115 A 
ATOM     14  O23 NV4 d   1     -17.197  61.255 -45.327  0.00  0.00    -0.323 OA
ATOM     15  C19 NV4 d   1     -17.685  62.501 -45.102  0.00  0.00     0.105 A 
ATOM     16  C20 NV4 d   1     -17.898  63.177 -43.916  0.00  0.00    -0.041 A 
ATOM     17  C1  NV4 d   1     -18.418  64.475 -43.985  0.00  0.00    -0.038 A 
ATOM     18  H1  NV4 d   1     -21.030  66.944 -44.439  0.00  0.00     0.046 H 
ATOM     19  H2  NV4 d   1     -20.715  65.511 -42.888  0.00  0.00     0.057 H 
ATOM     20  H3  NV4 d   1     -19.089  64.419 -42.040  0.00  0.00     0.056 H 
ATOM     21  H15 NV4 d   1     -20.419  69.129 -44.431  0.00  0.00     0.075 H 
ATOM     22  H16 NV4 d   1     -18.723  68.789 -43.946  0.00  0.00     0.075 H 
ATOM     23  H17 NV4 d   1     -20.120  66.375 -46.197  0.00  0.00     0.065 H 
ATOM     24  H20 NV4 d   1     -18.699  64.829 -47.470  0.00  0.00     0.088 H 
ATOM     25  H21 NV4 d   1     -16.248  60.692 -47.102  0.00  0.00     0.118 H 
ATOM     26  H22 NV4 d   1     -17.957  60.162 -46.938  0.00  0.00     0.118 H 
ATOM     27  H23 NV4 d   1     -17.669  62.717 -42.962  0.00  0.00     0.088 H 
ENDROOT
BRANCH   4  28
ATOM     28  C7  NV4 d   1     -17.409  65.573 -41.967  0.00  0.00    -0.043 C 
ATOM     29  C12 NV4 d   1     -16.211  65.870 -42.622  0.00  0.00    -0.041 C 
ATOM     30  C11 NV4 d   1     -15.029  66.168 -41.914  0.00  0.00     0.104 C 
ATOM     31  H4  NV4 d   1     -16.190  65.871 -43.706  0.00  0.00     0.088 H 
ATOM     32  C10 NV4 d   1     -15.016  66.280 -40.431  0.00  0.00     0.135 C 
ATOM     33  C9  NV4 d   1     -16.291  65.872 -39.802  0.00  0.00     0.104 C 
ATOM     34  C8  NV4 d   1     -17.427  65.572 -40.568  0.00  0.00    -0.041 C 
ATOM     35  H14 NV4 d   1     -18.352  65.331 -40.058  0.00  0.00     0.088 H 
BRANCH  30  36
ATOM     36  O26 NV4 d   1     -13.877  66.481 -42.606  0.00  0.00    -0.353 OA
BRANCH  36  37
ATOM     37  C29 NV4 d   1     -13.839  66.390 -44.034  0.00  0.00     0.010 C 
ATOM     38  H5  NV4 d   1     -12.840  66.679 -44.393  0.00  0.00     0.066 H 
ATOM     39  H6  NV4 d   1     -14.593  67.065 -44.465  0.00  0.00     0.066 H 
ATOM     40  H7  NV4 d   1     -14.055  65.356 -44.341  0.00  0.00     0.066 H 
ENDBRANCH  36  37
ENDBRANCH  30  36
BRANCH  32  41
ATOM     41  O25 NV4 d   1     -13.853  65.851 -39.710  0.00  0.00    -0.351 OA
BRANCH  41  42
ATOM     42  C28 NV4 d   1     -13.249  64.672 -40.228  0.00  0.00     0.011 C 
ATOM     43  H8  NV4 d   1     -12.369  64.414 -39.621  0.00  0.00     0.067 H 
ATOM     44  H9  NV4 d   1     -12.938  64.846 -41.269  0.00  0.00     0.067 H 
ATOM     45  H10 NV4 d   1     -13.973  63.844 -40.195  0.00  0.00     0.067 H 
ENDBRANCH  41  42
ENDBRANCH  32  41
BRANCH  33  46
ATOM     46  O24 NV4 d   1     -16.317  65.902 -38.435  0.00  0.00    -0.353 OA
BRANCH  46  47
ATOM     47  C27 NV4 d   1     -17.438  65.395 -37.723  0.00  0.00     0.010 C 
ATOM     48  H11 NV4 d   1     -17.268  65.509 -36.642  0.00  0.00     0.066 H 
ATOM     49  H12 NV4 d   1     -17.574  64.330 -37.963  0.00  0.00     0.066 H 
ATOM     50  H13 NV4 d   1     -18.340  65.954 -38.013  0.00  0.00     0.066 H 
ENDBRANCH  46  47
ENDBRANCH  33  46
ENDBRANCH   4  28
BRANCH   9  51
ATOM     51  S30 NV4 d   1     -18.150  67.615 -46.205  0.00  0.00    -0.081 SA
BRANCH  51  52
ATOM     52  C31 NV4 d   1     -19.016  68.928 -46.988  0.00  0.00     0.184 A 
ATOM     53  N35 NV4 d   1     -20.349  68.929 -47.191  0.00  0.00    -0.215 NA
ATOM     54  C34 NV4 d   1     -20.611  70.100 -47.816  0.00  0.00     0.108 A 
ATOM     55  N33 NV4 d   1     -19.447  70.779 -47.979  0.00  0.00    -0.166 NA
ATOM     56  H18 NV4 d   1     -21.594  70.442 -48.136  0.00  0.00     0.149 H 
ATOM     57  N32 NV4 d   1     -18.391  70.023 -47.439  0.00  0.00    -0.254 N 
ATOM     58  H19 NV4 d   1     -17.388  70.254 -47.400  0.00  0.00     0.191 HD
ENDBRANCH  51  52
ENDBRANCH   9  51
TORSDOF 9
