REMARK  5 active torsions:
REMARK  status: ('A' for Active; 'I' for Inactive)
REMARK    1  A    between atoms: CAO_2  and  OAQ_3 
REMARK    2  A    between atoms: CAP_4  and  OAR_5 
REMARK    3  A    between atoms: CAM_8  and  CAJ_9 
REMARK    4  A    between atoms: CAC_14  and  OAU_15 
REMARK    5  A    between atoms: CAI_20  and  OAS_21 
ROOT
ATOM      1  CAJ 6JM d   1       6.262 -15.410  14.400  0.00  0.00     0.123 A 
ATOM      2  OAG 6JM d   1       6.545 -14.212  15.007  0.00  0.00    -0.306 OA
ATOM      3  CAF 6JM d   1       7.767 -13.582  14.828  0.00  0.00     0.090 A 
ATOM      4  CAA 6JM d   1       7.947 -12.362  15.425  0.00  0.00    -0.047 A 
ATOM      5  CAB 6JM d   1       9.173 -11.734  15.278  0.00  0.00    -0.048 A 
ATOM      6  CAC 6JM d   1      10.201 -12.277  14.532  0.00  0.00     0.066 A 
ATOM      7  CAD 6JM d   1      10.034 -13.520  13.895  0.00  0.00    -0.034 A 
ATOM      8  CAE 6JM d   1       8.806 -14.190  14.085  0.00  0.00     0.053 A 
ATOM      9  CAH 6JM d   1       8.587 -15.416  13.469  0.00  0.00     0.220 A 
ATOM     10  OAT 6JM d   1       9.483 -15.945  12.765  0.00  0.00    -0.284 OA
ATOM     11  CAI 6JM d   1       7.312 -15.982  13.635  0.00  0.00     0.152 A 
ATOM     12  H6  6JM d   1       7.151 -11.900  15.998  0.00  0.00     0.087 H 
ATOM     13  H7  6JM d   1       9.332 -10.780  15.767  0.00  0.00     0.087 H 
ATOM     14  H9  6JM d   1      10.819 -13.947  13.281  0.00  0.00     0.089 H 
ENDROOT
BRANCH   1  15
ATOM     15  CAM 6JM d   1       4.982 -15.941  14.686  0.00  0.00     0.004 A 
ATOM     16  CAN 6JM d   1       3.970 -15.073  15.136  0.00  0.00    -0.035 A 
ATOM     17  CAO 6JM d   1       2.692 -15.552  15.441  0.00  0.00     0.099 A 
ATOM     18  H1  6JM d   1       4.184 -14.016  15.248  0.00  0.00     0.089 H 
ATOM     19  CAP 6JM d   1       2.403 -16.926  15.342  0.00  0.00     0.098 A 
ATOM     20  CAK 6JM d   1       3.398 -17.834  14.922  0.00  0.00    -0.047 A 
ATOM     21  CAL 6JM d   1       4.675 -17.324  14.600  0.00  0.00    -0.068 A 
ATOM     22  H4  6JM d   1       3.188 -18.895  14.848  0.00  0.00     0.087 H 
ATOM     23  H5  6JM d   1       5.447 -18.012  14.276  0.00  0.00     0.085 H 
BRANCH  17  24
ATOM     24  OAQ 6JM d   1       1.698 -14.721  15.885  0.00  0.00    -0.358 OA
ATOM     25  H2  6JM d   1       0.908 -15.227  16.037  0.00  0.00     0.217 HD
ENDBRANCH  17  24
BRANCH  19  26
ATOM     26  OAR 6JM d   1       1.118 -17.310  15.682  0.00  0.00    -0.358 OA
ATOM     27  H3  6JM d   1       0.946 -17.071  16.585  0.00  0.00     0.217 HD
ENDBRANCH  19  26
ENDBRANCH   1  15
BRANCH  11  28
ATOM     28  OAS 6JM d   1       7.039 -17.049  12.891  0.00  0.00    -0.355 OA
ATOM     29  H10 6JM d   1       7.105 -16.818  11.972  0.00  0.00     0.218 HD
ENDBRANCH  11  28
BRANCH   6  30
ATOM     30  OAU 6JM d   1      11.353 -11.569  14.473  0.00  0.00    -0.361 OA
ATOM     31  H8  6JM d   1      11.983 -12.036  13.937  0.00  0.00     0.217 HD
ENDBRANCH   6  30
TORSDOF 5
