REMARK  6 active torsions:
REMARK  status: ('A' for Active; 'I' for Inactive)
REMARK    1  A    between atoms: CAD_5  and  OAU_6 
REMARK    2  A    between atoms: CAB_8  and  OAV_9 
REMARK    3  A    between atoms: CAJ_13  and  CAK_14 
REMARK    4  A    between atoms: CAL_16  and  OAQ_17 
REMARK    5  A    between atoms: CAP_18  and  OAR_19 
REMARK    6  A    between atoms: OAR_19  and  CAS_20 
ROOT
ATOM      1  CAI 6JP d   1     -31.632 -16.060  14.721  0.00  0.00     0.024 C 
ATOM      2  CAH 6JP d   1     -30.503 -15.895  13.873  0.00  0.00     0.167 C 
ATOM      3  OAT 6JP d   1     -30.262 -16.755  13.019  0.00  0.00    -0.292 OA
ATOM      4  CAE 6JP d   1     -29.596 -14.808  14.048  0.00  0.00     0.076 A 
ATOM      5  CAD 6JP d   1     -28.283 -14.820  13.571  0.00  0.00     0.085 A 
ATOM      6  CAC 6JP d   1     -27.431 -13.719  13.799  0.00  0.00    -0.018 A 
ATOM      7  CAB 6JP d   1     -27.872 -12.585  14.503  0.00  0.00     0.071 A 
ATOM      8  CAA 6JP d   1     -29.165 -12.561  14.986  0.00  0.00    -0.018 A 
ATOM      9  CAF 6JP d   1     -30.000 -13.644  14.752  0.00  0.00     0.089 A 
ATOM     10  OAG 6JP d   1     -31.259 -13.623  15.251  0.00  0.00    -0.340 OA
ATOM     11  CAJ 6JP d   1     -32.247 -14.647  14.873  0.00  0.00     0.077 C 
ATOM     12  H1  6JP d   1     -31.322 -16.452  15.701  0.00  0.00     0.049 H 
ATOM     13  H2  6JP d   1     -32.358 -16.748  14.264  0.00  0.00     0.049 H 
ATOM     14  H4  6JP d   1     -26.415 -13.748  13.423  0.00  0.00     0.092 H 
ATOM     15  H6  6JP d   1     -29.525 -11.704  15.543  0.00  0.00     0.092 H 
ATOM     16  H7  6JP d   1     -32.608 -14.395  13.865  0.00  0.00     0.092 H 
ENDROOT
BRANCH  11  17
ATOM     17  CAK 6JP d   1     -33.349 -14.446  15.741  0.00  0.00    -0.026 A 
ATOM     18  CAM 6JP d   1     -33.434 -13.194  16.402  0.00  0.00    -0.040 A 
ATOM     19  CAL 6JP d   1     -34.501 -12.896  17.229  0.00  0.00     0.099 A 
ATOM     20  H8  6JP d   1     -32.650 -12.459  16.256  0.00  0.00     0.088 H 
ATOM     21  CAP 6JP d   1     -35.558 -13.819  17.399  0.00  0.00     0.101 A 
ATOM     22  CAO 6JP d   1     -35.490 -15.056  16.704  0.00  0.00    -0.047 A 
ATOM     23  CAN 6JP d   1     -34.397 -15.366  15.878  0.00  0.00    -0.072 A 
ATOM     24  H13 6JP d   1     -36.295 -15.773  16.813  0.00  0.00     0.087 H 
ATOM     25  H14 6JP d   1     -34.364 -16.312  15.349  0.00  0.00     0.084 H 
BRANCH  19  26
ATOM     26  OAQ 6JP d   1     -34.528 -11.726  17.910  0.00  0.00    -0.358 OA
ATOM     27  H9  6JP d   1     -34.506 -11.002  17.295  0.00  0.00     0.217 HD
ENDBRANCH  19  26
BRANCH  21  28
ATOM     28  OAR 6JP d   1     -36.582 -13.425  18.268  0.00  0.00    -0.353 OA
BRANCH  28  29
ATOM     29  CAS 6JP d   1     -37.579 -14.347  18.790  0.00  0.00     0.010 C 
ATOM     30  H10 6JP d   1     -38.273 -13.803  19.448  0.00  0.00     0.066 H 
ATOM     31  H11 6JP d   1     -37.079 -15.142  19.362  0.00  0.00     0.066 H 
ATOM     32  H12 6JP d   1     -38.139 -14.793  17.955  0.00  0.00     0.066 H 
ENDBRANCH  28  29
ENDBRANCH  21  28
ENDBRANCH  11  17
BRANCH   5  33
ATOM     33  OAU 6JP d   1     -27.868 -15.964  12.894  0.00  0.00    -0.360 OA
ATOM     34  H3  6JP d   1     -28.419 -16.097  12.132  0.00  0.00     0.217 HD
ENDBRANCH   5  33
BRANCH   7  35
ATOM     35  OAV 6JP d   1     -27.071 -11.517  14.758  0.00  0.00    -0.361 OA
ATOM     36  H5  6JP d   1     -27.561 -10.864  15.243  0.00  0.00     0.217 HD
ENDBRANCH   7  35
TORSDOF 6
