REMARK  4 active torsions:
REMARK  status: ('A' for Active; 'I' for Inactive)
REMARK    1  A    between atoms: CAO_2  and  OAQ_3 
REMARK    2  A    between atoms: CAM_7  and  CAJ_8 
REMARK    3  A    between atoms: CAB_13  and  OAT_14 
REMARK    4  A    between atoms: CAI_19  and  OAR_20 
ROOT
ATOM      1  CAJ 6JO d   1       6.311 -15.582  14.237  0.00  0.00     0.123 C 
ATOM      2  OAG 6JO d   1       6.616 -14.382  14.897  0.00  0.00    -0.306 OA
ATOM      3  CAE 6JO d   1       7.813 -13.732  14.755  0.00  0.00     0.090 A 
ATOM      4  CAF 6JO d   1       7.950 -12.518  15.353  0.00  0.00    -0.047 A 
ATOM      5  CAA 6JO d   1       9.162 -11.913  15.248  0.00  0.00    -0.048 A 
ATOM      6  CAB 6JO d   1      10.214 -12.351  14.484  0.00  0.00     0.066 A 
ATOM      7  CAC 6JO d   1      10.039 -13.548  13.826  0.00  0.00    -0.034 A 
ATOM      8  CAD 6JO d   1       8.880 -14.253  14.018  0.00  0.00     0.053 A 
ATOM      9  CAH 6JO d   1       8.581 -15.510  13.355  0.00  0.00     0.220 C 
ATOM     10  OAS 6JO d   1       9.503 -16.049  12.698  0.00  0.00    -0.284 OA
ATOM     11  CAI 6JO d   1       7.311 -16.046  13.408  0.00  0.00     0.152 C 
ATOM     12  H6  6JO d   1       7.130 -12.054  15.889  0.00  0.00     0.087 H 
ATOM     13  H7  6JO d   1       9.311 -11.003  15.819  0.00  0.00     0.087 H 
ATOM     14  H9  6JO d   1      10.809 -13.928  13.164  0.00  0.00     0.089 H 
ENDROOT
BRANCH   1  15
ATOM     15  CAM 6JO d   1       5.053 -16.058  14.546  0.00  0.00     0.003 A 
ATOM     16  CAN 6JO d   1       4.038 -15.120  14.861  0.00  0.00    -0.038 A 
ATOM     17  CAO 6JO d   1       2.793 -15.660  15.224  0.00  0.00     0.066 A 
ATOM     18  H1  6JO d   1       4.212 -14.051  14.824  0.00  0.00     0.089 H 
ATOM     19  CAP 6JO d   1       2.584 -17.039  15.292  0.00  0.00    -0.051 A 
ATOM     20  CAK 6JO d   1       3.609 -17.977  15.003  0.00  0.00    -0.079 A 
ATOM     21  H3  6JO d   1       1.604 -17.406  15.576  0.00  0.00     0.087 H 
ATOM     22  CAL 6JO d   1       4.812 -17.473  14.629  0.00  0.00    -0.070 A 
ATOM     23  H4  6JO d   1       3.439 -19.045  15.078  0.00  0.00     0.083 H 
ATOM     24  H5  6JO d   1       5.616 -18.158  14.385  0.00  0.00     0.084 H 
BRANCH  17  25
ATOM     25  OAQ 6JO d   1       1.749 -14.792  15.555  0.00  0.00    -0.361 OA
ATOM     26  H2  6JO d   1       1.559 -14.230  14.813  0.00  0.00     0.217 HD
ENDBRANCH  17  25
ENDBRANCH   1  15
BRANCH  11  27
ATOM     27  OAR 6JO d   1       7.026 -17.102  12.635  0.00  0.00    -0.355 OA
ATOM     28  H10 6JO d   1       7.152 -16.868  11.723  0.00  0.00     0.218 HD
ENDBRANCH  11  27
BRANCH   6  29
ATOM     29  OAT 6JO d   1      11.370 -11.606  14.490  0.00  0.00    -0.361 OA
ATOM     30  H8  6JO d   1      12.013 -12.017  13.924  0.00  0.00     0.217 HD
ENDBRANCH   6  29
TORSDOF 4
