REMARK WARNING: 32 MAX_TORS EXCEEDED!!!
REMARK  59 active torsions:
REMARK  status: ('A' for Active; 'I' for Inactive)
REMARK    1  A    between atoms: N_1  and  CA_2 
REMARK    2  A    between atoms: CA_2  and  C_3 
REMARK    3  A    between atoms: CA_2  and  CB_5 
REMARK       I    between atoms: C_3  and  N_7 
REMARK    4  A    between atoms: CB_5  and  OG_6 
REMARK    5  A    between atoms: N_7  and  CA_8 
REMARK    6  A    between atoms: CA_8  and  C_9 
REMARK       I    between atoms: C_9  and  N_11 
REMARK    7  A    between atoms: N_11  and  CA_12 
REMARK    8  A    between atoms: CA_12  and  C_13 
REMARK    9  A    between atoms: CA_12  and  CB_15 
REMARK       I    between atoms: C_13  and  N_17 
REMARK   10  A    between atoms: CB_15  and  SG_16 
REMARK   11  A    between atoms: N_17  and  CA_18 
REMARK   12  A    between atoms: CA_18  and  C_19 
REMARK   13  A    between atoms: CA_18  and  CB_21 
REMARK       I    between atoms: C_19  and  N_28 
REMARK   14  A    between atoms: CB_21  and  CG_22 
REMARK   15  A    between atoms: N_28  and  CA_29 
REMARK   16  A    between atoms: CA_29  and  C_30 
REMARK   17  A    between atoms: CA_29  and  CB_32 
REMARK       I    between atoms: C_30  and  N_37 
REMARK   18  A    between atoms: CB_32  and  CG_33 
REMARK   19  A    between atoms: CG_33  and  CD_34 
REMARK   20  A    between atoms: N_37  and  CA_38 
REMARK   21  A    between atoms: CA_38  and  C_39 
REMARK   22  A    between atoms: CA_38  and  CB_41 
REMARK       I    between atoms: C_39  and  N_45 
REMARK   23  A    between atoms: CB_41  and  CG_42 
REMARK   24  A    between atoms: N_45  and  CA_46 
REMARK   25  A    between atoms: CA_46  and  C_47 
REMARK   26  A    between atoms: CA_46  and  CB_49 
REMARK       I    between atoms: C_47  and  N_53 
REMARK   27  A    between atoms: CB_49  and  CG_50 
REMARK   28  A    between atoms: CG_50  and  CD1_51 
REMARK   29  A    between atoms: CG_50  and  CD2_52 
REMARK   30  A    between atoms: N_53  and  CA_54 
REMARK   31  A    between atoms: CA_54  and  C_55 
REMARK   32  A    between atoms: CA_54  and  CB_57 
REMARK       I    between atoms: C_55  and  N_58 
REMARK   33  A    between atoms: N_58  and  CA_59 
REMARK   34  A    between atoms: CA_59  and  C_60 
REMARK   35  A    between atoms: CA_59  and  CB_62 
REMARK       I    between atoms: C_60  and  N_66 
REMARK   36  A    between atoms: CB_62  and  CG1_63 
REMARK   37  A    between atoms: CB_62  and  CG2_64 
REMARK   38  A    between atoms: CG1_63  and  CD1_65 
REMARK   39  A    between atoms: N_66  and  CA_67 
REMARK   40  A    between atoms: CA_67  and  CB_68 
REMARK   41  A    between atoms: CA_67  and  C_70 
REMARK   42  A    between atoms: CB_68  and  OG_69 
REMARK   43  A    between atoms: OG_69  and  P_72 
REMARK       I    between atoms: C_70  and  N_76 
REMARK   44  A    between atoms: N_76  and  CA_77 
REMARK   45  A    between atoms: CA_77  and  C_78 
REMARK   46  A    between atoms: CA_77  and  CB_80 
REMARK       I    between atoms: C_78  and  N_81 
REMARK   47  A    between atoms: N_81  and  CA_82 
REMARK   48  A    between atoms: CA_82  and  C_83 
REMARK   49  A    between atoms: CA_82  and  CB_85 
REMARK       I    between atoms: C_83  and  N_87 
REMARK   50  A    between atoms: CB_85  and  OG_86 
REMARK   51  A    between atoms: N_87  and  CA_88 
REMARK   52  A    between atoms: CA_88  and  C_89 
REMARK   53  A    between atoms: CA_88  and  CB_91 
REMARK       I    between atoms: C_89  and  N_94 
REMARK   54  A    between atoms: CB_91  and  OG1_92 
REMARK   55  A    between atoms: CB_91  and  CG2_93 
REMARK   56  A    between atoms: N_94  and  CA_95 
REMARK   57  A    between atoms: CA_95  and  C_96 
REMARK   58  A    between atoms: CA_95  and  CB_98 
REMARK   59  A    between atoms: CB_98  and  OG_99 
ROOT
ATOM      1  CA  LEU d   1      34.641  -7.195   4.155  0.00  0.00     0.089 C 
ATOM      2  H36 LEU d   1      33.814  -6.532   3.861  0.00  0.00     0.087 H 
ENDROOT
BRANCH   1   3
ATOM      3  N   LEU d   1      34.438  -8.490   3.521  0.00  0.00    -0.346 N 
ATOM      4  C   ASP d   1      33.656  -8.617   2.455  0.00  0.00     0.241 C 
ATOM      5  O   ASP d   1      32.960  -7.698   2.023  0.00  0.00    -0.271 OA
ATOM      6  H35 LEU d   1      34.895  -9.297   3.894  0.00  0.00     0.163 HD
BRANCH   4   7
ATOM      7  CA  ASP d   1      33.655  -9.980   1.772  0.00  0.00     0.098 C 
ATOM      8  H32 ASP d   1      34.472  -9.983   1.036  0.00  0.00     0.088 H 
BRANCH   7   9
ATOM      9  N   ASP d   1      33.885 -11.093   2.689  0.00  0.00    -0.346 N 
ATOM     10  C   GLU d   1      33.091 -11.371   3.719  0.00  0.00     0.241 C 
ATOM     11  O   GLU d   1      32.175 -10.639   4.095  0.00  0.00    -0.271 OA
ATOM     12  H31 ASP d   1      34.682 -11.677   2.534  0.00  0.00     0.163 HD
BRANCH  10  13
ATOM     13  CA  GLU d   1      33.396 -12.676   4.437  0.00  0.00     0.090 C 
ATOM     14  H26 GLU d   1      34.447 -12.934   4.240  0.00  0.00     0.087 H 
BRANCH  13  15
ATOM     15  N   GLU d   1      33.223 -12.575   5.877  0.00  0.00    -0.346 N 
ATOM     16  C   PHE d   1      34.004 -11.819   6.641  0.00  0.00     0.241 C 
ATOM     17  O   PHE d   1      34.853 -11.044   6.195  0.00  0.00    -0.271 OA
ATOM     18  H25 GLU d   1      32.487 -13.095   6.310  0.00  0.00     0.163 HD
BRANCH  16  19
ATOM     19  CA  PHE d   1      33.780 -11.979   8.137  0.00  0.00     0.093 C 
ATOM     20  H17 PHE d   1      32.742 -12.305   8.296  0.00  0.00     0.088 H 
BRANCH  19  21
ATOM     21  N   PHE d   1      34.669 -13.002   8.661  0.00  0.00    -0.346 N 
ATOM     22  C   CYS d   1      34.187 -14.139   9.144  0.00  0.00     0.241 C 
ATOM     23  O   CYS d   1      32.982 -14.354   9.274  0.00  0.00    -0.271 OA
ATOM     24  H16 PHE d   1      35.657 -12.847   8.657  0.00  0.00     0.163 HD
BRANCH  22  25
ATOM     25  CA  CYS d   1      35.199 -15.191   9.552  0.00  0.00     0.097 C 
ATOM     26  H12 CYS d   1      35.955 -14.738  10.210  0.00  0.00     0.088 H 
BRANCH  25  27
ATOM     27  N   CYS d   1      34.475 -16.214  10.288  0.00  0.00    -0.346 N 
ATOM     28  C   GLY d   1      34.183 -16.051  11.574  0.00  0.00     0.236 C 
ATOM     29  O   GLY d   1      34.691 -15.170  12.269  0.00  0.00    -0.272 OA
ATOM     30  H11 CYS d   1      34.193 -17.052   9.820  0.00  0.00     0.163 HD
BRANCH  28  31
ATOM     31  CA  GLY d   1      33.182 -17.017  12.173  0.00  0.00     0.069 C 
ATOM     32  H9  GLY d   1      32.399 -17.244  11.435  0.00  0.00     0.078 H 
ATOM     33  H10 GLY d   1      33.693 -17.947  12.464  0.00  0.00     0.078 H 
BRANCH  31  34
ATOM     34  N   GLY d   1      32.585 -16.398  13.346  0.00  0.00    -0.350 N 
ATOM     35  C   SER d   1      31.532 -15.571  13.357  0.00  0.00     0.250 C 
ATOM     36  O   SER d   1      31.214 -14.962  14.377  0.00  0.00    -0.271 OA
ATOM     37  H8  GLY d   1      33.001 -16.611  14.230  0.00  0.00     0.163 HD
BRANCH  35  38
ATOM     38  CA  SER d   1      30.697 -15.345  12.078  0.00  0.00     0.195 C 
ATOM     39  H4  SER d   1      30.048 -14.478  12.271  0.00  0.00     0.102 H 
BRANCH  38  40
ATOM     40  N   SER d   1      31.453 -15.041  10.865  0.00  0.00    -0.064 N 
ATOM     41  H1  SER d   1      30.815 -14.913  10.095  0.00  0.00     0.275 HD
ATOM     42  H2  SER d   1      32.079 -15.804  10.659  0.00  0.00     0.275 HD
ATOM     43  H3  SER d   1      31.986 -14.197  11.004  0.00  0.00     0.275 HD
ENDBRANCH  38  40
BRANCH  38  44
ATOM     44  CB  SER d   1      29.802 -16.565  11.844  0.00  0.00     0.051 C 
ATOM     45  H5  SER d   1      30.374 -17.478  12.066  0.00  0.00     0.077 H 
ATOM     46  H6  SER d   1      29.482 -16.580  10.792  0.00  0.00     0.077 H 
BRANCH  44  47
ATOM     47  OG  SER d   1      28.655 -16.522  12.677  0.00  0.00    -0.398 OA
ATOM     48  H7  SER d   1      28.156 -15.736  12.486  0.00  0.00     0.209 HD
ENDBRANCH  44  47
ENDBRANCH  38  44
ENDBRANCH  35  38
ENDBRANCH  31  34
ENDBRANCH  28  31
ENDBRANCH  25  27
BRANCH  25  49
ATOM     49  CB  CYS d   1      35.904 -15.765   8.325  0.00  0.00     0.001 C 
ATOM     50  H13 CYS d   1      35.139 -16.143   7.631  0.00  0.00     0.052 H 
ATOM     51  H14 CYS d   1      36.545 -16.597   8.652  0.00  0.00     0.052 H 
BRANCH  49  52
ATOM     52  SG  CYS d   1      36.929 -14.570   7.444  0.00  0.00    -0.180 SA
ATOM     53  H15 CYS d   1      37.360 -15.019   6.651  0.00  0.00     0.101 HD
ENDBRANCH  49  52
ENDBRANCH  25  49
ENDBRANCH  22  25
ENDBRANCH  19  21
BRANCH  19  54
ATOM     54  CB  PHE d   1      33.982 -10.663   8.881  0.00  0.00    -0.014 C 
ATOM     55  H18 PHE d   1      33.564  -9.849   8.271  0.00  0.00     0.043 H 
ATOM     56  H19 PHE d   1      35.061 -10.501   9.018  0.00  0.00     0.043 H 
BRANCH  54  57
ATOM     57  CG  PHE d   1      33.321 -10.636  10.229  0.00  0.00    -0.056 A 
ATOM     58  CD1 PHE d   1      34.033 -10.955  11.374  0.00  0.00    -0.077 A 
ATOM     59  CE1 PHE d   1      33.420 -10.940  12.618  0.00  0.00    -0.082 A 
ATOM     60  H20 PHE d   1      35.081 -11.219  11.297  0.00  0.00     0.084 H 
ATOM     61  CZ  PHE d   1      32.082 -10.613  12.725  0.00  0.00    -0.083 A 
ATOM     62  H22 PHE d   1      33.991 -11.185  13.506  0.00  0.00     0.083 H 
ATOM     63  CE2 PHE d   1      31.358 -10.301  11.589  0.00  0.00    -0.082 A 
ATOM     64  H24 PHE d   1      31.601 -10.601  13.697  0.00  0.00     0.083 H 
ATOM     65  CD2 PHE d   1      31.977 -10.318  10.348  0.00  0.00    -0.077 A 
ATOM     66  H23 PHE d   1      30.308 -10.043  11.668  0.00  0.00     0.083 H 
ATOM     67  H21 PHE d   1      31.403 -10.080   9.460  0.00  0.00     0.084 H 
ENDBRANCH  54  57
ENDBRANCH  19  54
ENDBRANCH  16  19
ENDBRANCH  13  15
BRANCH  13  68
ATOM     68  CB  GLU d   1      32.511 -13.792   3.880  0.00  0.00    -0.029 C 
ATOM     69  H27 GLU d   1      32.732 -13.908   2.809  0.00  0.00     0.037 H 
ATOM     70  H28 GLU d   1      31.459 -13.497   4.008  0.00  0.00     0.037 H 
BRANCH  68  71
ATOM     71  CG  GLU d   1      32.719 -15.134   4.560  0.00  0.00     0.018 C 
ATOM     72  H29 GLU d   1      31.923 -15.279   5.305  0.00  0.00     0.049 H 
ATOM     73  H30 GLU d   1      33.697 -15.126   5.064  0.00  0.00     0.049 H 
BRANCH  71  74
ATOM     74  CD  GLU d   1      32.686 -16.290   3.582  0.00  0.00     0.172 C 
ATOM     75  OE1 GLU d   1      32.284 -16.070   2.420  0.00  0.00    -0.648 OA
ATOM     76  OE2 GLU d   1      33.071 -17.414   3.972  0.00  0.00    -0.648 OA
ENDBRANCH  71  74
ENDBRANCH  68  71
ENDBRANCH  13  68
ENDBRANCH  10  13
ENDBRANCH   7   9
BRANCH   7  77
ATOM     77  CB  ASP d   1      32.337 -10.184   1.025  0.00  0.00     0.043 C 
ATOM     78  H33 ASP d   1      32.271  -9.442   0.215  0.00  0.00     0.052 H 
ATOM     79  H34 ASP d   1      31.505 -10.034   1.729  0.00  0.00     0.052 H 
BRANCH  77  80
ATOM     80  CG  ASP d   1      32.224 -11.569   0.426  0.00  0.00     0.175 C 
ATOM     81  OD1 ASP d   1      33.246 -12.084  -0.075  0.00  0.00    -0.648 OA
ATOM     82  OD2 ASP d   1      31.118 -12.147   0.468  0.00  0.00    -0.648 OA
ENDBRANCH  77  80
ENDBRANCH   7  77
ENDBRANCH   4   7
ENDBRANCH   1   3
BRANCH   1  83
ATOM     83  C   LEU d   1      35.949  -6.582   3.677  0.00  0.00     0.241 C 
ATOM     84  O   LEU d   1      36.909  -7.294   3.383  0.00  0.00    -0.271 OA
ATOM     85  N   ALA d   1      35.979  -5.258   3.595  0.00  0.00    -0.346 N 
ATOM     86  H46 ALA d   1      35.162  -4.735   3.837  0.00  0.00     0.163 HD
BRANCH  85  87
ATOM     87  CA  ALA d   1      37.175  -4.550   3.161  0.00  0.00     0.086 C 
ATOM     88  H47 ALA d   1      37.819  -5.257   2.617  0.00  0.00     0.086 H 
BRANCH  87  89
ATOM     89  C   ALA d   1      37.948  -4.024   4.364  0.00  0.00     0.240 C 
ATOM     90  O   ALA d   1      38.018  -2.816   4.591  0.00  0.00    -0.271 OA
ATOM     91  N   ILE d   1      38.522  -4.941   5.136  0.00  0.00    -0.346 N 
ATOM     92  H51 ILE d   1      38.427  -5.907   4.896  0.00  0.00     0.163 HD
BRANCH  91  93
ATOM     93  CA  ILE d   1      39.286  -4.578   6.323  0.00  0.00     0.092 C 
ATOM     94  H52 ILE d   1      39.405  -3.485   6.332  0.00  0.00     0.088 H 
BRANCH  93  95
ATOM     95  C   ILE d   1      40.670  -5.218   6.296  0.00  0.00     0.241 C 
ATOM     96  O   ILE d   1      40.794  -6.440   6.209  0.00  0.00    -0.271 OA
ATOM     97  N   SEP d   1      41.709  -4.390   6.366  0.00  0.00    -0.344 N 
ATOM     98  H62 SEP d   1      41.548  -3.404   6.413  0.00  0.00     0.163 HD
BRANCH  97  99
ATOM     99  CA  SEP d   1      43.078  -4.892   6.375  0.00  0.00     0.110 C 
ATOM    100  H63 SEP d   1      43.157  -5.684   5.615  0.00  0.00     0.090 H 
BRANCH  99 101
ATOM    101  CB  SEP d   1      44.074  -3.786   6.016  0.00  0.00     0.059 C 
ATOM    102  H64 SEP d   1      43.761  -3.315   5.072  0.00  0.00     0.079 H 
ATOM    103  H65 SEP d   1      45.072  -4.231   5.891  0.00  0.00     0.079 H 
BRANCH 101 104
ATOM    104  OG  SEP d   1      44.135  -2.795   7.027  0.00  0.00    -0.280 OA
BRANCH 104 105
ATOM    105  P   SEP d   1      45.270  -1.708   6.669  0.00  0.00     0.422 P 
ATOM    106  O1P SEP d   1      45.017  -1.129   5.188  0.00  0.00    -0.617 OA
ATOM    107  O2P SEP d   1      46.724  -2.396   6.733  0.00  0.00    -0.617 OA
ATOM    108  O3P SEP d   1      45.202  -0.507   7.738  0.00  0.00    -0.617 OA
ENDBRANCH 104 105
ENDBRANCH 101 104
ENDBRANCH  99 101
BRANCH  99 109
ATOM    109  C   SEP d   1      43.417  -5.499   7.734  0.00  0.00     0.243 C 
ATOM    110  O   SEP d   1      42.817  -5.142   8.749  0.00  0.00    -0.271 OA
ATOM    111  N   ALA d   1      44.377  -6.420   7.741  0.00  0.00    -0.346 N 
ATOM    112  H66 ALA d   1      44.867  -6.612   6.891  0.00  0.00     0.163 HD
BRANCH 111 113
ATOM    113  CA  ALA d   1      44.740  -7.160   8.947  0.00  0.00     0.086 C 
ATOM    114  H67 ALA d   1      43.844  -7.690   9.302  0.00  0.00     0.086 H 
BRANCH 113 115
ATOM    115  C   ALA d   1      45.215  -6.240  10.068  0.00  0.00     0.240 C 
ATOM    116  O   ALA d   1      45.794  -5.183   9.817  0.00  0.00    -0.271 OA
ATOM    117  N   SER d   1      44.965  -6.657  11.306  0.00  0.00    -0.344 N 
ATOM    118  H71 SER d   1      44.532  -7.549  11.439  0.00  0.00     0.163 HD
BRANCH 117 119
ATOM    119  CA  SER d   1      45.303  -5.853  12.476  0.00  0.00     0.109 C 
ATOM    120  H72 SER d   1      45.026  -4.810  12.262  0.00  0.00     0.090 H 
BRANCH 119 121
ATOM    121  C   SER d   1      46.796  -5.890  12.789  0.00  0.00     0.243 C 
ATOM    122  O   SER d   1      47.478  -6.876  12.501  0.00  0.00    -0.271 OA
ATOM    123  N   THR d   1      47.291  -4.806  13.379  0.00  0.00    -0.344 N 
ATOM    124  H76 THR d   1      46.676  -4.040  13.569  0.00  0.00     0.163 HD
BRANCH 123 125
ATOM    125  CA  THR d   1      48.695  -4.688  13.760  0.00  0.00     0.113 C 
ATOM    126  H77 THR d   1      48.982  -5.601  14.302  0.00  0.00     0.091 H 
BRANCH 125 127
ATOM    127  C   THR d   1      48.896  -3.489  14.682  0.00  0.00     0.243 C 
ATOM    128  O   THR d   1      48.423  -2.389  14.393  0.00  0.00    -0.271 OA
ATOM    129  N   SER d   1      49.591  -3.707  15.794  0.00  0.00    -0.343 N 
ATOM    130  H83 SER d   1      49.921  -4.630  15.990  0.00  0.00     0.163 HD
BRANCH 129 131
ATOM    131  CA  SER d   1      49.883  -2.632  16.734  0.00  0.00     0.116 C 
ATOM    132  H84 SER d   1      50.047  -1.709  16.159  0.00  0.00     0.093 H 
BRANCH 131 133
ATOM    133  C   SER d   1      51.146  -2.923  17.538  0.00  0.00     0.198 C 
ATOM    134  O   SER d   1      52.076  -2.116  17.567  0.00  0.00    -0.646 OA
ATOM    135  OXT SER d   1      51.262  -3.971  18.175  0.00  0.00    -0.646 OA
ENDBRANCH 131 133
BRANCH 131 136
ATOM    136  CB  SER d   1      48.698  -2.411  17.676  0.00  0.00     0.045 C 
ATOM    137  H85 SER d   1      48.493  -3.344  18.222  0.00  0.00     0.077 H 
ATOM    138  H86 SER d   1      47.814  -2.132  17.083  0.00  0.00     0.077 H 
BRANCH 136 139
ATOM    139  OG  SER d   1      48.976  -1.380  18.608  0.00  0.00    -0.398 OA
ATOM    140  H87 SER d   1      48.227  -1.262  19.180  0.00  0.00     0.209 HD
ENDBRANCH 136 139
ENDBRANCH 131 136
ENDBRANCH 129 131
ENDBRANCH 125 127
BRANCH 125 141
ATOM    141  CB  THR d   1      49.613  -4.543  12.526  0.00  0.00     0.060 C 
ATOM    142  H78 THR d   1      49.227  -3.737  11.885  0.00  0.00     0.086 H 
BRANCH 141 143
ATOM    143  OG1 THR d   1      49.625  -5.772  11.789  0.00  0.00    -0.393 OA
ATOM    144  H79 THR d   1      48.742  -5.978  11.504  0.00  0.00     0.210 HD
ENDBRANCH 141 143
BRANCH 141 145
ATOM    145  CG2 THR d   1      51.034  -4.206  12.950  0.00  0.00    -0.050 C 
ATOM    146  H80 THR d   1      51.669  -4.107  12.057  0.00  0.00     0.031 H 
ATOM    147  H81 THR d   1      51.425  -5.009  13.592  0.00  0.00     0.031 H 
ATOM    148  H82 THR d   1      51.035  -3.258  13.507  0.00  0.00     0.031 H 
ENDBRANCH 141 145
ENDBRANCH 125 141
ENDBRANCH 123 125
ENDBRANCH 119 121
BRANCH 119 149
ATOM    149  CB  SER d   1      44.504  -6.324  13.693  0.00  0.00     0.044 C 
ATOM    150  H73 SER d   1      44.707  -7.391  13.866  0.00  0.00     0.077 H 
ATOM    151  H74 SER d   1      43.431  -6.182  13.496  0.00  0.00     0.077 H 
BRANCH 149 152
ATOM    152  OG  SER d   1      44.865  -5.590  14.850  0.00  0.00    -0.398 OA
ATOM    153  H75 SER d   1      44.357  -5.899  15.591  0.00  0.00     0.209 HD
ENDBRANCH 149 152
ENDBRANCH 119 149
ENDBRANCH 117 119
ENDBRANCH 113 115
BRANCH 113 154
ATOM    154  CB  ALA d   1      45.811  -8.193   8.625  0.00  0.00    -0.049 C 
ATOM    155  H68 ALA d   1      46.076  -8.743   9.540  0.00  0.00     0.030 H 
ATOM    156  H69 ALA d   1      46.704  -7.685   8.231  0.00  0.00     0.030 H 
ATOM    157  H70 ALA d   1      45.427  -8.897   7.872  0.00  0.00     0.030 H 
ENDBRANCH 113 154
ENDBRANCH 111 113
ENDBRANCH  99 109
ENDBRANCH  97  99
ENDBRANCH  93  95
BRANCH  93 158
ATOM    158  CB  ILE d   1      38.557  -5.001   7.615  0.00  0.00    -0.030 C 
ATOM    159  H53 ILE d   1      38.475  -6.098   7.624  0.00  0.00     0.043 H 
BRANCH 158 160
ATOM    160  CG1 ILE d   1      37.145  -4.412   7.649  0.00  0.00    -0.063 C 
ATOM    161  H54 ILE d   1      36.627  -4.701   6.723  0.00  0.00     0.033 H 
ATOM    162  H55 ILE d   1      37.228  -3.316   7.697  0.00  0.00     0.033 H 
BRANCH 160 163
ATOM    163  CD1 ILE d   1      36.315  -4.877   8.822  0.00  0.00    -0.076 C 
ATOM    164  H59 ILE d   1      35.320  -4.411   8.774  0.00  0.00     0.027 H 
ATOM    165  H60 ILE d   1      36.811  -4.587   9.760  0.00  0.00     0.027 H 
ATOM    166  H61 ILE d   1      36.210  -5.971   8.786  0.00  0.00     0.027 H 
ENDBRANCH 160 163
ENDBRANCH 158 160
BRANCH 158 167
ATOM    167  CG2 ILE d   1      39.349  -4.570   8.839  0.00  0.00    -0.071 C 
ATOM    168  H56 ILE d   1      40.359  -5.004   8.794  0.00  0.00     0.028 H 
ATOM    169  H57 ILE d   1      38.839  -4.921   9.748  0.00  0.00     0.028 H 
ATOM    170  H58 ILE d   1      39.422  -3.473   8.861  0.00  0.00     0.028 H 
ENDBRANCH 158 167
ENDBRANCH  93 158
ENDBRANCH  91  93
ENDBRANCH  87  89
BRANCH  87 171
ATOM    171  CB  ALA d   1      36.810  -3.414   2.220  0.00  0.00    -0.049 C 
ATOM    172  H48 ALA d   1      37.725  -2.892   1.903  0.00  0.00     0.030 H 
ATOM    173  H49 ALA d   1      36.145  -2.707   2.739  0.00  0.00     0.030 H 
ATOM    174  H50 ALA d   1      36.296  -3.820   1.337  0.00  0.00     0.030 H 
ENDBRANCH  87 171
ENDBRANCH  85  87
ENDBRANCH   1  83
BRANCH   1 175
ATOM    175  CB  LEU d   1      34.642  -7.317   5.680  0.00  0.00    -0.035 C 
ATOM    176  H37 LEU d   1      35.025  -6.369   6.085  0.00  0.00     0.037 H 
ATOM    177  H38 LEU d   1      35.331  -8.133   5.943  0.00  0.00     0.037 H 
BRANCH 175 178
ATOM    178  CG  LEU d   1      33.309  -7.604   6.374  0.00  0.00    -0.059 C 
ATOM    179  H39 LEU d   1      33.097  -8.679   6.280  0.00  0.00     0.038 H 
BRANCH 178 180
ATOM    180  CD1 LEU d   1      33.406  -7.264   7.853  0.00  0.00    -0.073 C 
ATOM    181  H40 LEU d   1      32.443  -7.474   8.341  0.00  0.00     0.028 H 
ATOM    182  H41 LEU d   1      33.651  -6.198   7.969  0.00  0.00     0.028 H 
ATOM    183  H42 LEU d   1      34.194  -7.874   8.319  0.00  0.00     0.028 H 
ENDBRANCH 178 180
BRANCH 178 184
ATOM    184  CD2 LEU d   1      32.171  -6.839   5.717  0.00  0.00    -0.073 C 
ATOM    185  H43 LEU d   1      32.121  -7.101   4.650  0.00  0.00     0.028 H 
ATOM    186  H44 LEU d   1      32.347  -5.758   5.821  0.00  0.00     0.028 H 
ATOM    187  H45 LEU d   1      31.221  -7.104   6.205  0.00  0.00     0.028 H 
ENDBRANCH 178 184
ENDBRANCH 175 178
ENDBRANCH   1 175
TORSDOF 59
