REMARK WARNING: 32 MAX_TORS EXCEEDED!!!
REMARK  50 active torsions:
REMARK  status: ('A' for Active; 'I' for Inactive)
REMARK    1  A    between atoms: N_1  and  CA_2 
REMARK    2  A    between atoms: CA_2  and  C_3 
REMARK    3  A    between atoms: CA_2  and  CB_5 
REMARK       I    between atoms: C_3  and  N_10 
REMARK    4  A    between atoms: CB_5  and  CG_6 
REMARK    5  A    between atoms: CG_6  and  CD_7 
REMARK    6  A    between atoms: N_10  and  CA_11 
REMARK    7  A    between atoms: CA_11  and  C_12 
REMARK    8  A    between atoms: CA_11  and  CB_14 
REMARK       I    between atoms: C_12  and  N_19 
REMARK    9  A    between atoms: CB_14  and  CG_15 
REMARK   10  A    between atoms: CG_15  and  CD_16 
REMARK   11  A    between atoms: N_19  and  CA_20 
REMARK   12  A    between atoms: CA_20  and  C_21 
REMARK   13  A    between atoms: CA_20  and  CB_23 
REMARK       I    between atoms: C_21  and  N_30 
REMARK   14  A    between atoms: CB_23  and  CG_24 
REMARK   15  A    between atoms: N_30  and  CA_31 
REMARK   16  A    between atoms: CA_31  and  C_32 
REMARK   17  A    between atoms: CA_31  and  CB_34 
REMARK       I    between atoms: C_32  and  N_39 
REMARK   18  A    between atoms: CB_34  and  CG_35 
REMARK   19  A    between atoms: CG_35  and  CD_36 
REMARK   20  A    between atoms: N_39  and  CA_40 
REMARK   21  A    between atoms: CA_40  and  C_41 
REMARK   22  A    between atoms: CA_40  and  CB_43 
REMARK       I    between atoms: C_41  and  N_47 
REMARK   23  A    between atoms: CB_43  and  CG_44 
REMARK   24  A    between atoms: CG_44  and  CD1_45 
REMARK   25  A    between atoms: CG_44  and  CD2_46 
REMARK   26  A    between atoms: N_47  and  CA_48 
REMARK   27  A    between atoms: CA_48  and  C_49 
REMARK   28  A    between atoms: CA_48  and  CB_51 
REMARK       I    between atoms: C_49  and  N_55 
REMARK   29  A    between atoms: CB_51  and  CG_52 
REMARK   30  A    between atoms: CG_52  and  CD1_53 
REMARK   31  A    between atoms: CG_52  and  CD2_54 
REMARK   32  A    between atoms: N_55  and  CA_56 
REMARK   33  A    between atoms: CA_56  and  C_57 
REMARK   34  A    between atoms: CA_56  and  CB_59 
REMARK       I    between atoms: C_57  and  N_63 
REMARK   35  A    between atoms: CB_59  and  CG1_60 
REMARK   36  A    between atoms: CB_59  and  CG2_61 
REMARK   37  A    between atoms: CG1_60  and  CD1_62 
REMARK   38  A    between atoms: N_63  and  CA_64 
REMARK   39  A    between atoms: CA_64  and  CB_65 
REMARK   40  A    between atoms: CA_64  and  C_67 
REMARK   41  A    between atoms: CB_65  and  OG_66 
REMARK   42  A    between atoms: OG_66  and  P_69 
REMARK       I    between atoms: C_67  and  N_73 
REMARK   43  A    between atoms: N_73  and  CA_74 
REMARK   44  A    between atoms: CA_74  and  C_75 
REMARK   45  A    between atoms: CA_74  and  CB_77 
REMARK       I    between atoms: C_75  and  N_81 
REMARK   46  A    between atoms: CB_77  and  CG_78 
REMARK       I    between atoms: CG_78  and  ND2_80 
REMARK   47  A    between atoms: N_81  and  CA_82 
REMARK   48  A    between atoms: CA_82  and  C_83 
REMARK   49  A    between atoms: CA_82  and  CB_85 
REMARK   50  A    between atoms: CB_85  and  OG_86 
ROOT
ATOM      1  CA  LEU d   1     -48.560  -2.481   0.708  0.00  0.00     0.089 C 
ATOM      2  H31 LEU d   1     -48.015  -2.133   1.598  0.00  0.00     0.087 H 
ENDROOT
BRANCH   1   3
ATOM      3  N   LEU d   1     -49.615  -3.384   1.146  0.00  0.00    -0.346 N 
ATOM      4  C   GLU d   1     -50.348  -3.082   2.211  0.00  0.00     0.241 C 
ATOM      5  O   GLU d   1     -50.215  -2.029   2.836  0.00  0.00    -0.271 OA
ATOM      6  H30 LEU d   1     -49.788  -4.232   0.644  0.00  0.00     0.163 HD
BRANCH   4   7
ATOM      7  CA  GLU d   1     -51.365  -4.122   2.650  0.00  0.00     0.090 C 
ATOM      8  H25 GLU d   1     -51.661  -4.724   1.778  0.00  0.00     0.087 H 
BRANCH   7   9
ATOM      9  N   GLU d   1     -50.738  -4.986   3.628  0.00  0.00    -0.346 N 
ATOM     10  C   PHE d   1     -50.269  -6.178   3.293  0.00  0.00     0.241 C 
ATOM     11  O   PHE d   1     -50.379  -6.655   2.168  0.00  0.00    -0.271 OA
ATOM     12  H24 GLU d   1     -50.657  -4.676   4.575  0.00  0.00     0.163 HD
BRANCH  10  13
ATOM     13  CA  PHE d   1     -49.576  -6.949   4.396  0.00  0.00     0.093 C 
ATOM     14  H16 PHE d   1     -49.633  -6.358   5.322  0.00  0.00     0.088 H 
BRANCH  13  15
ATOM     15  N   PHE d   1     -50.228  -8.226   4.629  0.00  0.00    -0.346 N 
ATOM     16  C   GLU d   1     -50.839  -8.494   5.773  0.00  0.00     0.241 C 
ATOM     17  O   GLU d   1     -50.894  -7.692   6.712  0.00  0.00    -0.271 OA
ATOM     18  H15 PHE d   1     -50.215  -8.919   3.908  0.00  0.00     0.163 HD
BRANCH  16  19
ATOM     19  CA  GLU d   1     -51.466  -9.878   5.874  0.00  0.00     0.090 C 
ATOM     20  H10 GLU d   1     -51.332 -10.396   4.913  0.00  0.00     0.087 H 
BRANCH  19  21
ATOM     21  N   GLU d   1     -50.789 -10.643   6.910  0.00  0.00    -0.346 N 
ATOM     22  C   GLU d   1     -49.871 -11.556   6.609  0.00  0.00     0.249 C 
ATOM     23  O   GLU d   1     -49.629 -11.913   5.454  0.00  0.00    -0.271 OA
ATOM     24  H9  GLU d   1     -51.019 -10.478   7.869  0.00  0.00     0.163 HD
BRANCH  22  25
ATOM     25  CA  GLU d   1     -49.120 -12.156   7.790  0.00  0.00     0.176 C 
ATOM     26  H4  GLU d   1     -49.795 -12.849   8.314  0.00  0.00     0.099 H 
BRANCH  25  27
ATOM     27  N   GLU d   1     -47.946 -12.906   7.357  0.00  0.00    -0.066 N 
ATOM     28  H1  GLU d   1     -47.475 -13.287   8.162  0.00  0.00     0.275 HD
ATOM     29  H2  GLU d   1     -47.319 -12.292   6.861  0.00  0.00     0.275 HD
ATOM     30  H3  GLU d   1     -48.233 -13.657   6.748  0.00  0.00     0.275 HD
ENDBRANCH  25  27
BRANCH  25  31
ATOM     31  CB  GLU d   1     -48.718 -11.042   8.758  0.00  0.00    -0.021 C 
ATOM     32  H5  GLU d   1     -49.624 -10.480   9.030  0.00  0.00     0.037 H 
ATOM     33  H6  GLU d   1     -48.014 -10.374   8.239  0.00  0.00     0.037 H 
BRANCH  31  34
ATOM     34  CG  GLU d   1     -48.059 -11.524  10.034  0.00  0.00     0.018 C 
ATOM     35  H7  GLU d   1     -47.064 -11.925   9.789  0.00  0.00     0.049 H 
ATOM     36  H8  GLU d   1     -48.677 -12.321  10.473  0.00  0.00     0.049 H 
BRANCH  34  37
ATOM     37  CD  GLU d   1     -47.900 -10.413  11.054  0.00  0.00     0.172 C 
ATOM     38  OE1 GLU d   1     -48.021  -9.228  10.667  0.00  0.00    -0.648 OA
ATOM     39  OE2 GLU d   1     -47.661 -10.725  12.242  0.00  0.00    -0.648 OA
ENDBRANCH  34  37
ENDBRANCH  31  34
ENDBRANCH  25  31
ENDBRANCH  22  25
ENDBRANCH  19  21
BRANCH  19  40
ATOM     40  CB  GLU d   1     -52.964  -9.767   6.154  0.00  0.00    -0.029 C 
ATOM     41  H11 GLU d   1     -53.106  -9.136   7.044  0.00  0.00     0.037 H 
ATOM     42  H12 GLU d   1     -53.357 -10.775   6.353  0.00  0.00     0.037 H 
BRANCH  40  43
ATOM     43  CG  GLU d   1     -53.750  -9.162   5.004  0.00  0.00     0.018 C 
ATOM     44  H13 GLU d   1     -53.349  -8.160   4.791  0.00  0.00     0.049 H 
ATOM     45  H14 GLU d   1     -54.805  -9.079   5.303  0.00  0.00     0.049 H 
BRANCH  43  46
ATOM     46  CD  GLU d   1     -53.668  -9.998   3.738  0.00  0.00     0.172 C 
ATOM     47  OE1 GLU d   1     -53.060  -9.527   2.749  0.00  0.00    -0.648 OA
ATOM     48  OE2 GLU d   1     -54.214 -11.124   3.731  0.00  0.00    -0.648 OA
ENDBRANCH  43  46
ENDBRANCH  40  43
ENDBRANCH  19  40
ENDBRANCH  16  19
ENDBRANCH  13  15
BRANCH  13  49
ATOM     49  CB  PHE d   1     -48.104  -7.155   4.043  0.00  0.00    -0.014 C 
ATOM     50  H17 PHE d   1     -47.643  -6.170   3.879  0.00  0.00     0.043 H 
ATOM     51  H18 PHE d   1     -48.047  -7.745   3.116  0.00  0.00     0.043 H 
BRANCH  49  52
ATOM     52  CG  PHE d   1     -47.333  -7.868   5.108  0.00  0.00    -0.056 A 
ATOM     53  CD1 PHE d   1     -46.969  -7.204   6.272  0.00  0.00    -0.077 A 
ATOM     54  CE1 PHE d   1     -46.265  -7.859   7.270  0.00  0.00    -0.082 A 
ATOM     55  H19 PHE d   1     -47.238  -6.162   6.401  0.00  0.00     0.084 H 
ATOM     56  CZ  PHE d   1     -45.928  -9.196   7.116  0.00  0.00    -0.083 A 
ATOM     57  H21 PHE d   1     -45.978  -7.327   8.170  0.00  0.00     0.083 H 
ATOM     58  CE2 PHE d   1     -46.298  -9.872   5.966  0.00  0.00    -0.082 A 
ATOM     59  H23 PHE d   1     -45.376  -9.710   7.894  0.00  0.00     0.083 H 
ATOM     60  CD2 PHE d   1     -47.001  -9.207   4.968  0.00  0.00    -0.077 A 
ATOM     61  H22 PHE d   1     -46.040 -10.918   5.844  0.00  0.00     0.083 H 
ATOM     62  H20 PHE d   1     -47.293  -9.741   4.071  0.00  0.00     0.084 H 
ENDBRANCH  49  52
ENDBRANCH  13  49
ENDBRANCH  10  13
ENDBRANCH   7   9
BRANCH   7  63
ATOM     63  CB  GLU d   1     -52.614  -3.457   3.225  0.00  0.00    -0.029 C 
ATOM     64  H26 GLU d   1     -53.089  -2.865   2.428  0.00  0.00     0.037 H 
ATOM     65  H27 GLU d   1     -52.305  -2.789   4.043  0.00  0.00     0.037 H 
BRANCH  63  66
ATOM     66  CG  GLU d   1     -53.640  -4.435   3.769  0.00  0.00     0.018 C 
ATOM     67  H28 GLU d   1     -53.265  -4.848   4.717  0.00  0.00     0.049 H 
ATOM     68  H29 GLU d   1     -53.771  -5.249   3.041  0.00  0.00     0.049 H 
BRANCH  66  69
ATOM     69  CD  GLU d   1     -54.986  -3.787   4.020  0.00  0.00     0.172 C 
ATOM     70  OE1 GLU d   1     -55.208  -2.667   3.514  0.00  0.00    -0.648 OA
ATOM     71  OE2 GLU d   1     -55.819  -4.399   4.723  0.00  0.00    -0.648 OA
ENDBRANCH  66  69
ENDBRANCH  63  66
ENDBRANCH   7  63
ENDBRANCH   4   7
ENDBRANCH   1   3
BRANCH   1  72
ATOM     72  C   LEU d   1     -49.151  -1.268   0.007  0.00  0.00     0.241 C 
ATOM     73  O   LEU d   1     -50.124  -1.378  -0.748  0.00  0.00    -0.271 OA
ATOM     74  N   LEU d   1     -48.557  -0.110   0.271  0.00  0.00    -0.346 N 
ATOM     75  H41 LEU d   1     -47.773  -0.103   0.892  0.00  0.00     0.163 HD
BRANCH  74  76
ATOM     76  CA  LEU d   1     -49.000   1.146  -0.305  0.00  0.00     0.089 C 
ATOM     77  H42 LEU d   1     -49.911   0.971  -0.896  0.00  0.00     0.087 H 
BRANCH  76  78
ATOM     78  C   LEU d   1     -47.900   1.647  -1.223  0.00  0.00     0.241 C 
ATOM     79  O   LEU d   1     -47.032   2.421  -0.822  0.00  0.00    -0.271 OA
ATOM     80  N   ILE d   1     -47.945   1.155  -2.451  0.00  0.00    -0.346 N 
ATOM     81  H52 ILE d   1     -48.735   0.599  -2.710  0.00  0.00     0.163 HD
BRANCH  80  82
ATOM     82  CA  ILE d   1     -46.911   1.379  -3.439  0.00  0.00     0.092 C 
ATOM     83  H53 ILE d   1     -46.263   2.205  -3.112  0.00  0.00     0.088 H 
BRANCH  82  84
ATOM     84  C   ILE d   1     -47.610   1.755  -4.729  0.00  0.00     0.241 C 
ATOM     85  O   ILE d   1     -48.436   0.994  -5.224  0.00  0.00    -0.271 OA
ATOM     86  N   SEP d   1     -47.312   2.932  -5.264  0.00  0.00    -0.344 N 
ATOM     87  H63 SEP d   1     -46.645   3.531  -4.821  0.00  0.00     0.163 HD
BRANCH  86  88
ATOM     88  CA  SEP d   1     -47.965   3.350  -6.507  0.00  0.00     0.110 C 
ATOM     89  H64 SEP d   1     -49.018   3.035  -6.472  0.00  0.00     0.090 H 
BRANCH  88  90
ATOM     90  CB  SEP d   1     -47.902   4.862  -6.645  0.00  0.00     0.059 C 
ATOM     91  H65 SEP d   1     -48.444   5.338  -5.814  0.00  0.00     0.079 H 
ATOM     92  H66 SEP d   1     -48.351   5.171  -7.601  0.00  0.00     0.079 H 
BRANCH  90  93
ATOM     93  OG  SEP d   1     -46.549   5.233  -6.609  0.00  0.00    -0.280 OA
BRANCH  93  94
ATOM     94  P   SEP d   1     -46.256   6.576  -7.414  0.00  0.00     0.422 P 
ATOM     95  O1P SEP d   1     -47.072   6.550  -8.801  0.00  0.00    -0.617 OA
ATOM     96  O2P SEP d   1     -44.687   6.610  -7.739  0.00  0.00    -0.617 OA
ATOM     97  O3P SEP d   1     -46.747   7.837  -6.563  0.00  0.00    -0.617 OA
ENDBRANCH  93  94
ENDBRANCH  90  93
ENDBRANCH  88  90
BRANCH  88  98
ATOM     98  C   SEP d   1     -47.303   2.717  -7.731  0.00  0.00     0.243 C 
ATOM     99  O   SEP d   1     -46.261   2.072  -7.622  0.00  0.00    -0.271 OA
ATOM    100  N   ASN d   1     -47.907   2.919  -8.899  0.00  0.00    -0.345 N 
ATOM    101  H67 ASN d   1     -48.752   3.453  -8.923  0.00  0.00     0.163 HD
BRANCH 100 102
ATOM    102  CA  ASN d   1     -47.370   2.382 -10.151  0.00  0.00     0.097 C 
ATOM    103  H68 ASN d   1     -46.796   1.478  -9.901  0.00  0.00     0.088 H 
BRANCH 102 104
ATOM    104  C   ASN d   1     -46.432   3.335 -10.887  0.00  0.00     0.241 C 
ATOM    105  O   ASN d   1     -45.988   4.341 -10.337  0.00  0.00    -0.271 OA
ATOM    106  N   SER d   1     -46.134   3.000 -12.137  0.00  0.00    -0.343 N 
ATOM    107  H73 SER d   1     -46.535   2.170 -12.524  0.00  0.00     0.163 HD
BRANCH 106 108
ATOM    108  CA  SER d   1     -45.241   3.804 -12.962  0.00  0.00     0.116 C 
ATOM    109  H74 SER d   1     -44.585   4.384 -12.296  0.00  0.00     0.093 H 
BRANCH 108 110
ATOM    110  C   SER d   1     -46.027   4.780 -13.830  0.00  0.00     0.198 C 
ATOM    111  O   SER d   1     -47.215   4.584 -14.090  0.00  0.00    -0.646 OA
ATOM    112  OXT SER d   1     -45.494   5.789 -14.293  0.00  0.00    -0.646 OA
ENDBRANCH 108 110
BRANCH 108 113
ATOM    113  CB  SER d   1     -44.367   2.902 -13.839  0.00  0.00     0.045 C 
ATOM    114  H75 SER d   1     -45.017   2.273 -14.465  0.00  0.00     0.077 H 
ATOM    115  H76 SER d   1     -43.750   2.262 -13.191  0.00  0.00     0.077 H 
BRANCH 113 116
ATOM    116  OG  SER d   1     -43.517   3.664 -14.678  0.00  0.00    -0.398 OA
ATOM    117  H77 SER d   1     -44.044   4.216 -15.243  0.00  0.00     0.209 HD
ENDBRANCH 113 116
ENDBRANCH 108 113
ENDBRANCH 106 108
ENDBRANCH 102 104
BRANCH 102 118
ATOM    118  CB  ASN d   1     -48.509   1.986 -11.089  0.00  0.00     0.036 C 
ATOM    119  H69 ASN d   1     -48.152   2.057 -12.127  0.00  0.00     0.051 H 
ATOM    120  H70 ASN d   1     -49.346   2.684 -10.941  0.00  0.00     0.051 H 
BRANCH 118 121
ATOM    121  CG  ASN d   1     -49.000   0.581 -10.841  0.00  0.00     0.217 C 
ATOM    122  OD1 ASN d   1     -48.852   0.046  -9.742  0.00  0.00    -0.274 OA
ATOM    123  ND2 ASN d   1     -49.581  -0.033 -11.865  0.00  0.00    -0.370 N 
ATOM    124  H71 ASN d   1     -49.926  -0.966 -11.758  0.00  0.00     0.159 HD
ATOM    125  H72 ASN d   1     -49.674   0.437 -12.743  0.00  0.00     0.159 HD
ENDBRANCH 118 121
ENDBRANCH 102 118
ENDBRANCH 100 102
ENDBRANCH  88  98
ENDBRANCH  86  88
ENDBRANCH  82  84
BRANCH  82 126
ATOM    126  CB  ILE d   1     -46.047   0.119  -3.645  0.00  0.00    -0.030 C 
ATOM    127  H54 ILE d   1     -46.715  -0.718  -3.896  0.00  0.00     0.043 H 
BRANCH 126 128
ATOM    128  CG1 ILE d   1     -45.305  -0.232  -2.349  0.00  0.00    -0.063 C 
ATOM    129  H55 ILE d   1     -46.019  -0.184  -1.514  0.00  0.00     0.033 H 
ATOM    130  H56 ILE d   1     -44.506   0.508  -2.192  0.00  0.00     0.033 H 
BRANCH 128 131
ATOM    131  CD1 ILE d   1     -44.681  -1.619  -2.372  0.00  0.00    -0.076 C 
ATOM    132  H60 ILE d   1     -44.167  -1.806  -1.417  0.00  0.00     0.027 H 
ATOM    133  H61 ILE d   1     -43.956  -1.681  -3.197  0.00  0.00     0.027 H 
ATOM    134  H62 ILE d   1     -45.468  -2.373  -2.518  0.00  0.00     0.027 H 
ENDBRANCH 128 131
ENDBRANCH 126 128
BRANCH 126 135
ATOM    135  CG2 ILE d   1     -45.073   0.308  -4.802  0.00  0.00    -0.071 C 
ATOM    136  H57 ILE d   1     -45.633   0.558  -5.715  0.00  0.00     0.028 H 
ATOM    137  H58 ILE d   1     -44.508  -0.622  -4.962  0.00  0.00     0.028 H 
ATOM    138  H59 ILE d   1     -44.375   1.125  -4.564  0.00  0.00     0.028 H 
ENDBRANCH 126 135
ENDBRANCH  82 126
ENDBRANCH  80  82
ENDBRANCH  76  78
BRANCH  76 139
ATOM    139  CB  LEU d   1     -49.318   2.164   0.783  0.00  0.00    -0.035 C 
ATOM    140  H43 LEU d   1     -49.711   3.072   0.301  0.00  0.00     0.037 H 
ATOM    141  H44 LEU d   1     -48.385   2.405   1.313  0.00  0.00     0.037 H 
BRANCH 139 142
ATOM    142  CG  LEU d   1     -50.344   1.686   1.813  0.00  0.00    -0.059 C 
ATOM    143  H45 LEU d   1     -49.978   0.747   2.253  0.00  0.00     0.038 H 
BRANCH 142 144
ATOM    144  CD1 LEU d   1     -50.502   2.705   2.933  0.00  0.00    -0.073 C 
ATOM    145  H46 LEU d   1     -51.243   2.340   3.659  0.00  0.00     0.028 H 
ATOM    146  H47 LEU d   1     -50.842   3.663   2.512  0.00  0.00     0.028 H 
ATOM    147  H48 LEU d   1     -49.535   2.849   3.437  0.00  0.00     0.028 H 
ENDBRANCH 142 144
BRANCH 142 148
ATOM    148  CD2 LEU d   1     -51.678   1.409   1.143  0.00  0.00    -0.073 C 
ATOM    149  H49 LEU d   1     -51.538   0.671   0.339  0.00  0.00     0.028 H 
ATOM    150  H50 LEU d   1     -52.076   2.343   0.719  0.00  0.00     0.028 H 
ATOM    151  H51 LEU d   1     -52.386   1.012   1.886  0.00  0.00     0.028 H 
ENDBRANCH 142 148
ENDBRANCH 139 142
ENDBRANCH  76 139
ENDBRANCH  74  76
ENDBRANCH   1  72
BRANCH   1 152
ATOM    152  CB  LEU d   1     -47.568  -3.200  -0.207  0.00  0.00    -0.035 C 
ATOM    153  H32 LEU d   1     -46.742  -2.506  -0.421  0.00  0.00     0.037 H 
ATOM    154  H33 LEU d   1     -48.090  -3.448  -1.143  0.00  0.00     0.037 H 
BRANCH 152 155
ATOM    155  CG  LEU d   1     -46.965  -4.491   0.351  0.00  0.00    -0.059 C 
ATOM    156  H34 LEU d   1     -47.770  -5.236   0.434  0.00  0.00     0.038 H 
BRANCH 155 157
ATOM    157  CD1 LEU d   1     -45.907  -5.040  -0.584  0.00  0.00    -0.073 C 
ATOM    158  H35 LEU d   1     -45.489  -5.966  -0.162  0.00  0.00     0.028 H 
ATOM    159  H36 LEU d   1     -45.104  -4.298  -0.706  0.00  0.00     0.028 H 
ATOM    160  H37 LEU d   1     -46.359  -5.255  -1.563  0.00  0.00     0.028 H 
ENDBRANCH 155 157
BRANCH 155 161
ATOM    161  CD2 LEU d   1     -46.374  -4.266   1.755  0.00  0.00    -0.073 C 
ATOM    162  H38 LEU d   1     -47.153  -3.868   2.421  0.00  0.00     0.028 H 
ATOM    163  H39 LEU d   1     -45.543  -3.548   1.692  0.00  0.00     0.028 H 
ATOM    164  H40 LEU d   1     -46.003  -5.222   2.154  0.00  0.00     0.028 H 
ENDBRANCH 155 161
ENDBRANCH 152 155
ENDBRANCH   1 152
TORSDOF 50
