REMARK WARNING: 32 MAX_TORS EXCEEDED!!!
REMARK  49 active torsions:
REMARK  status: ('A' for Active; 'I' for Inactive)
REMARK    1  A    between atoms: N_1  and  CA_2 
REMARK    2  A    between atoms: CA_2  and  C_3 
REMARK    3  A    between atoms: CA_2  and  CB_5 
REMARK       I    between atoms: C_3  and  N_10 
REMARK    4  A    between atoms: CB_5  and  CG_6 
REMARK    5  A    between atoms: CG_6  and  CD_7 
REMARK    6  A    between atoms: N_10  and  CA_11 
REMARK    7  A    between atoms: CA_11  and  C_12 
REMARK    8  A    between atoms: CA_11  and  CB_14 
REMARK       I    between atoms: C_12  and  N_19 
REMARK    9  A    between atoms: CB_14  and  CG_15 
REMARK   10  A    between atoms: CG_15  and  CD_16 
REMARK   11  A    between atoms: N_19  and  CA_20 
REMARK   12  A    between atoms: CA_20  and  C_21 
REMARK   13  A    between atoms: CA_20  and  CB_23 
REMARK       I    between atoms: C_21  and  N_30 
REMARK   14  A    between atoms: CB_23  and  CG_24 
REMARK   15  A    between atoms: N_30  and  CA_31 
REMARK   16  A    between atoms: CA_31  and  C_32 
REMARK   17  A    between atoms: CA_31  and  CB_34 
REMARK       I    between atoms: C_32  and  N_39 
REMARK   18  A    between atoms: CB_34  and  CG_35 
REMARK   19  A    between atoms: CG_35  and  CD_36 
REMARK   20  A    between atoms: N_39  and  CA_40 
REMARK   21  A    between atoms: CA_40  and  C_41 
REMARK   22  A    between atoms: CA_40  and  CB_43 
REMARK       I    between atoms: C_41  and  N_47 
REMARK   23  A    between atoms: CB_43  and  CG_44 
REMARK   24  A    between atoms: CG_44  and  CD1_45 
REMARK   25  A    between atoms: CG_44  and  CD2_46 
REMARK   26  A    between atoms: N_47  and  CA_48 
REMARK   27  A    between atoms: CA_48  and  C_49 
REMARK   28  A    between atoms: CA_48  and  CB_51 
REMARK       I    between atoms: C_49  and  N_55 
REMARK   29  A    between atoms: CB_51  and  CG_52 
REMARK   30  A    between atoms: CG_52  and  CD1_53 
REMARK   31  A    between atoms: CG_52  and  CD2_54 
REMARK   32  A    between atoms: N_55  and  CA_56 
REMARK   33  A    between atoms: CA_56  and  C_57 
REMARK   34  A    between atoms: CA_56  and  CB_59 
REMARK       I    between atoms: C_57  and  N_63 
REMARK   35  A    between atoms: CB_59  and  CG1_60 
REMARK   36  A    between atoms: CB_59  and  CG2_61 
REMARK   37  A    between atoms: CG1_60  and  CD1_62 
REMARK   38  A    between atoms: N_63  and  CA_64 
REMARK   39  A    between atoms: CA_64  and  C_65 
REMARK   40  A    between atoms: CA_64  and  CB_67 
REMARK       I    between atoms: C_65  and  N_69 
REMARK   41  A    between atoms: CB_67  and  OG_68 
REMARK   42  A    between atoms: N_69  and  CA_70 
REMARK   43  A    between atoms: CA_70  and  C_71 
REMARK   44  A    between atoms: CA_70  and  CB_73 
REMARK       I    between atoms: C_71  and  N_77 
REMARK   45  A    between atoms: CB_73  and  CG_74 
REMARK       I    between atoms: CG_74  and  ND2_76 
REMARK   46  A    between atoms: N_77  and  CA_78 
REMARK   47  A    between atoms: CA_78  and  C_79 
REMARK   48  A    between atoms: CA_78  and  CB_81 
REMARK   49  A    between atoms: CB_81  and  OG_82 
ROOT
ATOM      1  CA  LEU d   1     150.242 414.543   5.311  0.00  0.00     0.089 C 
ATOM      2  H31 LEU d   1     149.943 415.416   5.909  0.00  0.00     0.087 H 
ENDROOT
BRANCH   1   3
ATOM      3  N   LEU d   1     149.292 414.397   4.215  0.00  0.00    -0.346 N 
ATOM      4  C   GLU d   1     148.764 415.447   3.587  0.00  0.00     0.241 C 
ATOM      5  O   GLU d   1     149.077 416.618   3.832  0.00  0.00    -0.271 OA
ATOM      6  H30 LEU d   1     149.028 413.477   3.925  0.00  0.00     0.163 HD
BRANCH   4   7
ATOM      7  CA  GLU d   1     147.717 415.122   2.526  0.00  0.00     0.090 C 
ATOM      8  H25 GLU d   1     147.841 414.074   2.217  0.00  0.00     0.087 H 
BRANCH   7   9
ATOM      9  N   GLU d   1     146.385 415.284   3.100  0.00  0.00    -0.346 N 
ATOM     10  C   PHE d   1     145.638 414.250   3.483  0.00  0.00     0.241 C 
ATOM     11  O   PHE d   1     145.969 413.073   3.311  0.00  0.00    -0.271 OA
ATOM     12  H24 GLU d   1     146.019 416.208   3.210  0.00  0.00     0.163 HD
BRANCH  10  13
ATOM     13  CA  PHE d   1     144.311 414.615   4.159  0.00  0.00     0.093 C 
ATOM     14  H16 PHE d   1     144.220 415.711   4.136  0.00  0.00     0.088 H 
BRANCH  13  15
ATOM     15  N   PHE d   1     143.139 414.065   3.487  0.00  0.00    -0.346 N 
ATOM     16  C   GLU d   1     142.120 414.860   3.173  0.00  0.00     0.241 C 
ATOM     17  O   GLU d   1     142.157 416.078   3.357  0.00  0.00    -0.271 OA
ATOM     18  H15 PHE d   1     143.102 413.091   3.263  0.00  0.00     0.163 HD
BRANCH  16  19
ATOM     19  CA  GLU d   1     140.861 414.211   2.592  0.00  0.00     0.090 C 
ATOM     20  H10 GLU d   1     140.685 413.254   3.104  0.00  0.00     0.087 H 
BRANCH  19  21
ATOM     21  N   GLU d   1     139.732 415.102   2.849  0.00  0.00    -0.346 N 
ATOM     22  C   GLU d   1     138.644 414.736   3.524  0.00  0.00     0.249 C 
ATOM     23  O   GLU d   1     138.415 413.580   3.887  0.00  0.00    -0.271 OA
ATOM     24  H9  GLU d   1     139.779 416.038   2.499  0.00  0.00     0.163 HD
BRANCH  22  25
ATOM     25  CA  GLU d   1     137.650 415.850   3.818  0.00  0.00     0.176 C 
ATOM     26  H4  GLU d   1     138.197 416.804   3.829  0.00  0.00     0.099 H 
BRANCH  25  27
ATOM     27  N   GLU d   1     136.620 415.931   2.793  0.00  0.00    -0.066 N 
ATOM     28  H1  GLU d   1     135.980 416.677   3.018  0.00  0.00     0.275 HD
ATOM     29  H2  GLU d   1     136.118 415.058   2.752  0.00  0.00     0.275 HD
ATOM     30  H3  GLU d   1     137.049 416.114   1.899  0.00  0.00     0.275 HD
ENDBRANCH  25  27
BRANCH  25  31
ATOM     31  CB  GLU d   1     137.018 415.640   5.196  0.00  0.00    -0.021 C 
ATOM     32  H5  GLU d   1     137.173 414.593   5.496  0.00  0.00     0.037 H 
ATOM     33  H6  GLU d   1     135.940 415.844   5.121  0.00  0.00     0.037 H 
BRANCH  31  34
ATOM     34  CG  GLU d   1     137.605 416.540   6.267  0.00  0.00     0.018 C 
ATOM     35  H7  GLU d   1     138.539 416.090   6.635  0.00  0.00     0.049 H 
ATOM     36  H8  GLU d   1     136.886 416.621   7.095  0.00  0.00     0.049 H 
BRANCH  34  37
ATOM     37  CD  GLU d   1     137.907 417.933   5.744  0.00  0.00     0.172 C 
ATOM     38  OE1 GLU d   1     139.101 418.257   5.582  0.00  0.00    -0.648 OA
ATOM     39  OE2 GLU d   1     136.955 418.702   5.492  0.00  0.00    -0.648 OA
ENDBRANCH  34  37
ENDBRANCH  31  34
ENDBRANCH  25  31
ENDBRANCH  22  25
ENDBRANCH  19  21
BRANCH  19  40
ATOM     40  CB  GLU d   1     141.012 413.933   1.091  0.00  0.00    -0.029 C 
ATOM     41  H11 GLU d   1     140.172 413.296   0.778  0.00  0.00     0.037 H 
ATOM     42  H12 GLU d   1     141.958 413.392   0.940  0.00  0.00     0.037 H 
BRANCH  40  43
ATOM     43  CG  GLU d   1     141.027 415.170   0.188  0.00  0.00     0.018 C 
ATOM     44  H13 GLU d   1     140.619 416.022   0.752  0.00  0.00     0.049 H 
ATOM     45  H14 GLU d   1     140.393 414.973  -0.689  0.00  0.00     0.049 H 
BRANCH  43  46
ATOM     46  CD  GLU d   1     142.422 415.528  -0.292  0.00  0.00     0.172 C 
ATOM     47  OE1 GLU d   1     142.852 416.683  -0.079  0.00  0.00    -0.648 OA
ATOM     48  OE2 GLU d   1     143.085 414.653  -0.889  0.00  0.00    -0.648 OA
ENDBRANCH  43  46
ENDBRANCH  40  43
ENDBRANCH  19  40
ENDBRANCH  16  19
ENDBRANCH  13  15
BRANCH  13  49
ATOM     49  CB  PHE d   1     144.327 414.167   5.628  0.00  0.00    -0.014 C 
ATOM     50  H17 PHE d   1     145.240 414.558   6.100  0.00  0.00     0.043 H 
ATOM     51  H18 PHE d   1     144.343 413.067   5.655  0.00  0.00     0.043 H 
BRANCH  49  52
ATOM     52  CG  PHE d   1     143.140 414.644   6.424  0.00  0.00    -0.056 A 
ATOM     53  CD1 PHE d   1     143.125 415.917   6.978  0.00  0.00    -0.077 A 
ATOM     54  CE1 PHE d   1     142.032 416.361   7.713  0.00  0.00    -0.082 A 
ATOM     55  H19 PHE d   1     143.976 416.573   6.836  0.00  0.00     0.084 H 
ATOM     56  CZ  PHE d   1     140.946 415.526   7.899  0.00  0.00    -0.083 A 
ATOM     57  H21 PHE d   1     142.031 417.358   8.139  0.00  0.00     0.083 H 
ATOM     58  CE2 PHE d   1     140.947 414.253   7.358  0.00  0.00    -0.082 A 
ATOM     59  H23 PHE d   1     140.091 415.870   8.470  0.00  0.00     0.083 H 
ATOM     60  CD2 PHE d   1     142.042 413.818   6.624  0.00  0.00    -0.077 A 
ATOM     61  H22 PHE d   1     140.096 413.598   7.507  0.00  0.00     0.083 H 
ATOM     62  H20 PHE d   1     142.040 412.820   6.201  0.00  0.00     0.084 H 
ENDBRANCH  49  52
ENDBRANCH  13  49
ENDBRANCH  10  13
ENDBRANCH   7   9
BRANCH   7  63
ATOM     63  CB  GLU d   1     147.900 416.014   1.292  0.00  0.00    -0.029 C 
ATOM     64  H26 GLU d   1     148.832 415.719   0.788  0.00  0.00     0.037 H 
ATOM     65  H27 GLU d   1     147.981 417.058   1.630  0.00  0.00     0.037 H 
BRANCH  63  66
ATOM     66  CG  GLU d   1     146.762 415.925   0.282  0.00  0.00     0.018 C 
ATOM     67  H28 GLU d   1     145.925 416.540   0.643  0.00  0.00     0.049 H 
ATOM     68  H29 GLU d   1     146.441 414.876   0.208  0.00  0.00     0.049 H 
BRANCH  66  69
ATOM     69  CD  GLU d   1     147.155 416.408  -1.101  0.00  0.00     0.172 C 
ATOM     70  OE1 GLU d   1     146.615 417.437  -1.548  0.00  0.00    -0.648 OA
ATOM     71  OE2 GLU d   1     147.988 415.744  -1.746  0.00  0.00    -0.648 OA
ENDBRANCH  66  69
ENDBRANCH  63  66
ENDBRANCH   7  63
ENDBRANCH   4   7
ENDBRANCH   1   3
BRANCH   1  72
ATOM     72  C   LEU d   1     151.656 414.788   4.787  0.00  0.00     0.241 C 
ATOM     73  O   LEU d   1     152.279 413.891   4.214  0.00  0.00    -0.271 OA
ATOM     74  N   LEU d   1     152.153 416.008   4.987  0.00  0.00    -0.346 N 
ATOM     75  H41 LEU d   1     151.578 416.707   5.412  0.00  0.00     0.163 HD
BRANCH  74  76
ATOM     76  CA  LEU d   1     153.516 416.343   4.599  0.00  0.00     0.089 C 
ATOM     77  H42 LEU d   1     153.722 415.880   3.623  0.00  0.00     0.087 H 
BRANCH  76  78
ATOM     78  C   LEU d   1     154.499 415.774   5.616  0.00  0.00     0.241 C 
ATOM     79  O   LEU d   1     155.245 416.511   6.263  0.00  0.00    -0.271 OA
ATOM     80  N   ILE d   1     154.478 414.450   5.751  0.00  0.00    -0.346 N 
ATOM     81  H52 ILE d   1     153.807 413.923   5.229  0.00  0.00     0.163 HD
BRANCH  80  82
ATOM     82  CA  ILE d   1     155.396 413.741   6.631  0.00  0.00     0.092 C 
ATOM     83  H53 ILE d   1     155.823 414.455   7.350  0.00  0.00     0.088 H 
BRANCH  82  84
ATOM     84  C   ILE d   1     156.513 413.156   5.784  0.00  0.00     0.241 C 
ATOM     85  O   ILE d   1     156.259 412.323   4.911  0.00  0.00    -0.271 OA
ATOM     86  N   SER d   1     157.744 413.595   6.022  0.00  0.00    -0.344 N 
ATOM     87  H63 SER d   1     157.925 414.185   6.809  0.00  0.00     0.163 HD
BRANCH  86  88
ATOM     88  CA  SER d   1     158.825 413.213   5.132  0.00  0.00     0.109 C 
ATOM     89  H64 SER d   1     158.383 412.717   4.255  0.00  0.00     0.090 H 
BRANCH  88  90
ATOM     90  C   SER d   1     159.776 412.230   5.797  0.00  0.00     0.243 C 
ATOM     91  O   SER d   1     160.563 412.598   6.675  0.00  0.00    -0.271 OA
ATOM     92  N   ASN d   1     159.696 410.985   5.333  0.00  0.00    -0.345 N 
ATOM     93  H68 ASN d   1     159.109 410.818   4.541  0.00  0.00     0.163 HD
BRANCH  92  94
ATOM     94  CA  ASN d   1     160.407 409.851   5.904  0.00  0.00     0.097 C 
ATOM     95  H69 ASN d   1     160.801 410.159   6.884  0.00  0.00     0.088 H 
BRANCH  94  96
ATOM     96  C   ASN d   1     161.595 409.391   5.046  0.00  0.00     0.241 C 
ATOM     97  O   ASN d   1     161.874 409.980   4.000  0.00  0.00    -0.271 OA
ATOM     98  N   SER d   1     162.292 408.354   5.516  0.00  0.00    -0.343 N 
ATOM     99  H74 SER d   1     161.999 407.954   6.384  0.00  0.00     0.163 HD
BRANCH  98 100
ATOM    100  CA  SER d   1     163.462 407.755   4.849  0.00  0.00     0.116 C 
ATOM    101  H75 SER d   1     163.721 406.847   5.413  0.00  0.00     0.093 H 
BRANCH 100 102
ATOM    102  C   SER d   1     164.703 408.646   4.829  0.00  0.00     0.198 C 
ATOM    103  O   SER d   1     165.731 408.277   4.259  0.00  0.00    -0.646 OA
ATOM    104  OXT SER d   1     164.694 409.747   5.383  0.00  0.00    -0.646 OA
ENDBRANCH 100 102
BRANCH 100 105
ATOM    105  CB  SER d   1     163.121 407.339   3.418  0.00  0.00     0.045 C 
ATOM    106  H76 SER d   1     163.990 407.519   2.768  0.00  0.00     0.077 H 
ATOM    107  H77 SER d   1     162.266 407.931   3.059  0.00  0.00     0.077 H 
BRANCH 105 108
ATOM    108  OG  SER d   1     162.786 405.958   3.388  0.00  0.00    -0.398 OA
ATOM    109  H78 SER d   1     162.575 405.704   2.497  0.00  0.00     0.209 HD
ENDBRANCH 105 108
ENDBRANCH 100 105
ENDBRANCH  98 100
ENDBRANCH  94  96
BRANCH  94 110
ATOM    110  CB  ASN d   1     159.429 408.693   6.118  0.00  0.00     0.036 C 
ATOM    111  H70 ASN d   1     158.718 408.978   6.907  0.00  0.00     0.051 H 
ATOM    112  H71 ASN d   1     159.999 407.809   6.439  0.00  0.00     0.051 H 
BRANCH 110 113
ATOM    113  CG  ASN d   1     158.637 408.330   4.856  0.00  0.00     0.217 C 
ATOM    114  OD1 ASN d   1     158.574 409.094   3.892  0.00  0.00    -0.274 OA
ATOM    115  ND2 ASN d   1     158.016 407.152   4.877  0.00  0.00    -0.370 N 
ATOM    116  H72 ASN d   1     157.482 406.854   4.086  0.00  0.00     0.159 HD
ATOM    117  H73 ASN d   1     158.084 406.565   5.684  0.00  0.00     0.159 HD
ENDBRANCH 110 113
ENDBRANCH  94 110
ENDBRANCH  92  94
ENDBRANCH  88  90
BRANCH  88 118
ATOM    118  CB  SER d   1     159.583 414.449   4.648  0.00  0.00     0.044 C 
ATOM    119  H65 SER d   1     160.560 414.495   5.151  0.00  0.00     0.077 H 
ATOM    120  H66 SER d   1     159.002 415.350   4.894  0.00  0.00     0.077 H 
BRANCH 118 121
ATOM    121  OG  SER d   1     159.782 414.391   3.247  0.00  0.00    -0.398 OA
ATOM    122  H67 SER d   1     160.254 415.165   2.963  0.00  0.00     0.209 HD
ENDBRANCH 118 121
ENDBRANCH  88 118
ENDBRANCH  86  88
ENDBRANCH  82  84
BRANCH  82 123
ATOM    123  CB  ILE d   1     154.689 412.633   7.409  0.00  0.00    -0.030 C 
ATOM    124  H54 ILE d   1     154.124 412.010   6.700  0.00  0.00     0.043 H 
BRANCH 123 125
ATOM    125  CG1 ILE d   1     153.709 413.238   8.416  0.00  0.00    -0.063 C 
ATOM    126  H55 ILE d   1     153.193 414.080   7.932  0.00  0.00     0.033 H 
ATOM    127  H56 ILE d   1     154.284 413.607   9.278  0.00  0.00     0.033 H 
BRANCH 125 128
ATOM    128  CD1 ILE d   1     152.667 412.270   8.920  0.00  0.00    -0.076 C 
ATOM    129  H60 ILE d   1     152.006 412.782   9.635  0.00  0.00     0.027 H 
ATOM    130  H61 ILE d   1     153.163 411.425   9.419  0.00  0.00     0.027 H 
ATOM    131  H62 ILE d   1     152.072 411.898   8.073  0.00  0.00     0.027 H 
ENDBRANCH 125 128
ENDBRANCH 123 125
BRANCH 123 132
ATOM    132  CG2 ILE d   1     155.708 411.759   8.117  0.00  0.00    -0.071 C 
ATOM    133  H57 ILE d   1     156.403 411.334   7.378  0.00  0.00     0.028 H 
ATOM    134  H58 ILE d   1     155.189 410.945   8.644  0.00  0.00     0.028 H 
ATOM    135  H59 ILE d   1     156.270 412.365   8.842  0.00  0.00     0.028 H 
ENDBRANCH 123 132
ENDBRANCH  82 123
ENDBRANCH  80  82
ENDBRANCH  76  78
BRANCH  76 136
ATOM    136  CB  LEU d   1     153.685 417.859   4.452  0.00  0.00    -0.035 C 
ATOM    137  H43 LEU d   1     154.745 418.066   4.243  0.00  0.00     0.037 H 
ATOM    138  H44 LEU d   1     153.401 418.328   5.405  0.00  0.00     0.037 H 
BRANCH 136 139
ATOM    139  CG  LEU d   1     152.851 418.496   3.344  0.00  0.00    -0.059 C 
ATOM    140  H45 LEU d   1     151.798 418.475   3.661  0.00  0.00     0.038 H 
BRANCH 139 141
ATOM    141  CD1 LEU d   1     153.235 419.944   3.101  0.00  0.00    -0.073 C 
ATOM    142  H46 LEU d   1     152.609 420.359   2.297  0.00  0.00     0.028 H 
ATOM    143  H47 LEU d   1     154.294 419.998   2.807  0.00  0.00     0.028 H 
ATOM    144  H48 LEU d   1     153.080 420.524   4.023  0.00  0.00     0.028 H 
ENDBRANCH 139 141
BRANCH 139 145
ATOM    145  CD2 LEU d   1     152.976 417.694   2.061  0.00  0.00    -0.073 C 
ATOM    146  H49 LEU d   1     152.695 416.648   2.253  0.00  0.00     0.028 H 
ATOM    147  H50 LEU d   1     154.015 417.734   1.703  0.00  0.00     0.028 H 
ATOM    148  H51 LEU d   1     152.309 418.118   1.297  0.00  0.00     0.028 H 
ENDBRANCH 139 145
ENDBRANCH 136 139
ENDBRANCH  76 136
ENDBRANCH  74  76
ENDBRANCH   1  72
BRANCH   1 149
ATOM    149  CB  LEU d   1     150.207 413.302   6.219  0.00  0.00    -0.035 C 
ATOM    150  H32 LEU d   1     150.979 413.432   6.992  0.00  0.00     0.037 H 
ATOM    151  H33 LEU d   1     150.453 412.428   5.598  0.00  0.00     0.037 H 
BRANCH 149 152
ATOM    152  CG  LEU d   1     148.886 413.009   6.929  0.00  0.00    -0.059 C 
ATOM    153  H34 LEU d   1     148.134 412.776   6.160  0.00  0.00     0.038 H 
BRANCH 152 154
ATOM    154  CD1 LEU d   1     148.974 411.814   7.873  0.00  0.00    -0.073 C 
ATOM    155  H35 LEU d   1     147.997 411.653   8.353  0.00  0.00     0.028 H 
ATOM    156  H36 LEU d   1     149.733 412.011   8.644  0.00  0.00     0.028 H 
ATOM    157  H37 LEU d   1     149.255 410.916   7.303  0.00  0.00     0.028 H 
ENDBRANCH 152 154
BRANCH 152 158
ATOM    158  CD2 LEU d   1     148.430 414.234   7.687  0.00  0.00    -0.073 C 
ATOM    159  H38 LEU d   1     148.370 415.090   6.998  0.00  0.00     0.028 H 
ATOM    160  H39 LEU d   1     149.149 414.458   8.488  0.00  0.00     0.028 H 
ATOM    161  H40 LEU d   1     147.439 414.046   8.126  0.00  0.00     0.028 H 
ENDBRANCH 152 158
ENDBRANCH 149 152
ENDBRANCH   1 149
TORSDOF 49
