REMARK  16 active torsions:
REMARK  status: ('A' for Active; 'I' for Inactive)
REMARK    1  A    between atoms: C5_1  and  C3_2 
REMARK    2  A    between atoms: C5_1  and  C6_6 
REMARK       I    between atoms: C3_2  and  N1_4 
REMARK    3  A    between atoms: N1_4  and  O2_5 
REMARK    4  A    between atoms: C6_6  and  C12_7 
REMARK    5  A    between atoms: C6_6  and  C7_9 
REMARK       I    between atoms: C12_7  and  N14_14 
REMARK    6  A    between atoms: C7_9  and  C8_10 
REMARK    7  A    between atoms: C8_10  and  C9_11 
REMARK    8  A    between atoms: C9_11  and  C10_12 
REMARK    9  A    between atoms: C10_12  and  C11_13 
REMARK   10  A    between atoms: N14_14  and  C15_15 
REMARK   11  A    between atoms: C15_15  and  C16_16 
REMARK   12  A    between atoms: C15_15  and  C19_19 
REMARK   13  A    between atoms: C16_16  and  C18_17 
REMARK   14  A    between atoms: C16_16  and  C17_18 
REMARK       I    between atoms: C19_19  and  N21_21 
REMARK   15  A    between atoms: C22_22  and  C26_26 
REMARK   16  A    between atoms: C26_26  and  O27_27 
ROOT
ATOM      1  C12 BB2 d   1      -7.540  -0.062  11.298  0.00  0.00     0.223 C 
ATOM      2  O13 BB2 d   1      -8.667  -0.402  11.534  0.00  0.00    -0.273 OA
ATOM      3  N14 BB2 d   1      -7.174   1.170  11.081  0.00  0.00    -0.347 N 
ATOM      4  H17 BB2 d   1      -6.192   1.344  11.002  0.00  0.00     0.163 HD
ENDROOT
BRANCH   3   5
ATOM      5  C15 BB2 d   1      -8.068   2.324  10.942  0.00  0.00     0.092 C 
ATOM      6  H18 BB2 d   1      -9.098   1.990  11.133  0.00  0.00     0.088 H 
BRANCH   5   7
ATOM      7  C16 BB2 d   1      -7.740   3.374  11.973  0.00  0.00    -0.033 C 
ATOM      8  H19 BB2 d   1      -8.685   3.849  12.274  0.00  0.00     0.042 H 
BRANCH   7   9
ATOM      9  C18 BB2 d   1      -7.116   2.747  13.235  0.00  0.00    -0.071 C 
ATOM     10  H20 BB2 d   1      -6.890   3.539  13.964  0.00  0.00     0.028 H 
ATOM     11  H21 BB2 d   1      -6.188   2.223  12.963  0.00  0.00     0.028 H 
ATOM     12  H22 BB2 d   1      -7.825   2.032  13.678  0.00  0.00     0.028 H 
ENDBRANCH   7   9
BRANCH   7  13
ATOM     13  C17 BB2 d   1      -6.856   4.450  11.395  0.00  0.00    -0.071 C 
ATOM     14  H23 BB2 d   1      -7.332   4.873  10.498  0.00  0.00     0.028 H 
ATOM     15  H24 BB2 d   1      -5.882   4.018  11.123  0.00  0.00     0.028 H 
ATOM     16  H25 BB2 d   1      -6.709   5.244  12.142  0.00  0.00     0.028 H 
ENDBRANCH   7  13
ENDBRANCH   5   7
BRANCH   5  17
ATOM     17  C19 BB2 d   1      -8.002   2.820   9.493  0.00  0.00     0.243 C 
ATOM     18  O20 BB2 d   1      -6.904   2.901   8.847  0.00  0.00    -0.271 OA
ATOM     19  N21 BB2 d   1      -9.166   3.101   8.887  0.00  0.00    -0.344 N 
ATOM     20  C22 BB2 d   1      -9.186   3.542   7.461  0.00  0.00     0.035 C 
ATOM     21  C23 BB2 d   1     -10.514   2.946   9.437  0.00  0.00    -0.002 C 
ATOM     22  C25 BB2 d   1     -10.679   3.610   7.124  0.00  0.00    -0.043 C 
ATOM     23  H26 BB2 d   1      -8.702   2.784   6.828  0.00  0.00     0.076 H 
ATOM     24  C24 BB2 d   1     -11.443   3.618   8.453  0.00  0.00    -0.048 C 
ATOM     25  H31 BB2 d   1     -10.971   2.734   6.527  0.00  0.00     0.036 H 
ATOM     26  H32 BB2 d   1     -10.896   4.528   6.559  0.00  0.00     0.036 H 
ATOM     27  H29 BB2 d   1     -11.661   4.649   8.768  0.00  0.00     0.035 H 
ATOM     28  H30 BB2 d   1     -12.384   3.055   8.362  0.00  0.00     0.035 H 
ATOM     29  H27 BB2 d   1     -10.584   3.432  10.422  0.00  0.00     0.064 H 
ATOM     30  H28 BB2 d   1     -10.767   1.880   9.535  0.00  0.00     0.064 H 
BRANCH  20  31
ATOM     31  C26 BB2 d   1      -8.426   4.886   7.260  0.00  0.00     0.036 C 
ATOM     32  H33 BB2 d   1      -7.345   4.691   7.313  0.00  0.00     0.077 H 
ATOM     33  H34 BB2 d   1      -8.714   5.578   8.065  0.00  0.00     0.077 H 
BRANCH  31  34
ATOM     34  O27 BB2 d   1      -8.724   5.502   5.992  0.00  0.00    -0.399 OA
ATOM     35  H35 BB2 d   1      -8.239   6.316   5.915  0.00  0.00     0.209 HD
ENDBRANCH  31  34
ENDBRANCH  20  31
ENDBRANCH   5  17
ENDBRANCH   3   5
BRANCH   1  36
ATOM     36  C6  BB2 d   1      -6.517  -1.138  11.069  0.00  0.00     0.032 C 
ATOM     37  H5  BB2 d   1      -5.556  -0.675  10.800  0.00  0.00     0.055 H 
BRANCH  36  38
ATOM     38  C5  BB2 d   1      -6.312  -1.885  12.378  0.00  0.00     0.022 C 
ATOM     39  H1  BB2 d   1      -6.146  -1.163  13.191  0.00  0.00     0.048 H 
ATOM     40  H2  BB2 d   1      -7.204  -2.489  12.601  0.00  0.00     0.048 H 
BRANCH  38  41
ATOM     41  C3  BB2 d   1      -5.118  -2.783  12.253  0.00  0.00     0.241 C 
ATOM     42  O4  BB2 d   1      -4.037  -2.418  12.664  0.00  0.00    -0.271 OA
ATOM     43  N1  BB2 d   1      -5.270  -3.979  11.675  0.00  0.00    -0.237 N 
ATOM     44  H3  BB2 d   1      -6.157  -4.229  11.287  0.00  0.00     0.197 HD
BRANCH  43  45
ATOM     45  O2  BB2 d   1      -4.220  -4.877  11.604  0.00  0.00    -0.287 OA
ATOM     46  H4  BB2 d   1      -4.510  -5.667  11.163  0.00  0.00     0.244 HD
ENDBRANCH  43  45
ENDBRANCH  38  41
ENDBRANCH  36  38
BRANCH  36  47
ATOM     47  C7  BB2 d   1      -6.979  -1.961   9.880  0.00  0.00    -0.053 C 
ATOM     48  H6  BB2 d   1      -7.949  -2.431  10.101  0.00  0.00     0.034 H 
ATOM     49  H7  BB2 d   1      -6.238  -2.741   9.650  0.00  0.00     0.034 H 
BRANCH  47  50
ATOM     50  C8  BB2 d   1      -7.118  -1.003   8.693  0.00  0.00    -0.064 C 
ATOM     51  H8  BB2 d   1      -6.215  -0.377   8.637  0.00  0.00     0.033 H 
ATOM     52  H9  BB2 d   1      -7.998  -0.364   8.857  0.00  0.00     0.033 H 
BRANCH  50  53
ATOM     53  C9  BB2 d   1      -7.281  -1.713   7.411  0.00  0.00    -0.065 C 
ATOM     54  H10 BB2 d   1      -8.329  -2.030   7.302  0.00  0.00     0.033 H 
ATOM     55  H11 BB2 d   1      -6.627  -2.598   7.400  0.00  0.00     0.033 H 
BRANCH  53  56
ATOM     56  C10 BB2 d   1      -6.908  -0.796   6.249  0.00  0.00    -0.069 C 
ATOM     57  H12 BB2 d   1      -6.799  -1.384   5.326  0.00  0.00     0.032 H 
ATOM     58  H13 BB2 d   1      -5.963  -0.278   6.467  0.00  0.00     0.032 H 
BRANCH  56  59
ATOM     59  C11 BB2 d   1      -7.996   0.184   6.097  0.00  0.00    -0.077 C 
ATOM     60  H14 BB2 d   1      -7.762   0.865   5.266  0.00  0.00     0.027 H 
ATOM     61  H15 BB2 d   1      -8.101   0.763   7.027  0.00  0.00     0.027 H 
ATOM     62  H16 BB2 d   1      -8.938  -0.344   5.885  0.00  0.00     0.027 H 
ENDBRANCH  56  59
ENDBRANCH  53  56
ENDBRANCH  50  53
ENDBRANCH  47  50
ENDBRANCH  36  47
ENDBRANCH   1  36
TORSDOF 16
