REMARK  8 active torsions:
REMARK  status: ('A' for Active; 'I' for Inactive)
REMARK       I    between atoms: C3_2  and  N1_3 
REMARK    1  A    between atoms: C3_2  and  C5_5 
REMARK    2  A    between atoms: N1_3  and  O2_4 
REMARK    3  A    between atoms: C5_5  and  C6_6 
REMARK    4  A    between atoms: C6_6  and  C7_7 
REMARK    5  A    between atoms: C6_6  and  C12_11 
REMARK    6  A    between atoms: C7_7  and  C8_8 
REMARK    7  A    between atoms: C8_8  and  C9_9 
REMARK    8  A    between atoms: C9_9  and  C10_10 
ROOT
ATOM      1  C6  SF7 d   1      -6.804  -0.798  11.277  0.00  0.00     0.020 C 
ATOM      2  H5  SF7 d   1      -5.839  -0.279  11.179  0.00  0.00     0.053 H 
ENDROOT
BRANCH   1   3
ATOM      3  C5  SF7 d   1      -6.728  -1.818  12.400  0.00  0.00     0.021 C 
ATOM      4  H3  SF7 d   1      -6.779  -1.293  13.365  0.00  0.00     0.048 H 
ATOM      5  H4  SF7 d   1      -7.578  -2.511  12.313  0.00  0.00     0.048 H 
BRANCH   3   6
ATOM      6  C3  SF7 d   1      -5.441  -2.607  12.336  0.00  0.00     0.241 C 
ATOM      7  O4  SF7 d   1      -4.405  -2.171  12.840  0.00  0.00    -0.271 OA
ATOM      8  N1  SF7 d   1      -5.507  -3.783  11.737  0.00  0.00    -0.237 N 
ATOM      9  H1  SF7 d   1      -6.382  -4.096  11.367  0.00  0.00     0.197 HD
BRANCH   8  10
ATOM     10  O2  SF7 d   1      -4.393  -4.589  11.611  0.00  0.00    -0.287 OA
ATOM     11  H2  SF7 d   1      -4.632  -5.388  11.156  0.00  0.00     0.244 HD
ENDBRANCH   8  10
ENDBRANCH   3   6
ENDBRANCH   1   3
BRANCH   1  12
ATOM     12  C7  SF7 d   1      -7.119  -1.488   9.944  0.00  0.00    -0.054 C 
ATOM     13  H6  SF7 d   1      -8.204  -1.655   9.881  0.00  0.00     0.034 H 
ATOM     14  H7  SF7 d   1      -6.596  -2.455   9.915  0.00  0.00     0.034 H 
BRANCH  12  15
ATOM     15  C8  SF7 d   1      -6.683  -0.663   8.745  0.00  0.00    -0.065 C 
ATOM     16  H8  SF7 d   1      -5.586  -0.581   8.738  0.00  0.00     0.033 H 
ATOM     17  H9  SF7 d   1      -7.125   0.342   8.813  0.00  0.00     0.033 H 
BRANCH  15  18
ATOM     18  C9  SF7 d   1      -7.150  -1.337   7.451  0.00  0.00    -0.069 C 
ATOM     19  H10 SF7 d   1      -8.171  -1.721   7.596  0.00  0.00     0.032 H 
ATOM     20  H11 SF7 d   1      -6.474  -2.173   7.219  0.00  0.00     0.032 H 
BRANCH  18  21
ATOM     21  C10 SF7 d   1      -7.150  -0.373   6.294  0.00  0.00    -0.077 C 
ATOM     22  H12 SF7 d   1      -7.490  -0.891   5.385  0.00  0.00     0.027 H 
ATOM     23  H13 SF7 d   1      -6.131   0.012   6.137  0.00  0.00     0.027 H 
ATOM     24  H14 SF7 d   1      -7.829   0.464   6.514  0.00  0.00     0.027 H 
ENDBRANCH  18  21
ENDBRANCH  15  18
ENDBRANCH  12  15
ENDBRANCH   1  12
BRANCH   1  25
ATOM     25  C12 SF7 d   1      -7.889   0.218  11.704  0.00  0.00     0.176 A 
ATOM     26  O13 SF7 d   1      -9.174   0.469  11.500  0.00  0.00    -0.196 OA
ATOM     27  N15 SF7 d   1      -9.441   1.683  11.953  0.00  0.00    -0.120 NA
ATOM     28  C16 SF7 d   1      -8.314   2.188  12.412  0.00  0.00     0.115 A 
ATOM     29  N14 SF7 d   1      -7.337   1.283  12.252  0.00  0.00    -0.217 NA
ATOM     30  H15 SF7 d   1      -8.195   3.178  12.850  0.00  0.00     0.150 H 
ENDBRANCH   1  25
TORSDOF 8
