REMARK  8 active torsions:
REMARK  status: ('A' for Active; 'I' for Inactive)
REMARK    1  A    between atoms: N1_1  and  O2_2 
REMARK       I    between atoms: N1_1  and  C3_3 
REMARK    2  A    between atoms: C3_3  and  C5_5 
REMARK    3  A    between atoms: C5_5  and  C6_6 
REMARK    4  A    between atoms: C6_6  and  C7_7 
REMARK    5  A    between atoms: C6_6  and  C12_11 
REMARK    6  A    between atoms: C7_7  and  C8_8 
REMARK    7  A    between atoms: C8_8  and  C9_9 
REMARK    8  A    between atoms: C9_9  and  C10_10 
ROOT
ATOM      1  C6  SF5 d   1      -6.417  -0.616  11.220  0.00  0.00     0.020 C 
ATOM      2  H5  SF5 d   1      -5.388  -0.287  11.014  0.00  0.00     0.053 H 
ENDROOT
BRANCH   1   3
ATOM      3  C5  SF5 d   1      -6.343  -1.580  12.398  0.00  0.00     0.021 C 
ATOM      4  H3  SF5 d   1      -6.240  -1.002  13.328  0.00  0.00     0.048 H 
ATOM      5  H4  SF5 d   1      -7.269  -2.173  12.435  0.00  0.00     0.048 H 
BRANCH   3   6
ATOM      6  C3  SF5 d   1      -5.161  -2.518  12.265  0.00  0.00     0.241 C 
ATOM      7  N1  SF5 d   1      -5.424  -3.710  11.740  0.00  0.00    -0.237 N 
ATOM      8  H1  SF5 d   1      -6.361  -3.933  11.471  0.00  0.00     0.197 HD
ATOM      9  O4  SF5 d   1      -4.042  -2.184  12.632  0.00  0.00    -0.271 OA
BRANCH   7  10
ATOM     10  O2  SF5 d   1      -4.424  -4.648  11.559  0.00  0.00    -0.287 OA
ATOM     11  H2  SF5 d   1      -4.794  -5.434  11.175  0.00  0.00     0.244 HD
ENDBRANCH   7  10
ENDBRANCH   3   6
ENDBRANCH   1   3
BRANCH   1  12
ATOM     12  C7  SF5 d   1      -6.943  -1.335   9.975  0.00  0.00    -0.054 C 
ATOM     13  H6  SF5 d   1      -8.041  -1.374  10.027  0.00  0.00     0.034 H 
ATOM     14  H7  SF5 d   1      -6.540  -2.358   9.961  0.00  0.00     0.034 H 
BRANCH  12  15
ATOM     15  C8  SF5 d   1      -6.539  -0.633   8.685  0.00  0.00    -0.065 C 
ATOM     16  H8  SF5 d   1      -5.447  -0.687   8.566  0.00  0.00     0.033 H 
ATOM     17  H9  SF5 d   1      -6.852   0.421   8.728  0.00  0.00     0.033 H 
BRANCH  15  18
ATOM     18  C9  SF5 d   1      -7.215  -1.316   7.495  0.00  0.00    -0.069 C 
ATOM     19  H10 SF5 d   1      -8.252  -1.563   7.765  0.00  0.00     0.032 H 
ATOM     20  H11 SF5 d   1      -6.669  -2.240   7.254  0.00  0.00     0.032 H 
BRANCH  18  21
ATOM     21  C10 SF5 d   1      -7.223  -0.417   6.280  0.00  0.00    -0.077 C 
ATOM     22  H12 SF5 d   1      -7.715  -0.935   5.444  0.00  0.00     0.027 H 
ATOM     23  H13 SF5 d   1      -6.188  -0.169   6.000  0.00  0.00     0.027 H 
ATOM     24  H14 SF5 d   1      -7.772   0.508   6.512  0.00  0.00     0.027 H 
ENDBRANCH  18  21
ENDBRANCH  15  18
ENDBRANCH  12  15
ENDBRANCH   1  12
BRANCH   1  25
ATOM     25  C12 SF5 d   1      -7.194   0.555  11.437  0.00  0.00     0.176 A 
ATOM     26  O13 SF5 d   1      -8.490   0.264  11.446  0.00  0.00    -0.196 OA
ATOM     27  N15 SF5 d   1      -9.157   1.401  11.247  0.00  0.00    -0.120 NA
ATOM     28  C16 SF5 d   1      -8.268   2.368  11.096  0.00  0.00     0.115 A 
ATOM     29  N14 SF5 d   1      -7.041   1.845  11.203  0.00  0.00    -0.217 NA
ATOM     30  H15 SF5 d   1      -8.497   3.417  10.915  0.00  0.00     0.150 H 
ENDBRANCH   1  25
TORSDOF 8
