REMARK  6 active torsions:
REMARK  status: ('A' for Active; 'I' for Inactive)
REMARK    1  A    between atoms: N1_1  and  O2_2 
REMARK       I    between atoms: N1_1  and  C3_3 
REMARK    2  A    between atoms: C3_3  and  C5_5 
REMARK    3  A    between atoms: C5_5  and  C6_6 
REMARK    4  A    between atoms: C6_6  and  C7_7 
REMARK    5  A    between atoms: C6_6  and  C12_8 
REMARK    6  A    between atoms: C7_7  and  C17_13 
ROOT
ATOM      1  C6  6JT d   1      -6.429  -0.730  11.097  0.00  0.00     0.037 C 
ATOM      2  H5  6JT d   1      -5.490  -0.234  10.810  0.00  0.00     0.059 H 
ENDROOT
BRANCH   1   3
ATOM      3  C5  6JT d   1      -6.349  -1.465  12.439  0.00  0.00     0.025 C 
ATOM      4  H3  6JT d   1      -6.195  -0.738  13.250  0.00  0.00     0.049 H 
ATOM      5  H4  6JT d   1      -7.285  -2.017  12.614  0.00  0.00     0.049 H 
BRANCH   3   6
ATOM      6  C3  6JT d   1      -5.162  -2.456  12.398  0.00  0.00     0.241 C 
ATOM      7  N1  6JT d   1      -5.406  -3.648  11.801  0.00  0.00    -0.237 N 
ATOM      8  H1  6JT d   1      -6.318  -3.848  11.444  0.00  0.00     0.197 HD
ATOM      9  O4  6JT d   1      -4.068  -2.149  12.867  0.00  0.00    -0.271 OA
BRANCH   7  10
ATOM     10  O2  6JT d   1      -4.360  -4.625  11.679  0.00  0.00    -0.287 OA
ATOM     11  H2  6JT d   1      -4.698  -5.396  11.239  0.00  0.00     0.244 HD
ENDBRANCH   7  10
ENDBRANCH   3   6
ENDBRANCH   1   3
BRANCH   1  12
ATOM     12  C7  6JT d   1      -6.943  -1.647   9.946  0.00  0.00    -0.081 C 
ATOM     13  H6  6JT d   1      -7.248  -2.676  10.132  0.00  0.00     0.079 H 
BRANCH  12  14
ATOM     14  C17 6JT d   1      -6.993  -1.110   8.711  0.00  0.00    -0.039 A 
ATOM     15  C18 6JT d   1      -7.435  -1.763   7.636  0.00  0.00    -0.073 A 
ATOM     16  C21 6JT d   1      -7.311  -0.917   6.601  0.00  0.00    -0.082 A 
ATOM     17  H8  6JT d   1      -7.820  -2.781   7.604  0.00  0.00     0.084 H 
ATOM     18  C20 6JT d   1      -6.796   0.237   7.035  0.00  0.00    -0.082 A 
ATOM     19  H11 6JT d   1      -7.587  -1.137   5.571  0.00  0.00     0.083 H 
ATOM     20  C19 6JT d   1      -6.598   0.115   8.340  0.00  0.00    -0.073 A 
ATOM     21  H10 6JT d   1      -6.579   1.115   6.429  0.00  0.00     0.083 H 
ATOM     22  H9  6JT d   1      -6.185   0.879   8.997  0.00  0.00     0.084 H 
ENDBRANCH  12  14
ENDBRANCH   1  12
BRANCH   1  23
ATOM     23  C12 6JT d   1      -7.470   0.172  11.501  0.00  0.00     0.180 A 
ATOM     24  O13 6JT d   1      -8.771   0.124  11.287  0.00  0.00    -0.196 OA
ATOM     25  N15 6JT d   1      -9.265   1.345  11.433  0.00  0.00    -0.120 NA
ATOM     26  C16 6JT d   1      -8.256   2.145  11.716  0.00  0.00     0.115 A 
ATOM     27  N14 6JT d   1      -7.135   1.420  11.751  0.00  0.00    -0.217 NA
ATOM     28  H7  6JT d   1      -8.325   3.217  11.892  0.00  0.00     0.150 H 
ENDBRANCH   1  23
TORSDOF 6
