REMARK  3 active torsions:
REMARK  status: ('A' for Active; 'I' for Inactive)
REMARK       I    between atoms: C13_14  and  N1_2 
REMARK    1  A    between atoms: N1_2  and  O14_15 
REMARK    2  A    between atoms: C12_13  and  C5_6 
REMARK    3  A    between atoms: C12_13  and  C13_14 
ROOT
ATOM      1 BR   BB4 d   1      -6.771  -1.096   6.431  0.00  0.00    -0.051 Br
ATOM      2  N3  BB4 d   1      -5.593   1.910  11.510  0.00  0.00    -0.365 N 
ATOM      3  C4  BB4 d   1      -5.639   0.846  12.399  0.00  0.00    -0.015 A 
ATOM      4  C5  BB4 d   1      -5.833  -0.310  11.739  0.00  0.00    -0.021 A 
ATOM      5  C6  BB4 d   1      -6.030   0.010  10.359  0.00  0.00    -0.000 A 
ATOM      6  C7  BB4 d   1      -6.272  -0.735   9.202  0.00  0.00    -0.053 A 
ATOM      7  C8  BB4 d   1      -6.399  -0.066   8.031  0.00  0.00     0.011 A 
ATOM      8  C9  BB4 d   1      -6.297   1.316   7.918  0.00  0.00    -0.064 A 
ATOM      9  C10 BB4 d   1      -6.022   2.080   9.049  0.00  0.00    -0.055 A 
ATOM     10  C11 BB4 d   1      -5.853   1.420  10.250  0.00  0.00     0.043 A 
ATOM     11  H2  BB4 d   1      -5.399   2.893  11.750  0.00  0.00     0.165 HD
ATOM     12  H3  BB4 d   1      -5.533   0.934  13.479  0.00  0.00     0.112 H 
ATOM     13  H4  BB4 d   1      -6.356  -1.815   9.240  0.00  0.00     0.086 H 
ATOM     14  H5  BB4 d   1      -6.431   1.796   6.955  0.00  0.00     0.085 H 
ATOM     15  H6  BB4 d   1      -5.943   3.159   8.989  0.00  0.00     0.087 H 
ENDROOT
BRANCH   4  16
ATOM     16  C12 BB4 d   1      -5.948  -1.670  12.403  0.00  0.00     0.037 C 
ATOM     17  H7  BB4 d   1      -6.849  -2.166  12.012  0.00  0.00     0.054 H 
ATOM     18  H8  BB4 d   1      -6.057  -1.513  13.486  0.00  0.00     0.054 H 
BRANCH  16  19
ATOM     19  C13 BB4 d   1      -4.754  -2.603  12.175  0.00  0.00     0.245 C 
ATOM     20  N1  BB4 d   1      -5.101  -3.857  11.742  0.00  0.00    -0.237 N 
ATOM     21  H1  BB4 d   1      -6.042  -4.141  11.557  0.00  0.00     0.197 HD
ATOM     22  O2  BB4 d   1      -3.605  -2.301  12.552  0.00  0.00    -0.271 OA
BRANCH  20  23
ATOM     23  O14 BB4 d   1      -4.050  -4.648  11.597  0.00  0.00    -0.287 OA
ATOM     24  H9  BB4 d   1      -4.337  -5.502  11.297  0.00  0.00     0.244 HD
ENDBRANCH  20  23
ENDBRANCH  16  19
ENDBRANCH   4  16
TORSDOF 3
