REMARK  3 active torsions:
REMARK  status: ('A' for Active; 'I' for Inactive)
REMARK    1  A    between atoms: N3_10  and  C12_11 
REMARK    2  A    between atoms: C12_11  and  C13_12 
REMARK       I    between atoms: C13_12  and  N1_14 
REMARK    3  A    between atoms: N1_14  and  O14_15 
ROOT
ATOM      1  C5  6JU d   1      -6.241   1.421  11.187  0.00  0.00    -0.056 A 
ATOM      2  C4  6JU d   1      -6.224   0.688  12.323  0.00  0.00    -0.019 A 
ATOM      3  C6  6JU d   1      -6.515   0.550  10.105  0.00  0.00    -0.007 A 
ATOM      4  C7  6JU d   1      -6.655   0.709   8.710  0.00  0.00    -0.054 A 
ATOM      5  C8  6JU d   1      -6.967  -0.403   7.895  0.00  0.00     0.011 A 
ATOM      6 BR   6JU d   1      -7.153  -0.224   5.977  0.00  0.00    -0.051 Br
ATOM      7  C9  6JU d   1      -7.137  -1.681   8.460  0.00  0.00    -0.064 A 
ATOM      8  C10 6JU d   1      -7.001  -1.848   9.843  0.00  0.00    -0.055 A 
ATOM      9  C11 6JU d   1      -6.684  -0.732  10.658  0.00  0.00     0.045 A 
ATOM     10  N3  6JU d   1      -6.501  -0.597  11.982  0.00  0.00    -0.347 N 
ATOM     11  H1  6JU d   1      -6.073   2.495  11.117  0.00  0.00     0.086 H 
ATOM     12  H2  6JU d   1      -6.025   1.060  13.327  0.00  0.00     0.111 H 
ATOM     13  H3  6JU d   1      -6.523   1.687   8.262  0.00  0.00     0.086 H 
ATOM     14  H4  6JU d   1      -7.372  -2.530   7.828  0.00  0.00     0.085 H 
ATOM     15  H5  6JU d   1      -7.138  -2.826  10.289  0.00  0.00     0.087 H 
ENDROOT
BRANCH  10  16
ATOM     16  C12 6JU d   1      -6.605  -1.764  12.904  0.00  0.00     0.075 C 
ATOM     17  H6  6JU d   1      -7.490  -2.363  12.641  0.00  0.00     0.079 H 
ATOM     18  H7  6JU d   1      -6.699  -1.407  13.940  0.00  0.00     0.079 H 
BRANCH  16  19
ATOM     19  C13 6JU d   1      -5.321  -2.643  12.769  0.00  0.00     0.259 C 
ATOM     20  O2  6JU d   1      -4.295  -2.332  13.379  0.00  0.00    -0.270 OA
ATOM     21  N1  6JU d   1      -5.437  -3.731  11.974  0.00  0.00    -0.236 N 
ATOM     22  H8  6JU d   1      -6.319  -3.914  11.539  0.00  0.00     0.197 HD
BRANCH  21  23
ATOM     23  O14 6JU d   1      -4.410  -4.583  11.742  0.00  0.00    -0.287 OA
ATOM     24  H9  6JU d   1      -4.700  -5.276  11.160  0.00  0.00     0.244 HD
ENDBRANCH  21  23
ENDBRANCH  16  19
ENDBRANCH  10  16
TORSDOF 3
