REMARK  10 active torsions:
REMARK  status: ('A' for Active; 'I' for Inactive)
REMARK    1  A    between atoms: N3_3  and  O4_4 
REMARK    2  A    between atoms: N3_3  and  C5_5 
REMARK    3  A    between atoms: C5_5  and  C6_6 
REMARK    4  A    between atoms: C6_6  and  C7_7 
REMARK    5  A    between atoms: C6_6  and  N14_8 
REMARK    6  A    between atoms: C15_9  and  O17_11 
REMARK    7  A    between atoms: O17_11  and  C18_12 
REMARK    8  A    between atoms: C18_12  and  C19_13 
REMARK    9  A    between atoms: C18_12  and  C20_14 
REMARK   10  A    between atoms: C18_12  and  C21_15 
ROOT
ATOM      1  N14 PN3 d   1      -5.456  -0.100  10.756  0.00  0.00    -0.343 N 
ATOM      2  C15 PN3 d   1      -6.454  -0.269   9.975  0.00  0.00     0.292 C 
ATOM      3  O16 PN3 d   1      -7.657  -0.595  10.458  0.00  0.00    -0.143 OA
ATOM      4  H9  PN3 d   1      -4.580   0.111  10.322  0.00  0.00     0.164 HD
ENDROOT
BRANCH   1   5
ATOM      5  C6  PN3 d   1      -5.460  -0.183  12.232  0.00  0.00     0.027 C 
ATOM      6  H5  PN3 d   1      -4.417  -0.093  12.570  0.00  0.00     0.074 H 
BRANCH   5   7
ATOM      7  C5  PN3 d   1      -5.978  -1.534  12.735  0.00  0.00     0.040 C 
ATOM      8  H3  PN3 d   1      -6.171  -1.483  13.817  0.00  0.00     0.071 H 
ATOM      9  H4  PN3 d   1      -6.907  -1.799  12.209  0.00  0.00     0.071 H 
BRANCH   7  10
ATOM     10  N3  PN3 d   1      -4.941  -2.536  12.457  0.00  0.00    -0.245 N 
ATOM     11  C1  PN3 d   1      -5.262  -3.584  11.791  0.00  0.00     0.133 C 
ATOM     12  O2  PN3 d   1      -4.401  -4.569  11.496  0.00  0.00    -0.185 OA
ATOM     13  H1  PN3 d   1      -6.290  -3.679  11.446  0.00  0.00     0.159 H 
BRANCH  10  14
ATOM     14  O4  PN3 d   1      -3.630  -2.325  12.946  0.00  0.00    -0.286 OA
ATOM     15  H2  PN3 d   1      -3.596  -1.497  13.410  0.00  0.00     0.244 HD
ENDBRANCH  10  14
ENDBRANCH   7  10
ENDBRANCH   5   7
BRANCH   5  16
ATOM     16  C7  PN3 d   1      -6.243   1.005  12.829  0.00  0.00    -0.056 C 
ATOM     17  H6  PN3 d   1      -5.833   1.948  12.438  0.00  0.00     0.030 H 
ATOM     18  H7  PN3 d   1      -6.150   0.992  13.925  0.00  0.00     0.030 H 
ATOM     19  H8  PN3 d   1      -7.304   0.922  12.550  0.00  0.00     0.030 H 
ENDBRANCH   5  16
ENDBRANCH   1   5
BRANCH   2  20
ATOM     20  O17 PN3 d   1      -6.266  -0.105   8.532  0.00  0.00    -0.305 OA
BRANCH  20  21
ATOM     21  C18 PN3 d   1      -7.226  -0.539   7.533  0.00  0.00     0.060 C 
BRANCH  21  22
ATOM     22  C19 PN3 d   1      -8.512   0.292   7.639  0.00  0.00    -0.048 C 
ATOM     23  H10 PN3 d   1      -9.231  -0.046   6.878  0.00  0.00     0.031 H 
ATOM     24  H11 PN3 d   1      -8.277   1.354   7.475  0.00  0.00     0.031 H 
ATOM     25  H12 PN3 d   1      -8.950   0.163   8.640  0.00  0.00     0.031 H 
ENDBRANCH  21  22
BRANCH  21  26
ATOM     26  C20 PN3 d   1      -6.634  -0.296   6.157  0.00  0.00    -0.048 C 
ATOM     27  H13 PN3 d   1      -7.350  -0.620   5.387  0.00  0.00     0.031 H 
ATOM     28  H14 PN3 d   1      -5.700  -0.868   6.053  0.00  0.00     0.031 H 
ATOM     29  H15 PN3 d   1      -6.423   0.776   6.033  0.00  0.00     0.031 H 
ENDBRANCH  21  26
BRANCH  21  30
ATOM     30  C21 PN3 d   1      -7.480  -2.035   7.726  0.00  0.00    -0.048 C 
ATOM     31  H16 PN3 d   1      -8.206  -2.383   6.977  0.00  0.00     0.031 H 
ATOM     32  H17 PN3 d   1      -7.881  -2.212   8.735  0.00  0.00     0.031 H 
ATOM     33  H18 PN3 d   1      -6.536  -2.586   7.605  0.00  0.00     0.031 H 
ENDBRANCH  21  30
ENDBRANCH  20  21
ENDBRANCH   2  20
TORSDOF 10
