REMARK  14 active torsions:
REMARK  status: ('A' for Active; 'I' for Inactive)
REMARK    1  A    between atoms: C1_1  and  S19_2 
REMARK    2  A    between atoms: C1_1  and  C55_3 
REMARK    3  A    between atoms: S19_2  and  N29_11 
REMARK    4  A    between atoms: N29_11  and  C28_12 
REMARK    5  A    between atoms: C28_12  and  C42_13 
REMARK    6  A    between atoms: C28_12  and  C27_20 
REMARK    7  A    between atoms: C42_13  and  C43_14 
REMARK    8  A    between atoms: C43_14  and  C44_15 
REMARK    9  A    between atoms: C44_15  and  N45_16 
REMARK       I    between atoms: N45_16  and  C34_17 
REMARK       I    between atoms: C34_17  and  N39_18 
REMARK       I    between atoms: C27_20  and  N25_22 
REMARK   10  A    between atoms: C26_23  and  C21_24 
REMARK       I    between atoms: C21_24  and  N19_29 
REMARK   11  A    between atoms: N19_29  and  C10_30 
REMARK   12  A    between atoms: C10_30  and  C6_31 
REMARK   13  A    between atoms: C5_32  and  C32_33 
REMARK   14  A    between atoms: C32_33  and  N33_34 
ROOT
ATOM      1  C28 MOL d   1      17.514 -15.380  23.111  0.00  0.00     0.097 C 
ATOM      2  H9  MOL d   1      18.242 -15.948  22.514  0.00  0.00     0.088 H 
ENDROOT
BRANCH   1   3
ATOM      3  N29 MOL d   1      16.293 -16.163  23.273  0.00  0.00    -0.305 N 
ATOM      4  H8  MOL d   1      15.795 -16.074  24.136  0.00  0.00     0.173 HD
BRANCH   3   5
ATOM      5  S19 MOL d   1      15.685 -17.168  22.154  0.00  0.00     0.231 S 
ATOM      6  O27 MOL d   1      14.273 -17.238  22.349  0.00  0.00    -0.206 OA
ATOM      7  O28 MOL d   1      16.203 -16.754  20.889  0.00  0.00    -0.206 OA
BRANCH   5   8
ATOM      8  C1  MOL d   1      16.341 -18.785  22.522  0.00  0.00     0.070 C 
ATOM      9  H1  MOL d   1      17.432 -18.737  22.390  0.00  0.00     0.066 H 
ATOM     10  H2  MOL d   1      15.914 -19.489  21.793  0.00  0.00     0.066 H 
BRANCH   8  11
ATOM     11  C55 MOL d   1      16.074 -19.341  23.899  0.00  0.00    -0.043 A 
ATOM     12  C50 MOL d   1      14.790 -19.692  24.281  0.00  0.00    -0.076 A 
ATOM     13  C51 MOL d   1      14.535 -20.164  25.562  0.00  0.00    -0.082 A 
ATOM     14  H3  MOL d   1      13.975 -19.597  23.572  0.00  0.00     0.084 H 
ATOM     15  C52 MOL d   1      15.567 -20.306  26.470  0.00  0.00    -0.083 A 
ATOM     16  H4  MOL d   1      13.523 -20.422  25.851  0.00  0.00     0.083 H 
ATOM     17  C53 MOL d   1      16.849 -19.967  26.097  0.00  0.00    -0.082 A 
ATOM     18  H5  MOL d   1      15.369 -20.681  27.468  0.00  0.00     0.083 H 
ATOM     19  C54 MOL d   1      17.101 -19.483  24.819  0.00  0.00    -0.076 A 
ATOM     20  H6  MOL d   1      17.664 -20.078  26.803  0.00  0.00     0.083 H 
ATOM     21  H7  MOL d   1      18.113 -19.213  24.538  0.00  0.00     0.084 H 
ENDBRANCH   8  11
ENDBRANCH   5   8
ENDBRANCH   3   5
ENDBRANCH   1   3
BRANCH   1  22
ATOM     22  C42 MOL d   1      18.139 -15.016  24.460  0.00  0.00    -0.036 C 
ATOM     23  H10 MOL d   1      17.479 -14.305  24.979  0.00  0.00     0.036 H 
ATOM     24  H11 MOL d   1      19.118 -14.547  24.285  0.00  0.00     0.036 H 
BRANCH  22  25
ATOM     25  C43 MOL d   1      18.333 -16.259  25.351  0.00  0.00    -0.048 C 
ATOM     26  H12 MOL d   1      18.925 -17.009  24.806  0.00  0.00     0.035 H 
ATOM     27  H13 MOL d   1      17.350 -16.682  25.605  0.00  0.00     0.035 H 
BRANCH  25  28
ATOM     28  C44 MOL d   1      19.069 -15.871  26.644  0.00  0.00     0.009 C 
ATOM     29  H14 MOL d   1      18.716 -14.880  26.966  0.00  0.00     0.064 H 
ATOM     30  H15 MOL d   1      20.148 -15.826  26.435  0.00  0.00     0.064 H 
BRANCH  28  31
ATOM     31  N45 MOL d   1      18.841 -16.826  27.730  0.00  0.00    -0.227 N 
ATOM     32  C34 MOL d   1      19.607 -18.002  27.726  0.00  0.00     0.665 C 
ATOM     33  N39 MOL d   1      19.299 -18.852  28.784  0.00  0.00    -0.235 N 
ATOM     34  N38 MOL d   1      20.495 -18.217  26.756  0.00  0.00    -0.235 N 
ATOM     35  H17 MOL d   1      19.797 -19.748  28.887  0.00  0.00     0.174 HD
ATOM     36  H18 MOL d   1      18.573 -18.585  29.465  0.00  0.00     0.174 HD
ATOM     37  H19 MOL d   1      20.637 -17.509  26.021  0.00  0.00     0.174 HD
ATOM     38  H20 MOL d   1      21.039 -19.091  26.741  0.00  0.00     0.174 HD
ATOM     39  H16 MOL d   1      18.146 -16.642  28.468  0.00  0.00     0.177 HD
ENDBRANCH  28  31
ENDBRANCH  25  28
ENDBRANCH  22  25
ENDBRANCH   1  22
BRANCH   1  40
ATOM     40  C27 MOL d   1      17.125 -14.089  22.387  0.00  0.00     0.244 C 
ATOM     41  O38 MOL d   1      16.125 -13.478  22.731  0.00  0.00    -0.271 OA
ATOM     42  N25 MOL d   1      17.946 -13.630  21.437  0.00  0.00    -0.337 N 
ATOM     43  C26 MOL d   1      17.645 -12.384  20.716  0.00  0.00     0.091 C 
ATOM     44  C24 MOL d   1      19.180 -14.280  20.951  0.00  0.00    -0.001 C 
ATOM     45  C22 MOL d   1      18.508 -12.497  19.451  0.00  0.00    -0.036 C 
ATOM     46  H21 MOL d   1      17.938 -11.508  21.313  0.00  0.00     0.087 H 
ATOM     47  C23 MOL d   1      19.734 -13.292  19.928  0.00  0.00    -0.048 C 
ATOM     48  H22 MOL d   1      18.802 -11.502  19.084  0.00  0.00     0.036 H 
ATOM     49  H23 MOL d   1      17.973 -13.037  18.656  0.00  0.00     0.036 H 
ATOM     50  H24 MOL d   1      20.473 -12.623  20.395  0.00  0.00     0.035 H 
ATOM     51  H25 MOL d   1      20.202 -13.825  19.087  0.00  0.00     0.035 H 
ATOM     52  H26 MOL d   1      18.953 -15.247  20.479  0.00  0.00     0.064 H 
ATOM     53  H27 MOL d   1      19.893 -14.432  21.775  0.00  0.00     0.064 H 
BRANCH  43  54
ATOM     54  C21 MOL d   1      16.165 -12.279  20.366  0.00  0.00     0.240 C 
ATOM     55  O39 MOL d   1      15.559 -13.233  19.872  0.00  0.00    -0.271 OA
ATOM     56  N19 MOL d   1      15.599 -11.098  20.615  0.00  0.00    -0.355 N 
ATOM     57  H28 MOL d   1      16.153 -10.365  21.009  0.00  0.00     0.162 HD
BRANCH  56  58
ATOM     58  C10 MOL d   1      14.190 -10.848  20.326  0.00  0.00     0.019 C 
ATOM     59  H29 MOL d   1      13.832 -11.629  19.639  0.00  0.00     0.071 H 
ATOM     60  H30 MOL d   1      14.103  -9.865  19.840  0.00  0.00     0.071 H 
BRANCH  58  61
ATOM     61  C6  MOL d   1      13.309 -10.853  21.559  0.00  0.00    -0.031 A 
ATOM     62  C5  MOL d   1      12.486 -11.955  21.870  0.00  0.00    -0.025 A 
ATOM     63  C4  MOL d   1      11.645 -11.886  22.976  0.00  0.00    -0.073 A 
ATOM     64  C3  MOL d   1      11.586 -10.747  23.765  0.00  0.00    -0.061 A 
ATOM     65  H36 MOL d   1      11.024 -12.739  23.226  0.00  0.00     0.084 H 
ATOM     66  C2  MOL d   1      12.411  -9.697  23.463  0.00  0.00     0.034 A 
ATOM     67  H37 MOL d   1      10.901 -10.689  24.603  0.00  0.00     0.086 H 
ATOM     68 CL1  MOL d   1      12.408  -8.287  24.477  0.00  0.00    -0.084 Cl
ATOM     69  C7  MOL d   1      13.263  -9.735  22.384  0.00  0.00    -0.054 A 
ATOM     70  H38 MOL d   1      13.904  -8.886  22.175  0.00  0.00     0.087 H 
BRANCH  62  71
ATOM     71  C32 MOL d   1      12.467 -13.262  21.073  0.00  0.00     0.104 C 
ATOM     72  H31 MOL d   1      12.842 -13.059  20.059  0.00  0.00     0.082 H 
ATOM     73  H32 MOL d   1      11.429 -13.622  21.015  0.00  0.00     0.082 H 
BRANCH  71  74
ATOM     74  N33 MOL d   1      13.316 -14.344  21.692  0.00  0.00    -0.075 N 
ATOM     75  H33 MOL d   1      13.264 -15.177  21.126  0.00  0.00     0.274 HD
ATOM     76  H34 MOL d   1      12.978 -14.547  22.620  0.00  0.00     0.274 HD
ATOM     77  H35 MOL d   1      14.273 -14.032  21.744  0.00  0.00     0.274 HD
ENDBRANCH  71  74
ENDBRANCH  62  71
ENDBRANCH  58  61
ENDBRANCH  56  58
ENDBRANCH  43  54
ENDBRANCH   1  40
TORSDOF 14
