REMARK  2 active torsions:
REMARK  status: ('A' for Active; 'I' for Inactive)
REMARK    1  A    between atoms: N12_5  and  C11_15 
REMARK    2  A    between atoms: C2_11  and  C1_10 
ROOT
ATOM      1  N12 6KP d   1      17.045 -31.469 -15.718  0.00  0.00    -0.305 N 
ATOM      2  C13 6KP d   1      17.459 -30.129 -15.595  0.00  0.00     0.088 A 
ATOM      3  C20 6KP d   1      20.424 -32.059 -14.708  0.00  0.00    -0.031 A 
ATOM      4  C21 6KP d   1      20.504 -33.433 -14.677  0.00  0.00     0.117 A 
ATOM      5  C24 6KP d   1      18.220 -33.689 -15.352  0.00  0.00    -0.053 A 
ATOM      6  C14 6KP d   1      17.026 -28.788 -15.733  0.00  0.00     0.050 A 
ATOM      7  N15 6KP d   1      18.025 -27.982 -15.434  0.00  0.00    -0.184 NA
ATOM      8  N16 6KP d   1      19.166 -28.763 -15.109  0.00  0.00    -0.275 N 
ATOM      9  C18 6KP d   1      18.796 -30.085 -15.207  0.00  0.00     0.091 A 
ATOM     10  C19 6KP d   1      19.215 -31.479 -15.076  0.00  0.00     0.025 A 
ATOM     11  F22 6KP d   1      21.668 -33.988 -14.329  0.00  0.00    -0.206 F 
ATOM     12  C23 6KP d   1      19.432 -34.247 -15.003  0.00  0.00    -0.043 A 
ATOM     13  C25 6KP d   1      18.095 -32.299 -15.391  0.00  0.00     0.053 A 
ATOM     14  H3  6KP d   1      21.280 -31.446 -14.452  0.00  0.00     0.089 H 
ATOM     15  H4  6KP d   1      17.374 -34.322 -15.593  0.00  0.00     0.087 H 
ATOM     16  H9  6KP d   1      16.029 -28.473 -16.037  0.00  0.00     0.121 H 
ATOM     17  H10 6KP d   1      20.097 -28.407 -14.849  0.00  0.00     0.189 HD
ATOM     18  H11 6KP d   1      19.546 -35.325 -14.984  0.00  0.00     0.088 H 
ENDROOT
BRANCH   1  19
ATOM     19  C11 6KP d   1      15.747 -31.923 -16.097  0.00  0.00     0.067 A 
ATOM     20  C10 6KP d   1      14.943 -32.599 -15.170  0.00  0.00    -0.023 A 
ATOM     21  C9  6KP d   1      13.662 -33.036 -15.574  0.00  0.00     0.106 A 
ATOM     22  H2  6KP d   1      15.297 -32.783 -14.162  0.00  0.00     0.090 H 
ATOM     23  C4  6KP d   1      13.241 -32.796 -16.900  0.00  0.00     0.158 A 
ATOM     24  N8  6KP d   1      12.638 -33.691 -14.963  0.00  0.00    -0.240 NA
ATOM     25  N3  6KP d   1      14.043 -32.166 -17.746  0.00  0.00    -0.231 NA
ATOM     26  N5  6KP d   1      11.965 -33.324 -17.013  0.00  0.00    -0.334 N 
ATOM     27  C2  6KP d   1      15.245 -31.734 -17.406  0.00  0.00     0.060 A 
ATOM     28  C7  6KP d   1      11.644 -33.855 -15.798  0.00  0.00     0.066 A 
ATOM     29  H8  6KP d   1      11.371 -33.317 -17.855  0.00  0.00     0.168 HD
ATOM     30  H1  6KP d   1      10.700 -34.343 -15.559  0.00  0.00     0.143 H 
BRANCH  27  31
ATOM     31  C1  6KP d   1      16.029 -31.029 -18.494  0.00  0.00    -0.033 C 
ATOM     32  H5  6KP d   1      17.006 -30.716 -18.098  0.00  0.00     0.035 H 
ATOM     33  H6  6KP d   1      15.471 -30.144 -18.833  0.00  0.00     0.035 H 
ATOM     34  H7  6KP d   1      16.179 -31.715 -19.341  0.00  0.00     0.035 H 
ENDBRANCH  27  31
ENDBRANCH   1  19
TORSDOF 2
