REMARK  5 active torsions:
REMARK  status: ('A' for Active; 'I' for Inactive)
REMARK    1  A    between atoms: C18_17  and  C9_7 
REMARK    2  A    between atoms: C12_10  and  C17_26 
REMARK    3  A    between atoms: C14_12  and  C15_13 
REMARK       I    between atoms: N20_19  and  C18_17 
REMARK    4  A    between atoms: N20_19  and  C21_20 
REMARK       I    between atoms: C17_26  and  N22_28 
REMARK    5  A    between atoms: N51_31  and  C71_32 
ROOT
ATOM      1  C10 6KC d   1     -17.008 -47.037 -15.805  0.00  0.00    -0.055 A 
ATOM      2  C11 6KC d   1     -18.277 -46.988 -16.365  0.00  0.00    -0.066 A 
ATOM      3  C12 6KC d   1     -18.670 -47.919 -17.330  0.00  0.00     0.033 A 
ATOM      4  C13 6KC d   1     -17.762 -48.905 -17.736  0.00  0.00    -0.055 A 
ATOM      5  C14 6KC d   1     -16.467 -48.967 -17.188  0.00  0.00     0.002 A 
ATOM      6  C21 6KC d   1     -16.084 -48.017 -16.207  0.00  0.00     0.046 A 
ATOM      7  H3  6KC d   1     -16.727 -46.312 -15.050  0.00  0.00     0.087 H 
ATOM      8  H4  6KC d   1     -18.972 -46.218 -16.050  0.00  0.00     0.085 H 
ATOM      9  H5  6KC d   1     -18.061 -49.631 -18.483  0.00  0.00     0.086 H 
ENDROOT
BRANCH   3  10
ATOM     10  C17 6KC d   1     -20.048 -47.858 -17.947  0.00  0.00     0.253 C 
ATOM     11  O16 6KC d   1     -20.232 -48.388 -19.035  0.00  0.00    -0.267 OA
ATOM     12  N22 6KC d   1     -21.038 -47.198 -17.287  0.00  0.00    -0.345 N 
ATOM     13  C53 6KC d   1     -21.702 -47.824 -16.109  0.00  0.00     0.021 C 
ATOM     14  C49 6KC d   1     -21.834 -46.149 -17.982  0.00  0.00     0.021 C 
ATOM     15  C52 6KC d   1     -23.209 -48.094 -16.311  0.00  0.00     0.098 C 
ATOM     16  H13 6KC d   1     -21.583 -47.152 -15.246  0.00  0.00     0.067 H 
ATOM     17  H14 6KC d   1     -21.204 -48.782 -15.899  0.00  0.00     0.067 H 
ATOM     18  N51 6KC d   1     -23.885 -46.886 -16.778  0.00  0.00    -0.072 N 
ATOM     19  H15 6KC d   1     -23.652 -48.410 -15.355  0.00  0.00     0.078 H 
ATOM     20  H16 6KC d   1     -23.337 -48.892 -17.057  0.00  0.00     0.078 H 
ATOM     21  C50 6KC d   1     -23.348 -46.506 -18.090  0.00  0.00     0.098 C 
ATOM     22  H17 6KC d   1     -23.694 -46.141 -16.127  0.00  0.00     0.279 HD
ATOM     23  H21 6KC d   1     -23.899 -45.632 -18.467  0.00  0.00     0.078 H 
ATOM     24  H22 6KC d   1     -23.472 -47.347 -18.788  0.00  0.00     0.078 H 
ATOM     25  H23 6KC d   1     -21.431 -46.018 -18.997  0.00  0.00     0.067 H 
ATOM     26  H24 6KC d   1     -21.735 -45.206 -17.424  0.00  0.00     0.067 H 
BRANCH  18  27
ATOM     27  C71 6KC d   1     -25.335 -47.081 -16.833  0.00  0.00     0.066 C 
ATOM     28  H18 6KC d   1     -25.816 -46.157 -17.187  0.00  0.00     0.068 H 
ATOM     29  H19 6KC d   1     -25.710 -47.328 -15.829  0.00  0.00     0.068 H 
ATOM     30  H20 6KC d   1     -25.568 -47.904 -17.524  0.00  0.00     0.068 H 
ENDBRANCH  18  27
ENDBRANCH   3  10
BRANCH   5  31
ATOM     31  C15 6KC d   1     -15.558 -50.034 -17.662  0.00  0.00    -0.024 A 
ATOM     32  C64 6KC d   1     -14.942 -49.947 -18.913  0.00  0.00    -0.072 A 
ATOM     33  C63 6KC d   1     -14.089 -50.959 -19.359  0.00  0.00    -0.082 A 
ATOM     34  H8  6KC d   1     -15.128 -49.085 -19.544  0.00  0.00     0.084 H 
ATOM     35  C62 6KC d   1     -13.847 -52.068 -18.566  0.00  0.00    -0.083 A 
ATOM     36  H9  6KC d   1     -13.614 -50.876 -20.330  0.00  0.00     0.083 H 
ATOM     37  C61 6KC d   1     -14.452 -52.174 -17.328  0.00  0.00    -0.082 A 
ATOM     38  H10 6KC d   1     -13.184 -52.851 -18.916  0.00  0.00     0.083 H 
ATOM     39  C60 6KC d   1     -15.302 -51.164 -16.874  0.00  0.00    -0.072 A 
ATOM     40  H11 6KC d   1     -14.266 -53.044 -16.708  0.00  0.00     0.083 H 
ATOM     41  H12 6KC d   1     -15.770 -51.255 -15.900  0.00  0.00     0.084 H 
ENDBRANCH   5  31
BRANCH   6  42
ATOM     42  N20 6KC d   1     -14.774 -48.075 -15.643  0.00  0.00    -0.322 N 
ATOM     43  C18 6KC d   1     -14.140 -47.179 -14.833  0.00  0.00     0.259 C 
ATOM     44  O19 6KC d   1     -14.663 -46.165 -14.373  0.00  0.00    -0.267 OA
ATOM     45  H7  6KC d   1     -14.244 -48.891 -15.875  0.00  0.00     0.169 HD
BRANCH  43  46
ATOM     46  C9  6KC d   1     -12.719 -47.488 -14.518  0.00  0.00     0.069 A 
ATOM     47  C2  6KC d   1     -11.962 -48.581 -15.097  0.00  0.00     0.097 A 
ATOM     48  C3  6KC d   1     -10.703 -48.546 -14.568  0.00  0.00     0.102 A 
ATOM     49  N1  6KC d   1     -12.382 -49.548 -16.042  0.00  0.00    -0.241 NA
ATOM     50  C4  6KC d   1      -9.710 -49.501 -14.950  0.00  0.00     0.265 A 
ATOM     51  S7  6KC d   1     -10.377 -47.297 -13.447  0.00  0.00    -0.093 SA
ATOM     52  O79 6KC d   1      -8.557 -49.541 -14.532  0.00  0.00    -0.267 OA
ATOM     53  N5  6KC d   1     -10.181 -50.416 -15.879  0.00  0.00    -0.317 N 
ATOM     54  C6  6KC d   1     -11.454 -50.417 -16.364  0.00  0.00     0.067 A 
ATOM     55  H6  6KC d   1      -9.550 -51.116 -16.212  0.00  0.00     0.170 HD
ATOM     56  H1  6KC d   1     -11.722 -51.199 -17.073  0.00  0.00     0.143 H 
ATOM     57  C8  6KC d   1     -11.978 -46.725 -13.626  0.00  0.00    -0.026 A 
ATOM     58  H2  6KC d   1     -12.373 -45.858 -13.099  0.00  0.00     0.096 H 
ENDBRANCH  43  46
ENDBRANCH   6  42
TORSDOF 5
