REMARK  10 active torsions:
REMARK  status: ('A' for Active; 'I' for Inactive)
REMARK    1  A    between atoms: C18_16  and  C9_7 
REMARK    2  A    between atoms: C12_10  and  C17_22 
REMARK    3  A    between atoms: C14_12  and  O15_20 
REMARK       I    between atoms: N20_18  and  C18_16 
REMARK    4  A    between atoms: N20_18  and  C21_19 
REMARK    5  A    between atoms: O15_20  and  C22_21 
REMARK       I    between atoms: C17_22  and  N23_24 
REMARK    6  A    between atoms: N23_24  and  C24_25 
REMARK    7  A    between atoms: C24_25  and  C25_26 
REMARK    8  A    between atoms: C25_26  and  C26_27 
REMARK    9  A    between atoms: C26_27  and  N27_28 
REMARK   10  A    between atoms: N30_31  and  C33_32 
ROOT
ATOM      1  C17 6JV d   1     -19.909 -48.681 -18.505  0.00  0.00     0.251 C 
ATOM      2  O16 6JV d   1     -19.996 -48.980 -19.695  0.00  0.00    -0.268 OA
ATOM      3  N23 6JV d   1     -20.995 -48.423 -17.756  0.00  0.00    -0.357 N 
ATOM      4  H11 6JV d   1     -21.088 -47.512 -17.354  0.00  0.00     0.162 HD
ENDROOT
BRANCH   1   5
ATOM      5  C12 6JV d   1     -18.555 -48.571 -17.849  0.00  0.00     0.034 A 
ATOM      6  C11 6JV d   1     -18.254 -47.497 -17.004  0.00  0.00    -0.065 A 
ATOM      7  C10 6JV d   1     -17.003 -47.387 -16.407  0.00  0.00    -0.053 A 
ATOM      8  H4  6JV d   1     -19.006 -46.740 -16.812  0.00  0.00     0.085 H 
ATOM      9  C21 6JV d   1     -16.015 -48.349 -16.646  0.00  0.00     0.068 A 
ATOM     10  H3  6JV d   1     -16.791 -46.550 -15.752  0.00  0.00     0.087 H 
ATOM     11  C14 6JV d   1     -16.314 -49.438 -17.507  0.00  0.00     0.096 A 
ATOM     12  C13 6JV d   1     -17.578 -49.543 -18.098  0.00  0.00    -0.033 A 
ATOM     13  H5  6JV d   1     -17.802 -50.379 -18.750  0.00  0.00     0.089 H 
BRANCH   9  14
ATOM     14  N20 6JV d   1     -14.712 -48.304 -16.069  0.00  0.00    -0.320 N 
ATOM     15  C18 6JV d   1     -14.136 -47.431 -15.186  0.00  0.00     0.259 C 
ATOM     16  O19 6JV d   1     -14.723 -46.475 -14.670  0.00  0.00    -0.267 OA
ATOM     17  H7  6JV d   1     -14.109 -49.045 -16.363  0.00  0.00     0.169 HD
BRANCH  15  18
ATOM     18  C9  6JV d   1     -12.693 -47.701 -14.855  0.00  0.00     0.069 A 
ATOM     19  C2  6JV d   1     -11.903 -48.793 -15.358  0.00  0.00     0.097 A 
ATOM     20  C3  6JV d   1     -10.605 -48.767 -14.868  0.00  0.00     0.102 A 
ATOM     21  N1  6JV d   1     -12.350 -49.862 -16.292  0.00  0.00    -0.241 NA
ATOM     22  C4  6JV d   1      -9.649 -49.755 -15.234  0.00  0.00     0.265 A 
ATOM     23  S7  6JV d   1     -10.373 -47.416 -13.815  0.00  0.00    -0.093 SA
ATOM     24  O74 6JV d   1      -8.486 -49.778 -14.827  0.00  0.00    -0.267 OA
ATOM     25  N5  6JV d   1     -10.146 -50.720 -16.107  0.00  0.00    -0.317 N 
ATOM     26  C6  6JV d   1     -11.421 -50.738 -16.587  0.00  0.00     0.067 A 
ATOM     27  H6  6JV d   1      -9.526 -51.448 -16.401  0.00  0.00     0.170 HD
ATOM     28  H1  6JV d   1     -11.689 -51.543 -17.269  0.00  0.00     0.143 H 
ATOM     29  C8  6JV d   1     -11.980 -46.893 -14.018  0.00  0.00    -0.026 A 
ATOM     30  H2  6JV d   1     -12.394 -46.010 -13.533  0.00  0.00     0.096 H 
ENDBRANCH  15  18
ENDBRANCH   9  14
BRANCH  11  31
ATOM     31  O15 6JV d   1     -15.295 -50.344 -17.675  0.00  0.00    -0.354 OA
BRANCH  31  32
ATOM     32  C22 6JV d   1     -14.755 -50.526 -18.992  0.00  0.00     0.010 C 
ATOM     33  H8  6JV d   1     -13.954 -51.279 -18.959  0.00  0.00     0.066 H 
ATOM     34  H9  6JV d   1     -14.347 -49.572 -19.356  0.00  0.00     0.066 H 
ATOM     35  H10 6JV d   1     -15.551 -50.867 -19.671  0.00  0.00     0.066 H 
ENDBRANCH  31  32
ENDBRANCH  11  31
ENDBRANCH   1   5
BRANCH   3  36
ATOM     36  C24 6JV d   1     -22.052 -49.409 -17.498  0.00  0.00    -0.003 C 
ATOM     37  H12 6JV d   1     -22.529 -49.163 -16.538  0.00  0.00     0.064 H 
ATOM     38  H13 6JV d   1     -21.589 -50.405 -17.433  0.00  0.00     0.064 H 
BRANCH  36  39
ATOM     39  C25 6JV d   1     -23.145 -49.450 -18.589  0.00  0.00    -0.028 C 
ATOM     40  H14 6JV d   1     -23.027 -50.391 -19.146  0.00  0.00     0.037 H 
ATOM     41  H15 6JV d   1     -22.975 -48.599 -19.265  0.00  0.00     0.037 H 
BRANCH  39  42
ATOM     42  C26 6JV d   1     -24.614 -49.375 -18.095  0.00  0.00     0.085 C 
ATOM     43  H16 6JV d   1     -24.812 -48.345 -17.763  0.00  0.00     0.076 H 
ATOM     44  H17 6JV d   1     -24.725 -50.062 -17.243  0.00  0.00     0.076 H 
BRANCH  42  45
ATOM     45  N27 6JV d   1     -25.626 -49.735 -19.114  0.00  0.00    -0.068 N 
ATOM     46  C32 6JV d   1     -26.700 -50.590 -18.543  0.00  0.00     0.106 C 
ATOM     47  C31 6JV d   1     -27.731 -50.986 -19.642  0.00  0.00     0.105 C 
ATOM     48  H19 6JV d   1     -27.217 -50.036 -17.746  0.00  0.00     0.078 H 
ATOM     49  H20 6JV d   1     -26.251 -51.502 -18.124  0.00  0.00     0.078 H 
ATOM     50  N30 6JV d   1     -28.314 -49.788 -20.275  0.00  0.00    -0.072 N 
ATOM     51  H21 6JV d   1     -28.536 -51.578 -19.183  0.00  0.00     0.078 H 
ATOM     52  H22 6JV d   1     -27.224 -51.589 -20.410  0.00  0.00     0.078 H 
ATOM     53  C29 6JV d   1     -27.249 -48.953 -20.859  0.00  0.00     0.105 C 
ATOM     54  H23 6JV d   1     -28.787 -49.251 -19.565  0.00  0.00     0.279 HD
ATOM     55  C28 6JV d   1     -26.219 -48.534 -19.774  0.00  0.00     0.106 C 
ATOM     56  H27 6JV d   1     -27.698 -48.050 -21.297  0.00  0.00     0.078 H 
ATOM     57  H28 6JV d   1     -26.733 -49.524 -21.645  0.00  0.00     0.078 H 
ATOM     58  H29 6JV d   1     -25.416 -47.949 -20.246  0.00  0.00     0.078 H 
ATOM     59  H30 6JV d   1     -26.725 -47.918 -19.015  0.00  0.00     0.078 H 
ATOM     60  H18 6JV d   1     -25.155 -50.271 -19.826  0.00  0.00     0.280 HD
BRANCH  50  61
ATOM     61  C33 6JV d   1     -29.293 -50.166 -21.293  0.00  0.00     0.066 C 
ATOM     62  H24 6JV d   1     -29.714 -49.259 -21.751  0.00  0.00     0.068 H 
ATOM     63  H25 6JV d   1     -30.100 -50.750 -20.827  0.00  0.00     0.068 H 
ATOM     64  H26 6JV d   1     -28.801 -50.773 -22.067  0.00  0.00     0.068 H 
ENDBRANCH  50  61
ENDBRANCH  42  45
ENDBRANCH  39  42
ENDBRANCH  36  39
ENDBRANCH   3  36
TORSDOF 10
