REMARK  8 active torsions:
REMARK  status: ('A' for Active; 'I' for Inactive)
REMARK    1  A    between atoms: N3_6  and  C4_3 
REMARK    2  A    between atoms: C10_8  and  C8_7 
REMARK       I    between atoms: C8_7  and  N7_32 
REMARK    3  A    between atoms: C11_9  and  O12_27 
REMARK    4  A    between atoms: C13_10  and  C14_11 
REMARK    5  A    between atoms: C13_10  and  C15_12 
REMARK    6  A    between atoms: O12_27  and  C13_10 
REMARK    7  A    between atoms: C22_23  and  C24_22 
REMARK       I    between atoms: N20_25  and  C22_23 
REMARK    8  A    between atoms: N20_25  and  C19_26 
ROOT
ATOM      1  C10 6KD d   1     -17.712  49.346  18.734  0.00  0.00     0.067 A 
ATOM      2  C11 6KD d   1     -16.457  49.179  18.082  0.00  0.00     0.111 A 
ATOM      3  C19 6KD d   1     -16.343  48.379  16.927  0.00  0.00     0.069 A 
ATOM      4  C18 6KD d   1     -17.484  47.748  16.413  0.00  0.00    -0.054 A 
ATOM      5  C17 6KD d   1     -18.711  47.906  17.051  0.00  0.00    -0.080 A 
ATOM      6  C16 6KD d   1     -18.823  48.689  18.197  0.00  0.00    -0.065 A 
ATOM      7  H24 6KD d   1     -17.411  47.138  15.520  0.00  0.00     0.087 H 
ATOM      8  H25 6KD d   1     -19.590  47.414  16.651  0.00  0.00     0.083 H 
ATOM      9  H26 6KD d   1     -19.788  48.791  18.681  0.00  0.00     0.085 H 
ENDROOT
BRANCH   1  10
ATOM     10  C8  6KD d   1     -17.922  50.152  19.991  0.00  0.00     0.256 C 
ATOM     11  O9  6KD d   1     -17.480  49.715  21.038  0.00  0.00    -0.267 OA
ATOM     12  N7  6KD d   1     -18.578  51.350  19.914  0.00  0.00    -0.345 N 
ATOM     13  C1  6KD d   1     -20.026  51.419  20.211  0.00  0.00     0.021 C 
ATOM     14  C6  6KD d   1     -17.872  52.591  20.297  0.00  0.00     0.021 C 
ATOM     15  C2  6KD d   1     -20.689  52.743  19.660  0.00  0.00     0.098 C 
ATOM     16  H1  6KD d   1     -20.524  50.555  19.747  0.00  0.00     0.067 H 
ATOM     17  H2  6KD d   1     -20.166  51.381  21.301  0.00  0.00     0.067 H 
ATOM     18  N3  6KD d   1     -19.944  53.945  20.113  0.00  0.00    -0.072 N 
ATOM     19  H3  6KD d   1     -21.725  52.804  20.025  0.00  0.00     0.078 H 
ATOM     20  H4  6KD d   1     -20.689  52.714  18.560  0.00  0.00     0.078 H 
ATOM     21  C5  6KD d   1     -18.537  53.849  19.695  0.00  0.00     0.098 C 
ATOM     22  H12 6KD d   1     -19.976  53.974  21.120  0.00  0.00     0.279 HD
ATOM     23  H8  6KD d   1     -18.490  53.792  18.598  0.00  0.00     0.078 H 
ATOM     24  H9  6KD d   1     -17.996  54.743  20.040  0.00  0.00     0.078 H 
ATOM     25  H10 6KD d   1     -17.877  52.678  21.394  0.00  0.00     0.067 H 
ATOM     26  H11 6KD d   1     -16.834  52.533  19.939  0.00  0.00     0.067 H 
BRANCH  18  27
ATOM     27  C4  6KD d   1     -20.554  55.186  19.600  0.00  0.00     0.066 C 
ATOM     28  H5  6KD d   1     -19.977  56.052  19.955  0.00  0.00     0.068 H 
ATOM     29  H6  6KD d   1     -21.590  55.262  19.962  0.00  0.00     0.068 H 
ATOM     30  H7  6KD d   1     -20.550  55.169  18.500  0.00  0.00     0.068 H 
ENDBRANCH  18  27
ENDBRANCH   1  10
BRANCH   2  31
ATOM     31  O12 6KD d   1     -15.296  49.768  18.569  0.00  0.00    -0.343 OA
BRANCH  31  32
ATOM     32  C13 6KD d   1     -15.081  51.208  18.552  0.00  0.00     0.038 C 
ATOM     33  H13 6KD d   1     -15.888  51.703  19.111  0.00  0.00     0.082 H 
BRANCH  32  34
ATOM     34  C14 6KD d   1     -15.098  51.761  17.142  0.00  0.00    -0.052 C 
ATOM     35  H14 6KD d   1     -14.933  52.848  17.172  0.00  0.00     0.030 H 
ATOM     36  H15 6KD d   1     -16.073  51.551  16.678  0.00  0.00     0.030 H 
ATOM     37  H16 6KD d   1     -14.301  51.285  16.552  0.00  0.00     0.030 H 
ENDBRANCH  32  34
BRANCH  32  38
ATOM     38  C15 6KD d   1     -13.784  51.419  19.284  0.00  0.00    -0.052 C 
ATOM     39  H17 6KD d   1     -13.859  50.989  20.294  0.00  0.00     0.030 H 
ATOM     40  H18 6KD d   1     -13.576  52.497  19.359  0.00  0.00     0.030 H 
ATOM     41  H19 6KD d   1     -12.969  50.925  18.735  0.00  0.00     0.030 H 
ENDBRANCH  32  38
ENDBRANCH  31  32
ENDBRANCH   2  31
BRANCH   3  42
ATOM     42  N20 6KD d   1     -15.051  48.264  16.321  0.00  0.00    -0.320 N 
ATOM     43  C22 6KD d   1     -14.587  47.409  15.345  0.00  0.00     0.259 C 
ATOM     44  O23 6KD d   1     -15.264  46.503  14.847  0.00  0.00    -0.267 OA
ATOM     45  H23 6KD d   1     -14.371  48.913  16.663  0.00  0.00     0.169 HD
BRANCH  43  46
ATOM     46  C24 6KD d   1     -13.153  47.636  14.880  0.00  0.00     0.069 A 
ATOM     47  C25 6KD d   1     -12.588  46.844  13.919  0.00  0.00    -0.026 A 
ATOM     48  S26 6KD d   1     -10.979  47.292  13.557  0.00  0.00    -0.093 SA
ATOM     49  H20 6KD d   1     -13.107  46.017  13.437  0.00  0.00     0.096 H 
ATOM     50  C27 6KD d   1     -11.007  48.584  14.704  0.00  0.00     0.102 A 
ATOM     51  C33 6KD d   1      -9.949  49.501  15.010  0.00  0.00     0.265 A 
ATOM     52  C28 6KD d   1     -12.241  48.652  15.344  0.00  0.00     0.097 A 
ATOM     53  O34 6KD d   1      -8.834  49.492  14.483  0.00  0.00    -0.267 OA
ATOM     54  N31 6KD d   1     -10.295  50.429  15.983  0.00  0.00    -0.317 N 
ATOM     55  C30 6KD d   1     -11.510  50.474  16.593  0.00  0.00     0.067 A 
ATOM     56  H21 6KD d   1      -9.609  51.105  16.252  0.00  0.00     0.170 HD
ATOM     57  N29 6KD d   1     -12.512  49.660  16.351  0.00  0.00    -0.241 NA
ATOM     58  H22 6KD d   1     -11.665  51.248  17.343  0.00  0.00     0.143 H 
ENDBRANCH  43  46
ENDBRANCH   3  42
TORSDOF 8
