REMARK  10 active torsions:
REMARK  status: ('A' for Active; 'I' for Inactive)
REMARK    1  A    between atoms: C01_1  and  N02_2 
REMARK    2  A    between atoms: N07_7  and  C08_8 
REMARK    3  A    between atoms: C13_13  and  N14_14 
REMARK    4  A    between atoms: N14_14  and  C15_15 
REMARK    5  A    between atoms: C20_20  and  N21_21 
REMARK    6  A    between atoms: N21_21  and  C22_22 
REMARK    7  A    between atoms: C27_27  and  O28_28 
REMARK    8  A    between atoms: O28_28  and  C29_29 
REMARK    9  A    between atoms: C29_29  and  C30_30 
REMARK   10  A    between atoms: C30_30  and  C31_31 
ROOT
ATOM      1  N14 T92 d   1     -15.801 -46.827 -16.643  0.00  0.00    -0.188 N 
ATOM      2  H17 T92 d   1     -16.148 -45.900 -16.360  0.00  0.00     0.184 HD
ENDROOT
BRANCH   1   3
ATOM      3  C13 T92 d   1     -16.665 -47.666 -17.494  0.00  0.00     0.049 A 
ATOM      4  C10 T92 d   1     -18.031 -47.434 -17.482  0.00  0.00    -0.054 A 
ATOM      5  C09 T92 d   1     -18.882 -48.206 -18.285  0.00  0.00    -0.055 A 
ATOM      6  H14 T92 d   1     -18.442 -46.654 -16.851  0.00  0.00     0.087 H 
ATOM      7  C08 T92 d   1     -18.356 -49.208 -19.094  0.00  0.00     0.030 A 
ATOM      8  H13 T92 d   1     -19.950 -48.022 -18.276  0.00  0.00     0.087 H 
ATOM      9  C11 T92 d   1     -16.987 -49.444 -19.110  0.00  0.00    -0.055 A 
ATOM     10  C12 T92 d   1     -16.139 -48.667 -18.310  0.00  0.00    -0.054 A 
ATOM     11  H15 T92 d   1     -16.577 -50.226 -19.739  0.00  0.00     0.087 H 
ATOM     12  H16 T92 d   1     -15.070 -48.845 -18.325  0.00  0.00     0.087 H 
BRANCH   7  13
ATOM     13  N07 T92 d   1     -19.275 -50.017 -19.933  0.00  0.00    -0.378 N 
ATOM     14  C04 T92 d   1     -18.813 -50.999 -20.897  0.00  0.00     0.018 C 
ATOM     15  C03 T92 d   1     -19.894 -52.038 -21.182  0.00  0.00     0.098 C 
ATOM     16  H7  T92 d   1     -18.551 -50.487 -21.834  0.00  0.00     0.066 H 
ATOM     17  H8  T92 d   1     -17.924 -51.506 -20.495  0.00  0.00     0.066 H 
ATOM     18  N02 T92 d   1     -21.093 -51.500 -21.575  0.00  0.00    -0.072 N 
ATOM     19  H5  T92 d   1     -19.534 -52.702 -21.982  0.00  0.00     0.078 H 
ATOM     20  H6  T92 d   1     -20.061 -52.624 -20.266  0.00  0.00     0.078 H 
ATOM     21  C05 T92 d   1     -21.535 -50.502 -20.755  0.00  0.00     0.098 C 
ATOM     22  H4  T92 d   1     -20.979 -51.124 -22.503  0.00  0.00     0.279 HD
ATOM     23  C06 T92 d   1     -20.475 -49.437 -20.481  0.00  0.00     0.018 C 
ATOM     24  H9  T92 d   1     -21.840 -50.946 -19.796  0.00  0.00     0.078 H 
ATOM     25  H10 T92 d   1     -22.402 -50.019 -21.228  0.00  0.00     0.078 H 
ATOM     26  H11 T92 d   1     -20.879 -48.706 -19.765  0.00  0.00     0.066 H 
ATOM     27  H12 T92 d   1     -20.228 -48.928 -21.424  0.00  0.00     0.066 H 
BRANCH  18  28
ATOM     28  C01 T92 d   1     -21.989 -52.414 -21.598  0.00  0.00     0.066 C 
ATOM     29  H1  T92 d   1     -21.660 -53.234 -22.253  0.00  0.00     0.068 H 
ATOM     30  H2  T92 d   1     -22.931 -51.995 -21.981  0.00  0.00     0.068 H 
ATOM     31  H3  T92 d   1     -22.146 -52.799 -20.580  0.00  0.00     0.068 H 
ENDBRANCH  18  28
ENDBRANCH   7  13
ENDBRANCH   1   3
BRANCH   1  32
ATOM     32  C15 T92 d   1     -14.475 -47.243 -16.179  0.00  0.00     0.728 A 
ATOM     33  N16 T92 d   1     -13.704 -46.315 -15.671  0.00  0.00    -0.073 NA
ATOM     34  C17 T92 d   1     -12.485 -46.592 -15.225  0.00  0.00     0.046 A 
ATOM     35  C18 T92 d   1     -12.039 -47.912 -15.308  0.00  0.00     0.098 A 
ATOM     36  H18 T92 d   1     -11.854 -45.815 -14.808  0.00  0.00     0.118 H 
ATOM     37 CL19 T92 d   1     -10.412 -48.309 -14.718  0.00  0.00    -0.079 Cl
ATOM     38  C20 T92 d   1     -12.871 -48.874 -15.847  0.00  0.00     0.170 A 
ATOM     39  N33 T92 d   1     -14.086 -48.506 -16.269  0.00  0.00    -0.043 NA
BRANCH  38  40
ATOM     40  N21 T92 d   1     -12.445 -50.275 -15.947  0.00  0.00    -0.337 N 
ATOM     41  H19 T92 d   1     -11.946 -50.690 -15.147  0.00  0.00     0.167 HD
BRANCH  40  42
ATOM     42  C22 T92 d   1     -12.695 -51.134 -17.145  0.00  0.00     0.068 A 
ATOM     43  C23 T92 d   1     -13.837 -51.947 -17.235  0.00  0.00    -0.054 A 
ATOM     44  C24 T92 d   1     -14.024 -52.743 -18.380  0.00  0.00    -0.081 A 
ATOM     45  H20 T92 d   1     -14.565 -51.961 -16.432  0.00  0.00     0.087 H 
ATOM     46  C25 T92 d   1     -13.091 -52.742 -19.431  0.00  0.00    -0.080 A 
ATOM     47  H21 T92 d   1     -14.905 -53.370 -18.453  0.00  0.00     0.083 H 
ATOM     48  C26 T92 d   1     -11.947 -51.929 -19.339  0.00  0.00    -0.048 A 
ATOM     49  H22 T92 d   1     -13.252 -53.363 -20.305  0.00  0.00     0.083 H 
ATOM     50  C27 T92 d   1     -11.762 -51.144 -18.199  0.00  0.00     0.105 A 
ATOM     51  H23 T92 d   1     -11.219 -51.912 -20.142  0.00  0.00     0.087 H 
BRANCH  50  52
ATOM     52  O28 T92 d   1     -10.604 -50.307 -18.088  0.00  0.00    -0.277 OA
BRANCH  52  53
ATOM     53  C29 T92 d   1      -9.350 -50.954 -18.210  0.00  0.00     0.263 C 
ATOM     54  O32 T92 d   1      -9.259 -52.138 -18.292  0.00  0.00    -0.265 OA
BRANCH  53  55
ATOM     55  C30 T92 d   1      -8.137 -50.021 -18.231  0.00  0.00     0.013 C 
ATOM     56  H24 T92 d   1      -7.628 -50.094 -19.203  0.00  0.00     0.047 H 
ATOM     57  H25 T92 d   1      -7.438 -50.302 -17.430  0.00  0.00     0.047 H 
BRANCH  55  58
ATOM     58  C31 T92 d   1      -8.628 -48.591 -18.011  0.00  0.00    -0.068 C 
ATOM     59  H26 T92 d   1      -7.770 -47.903 -18.023  0.00  0.00     0.028 H 
ATOM     60  H27 T92 d   1      -9.139 -48.524 -17.039  0.00  0.00     0.028 H 
ATOM     61  H28 T92 d   1      -9.329 -48.316 -18.813  0.00  0.00     0.028 H 
ENDBRANCH  55  58
ENDBRANCH  53  55
ENDBRANCH  52  53
ENDBRANCH  50  52
ENDBRANCH  40  42
ENDBRANCH  38  40
ENDBRANCH   1  32
TORSDOF 10
