REMARK  8 active torsions:
REMARK  status: ('A' for Active; 'I' for Inactive)
REMARK    1  A    between atoms: C4_1  and  NAR_26 
REMARK    2  A    between atoms: CAI_16  and  C6_3 
REMARK    3  A    between atoms: CAH_10  and  CAG_7 
REMARK    4  A    between atoms: CAD_12  and  NAA_13 
REMARK    5  A    between atoms: C2_17  and  NAU_18 
REMARK    6  A    between atoms: CBA_21  and  CBD_22 
REMARK    7  A    between atoms: CBA_21  and  CBB_24 
REMARK    8  A    between atoms: CBB_24  and  OBC_25 
ROOT
ATOM      1  C4  6K7 d   1      22.278  -3.469  22.195  0.00  0.00     0.147 A 
ATOM      2  C5  6K7 d   1      23.546  -4.007  21.845  0.00  0.00    -0.009 A 
ATOM      3  C6  6K7 d   1      24.429  -3.202  21.082  0.00  0.00     0.092 A 
ATOM      4  N1  6K7 d   1      24.024  -1.961  20.722  0.00  0.00    -0.062 NA
ATOM      5  N3  6K7 d   1      21.957  -2.212  21.785  0.00  0.00    -0.045 NA
ATOM      6  C2  6K7 d   1      22.819  -1.499  21.072  0.00  0.00     0.727 A 
ATOM      7  H1  6K7 d   1      23.831  -5.006  22.153  0.00  0.00     0.093 H 
ENDROOT
BRANCH   6   8
ATOM      8  NAU 6K7 d   1      22.450  -0.148  20.641  0.00  0.00    -0.212 N 
ATOM      9  CAZ 6K7 d   1      23.049   0.863  19.754  0.00  0.00     0.023 C 
ATOM     10  CBA 6K7 d   1      21.818   1.652  19.844  0.00  0.00     0.027 C 
ATOM     11  H6  6K7 d   1      23.277   0.497  18.742  0.00  0.00     0.066 H 
ATOM     12  H7  6K7 d   1      23.936   1.361  20.172  0.00  0.00     0.066 H 
ATOM     13  CAV 6K7 d   1      21.405   0.825  20.986  0.00  0.00     0.023 C 
ATOM     14  H8  6K7 d   1      21.543   1.307  21.965  0.00  0.00     0.066 H 
ATOM     15  H9  6K7 d   1      20.380   0.432  20.911  0.00  0.00     0.066 H 
BRANCH  10  16
ATOM     16  CBD 6K7 d   1      20.940   1.489  18.595  0.00  0.00     0.014 C 
ATOM     17 CL   6K7 d   1      19.242   1.732  18.924  0.00  0.00    -0.130 Cl
ATOM     18  H10 6K7 d   1      21.079   0.473  18.198  0.00  0.00     0.058 H 
ATOM     19  H11 6K7 d   1      21.261   2.224  17.842  0.00  0.00     0.058 H 
ENDBRANCH  10  16
BRANCH  10  20
ATOM     20  CBB 6K7 d   1      22.098   3.084  20.208  0.00  0.00     0.028 C 
ATOM     21  H12 6K7 d   1      22.531   3.606  19.342  0.00  0.00     0.075 H 
ATOM     22  H13 6K7 d   1      22.807   3.118  21.048  0.00  0.00     0.075 H 
BRANCH  20  23
ATOM     23  OBC 6K7 d   1      20.891   3.713  20.583  0.00  0.00    -0.400 OA
ATOM     24  H14 6K7 d   1      21.065   4.618  20.814  0.00  0.00     0.209 HD
ENDBRANCH  20  23
ENDBRANCH  10  20
ENDBRANCH   6   8
BRANCH   3  25
ATOM     25  CAI 6K7 d   1      25.827  -3.730  20.677  0.00  0.00     0.026 A 
ATOM     26  CAH 6K7 d   1      26.302  -3.698  19.340  0.00  0.00     0.065 A 
ATOM     27  CAC 6K7 d   1      27.601  -4.205  19.085  0.00  0.00    -0.024 A 
ATOM     28  CAD 6K7 d   1      28.348  -4.717  20.139  0.00  0.00     0.121 A 
ATOM     29  H2  6K7 d   1      28.007  -4.193  18.080  0.00  0.00     0.090 H 
ATOM     30  NAE 6K7 d   1      27.867  -4.733  21.370  0.00  0.00    -0.243 NA
ATOM     31  CAJ 6K7 d   1      26.655  -4.266  21.658  0.00  0.00     0.017 A 
ATOM     32  H5  6K7 d   1      26.304  -4.304  22.683  0.00  0.00     0.116 H 
BRANCH  26  33
ATOM     33  CAG 6K7 d   1      25.498  -3.138  18.197  0.00  0.00     0.418 C 
ATOM     34  FAB 6K7 d   1      24.207  -3.484  18.270  0.00  0.00    -0.166 F 
ATOM     35  FAF 6K7 d   1      26.007  -3.616  17.059  0.00  0.00    -0.166 F 
ATOM     36  FAK 6K7 d   1      25.611  -1.801  18.200  0.00  0.00    -0.166 F 
ENDBRANCH  26  33
BRANCH  28  37
ATOM     37  NAA 6K7 d   1      29.660  -5.233  19.888  0.00  0.00    -0.384 N 
ATOM     38  H3  6K7 d   1      30.221  -5.614  20.663  0.00  0.00     0.157 HD
ATOM     39  H4  6K7 d   1      30.043  -5.223  18.932  0.00  0.00     0.157 HD
ENDBRANCH  28  37
ENDBRANCH   3  25
BRANCH   1  40
ATOM     40  NAR 6K7 d   1      21.354  -4.254  22.971  0.00  0.00    -0.361 N 
ATOM     41  CAS 6K7 d   1      21.811  -5.355  23.723  0.00  0.00     0.016 C 
ATOM     42  CAT 6K7 d   1      20.925  -5.690  24.904  0.00  0.00     0.034 C 
ATOM     43  H15 6K7 d   1      22.819  -5.126  24.098  0.00  0.00     0.067 H 
ATOM     44  H16 6K7 d   1      21.857  -6.233  23.062  0.00  0.00     0.067 H 
ATOM     45  OAY 6K7 d   1      19.546  -5.728  24.565  0.00  0.00    -0.388 OA
ATOM     46  H17 6K7 d   1      21.074  -4.928  25.683  0.00  0.00     0.076 H 
ATOM     47  H18 6K7 d   1      21.218  -6.676  25.295  0.00  0.00     0.076 H 
ATOM     48  CAX 6K7 d   1      19.137  -4.525  23.925  0.00  0.00     0.034 C 
ATOM     49  CAW 6K7 d   1      19.972  -4.249  22.693  0.00  0.00     0.016 C 
ATOM     50  H19 6K7 d   1      19.249  -3.688  24.630  0.00  0.00     0.076 H 
ATOM     51  H20 6K7 d   1      18.081  -4.617  23.630  0.00  0.00     0.076 H 
ATOM     52  H21 6K7 d   1      19.760  -5.023  21.941  0.00  0.00     0.067 H 
ATOM     53  H22 6K7 d   1      19.695  -3.263  22.292  0.00  0.00     0.067 H 
ENDBRANCH   1  40
TORSDOF 8
