REMARK WARNING: 32 MAX_TORS EXCEEDED!!!
REMARK  40 active torsions:
REMARK  status: ('A' for Active; 'I' for Inactive)
REMARK    1  A    between atoms: N_1  and  CA_2 
REMARK    2  A    between atoms: CA_2  and  C_3 
REMARK       I    between atoms: C_3  and  N_5 
REMARK    3  A    between atoms: N_5  and  CA_6 
REMARK    4  A    between atoms: CA_6  and  C_7 
REMARK    5  A    between atoms: CA_6  and  CB_9 
REMARK       I    between atoms: C_7  and  N_13 
REMARK    6  A    between atoms: CB_9  and  CG1_10 
REMARK    7  A    between atoms: CB_9  and  CG2_11 
REMARK    8  A    between atoms: CG1_10  and  CD1_12 
REMARK    9  A    between atoms: N_13  and  CA_14 
REMARK   10  A    between atoms: CA_14  and  C_15 
REMARK   11  A    between atoms: CA_14  and  CB_17 
REMARK       I    between atoms: C_15  and  N_21 
REMARK   12  A    between atoms: CB_17  and  CG_18 
REMARK   13  A    between atoms: CG_18  and  CD1_19 
REMARK   14  A    between atoms: CG_18  and  CD2_20 
REMARK   15  A    between atoms: N_21  and  CA_22 
REMARK   16  A    between atoms: CA_22  and  C_23 
REMARK       I    between atoms: C_23  and  N_25 
REMARK   17  A    between atoms: N_25  and  CA_26 
REMARK   18  A    between atoms: CA_26  and  C_27 
REMARK   19  A    between atoms: CA_26  and  CB_29 
REMARK       I    between atoms: C_27  and  N_36 
REMARK   20  A    between atoms: CB_29  and  CG_30 
REMARK   21  A    between atoms: N_36  and  CA_37 
REMARK   22  A    between atoms: CA_37  and  C_38 
REMARK   23  A    between atoms: CA_37  and  CB_40 
REMARK       I    between atoms: C_38  and  N_43 
REMARK   24  A    between atoms: CB_40  and  CG1_41 
REMARK   25  A    between atoms: CB_40  and  CG2_42 
REMARK   26  A    between atoms: N_43  and  CA_44 
REMARK   27  A    between atoms: CA_44  and  C_45 
REMARK   28  A    between atoms: CA_44  and  CB_47 
REMARK       I    between atoms: C_45  and  N_54 
REMARK   29  A    between atoms: CB_47  and  CG_48 
REMARK   30  A    between atoms: N_54  and  CA_55 
REMARK   31  A    between atoms: CA_55  and  C_56 
REMARK   32  A    between atoms: CA_55  and  CB_58 
REMARK       I    between atoms: C_56  and  N_61 
REMARK   33  A    between atoms: CB_58  and  OG1_59 
REMARK   34  A    between atoms: CB_58  and  CG2_60 
REMARK   35  A    between atoms: N_61  and  CA_62 
REMARK   36  A    between atoms: CA_62  and  C_63 
REMARK   37  A    between atoms: CA_62  and  CB_65 
REMARK   38  A    between atoms: CB_65  and  CG_66 
REMARK   39  A    between atoms: CG_66  and  CD1_67 
REMARK   40  A    between atoms: CG_66  and  CD2_68 
ROOT
ATOM      1  CA  PHE d   1      63.519  76.905 -24.855  0.00  0.00     0.093 C 
ATOM      2  H32 PHE d   1      62.870  76.242 -25.446  0.00  0.00     0.088 H 
ENDROOT
BRANCH   1   3
ATOM      3  N   PHE d   1      62.779  78.103 -24.484  0.00  0.00    -0.346 N 
ATOM      4  C   GLY d   1      61.450  78.154 -24.429  0.00  0.00     0.236 C 
ATOM      5  O   GLY d   1      60.735  77.177 -24.660  0.00  0.00    -0.272 OA
ATOM      6  H31 PHE d   1      63.295  78.929 -24.259  0.00  0.00     0.163 HD
BRANCH   4   7
ATOM      7  CA  GLY d   1      60.842  79.489 -24.044  0.00  0.00     0.069 C 
ATOM      8  H29 GLY d   1      60.296  79.896 -24.908  0.00  0.00     0.078 H 
ATOM      9  H30 GLY d   1      60.144  79.336 -23.208  0.00  0.00     0.078 H 
BRANCH   7  10
ATOM     10  N   GLY d   1      61.859  80.439 -23.640  0.00  0.00    -0.351 N 
ATOM     11  C   LEU d   1      62.090  80.687 -22.355  0.00  0.00     0.240 C 
ATOM     12  O   LEU d   1      61.382  80.239 -21.450  0.00  0.00    -0.271 OA
ATOM     13  H28 GLY d   1      62.395  80.915 -24.338  0.00  0.00     0.163 HD
BRANCH  11  14
ATOM     14  CA  LEU d   1      63.318  81.535 -22.052  0.00  0.00     0.089 C 
ATOM     15  H18 LEU d   1      63.545  82.158 -22.930  0.00  0.00     0.087 H 
BRANCH  14  16
ATOM     16  N   LEU d   1      63.082  82.408 -20.909  0.00  0.00    -0.346 N 
ATOM     17  C   ILE d   1      62.123  83.333 -20.918  0.00  0.00     0.241 C 
ATOM     18  O   ILE d   1      61.398  83.543 -21.898  0.00  0.00    -0.271 OA
ATOM     19  H17 LEU d   1      63.656  82.310 -20.096  0.00  0.00     0.163 HD
BRANCH  17  20
ATOM     20  CA  ILE d   1      61.968  84.146 -19.640  0.00  0.00     0.092 C 
ATOM     21  H7  ILE d   1      62.945  84.589 -19.397  0.00  0.00     0.088 H 
BRANCH  20  22
ATOM     22  N   ILE d   1      61.015  85.233 -19.832  0.00  0.00    -0.346 N 
ATOM     23  C   GLY d   1      61.394  86.427 -20.286  0.00  0.00     0.243 C 
ATOM     24  O   GLY d   1      62.533  86.660 -20.696  0.00  0.00    -0.272 OA
ATOM     25  H6  ILE d   1      60.051  85.078 -19.617  0.00  0.00     0.163 HD
BRANCH  23  26
ATOM     26  CA  GLY d   1      60.335  87.510 -20.292  0.00  0.00     0.152 C 
ATOM     27  H4  GLY d   1      59.909  87.583 -21.303  0.00  0.00     0.090 H 
ATOM     28  H5  GLY d   1      59.543  87.235 -19.579  0.00  0.00     0.090 H 
BRANCH  26  29
ATOM     29  N   GLY d   1      60.888  88.843 -19.906  0.00  0.00    -0.071 N 
ATOM     30  H1  GLY d   1      60.151  89.530 -19.924  0.00  0.00     0.274 HD
ATOM     31  H2  GLY d   1      61.610  89.108 -20.557  0.00  0.00     0.274 HD
ATOM     32  H3  GLY d   1      61.276  88.790 -18.977  0.00  0.00     0.274 HD
ENDBRANCH  26  29
ENDBRANCH  23  26
ENDBRANCH  20  22
BRANCH  20  33
ATOM     33  CB  ILE d   1      61.548  83.245 -18.462  0.00  0.00    -0.030 C 
ATOM     34  H8  ILE d   1      62.314  82.467 -18.330  0.00  0.00     0.043 H 
BRANCH  33  35
ATOM     35  CG1 ILE d   1      60.214  82.558 -18.753  0.00  0.00    -0.063 C 
ATOM     36  H9  ILE d   1      60.299  82.028 -19.713  0.00  0.00     0.033 H 
ATOM     37  H10 ILE d   1      59.435  83.331 -18.829  0.00  0.00     0.033 H 
BRANCH  35  38
ATOM     38  CD1 ILE d   1      59.798  81.567 -17.698  0.00  0.00    -0.076 C 
ATOM     39  H14 ILE d   1      58.834  81.117 -17.977  0.00  0.00     0.027 H 
ATOM     40  H15 ILE d   1      59.696  82.082 -16.731  0.00  0.00     0.027 H 
ATOM     41  H16 ILE d   1      60.560  80.778 -17.615  0.00  0.00     0.027 H 
ENDBRANCH  35  38
ENDBRANCH  33  35
BRANCH  33  42
ATOM     42  CG2 ILE d   1      61.470  84.068 -17.176  0.00  0.00    -0.071 C 
ATOM     43  H11 ILE d   1      62.441  84.551 -16.990  0.00  0.00     0.028 H 
ATOM     44  H12 ILE d   1      61.222  83.407 -16.332  0.00  0.00     0.028 H 
ATOM     45  H13 ILE d   1      60.691  84.838 -17.280  0.00  0.00     0.028 H 
ENDBRANCH  33  42
ENDBRANCH  20  33
ENDBRANCH  17  20
ENDBRANCH  14  16
BRANCH  14  46
ATOM     46  CB  LEU d   1      64.507  80.615 -21.771  0.00  0.00    -0.035 C 
ATOM     47  H19 LEU d   1      64.296  79.653 -22.261  0.00  0.00     0.037 H 
ATOM     48  H20 LEU d   1      64.554  80.469 -20.682  0.00  0.00     0.037 H 
BRANCH  46  49
ATOM     49  CG  LEU d   1      65.896  81.058 -22.227  0.00  0.00    -0.059 C 
ATOM     50  H21 LEU d   1      66.036  82.117 -21.963  0.00  0.00     0.038 H 
BRANCH  49  51
ATOM     51  CD1 LEU d   1      66.959  80.229 -21.514  0.00  0.00    -0.073 C 
ATOM     52  H22 LEU d   1      67.958  80.551 -21.845  0.00  0.00     0.028 H 
ATOM     53  H23 LEU d   1      66.818  79.165 -21.756  0.00  0.00     0.028 H 
ATOM     54  H24 LEU d   1      66.869  80.373 -20.427  0.00  0.00     0.028 H 
ENDBRANCH  49  51
BRANCH  49  55
ATOM     55  CD2 LEU d   1      66.030  80.910 -23.733  0.00  0.00    -0.073 C 
ATOM     56  H25 LEU d   1      65.257  81.513 -24.231  0.00  0.00     0.028 H 
ATOM     57  H26 LEU d   1      65.905  79.853 -24.010  0.00  0.00     0.028 H 
ATOM     58  H27 LEU d   1      67.025  81.257 -24.048  0.00  0.00     0.028 H 
ENDBRANCH  49  55
ENDBRANCH  46  49
ENDBRANCH  14  46
ENDBRANCH  11  14
ENDBRANCH   7  10
ENDBRANCH   4   7
ENDBRANCH   1   3
BRANCH   1  59
ATOM     59  C   PHE d   1      63.944  76.187 -23.580  0.00  0.00     0.241 C 
ATOM     60  O   PHE d   1      64.702  76.744 -22.780  0.00  0.00    -0.271 OA
ATOM     61  N   VAL d   1      63.471  74.956 -23.395  0.00  0.00    -0.346 N 
ATOM     62  H40 VAL d   1      62.854  74.569 -24.080  0.00  0.00     0.163 HD
BRANCH  61  63
ATOM     63  CA  VAL d   1      63.821  74.152 -22.228  0.00  0.00     0.092 C 
ATOM     64  H41 VAL d   1      64.443  74.767 -21.561  0.00  0.00     0.088 H 
BRANCH  63  65
ATOM     65  C   VAL d   1      64.638  72.949 -22.676  0.00  0.00     0.241 C 
ATOM     66  O   VAL d   1      64.339  72.318 -23.697  0.00  0.00    -0.271 OA
ATOM     67  N   PHE d   1      65.686  72.651 -21.911  0.00  0.00    -0.346 N 
ATOM     68  H49 PHE d   1      65.859  73.216 -21.104  0.00  0.00     0.163 HD
BRANCH  67  69
ATOM     69  CA  PHE d   1      66.592  71.548 -22.186  0.00  0.00     0.093 C 
ATOM     70  H50 PHE d   1      66.034  70.739 -22.679  0.00  0.00     0.088 H 
BRANCH  69  71
ATOM     71  C   PHE d   1      67.133  71.037 -20.856  0.00  0.00     0.241 C 
ATOM     72  O   PHE d   1      67.174  71.769 -19.867  0.00  0.00    -0.271 OA
ATOM     73  N   THR d   1      67.548  69.770 -20.838  0.00  0.00    -0.344 N 
ATOM     74  H58 THR d   1      67.600  69.268 -21.701  0.00  0.00     0.163 HD
BRANCH  73  75
ATOM     75  CA  THR d   1      67.928  69.090 -19.608  0.00  0.00     0.113 C 
ATOM     76  H59 THR d   1      67.602  69.710 -18.759  0.00  0.00     0.091 H 
BRANCH  75  77
ATOM     77  C   THR d   1      69.440  68.911 -19.525  0.00  0.00     0.243 C 
ATOM     78  O   THR d   1      70.130  68.828 -20.546  0.00  0.00    -0.271 OA
ATOM     79  N   LEU d   1      69.940  68.843 -18.288  0.00  0.00    -0.345 N 
ATOM     80  H65 LEU d   1      69.323  68.991 -17.515  0.00  0.00     0.163 HD
BRANCH  79  81
ATOM     81  CA  LEU d   1      71.347  68.562 -18.013  0.00  0.00     0.096 C 
ATOM     82  H66 LEU d   1      71.964  69.248 -18.611  0.00  0.00     0.089 H 
BRANCH  81  83
ATOM     83  C   LEU d   1      71.685  67.127 -18.395  0.00  0.00     0.196 C 
ATOM     84  O   LEU d   1      70.785  66.296 -18.563  0.00  0.00    -0.646 OA
ATOM     85  OXT LEU d   1      72.861  66.762 -18.499  0.00  0.00    -0.646 OA
ENDBRANCH  81  83
BRANCH  81  86
ATOM     86  CB  LEU d   1      71.678  68.763 -16.529  0.00  0.00    -0.034 C 
ATOM     87  H67 LEU d   1      72.761  68.604 -16.425  0.00  0.00     0.037 H 
ATOM     88  H68 LEU d   1      71.138  67.979 -15.978  0.00  0.00     0.037 H 
BRANCH  86  89
ATOM     89  CG  LEU d   1      71.362  70.084 -15.828  0.00  0.00    -0.059 C 
ATOM     90  H69 LEU d   1      70.287  70.290 -15.934  0.00  0.00     0.038 H 
BRANCH  89  91
ATOM     91  CD1 LEU d   1      71.694  69.970 -14.368  0.00  0.00    -0.073 C 
ATOM     92  H70 LEU d   1      71.466  70.921 -13.865  0.00  0.00     0.028 H 
ATOM     93  H71 LEU d   1      72.764  69.741 -14.252  0.00  0.00     0.028 H 
ATOM     94  H72 LEU d   1      71.096  69.164 -13.918  0.00  0.00     0.028 H 
ENDBRANCH  89  91
BRANCH  89  95
ATOM     95  CD2 LEU d   1      72.130  71.220 -16.439  0.00  0.00    -0.073 C 
ATOM     96  H73 LEU d   1      71.882  71.297 -17.508  0.00  0.00     0.028 H 
ATOM     97  H74 LEU d   1      73.209  71.037 -16.325  0.00  0.00     0.028 H 
ATOM     98  H75 LEU d   1      71.862  72.159 -15.932  0.00  0.00     0.028 H 
ENDBRANCH  89  95
ENDBRANCH  86  89
ENDBRANCH  81  86
ENDBRANCH  79  81
ENDBRANCH  75  77
BRANCH  75  99
ATOM     99  CB  THR d   1      67.247  67.716 -19.498  0.00  0.00     0.060 C 
ATOM    100  H60 THR d   1      67.536  67.253 -18.543  0.00  0.00     0.086 H 
BRANCH  99 101
ATOM    101  OG1 THR d   1      67.670  66.870 -20.576  0.00  0.00    -0.393 OA
ATOM    102  H61 THR d   1      67.433  67.271 -21.404  0.00  0.00     0.210 HD
ENDBRANCH  99 101
BRANCH  99 103
ATOM    103  CG2 THR d   1      65.736  67.859 -19.538  0.00  0.00    -0.050 C 
ATOM    104  H62 THR d   1      65.271  66.865 -19.458  0.00  0.00     0.031 H 
ATOM    105  H63 THR d   1      65.437  68.328 -20.487  0.00  0.00     0.031 H 
ATOM    106  H64 THR d   1      65.405  68.487 -18.698  0.00  0.00     0.031 H 
ENDBRANCH  99 103
ENDBRANCH  75  99
ENDBRANCH  73  75
ENDBRANCH  69  71
BRANCH  69 107
ATOM    107  CB  PHE d   1      67.723  71.991 -23.117  0.00  0.00    -0.014 C 
ATOM    108  H51 PHE d   1      67.336  72.020 -24.146  0.00  0.00     0.043 H 
ATOM    109  H52 PHE d   1      68.536  71.253 -23.052  0.00  0.00     0.043 H 
BRANCH 107 110
ATOM    110  CG  PHE d   1      68.281  73.345 -22.780  0.00  0.00    -0.056 A 
ATOM    111  CD1 PHE d   1      67.677  74.496 -23.258  0.00  0.00    -0.077 A 
ATOM    112  CE1 PHE d   1      68.184  75.740 -22.948  0.00  0.00    -0.082 A 
ATOM    113  H53 PHE d   1      66.795  74.418 -23.883  0.00  0.00     0.084 H 
ATOM    114  CZ  PHE d   1      69.296  75.847 -22.149  0.00  0.00    -0.083 A 
ATOM    115  H55 PHE d   1      67.706  76.633 -23.334  0.00  0.00     0.083 H 
ATOM    116  CE2 PHE d   1      69.904  74.711 -21.660  0.00  0.00    -0.082 A 
ATOM    117  H57 PHE d   1      69.695  76.824 -21.903  0.00  0.00     0.083 H 
ATOM    118  CD2 PHE d   1      69.395  73.468 -21.973  0.00  0.00    -0.077 A 
ATOM    119  H56 PHE d   1      70.782  74.794 -21.030  0.00  0.00     0.083 H 
ATOM    120  H54 PHE d   1      69.874  72.578 -21.581  0.00  0.00     0.084 H 
ENDBRANCH 107 110
ENDBRANCH  69 107
ENDBRANCH  67  69
ENDBRANCH  63  65
BRANCH  63 121
ATOM    121  CB  VAL d   1      62.576  73.707 -21.436  0.00  0.00    -0.033 C 
ATOM    122  H42 VAL d   1      62.907  73.079 -20.596  0.00  0.00     0.042 H 
BRANCH 121 123
ATOM    123  CG1 VAL d   1      61.852  74.924 -20.868  0.00  0.00    -0.071 C 
ATOM    124  H43 VAL d   1      60.966  74.594 -20.305  0.00  0.00     0.028 H 
ATOM    125  H44 VAL d   1      61.539  75.582 -21.692  0.00  0.00     0.028 H 
ATOM    126  H45 VAL d   1      62.529  75.473 -20.197  0.00  0.00     0.028 H 
ENDBRANCH 121 123
BRANCH 121 127
ATOM    127  CG2 VAL d   1      61.651  72.881 -22.308  0.00  0.00    -0.071 C 
ATOM    128  H46 VAL d   1      62.198  72.012 -22.703  0.00  0.00     0.028 H 
ATOM    129  H47 VAL d   1      61.288  73.497 -23.144  0.00  0.00     0.028 H 
ATOM    130  H48 VAL d   1      60.795  72.534 -21.710  0.00  0.00     0.028 H 
ENDBRANCH 121 127
ENDBRANCH  63 121
ENDBRANCH  61  63
ENDBRANCH   1  59
BRANCH   1 131
ATOM    131  CB  PHE d   1      64.740  77.285 -25.695  0.00  0.00    -0.014 C 
ATOM    132  H33 PHE d   1      65.321  78.034 -25.137  0.00  0.00     0.043 H 
ATOM    133  H34 PHE d   1      64.385  77.724 -26.639  0.00  0.00     0.043 H 
BRANCH 131 134
ATOM    134  CG  PHE d   1      65.652  76.133 -26.026  0.00  0.00    -0.056 A 
ATOM    135  CD1 PHE d   1      65.156  74.851 -26.184  0.00  0.00    -0.077 A 
ATOM    136  CE1 PHE d   1      66.002  73.802 -26.494  0.00  0.00    -0.082 A 
ATOM    137  H35 PHE d   1      64.094  74.667 -26.064  0.00  0.00     0.084 H 
ATOM    138  CZ  PHE d   1      67.352  74.026 -26.640  0.00  0.00    -0.083 A 
ATOM    139  H37 PHE d   1      65.602  72.803 -26.622  0.00  0.00     0.083 H 
ATOM    140  CE2 PHE d   1      67.859  75.296 -26.487  0.00  0.00    -0.082 A 
ATOM    141  H39 PHE d   1      68.016  73.202 -26.875  0.00  0.00     0.083 H 
ATOM    142  CD2 PHE d   1      67.013  76.341 -26.182  0.00  0.00    -0.077 A 
ATOM    143  H38 PHE d   1      68.922  75.475 -26.606  0.00  0.00     0.083 H 
ATOM    144  H36 PHE d   1      67.418  77.339 -26.063  0.00  0.00     0.084 H 
ENDBRANCH 131 134
ENDBRANCH   1 131
TORSDOF 40
