REMARK  3 active torsions:
REMARK  status: ('A' for Active; 'I' for Inactive)
REMARK    1  A    between atoms: C7_3  and  C8_4 
REMARK    2  A    between atoms: C10_5  and  C18_17 
REMARK    3  A    between atoms: C2_8  and  C1_7 
ROOT
ATOM      1  C8  6KN d   1      16.802  30.984  16.276  0.00  0.00    -0.011 A 
ATOM      2  C10 6KN d   1      18.825  32.056  15.461  0.00  0.00     0.051 A 
ATOM      3  C17 6KN d   1      17.387  29.724  15.955  0.00  0.00     0.022 A 
ATOM      4  C9  6KN d   1      17.558  32.124  16.029  0.00  0.00    -0.057 A 
ATOM      5  C11 6KN d   1      19.404  30.842  15.130  0.00  0.00    -0.040 A 
ATOM      6  C12 6KN d   1      18.689  29.668  15.380  0.00  0.00     0.063 A 
ATOM      7  N13 6KN d   1      18.972  28.343  15.182  0.00  0.00    -0.278 N 
ATOM      8  N15 6KN d   1      17.876  27.599  15.637  0.00  0.00    -0.186 NA
ATOM      9  C16 6KN d   1      16.944  28.390  16.078  0.00  0.00     0.035 A 
ATOM     10  H7  6KN d   1      17.148  33.094  16.287  0.00  0.00     0.086 H 
ATOM     11  H8  6KN d   1      20.392  30.804  14.686  0.00  0.00     0.088 H 
ATOM     12  H9  6KN d   1      19.836  27.962  14.772  0.00  0.00     0.189 HD
ATOM     13  H10 6KN d   1      15.981  28.075  16.477  0.00  0.00     0.118 H 
ENDROOT
BRANCH   1  14
ATOM     14  C7  6KN d   1      15.453  31.122  16.905  0.00  0.00    -0.016 A 
ATOM     15  C6  6KN d   1      15.184  30.381  18.072  0.00  0.00    -0.055 A 
ATOM     16  C5  6KN d   1      13.954  30.489  18.697  0.00  0.00     0.003 A 
ATOM     17  H2  6KN d   1      15.943  29.724  18.482  0.00  0.00     0.087 H 
ATOM     18  N4  6KN d   1      13.026  31.300  18.215  0.00  0.00    -0.273 NA
ATOM     19  H1  6KN d   1      13.749  29.905  19.587  0.00  0.00     0.114 H 
ATOM     20  C3  6KN d   1      13.226  32.032  17.131  0.00  0.00     0.008 A 
ATOM     21  C2  6KN d   1      14.426  31.985  16.436  0.00  0.00    -0.033 A 
ATOM     22  H6  6KN d   1      12.434  32.683  16.778  0.00  0.00     0.115 H 
BRANCH  21  23
ATOM     23  C1  6KN d   1      14.556  32.858  15.211  0.00  0.00    -0.049 C 
ATOM     24  H3  6KN d   1      13.626  33.426  15.065  0.00  0.00     0.033 H 
ATOM     25  H4  6KN d   1      14.742  32.227  14.329  0.00  0.00     0.033 H 
ATOM     26  H5  6KN d   1      15.395  33.556  15.346  0.00  0.00     0.033 H 
ENDBRANCH  21  23
ENDBRANCH   1  14
BRANCH   2  27
ATOM     27  C18 6KN d   1      19.544  33.356  15.232  0.00  0.00     0.417 C 
ATOM     28  F19 6KN d   1      20.018  33.786  16.462  0.00  0.00    -0.166 F 
ATOM     29  F20 6KN d   1      20.617  33.192  14.349  0.00  0.00    -0.166 F 
ATOM     30  F21 6KN d   1      18.653  34.325  14.769  0.00  0.00    -0.166 F 
ENDBRANCH   2  27
TORSDOF 3
