REMARK  18 active torsions:
REMARK  status: ('A' for Active; 'I' for Inactive)
REMARK    1  A    between atoms: P02_2  and  O05_5 
REMARK    2  A    between atoms: O05_5  and  C06_6 
REMARK    3  A    between atoms: C06_6  and  C07_7 
REMARK    4  A    between atoms: C07_7  and  C08_8 
REMARK    5  A    between atoms: C07_7  and  C09_9 
REMARK    6  A    between atoms: C07_7  and  C10_10 
REMARK    7  A    between atoms: C10_10  and  O11_11 
REMARK    8  A    between atoms: C10_10  and  C12_12 
REMARK       I    between atoms: C12_12  and  N14_14 
REMARK    9  A    between atoms: N14_14  and  C15_15 
REMARK   10  A    between atoms: C15_15  and  C16_16 
REMARK   11  A    between atoms: C16_16  and  C17_17 
REMARK       I    between atoms: C17_17  and  N19_19 
REMARK   12  A    between atoms: N19_19  and  C20_20 
REMARK   13  A    between atoms: C20_20  and  C21_21 
REMARK   14  A    between atoms: C21_21  and  C22_22 
REMARK   15  A    between atoms: C22_22  and  C23_23 
REMARK   16  A    between atoms: C23_23  and  C24_24 
REMARK   17  A    between atoms: C24_24  and  O25_25 
REMARK   18  A    between atoms: O25_25  and  C26_26 
ROOT
ATOM      1  C15 N7E d   1     -12.565  -9.082  -6.243  0.00  0.00     0.003 C 
ATOM      2  H12 N7E d   1     -11.768  -8.368  -5.987  0.00  0.00     0.064 H 
ATOM      3  H13 N7E d   1     -13.413  -8.947  -5.555  0.00  0.00     0.064 H 
ENDROOT
BRANCH   1   4
ATOM      4  N14 N7E d   1     -12.041 -10.463  -6.100  0.00  0.00    -0.358 N 
ATOM      5  C12 N7E d   1     -12.881 -11.474  -5.929  0.00  0.00     0.247 C 
ATOM      6  O13 N7E d   1     -14.115 -11.352  -5.929  0.00  0.00    -0.271 OA
ATOM      7  H11 N7E d   1     -11.056 -10.631  -6.133  0.00  0.00     0.162 HD
BRANCH   5   8
ATOM      8  C10 N7E d   1     -12.198 -12.842  -5.767  0.00  0.00     0.120 C 
ATOM      9  H9  N7E d   1     -12.587 -13.323  -4.857  0.00  0.00     0.099 H 
BRANCH   8  10
ATOM     10  C07 N7E d   1     -12.505 -13.763  -6.980  0.00  0.00     0.009 C 
BRANCH  10  11
ATOM     11  C06 N7E d   1     -11.693 -15.054  -6.916  0.00  0.00     0.042 C 
ATOM     12  H1  N7E d   1     -11.997 -15.710  -7.745  0.00  0.00     0.076 H 
ATOM     13  H2  N7E d   1     -10.625 -14.810  -7.014  0.00  0.00     0.076 H 
BRANCH  11  14
ATOM     14  O05 N7E d   1     -11.897 -15.722  -5.712  0.00  0.00    -0.282 OA
BRANCH  14  15
ATOM     15  P02 N7E d   1     -10.721 -16.066  -4.652  0.00  0.00     0.422 P 
ATOM     16  O01 N7E d   1     -10.203 -14.675  -4.058  0.00  0.00    -0.617 OA
ATOM     17  O03 N7E d   1     -11.352 -16.997  -3.594  0.00  0.00    -0.617 OA
ATOM     18  O04 N7E d   1      -9.627 -16.812  -5.405  0.00  0.00    -0.617 OA
ENDBRANCH  14  15
ENDBRANCH  11  14
ENDBRANCH  10  11
BRANCH  10  19
ATOM     19  C08 N7E d   1     -14.018 -14.165  -7.023  0.00  0.00    -0.065 C 
ATOM     20  H3  N7E d   1     -14.637 -13.257  -7.070  0.00  0.00     0.028 H 
ATOM     21  H4  N7E d   1     -14.272 -14.736  -6.117  0.00  0.00     0.028 H 
ATOM     22  H5  N7E d   1     -14.208 -14.784  -7.912  0.00  0.00     0.028 H 
ENDBRANCH  10  19
BRANCH  10  23
ATOM     23  C09 N7E d   1     -12.116 -13.117  -8.301  0.00  0.00    -0.065 C 
ATOM     24  H6  N7E d   1     -11.053 -12.834  -8.272  0.00  0.00     0.028 H 
ATOM     25  H7  N7E d   1     -12.730 -12.219  -8.465  0.00  0.00     0.028 H 
ATOM     26  H8  N7E d   1     -12.283 -13.830  -9.121  0.00  0.00     0.028 H 
ENDBRANCH  10  23
ENDBRANCH   8  10
BRANCH   8  27
ATOM     27  O11 N7E d   1     -10.773 -12.661  -5.621  0.00  0.00    -0.385 OA
ATOM     28  H10 N7E d   1     -10.360 -13.505  -5.482  0.00  0.00     0.210 HD
ENDBRANCH   8  27
ENDBRANCH   5   8
ENDBRANCH   1   4
BRANCH   1  29
ATOM     29  C16 N7E d   1     -13.038  -8.810  -7.679  0.00  0.00     0.024 C 
ATOM     30  H14 N7E d   1     -13.700  -9.621  -8.017  0.00  0.00     0.049 H 
ATOM     31  H15 N7E d   1     -12.172  -8.738  -8.353  0.00  0.00     0.049 H 
BRANCH  29  32
ATOM     32  C17 N7E d   1     -13.794  -7.496  -7.665  0.00  0.00     0.219 C 
ATOM     33  O18 N7E d   1     -14.972  -7.457  -7.329  0.00  0.00    -0.274 OA
ATOM     34  N19 N7E d   1     -13.104  -6.392  -7.994  0.00  0.00    -0.361 N 
ATOM     35  H16 N7E d   1     -12.148  -6.470  -8.277  0.00  0.00     0.162 HD
BRANCH  34  36
ATOM     36  C20 N7E d   1     -13.729  -5.100  -7.942  0.00  0.00    -0.005 C 
ATOM     37  H17 N7E d   1     -14.098  -4.935  -6.919  0.00  0.00     0.064 H 
ATOM     38  H18 N7E d   1     -14.577  -5.097  -8.642  0.00  0.00     0.064 H 
BRANCH  36  39
ATOM     39  C21 N7E d   1     -12.813  -3.965  -8.304  0.00  0.00    -0.050 C 
ATOM     40  H19 N7E d   1     -11.861  -4.093  -7.769  0.00  0.00     0.035 H 
ATOM     41  H20 N7E d   1     -13.282  -3.019  -7.997  0.00  0.00     0.035 H 
BRANCH  39  42
ATOM     42  C22 N7E d   1     -12.533  -3.911  -9.797  0.00  0.00    -0.062 C 
ATOM     43  H21 N7E d   1     -13.484  -3.998 -10.342  0.00  0.00     0.033 H 
ATOM     44  H22 N7E d   1     -11.877  -4.751 -10.068  0.00  0.00     0.033 H 
BRANCH  42  45
ATOM     45  C23 N7E d   1     -11.858  -2.613 -10.189  0.00  0.00    -0.045 C 
ATOM     46  H23 N7E d   1     -10.873  -2.586  -9.699  0.00  0.00     0.036 H 
ATOM     47  H24 N7E d   1     -12.478  -1.786  -9.812  0.00  0.00     0.036 H 
BRANCH  45  48
ATOM     48  C24 N7E d   1     -11.645  -2.393 -11.649  0.00  0.00     0.019 C 
ATOM     49  H25 N7E d   1     -11.079  -1.460 -11.784  0.00  0.00     0.074 H 
ATOM     50  H26 N7E d   1     -12.627  -2.300 -12.136  0.00  0.00     0.074 H 
BRANCH  48  51
ATOM     51  O25 N7E d   1     -10.919  -3.465 -12.282  0.00  0.00    -0.396 OA
BRANCH  51  52
ATOM     52  C26 N7E d   1     -10.583  -3.176 -13.632  0.00  0.00     0.004 C 
ATOM     53  H27 N7E d   1     -10.033  -4.025 -14.063  0.00  0.00     0.066 H 
ATOM     54  H28 N7E d   1      -9.953  -2.275 -13.668  0.00  0.00     0.066 H 
ATOM     55  H29 N7E d   1     -11.503  -3.004 -14.210  0.00  0.00     0.066 H 
ENDBRANCH  51  52
ENDBRANCH  48  51
ENDBRANCH  45  48
ENDBRANCH  42  45
ENDBRANCH  39  42
ENDBRANCH  36  39
ENDBRANCH  34  36
ENDBRANCH  29  32
ENDBRANCH   1  29
TORSDOF 18
