REMARK  7 active torsions:
REMARK  status: ('A' for Active; 'I' for Inactive)
REMARK    1  A    between atoms: C13_1  and  C16_2 
REMARK    2  A    between atoms: C13_1  and  C10_4 
REMARK    3  A    between atoms: C16_2  and  C19_3 
REMARK    4  A    between atoms: C19_3  and  C22_5 
REMARK    5  A    between atoms: C10_4  and  C02_7 
REMARK    6  A    between atoms: C02_7  and  C04_9 
REMARK    7  A    between atoms: C04_9  and  C07_12 
ROOT
ATOM      1  C13 8PF d   1      -0.441   0.042   7.438  0.00  0.00     0.384 C 
ATOM      2  F14 8PF d   1      -1.217  -1.050   7.350  0.00  0.00    -0.192 F 
ATOM      3  F15 8PF d   1      -1.199   1.161   7.445  0.00  0.00    -0.192 F 
ENDROOT
BRANCH   1   4
ATOM      4  C16 8PF d   1       0.463  -0.131   8.664  0.00  0.00     0.387 C 
ATOM      5  F17 8PF d   1       1.699   0.366   8.517  0.00  0.00    -0.192 F 
ATOM      6  F18 8PF d   1       0.586  -1.445   8.863  0.00  0.00    -0.192 F 
BRANCH   4   7
ATOM      7  C19 8PF d   1      -0.092   0.438   9.949  0.00  0.00     0.409 C 
ATOM      8  F20 8PF d   1       0.571  -0.137  10.971  0.00  0.00    -0.189 F 
ATOM      9  F21 8PF d   1      -1.387   0.115  10.022  0.00  0.00    -0.189 F 
BRANCH   7  10
ATOM     10  C22 8PF d   1       0.099   1.941  10.021  0.00  0.00     0.461 C 
ATOM     11  F23 8PF d   1      -0.878   2.481  10.746  0.00  0.00    -0.165 F 
ATOM     12  F24 8PF d   1       0.098   2.481   8.794  0.00  0.00    -0.165 F 
ATOM     13  F25 8PF d   1       1.250   2.211  10.646  0.00  0.00    -0.165 F 
ENDBRANCH   7  10
ENDBRANCH   4   7
ENDBRANCH   1   4
BRANCH   1  14
ATOM     14  C10 8PF d   1       0.393   0.053   6.188  0.00  0.00     0.385 C 
ATOM     15  F11 8PF d   1       1.110   1.184   6.171  0.00  0.00    -0.192 F 
ATOM     16  F12 8PF d   1       1.170  -1.035   6.262  0.00  0.00    -0.192 F 
BRANCH  14  17
ATOM     17  C02 8PF d   1      -0.435  -0.040   4.924  0.00  0.00     0.389 C 
ATOM     18  F01 8PF d   1      -0.929  -1.280   4.807  0.00  0.00    -0.192 F 
ATOM     19  F03 8PF d   1      -1.420   0.859   4.965  0.00  0.00    -0.192 F 
BRANCH  17  20
ATOM     20  C04 8PF d   1       0.426   0.299   3.728  0.00  0.00     0.399 C 
ATOM     21  F05 8PF d   1       1.577  -0.369   3.815  0.00  0.00    -0.187 F 
ATOM     22  F06 8PF d   1       0.623   1.627   3.705  0.00  0.00    -0.187 F 
BRANCH  20  23
ATOM     23  C07 8PF d   1      -0.214  -0.104   2.423  0.00  0.00     0.255 C 
ATOM     24  O08 8PF d   1      -1.356  -0.633   2.393  0.00  0.00    -0.643 OA
ATOM     25  O09 8PF d   1       0.430   0.096   1.360  0.00  0.00    -0.643 OA
ENDBRANCH  20  23
ENDBRANCH  17  20
ENDBRANCH  14  17
ENDBRANCH   1  14
TORSDOF 7
