REMARK WARNING: 32 MAX_TORS EXCEEDED!!!
REMARK  41 active torsions:
REMARK  status: ('A' for Active; 'I' for Inactive)
REMARK    1  A    between atoms: N_1  and  CA_2 
REMARK    2  A    between atoms: CA_2  and  C_3 
REMARK    3  A    between atoms: CA_2  and  CB_5 
REMARK       I    between atoms: C_3  and  N_10 
REMARK    4  A    between atoms: CB_5  and  CG_6 
REMARK    5  A    between atoms: CG_6  and  CD_7 
REMARK    6  A    between atoms: CD_7  and  CE_8 
REMARK    7  A    between atoms: CE_8  and  NZ_9 
REMARK    8  A    between atoms: N_10  and  CA_11 
REMARK    9  A    between atoms: CA_11  and  C_12 
REMARK   10  A    between atoms: CA_11  and  CB_14 
REMARK       I    between atoms: C_12  and  N_19 
REMARK   11  A    between atoms: CB_14  and  CG_15 
REMARK   12  A    between atoms: CG_15  and  CD_16 
REMARK       I    between atoms: CD_16  and  NE2_18 
REMARK   13  A    between atoms: N_19  and  CA_20 
REMARK   14  A    between atoms: CA_20  and  C_21 
REMARK   15  A    between atoms: CA_20  and  CB_23 
REMARK       I    between atoms: C_21  and  N_26 
REMARK   16  A    between atoms: CB_23  and  OG1_24 
REMARK   17  A    between atoms: CB_23  and  CG2_25 
REMARK   18  A    between atoms: N_26  and  CA_27 
REMARK   19  A    between atoms: CA_27  and  C_28 
REMARK   20  A    between atoms: CA_27  and  CB_30 
REMARK       I    between atoms: C_28  and  N_31 
REMARK   21  A    between atoms: N_31  and  CA_32 
REMARK   22  A    between atoms: CA_32  and  C_33 
REMARK   23  A    between atoms: CA_32  and  CB_35 
REMARK       I    between atoms: C_33  and  N_42 
REMARK   24  A    between atoms: CB_35  and  CG_36 
REMARK   25  A    between atoms: CG_36  and  CD_37 
REMARK   26  A    between atoms: CD_37  and  NE_38 
REMARK       I    between atoms: NE_38  and  CZ_39 
REMARK       I    between atoms: CZ_39  and  NH1_40 
REMARK   27  A    between atoms: N_42  and  CA_43 
REMARK   28  A    between atoms: CA_43  and  C_44 
REMARK   29  A    between atoms: CA_43  and  CB_46 
REMARK       I    between atoms: C_44  and  N_50 
REMARK   30  A    between atoms: CB_46  and  CG_47 
REMARK   31  A    between atoms: CG_47  and  SD_48 
REMARK   32  A    between atoms: SD_48  and  CE_49 
REMARK   33  A    between atoms: N_50  and  CA_51 
REMARK   34  A    between atoms: CA_51  and  C_52 
REMARK   35  A    between atoms: CA_51  and  CB_54 
REMARK       I    between atoms: C_52  and  N_56 
REMARK   36  A    between atoms: CB_54  and  OG_55 
REMARK   37  A    between atoms: N_56  and  CA_57 
REMARK   38  A    between atoms: CA_57  and  C_58 
REMARK   39  A    between atoms: CA_57  and  CB_60 
REMARK   40  A    between atoms: CB_60  and  OG1_61 
REMARK   41  A    between atoms: CB_60  and  CG2_62 
ROOT
ATOM      1  C   ALA d   1      93.447  11.802  59.565  0.00  0.00     0.240 C 
ATOM      2  O   ALA d   1      93.536  11.636  60.767  0.00  0.00    -0.271 OA
ATOM      3  N   ARG d   1      92.329  11.607  58.886  0.00  0.00    -0.346 N 
ATOM      4  H36 ARG d   1      92.315  11.799  57.905  0.00  0.00     0.163 HD
ENDROOT
BRANCH   3   5
ATOM      5  CA  ARG d   1      91.146  11.131  59.515  0.00  0.00     0.089 C 
ATOM      6  H37 ARG d   1      91.397  10.705  60.498  0.00  0.00     0.087 H 
BRANCH   5   7
ATOM      7  C   ARG d   1      90.560  10.074  58.613  0.00  0.00     0.241 C 
ATOM      8  O   ARG d   1      90.303  10.314  57.401  0.00  0.00    -0.271 OA
ATOM      9  N   MET d   1      90.226   8.949  59.228  0.00  0.00    -0.346 N 
ATOM     10  H49 MET d   1      90.591   8.763  60.140  0.00  0.00     0.163 HD
BRANCH   9  11
ATOM     11  CA  MET d   1      89.343   7.982  58.606  0.00  0.00     0.090 C 
ATOM     12  H50 MET d   1      89.653   7.796  57.567  0.00  0.00     0.087 H 
BRANCH  11  13
ATOM     13  C   MET d   1      87.946   8.553  58.648  0.00  0.00     0.241 C 
ATOM     14  O   MET d   1      87.576   9.343  59.575  0.00  0.00    -0.271 OA
ATOM     15  N   SER d   1      87.130   8.159  57.699  0.00  0.00    -0.344 N 
ATOM     16  H58 SER d   1      87.395   7.420  57.080  0.00  0.00     0.163 HD
BRANCH  15  17
ATOM     17  CA  SER d   1      85.852   8.799  57.557  0.00  0.00     0.109 C 
ATOM     18  H59 SER d   1      85.391   8.945  58.545  0.00  0.00     0.090 H 
BRANCH  17  19
ATOM     19  C   SER d   1      84.986   7.876  56.736  0.00  0.00     0.243 C 
ATOM     20  O   SER d   1      85.519   7.106  56.021  0.00  0.00    -0.271 OA
ATOM     21  N   THR d   1      83.665   7.907  56.914  0.00  0.00    -0.342 N 
ATOM     22  H63 THR d   1      83.290   8.562  57.570  0.00  0.00     0.163 HD
BRANCH  21  23
ATOM     23  CA  THR d   1      82.735   7.030  56.198  0.00  0.00     0.120 C 
ATOM     24  H64 THR d   1      83.041   5.985  56.352  0.00  0.00     0.093 H 
BRANCH  23  25
ATOM     25  C   THR d   1      82.682   7.342  54.719  0.00  0.00     0.199 C 
ATOM     26  O   THR d   1      82.638   8.516  54.355  0.00  0.00    -0.646 OA
ATOM     27  OXT THR d   1      82.684   6.415  53.910  0.00  0.00    -0.646 OA
ENDBRANCH  23  25
BRANCH  23  28
ATOM     28  CB  THR d   1      81.310   7.243  56.694  0.00  0.00     0.061 C 
ATOM     29  H65 THR d   1      80.617   6.672  56.059  0.00  0.00     0.086 H 
BRANCH  28  30
ATOM     30  OG1 THR d   1      81.009   8.641  56.601  0.00  0.00    -0.393 OA
ATOM     31  H66 THR d   1      81.086   8.921  55.697  0.00  0.00     0.210 HD
ENDBRANCH  28  30
BRANCH  28  32
ATOM     32  CG2 THR d   1      81.143   6.790  58.143  0.00  0.00    -0.050 C 
ATOM     33  H67 THR d   1      80.104   6.960  58.463  0.00  0.00     0.031 H 
ATOM     34  H68 THR d   1      81.824   7.365  58.788  0.00  0.00     0.031 H 
ATOM     35  H69 THR d   1      81.381   5.719  58.222  0.00  0.00     0.031 H 
ENDBRANCH  28  32
ENDBRANCH  23  28
ENDBRANCH  21  23
ENDBRANCH  17  19
BRANCH  17  36
ATOM     36  CB  SER d   1      86.060  10.187  56.889  0.00  0.00     0.044 C 
ATOM     37  H60 SER d   1      86.899  10.705  57.377  0.00  0.00     0.077 H 
ATOM     38  H61 SER d   1      85.144  10.786  57.000  0.00  0.00     0.077 H 
BRANCH  36  39
ATOM     39  OG  SER d   1      86.347  10.020  55.519  0.00  0.00    -0.398 OA
ATOM     40  H62 SER d   1      87.138   9.503  55.423  0.00  0.00     0.209 HD
ENDBRANCH  36  39
ENDBRANCH  17  36
ENDBRANCH  15  17
ENDBRANCH  11  13
BRANCH  11  41
ATOM     41  CB  MET d   1      89.360   6.683  59.395  0.00  0.00    -0.030 C 
ATOM     42  H51 MET d   1      88.732   5.947  58.871  0.00  0.00     0.037 H 
ATOM     43  H52 MET d   1      88.943   6.875  60.395  0.00  0.00     0.037 H 
BRANCH  41  44
ATOM     44  CG  MET d   1      90.760   6.097  59.558  0.00  0.00    -0.021 C 
ATOM     45  H53 MET d   1      91.444   6.884  59.909  0.00  0.00     0.049 H 
ATOM     46  H54 MET d   1      91.109   5.714  58.588  0.00  0.00     0.049 H 
BRANCH  44  47
ATOM     47  SD  MET d   1      90.737   4.728  60.776  0.00  0.00    -0.173 SA
BRANCH  47  48
ATOM     48  CE  MET d   1      92.278   4.959  61.611  0.00  0.00    -0.035 C 
ATOM     49  H55 MET d   1      92.395   4.187  62.386  0.00  0.00     0.041 H 
ATOM     50  H56 MET d   1      92.296   5.954  62.080  0.00  0.00     0.041 H 
ATOM     51  H57 MET d   1      93.103   4.880  60.887  0.00  0.00     0.041 H 
ENDBRANCH  47  48
ENDBRANCH  44  47
ENDBRANCH  41  44
ENDBRANCH  11  41
ENDBRANCH   9  11
ENDBRANCH   5   7
BRANCH   5  52
ATOM     52  CB  ARG d   1      90.064  12.257  59.694  0.00  0.00    -0.036 C 
ATOM     53  H38 ARG d   1      89.322  11.886  60.417  0.00  0.00     0.036 H 
ATOM     54  H39 ARG d   1      89.581  12.406  58.717  0.00  0.00     0.036 H 
BRANCH  52  55
ATOM     55  CG  ARG d   1      90.527  13.613  60.179  0.00  0.00    -0.048 C 
ATOM     56  H40 ARG d   1      89.692  14.324  60.089  0.00  0.00     0.035 H 
ATOM     57  H41 ARG d   1      91.363  13.947  59.547  0.00  0.00     0.035 H 
BRANCH  55  58
ATOM     58  CD  ARG d   1      90.984  13.588  61.604  0.00  0.00     0.009 C 
ATOM     59  H42 ARG d   1      91.814  12.873  61.710  0.00  0.00     0.064 H 
ATOM     60  H43 ARG d   1      90.150  13.280  62.251  0.00  0.00     0.064 H 
BRANCH  58  61
ATOM     61  NE  ARG d   1      91.440  14.930  61.998  0.00  0.00    -0.227 N 
ATOM     62  CZ  ARG d   1      90.673  15.935  62.409  0.00  0.00     0.665 C 
ATOM     63  NH1 ARG d   1      89.368  15.820  62.502  0.00  0.00    -0.235 N 
ATOM     64  NH2 ARG d   1      91.249  17.080  62.732  0.00  0.00    -0.235 N 
ATOM     65  H45 ARG d   1      88.802  16.618  62.824  0.00  0.00     0.174 HD
ATOM     66  H46 ARG d   1      88.910  14.932  62.253  0.00  0.00     0.174 HD
ATOM     67  H47 ARG d   1      92.272  17.180  62.662  0.00  0.00     0.174 HD
ATOM     68  H48 ARG d   1      90.675  17.873  63.053  0.00  0.00     0.174 HD
ATOM     69  H44 ARG d   1      92.453  15.108  61.951  0.00  0.00     0.177 HD
ENDBRANCH  58  61
ENDBRANCH  55  58
ENDBRANCH  52  55
ENDBRANCH   5  52
ENDBRANCH   3   5
BRANCH   1  70
ATOM     70  CA  ALA d   1      94.691  12.261  58.779  0.00  0.00     0.086 C 
ATOM     71  H32 ALA d   1      94.383  12.629  57.789  0.00  0.00     0.086 H 
BRANCH  70  72
ATOM     72  N   ALA d   1      95.392  13.354  59.523  0.00  0.00    -0.346 N 
ATOM     73  C   THR d   1      94.841  14.536  59.748  0.00  0.00     0.243 C 
ATOM     74  O   THR d   1      93.759  14.908  59.275  0.00  0.00    -0.271 OA
ATOM     75  H31 ALA d   1      96.316  13.184  59.865  0.00  0.00     0.163 HD
BRANCH  73  76
ATOM     76  CA  THR d   1      95.646  15.434  60.629  0.00  0.00     0.113 C 
ATOM     77  H25 THR d   1      96.715  15.266  60.430  0.00  0.00     0.091 H 
BRANCH  76  78
ATOM     78  N   THR d   1      95.327  16.825  60.300  0.00  0.00    -0.344 N 
ATOM     79  C   GLN d   1      96.305  17.660  59.960  0.00  0.00     0.241 C 
ATOM     80  O   GLN d   1      97.471  17.290  59.887  0.00  0.00    -0.271 OA
ATOM     81  H24 THR d   1      94.380  17.145  60.331  0.00  0.00     0.163 HD
BRANCH  79  82
ATOM     82  CA  GLN d   1      95.952  19.133  59.678  0.00  0.00     0.090 C 
ATOM     83  H17 GLN d   1      96.585  19.468  58.844  0.00  0.00     0.087 H 
BRANCH  82  84
ATOM     84  N   GLN d   1      94.569  19.314  59.271  0.00  0.00    -0.346 N 
ATOM     85  C   LYS d   1      94.149  19.070  58.030  0.00  0.00     0.248 C 
ATOM     86  O   LYS d   1      94.880  18.629  57.132  0.00  0.00    -0.271 OA
ATOM     87  H16 GLN d   1      93.907  19.634  59.948  0.00  0.00     0.163 HD
BRANCH  85  88
ATOM     88  CA  LYS d   1      92.675  19.329  57.774  0.00  0.00     0.176 C 
ATOM     89  H4  LYS d   1      92.416  20.305  58.211  0.00  0.00     0.099 H 
BRANCH  88  90
ATOM     90  N   LYS d   1      92.330  19.378  56.308  0.00  0.00    -0.067 N 
ATOM     91  H1  LYS d   1      91.343  19.552  56.201  0.00  0.00     0.275 HD
ATOM     92  H2  LYS d   1      92.564  18.497  55.878  0.00  0.00     0.275 HD
ATOM     93  H3  LYS d   1      92.852  20.118  55.865  0.00  0.00     0.275 HD
ENDBRANCH  88  90
BRANCH  88  94
ATOM     94  CB  LYS d   1      91.863  18.236  58.495  0.00  0.00    -0.030 C 
ATOM     95  H5  LYS d   1      92.124  18.258  59.563  0.00  0.00     0.036 H 
ATOM     96  H6  LYS d   1      92.140  17.260  58.070  0.00  0.00     0.036 H 
BRANCH  94  97
ATOM     97  CG  LYS d   1      90.352  18.406  58.365  0.00  0.00    -0.061 C 
ATOM     98  H7  LYS d   1      90.049  18.058  57.366  0.00  0.00     0.033 H 
ATOM     99  H8  LYS d   1      90.113  19.475  58.469  0.00  0.00     0.033 H 
BRANCH  97 100
ATOM    100  CD  LYS d   1      89.551  17.631  59.407  0.00  0.00    -0.043 C 
ATOM    101  H9  LYS d   1      89.960  17.836  60.407  0.00  0.00     0.035 H 
ATOM    102  H10 LYS d   1      89.624  16.554  59.195  0.00  0.00     0.035 H 
BRANCH 100 103
ATOM    103  CE  LYS d   1      88.089  18.056  59.363  0.00  0.00     0.080 C 
ATOM    104  H11 LYS d   1      87.716  17.898  58.340  0.00  0.00     0.075 H 
ATOM    105  H12 LYS d   1      88.034  19.126  59.612  0.00  0.00     0.075 H 
BRANCH 103 106
ATOM    106  NZ  LYS d   1      87.202  17.313  60.303  0.00  0.00    -0.079 N 
ATOM    107  H13 LYS d   1      86.257  17.652  60.212  0.00  0.00     0.274 HD
ATOM    108  H14 LYS d   1      87.521  17.455  61.249  0.00  0.00     0.274 HD
ATOM    109  H15 LYS d   1      87.228  16.329  60.084  0.00  0.00     0.274 HD
ENDBRANCH 103 106
ENDBRANCH 100 103
ENDBRANCH  97 100
ENDBRANCH  94  97
ENDBRANCH  88  94
ENDBRANCH  85  88
ENDBRANCH  82  84
BRANCH  82 110
ATOM    110  CB  GLN d   1      96.285  20.021  60.915  0.00  0.00    -0.030 C 
ATOM    111  H18 GLN d   1      97.340  19.860  61.180  0.00  0.00     0.037 H 
ATOM    112  H19 GLN d   1      95.644  19.702  61.750  0.00  0.00     0.037 H 
BRANCH 110 113
ATOM    113  CG  GLN d   1      96.070  21.530  60.693  0.00  0.00     0.011 C 
ATOM    114  H20 GLN d   1      96.693  22.078  61.415  0.00  0.00     0.047 H 
ATOM    115  H21 GLN d   1      95.010  21.759  60.876  0.00  0.00     0.047 H 
BRANCH 113 116
ATOM    116  CD  GLN d   1      96.437  22.017  59.259  0.00  0.00     0.215 C 
ATOM    117  OE1 GLN d   1      95.620  22.636  58.526  0.00  0.00    -0.274 OA
ATOM    118  NE2 GLN d   1      97.674  21.717  58.843  0.00  0.00    -0.370 N 
ATOM    119  H22 GLN d   1      97.977  21.999  57.933  0.00  0.00     0.159 HD
ATOM    120  H23 GLN d   1      98.294  21.211  59.443  0.00  0.00     0.159 HD
ENDBRANCH 113 116
ENDBRANCH 110 113
ENDBRANCH  82 110
ENDBRANCH  79  82
ENDBRANCH  76  78
BRANCH  76 121
ATOM    121  CB  THR d   1      95.377  15.101  62.085  0.00  0.00     0.060 C 
ATOM    122  H26 THR d   1      95.393  14.007  62.202  0.00  0.00     0.086 H 
BRANCH 121 123
ATOM    123  OG1 THR d   1      94.069  15.581  62.435  0.00  0.00    -0.393 OA
ATOM    124  H27 THR d   1      93.891  15.377  63.346  0.00  0.00     0.210 HD
ENDBRANCH 121 123
BRANCH 121 125
ATOM    125  CG2 THR d   1      96.443  15.691  63.008  0.00  0.00    -0.050 C 
ATOM    126  H28 THR d   1      96.212  15.428  64.051  0.00  0.00     0.031 H 
ATOM    127  H29 THR d   1      96.456  16.786  62.901  0.00  0.00     0.031 H 
ATOM    128  H30 THR d   1      97.428  15.284  62.737  0.00  0.00     0.031 H 
ENDBRANCH 121 125
ENDBRANCH  76 121
ENDBRANCH  73  76
ENDBRANCH  70  72
BRANCH  70 129
ATOM    129  CB  ALA d   1      95.651  11.082  58.614  0.00  0.00    -0.049 C 
ATOM    130  H33 ALA d   1      95.146  10.272  58.068  0.00  0.00     0.030 H 
ATOM    131  H34 ALA d   1      95.960  10.719  59.605  0.00  0.00     0.030 H 
ATOM    132  H35 ALA d   1      96.538  11.407  58.050  0.00  0.00     0.030 H 
ENDBRANCH  70 129
ENDBRANCH   1  70
TORSDOF 41
