REMARK  6 active torsions:
REMARK  status: ('A' for Active; 'I' for Inactive)
REMARK    1  A    between atoms: OAD_1  and  CAO_2 
REMARK    2  A    between atoms: CAM_4  and  OAB_5 
REMARK    3  A    between atoms: CAQ_8  and  CAL_9 
REMARK    4  A    between atoms: CAL_9  and  CAR_11 
REMARK    5  A    between atoms: CAN_14  and  OAC_15 
REMARK    6  A    between atoms: CAP_17  and  OAE_18 
ROOT
ATOM      1  CAL 27M d   1       0.560  -1.537   7.827  0.00  0.00     0.197 C 
ATOM      2  OAA 27M d   1       0.579  -2.661   8.287  0.00  0.00    -0.286 OA
ENDROOT
BRANCH   1   3
ATOM      3  CAQ 27M d   1       0.502  -1.300   6.341  0.00  0.00     0.048 A 
ATOM      4  CAO 27M d   1       1.275  -2.064   5.479  0.00  0.00     0.082 A 
ATOM      5  CAJ 27M d   1       1.206  -1.829   4.125  0.00  0.00    -0.018 A 
ATOM      6  CAM 27M d   1       0.380  -0.838   3.626  0.00  0.00     0.068 A 
ATOM      7  H2  27M d   1       1.803  -2.425   3.444  0.00  0.00     0.092 H 
ATOM      8  CAF 27M d   1      -0.383  -0.071   4.475  0.00  0.00    -0.050 A 
ATOM      9  CAH 27M d   1      -0.327  -0.305   5.831  0.00  0.00    -0.064 A 
ATOM     10  H4  27M d   1      -1.022   0.710   4.081  0.00  0.00     0.087 H 
ATOM     11  H5  27M d   1      -0.932   0.290   6.505  0.00  0.00     0.085 H 
BRANCH   4  12
ATOM     12  OAD 27M d   1       2.085  -3.050   5.943  0.00  0.00    -0.360 OA
ATOM     13  H1  27M d   1       2.024  -3.089   6.890  0.00  0.00     0.217 HD
ENDBRANCH   4  12
BRANCH   6  14
ATOM     14  OAB 27M d   1       0.316  -0.604   2.252  0.00  0.00    -0.361 OA
ATOM     15  H3  27M d   1      -0.294   0.104   2.081  0.00  0.00     0.217 HD
ENDBRANCH   6  14
ENDBRANCH   1   3
BRANCH   1  16
ATOM     16  CAR 27M d   1       0.576  -0.345   8.745  0.00  0.00     0.048 A 
ATOM     17  CAI 27M d   1       0.954   0.907   8.289  0.00  0.00    -0.064 A 
ATOM     18  CAG 27M d   1       0.937   1.975   9.153  0.00  0.00    -0.050 A 
ATOM     19  H6  27M d   1       1.261   1.043   7.258  0.00  0.00     0.085 H 
ATOM     20  CAN 27M d   1       0.561   1.784  10.464  0.00  0.00     0.068 A 
ATOM     21  H7  27M d   1       1.218   2.962   8.805  0.00  0.00     0.087 H 
ATOM     22  CAK 27M d   1       0.182   0.536  10.933  0.00  0.00    -0.018 A 
ATOM     23  CAP 27M d   1       0.193  -0.528  10.061  0.00  0.00     0.082 A 
ATOM     24  H9  27M d   1      -0.117   0.401  11.966  0.00  0.00     0.092 H 
BRANCH  20  25
ATOM     25  OAC 27M d   1       0.573   2.892  11.309  0.00  0.00    -0.361 OA
ATOM     26  H8  27M d   1       0.295   2.629  12.178  0.00  0.00     0.217 HD
ENDBRANCH  20  25
BRANCH  23  27
ATOM     27  OAE 27M d   1      -0.178  -1.772  10.477  0.00  0.00    -0.360 OA
ATOM     28  H10 27M d   1      -0.111  -2.381   9.751  0.00  0.00     0.217 HD
ENDBRANCH  23  27
ENDBRANCH   1  16
TORSDOF 6
