REMARK WARNING: 32 MAX_TORS EXCEEDED!!!
REMARK  41 active torsions:
REMARK  status: ('A' for Active; 'I' for Inactive)
REMARK    1  A    between atoms: N_1  and  CA_2 
REMARK    2  A    between atoms: CA_2  and  C_3 
REMARK    3  A    between atoms: CA_2  and  CB_5 
REMARK       I    between atoms: C_3  and  N_10 
REMARK    4  A    between atoms: CB_5  and  CG_6 
REMARK    5  A    between atoms: CG_6  and  CD_7 
REMARK    6  A    between atoms: CD_7  and  CE_8 
REMARK    7  A    between atoms: CE_8  and  NZ_9 
REMARK    8  A    between atoms: N_10  and  CA_11 
REMARK    9  A    between atoms: CA_11  and  C_12 
REMARK   10  A    between atoms: CA_11  and  CB_14 
REMARK       I    between atoms: C_12  and  N_19 
REMARK   11  A    between atoms: CB_14  and  CG_15 
REMARK   12  A    between atoms: CG_15  and  CD_16 
REMARK       I    between atoms: CD_16  and  NE2_18 
REMARK   13  A    between atoms: N_19  and  CA_20 
REMARK   14  A    between atoms: CA_20  and  C_21 
REMARK   15  A    between atoms: CA_20  and  CB_23 
REMARK       I    between atoms: C_21  and  N_26 
REMARK   16  A    between atoms: CB_23  and  OG1_24 
REMARK   17  A    between atoms: CB_23  and  CG2_25 
REMARK   18  A    between atoms: N_26  and  CA_27 
REMARK   19  A    between atoms: CA_27  and  C_28 
REMARK   20  A    between atoms: CA_27  and  CB_30 
REMARK       I    between atoms: C_28  and  N_31 
REMARK   21  A    between atoms: N_31  and  CA_32 
REMARK   22  A    between atoms: CA_32  and  C_33 
REMARK   23  A    between atoms: CA_32  and  CB_35 
REMARK       I    between atoms: C_33  and  N_42 
REMARK   24  A    between atoms: CB_35  and  CG_36 
REMARK   25  A    between atoms: CG_36  and  CD_37 
REMARK   26  A    between atoms: CD_37  and  NE_38 
REMARK       I    between atoms: NE_38  and  CZ_39 
REMARK       I    between atoms: CZ_39  and  NH1_40 
REMARK   27  A    between atoms: N_42  and  CA_43 
REMARK   28  A    between atoms: CA_43  and  C_44 
REMARK   29  A    between atoms: CA_43  and  CB_46 
REMARK       I    between atoms: C_44  and  N_50 
REMARK   30  A    between atoms: CB_46  and  CG_47 
REMARK   31  A    between atoms: CG_47  and  CD_48 
REMARK   32  A    between atoms: CD_48  and  CE_49 
REMARK   33  A    between atoms: N_50  and  CA_51 
REMARK   34  A    between atoms: CA_51  and  C_52 
REMARK   35  A    between atoms: CA_51  and  CB_54 
REMARK       I    between atoms: C_52  and  N_56 
REMARK   36  A    between atoms: CB_54  and  OG_55 
REMARK   37  A    between atoms: N_56  and  CA_57 
REMARK   38  A    between atoms: CA_57  and  C_58 
REMARK   39  A    between atoms: CA_57  and  CB_60 
REMARK   40  A    between atoms: CB_60  and  OG1_61 
REMARK   41  A    between atoms: CB_60  and  CG2_62 
ROOT
ATOM      1  C   ALA d   1      94.066  10.621 132.730  0.00  0.00     0.240 C 
ATOM      2  O   ALA d   1      94.219  10.401 133.945  0.00  0.00    -0.271 OA
ATOM      3  N   ARG d   1      92.972  10.464 132.036  0.00  0.00    -0.346 N 
ATOM      4  H36 ARG d   1      92.999  10.647 131.053  0.00  0.00     0.163 HD
ENDROOT
BRANCH   3   5
ATOM      5  CA  ARG d   1      91.706  10.032 132.633  0.00  0.00     0.089 C 
ATOM      6  H37 ARG d   1      91.909   9.675 133.654  0.00  0.00     0.087 H 
BRANCH   5   7
ATOM      7  C   ARG d   1      91.132   8.909 131.835  0.00  0.00     0.241 C 
ATOM      8  O   ARG d   1      90.931   9.062 130.661  0.00  0.00    -0.271 OA
ATOM      9  N   NLE d   1      90.800   7.762 132.483  0.00  0.00    -0.346 N 
ATOM     10  H49 NLE d   1      91.167   7.577 133.395  0.00  0.00     0.163 HD
BRANCH   9  11
ATOM     11  CA  NLE d   1      89.934   6.829 131.865  0.00  0.00     0.089 C 
ATOM     12  H50 NLE d   1      90.263   6.649 130.831  0.00  0.00     0.087 H 
BRANCH  11  13
ATOM     13  C   NLE d   1      88.552   7.351 131.874  0.00  0.00     0.241 C 
ATOM     14  O   NLE d   1      88.227   8.185 132.701  0.00  0.00    -0.271 OA
ATOM     15  N   SER d   1      87.733   6.913 130.951  0.00  0.00    -0.344 N 
ATOM     16  H60 SER d   1      88.009   6.158 130.356  0.00  0.00     0.163 HD
BRANCH  15  17
ATOM     17  CA  SER d   1      86.449   7.511 130.793  0.00  0.00     0.109 C 
ATOM     18  H61 SER d   1      85.985   7.623 131.784  0.00  0.00     0.090 H 
BRANCH  17  19
ATOM     19  C   SER d   1      85.566   6.594 129.973  0.00  0.00     0.243 C 
ATOM     20  O   SER d   1      86.062   5.703 129.313  0.00  0.00    -0.271 OA
ATOM     21  N   THR d   1      84.268   6.785 130.050  0.00  0.00    -0.342 N 
ATOM     22  H65 THR d   1      83.920   7.470 130.691  0.00  0.00     0.163 HD
BRANCH  21  23
ATOM     23  CA  THR d   1      83.301   6.027 129.226  0.00  0.00     0.120 C 
ATOM     24  H66 THR d   1      83.644   4.985 129.142  0.00  0.00     0.093 H 
BRANCH  23  25
ATOM     25  C   THR d   1      83.180   6.648 127.825  0.00  0.00     0.199 C 
ATOM     26  O   THR d   1      83.581   7.811 127.686  0.00  0.00    -0.646 OA
ATOM     27  OXT THR d   1      82.690   5.941 126.934  0.00  0.00    -0.646 OA
ENDBRANCH  23  25
BRANCH  23  28
ATOM     28  CB  THR d   1      81.915   6.059 129.841  0.00  0.00     0.061 C 
ATOM     29  H67 THR d   1      81.230   5.463 129.220  0.00  0.00     0.086 H 
BRANCH  28  30
ATOM     30  OG1 THR d   1      81.459   7.423 129.909  0.00  0.00    -0.393 OA
ATOM     31  H68 THR d   1      82.058   7.930 130.445  0.00  0.00     0.210 HD
ENDBRANCH  28  30
BRANCH  28  32
ATOM     32  CG2 THR d   1      81.919   5.520 131.247  0.00  0.00    -0.050 C 
ATOM     33  H69 THR d   1      80.899   5.559 131.658  0.00  0.00     0.031 H 
ATOM     34  H70 THR d   1      82.590   6.129 131.871  0.00  0.00     0.031 H 
ATOM     35  H71 THR d   1      82.271   4.478 131.239  0.00  0.00     0.031 H 
ENDBRANCH  28  32
ENDBRANCH  23  28
ENDBRANCH  21  23
ENDBRANCH  17  19
BRANCH  17  36
ATOM     36  CB  SER d   1      86.631   8.927 130.192  0.00  0.00     0.044 C 
ATOM     37  H62 SER d   1      87.462   9.433 130.705  0.00  0.00     0.077 H 
ATOM     38  H63 SER d   1      85.705   9.503 130.337  0.00  0.00     0.077 H 
BRANCH  36  39
ATOM     39  OG  SER d   1      86.921   8.848 128.793  0.00  0.00    -0.398 OA
ATOM     40  H64 SER d   1      87.722   8.354 128.664  0.00  0.00     0.209 HD
ENDBRANCH  36  39
ENDBRANCH  17  36
ENDBRANCH  15  17
ENDBRANCH  11  13
BRANCH  11  41
ATOM     41  CB  NLE d   1      89.939   5.493 132.668  0.00  0.00    -0.038 C 
ATOM     42  H51 NLE d   1      89.347   4.755 132.107  0.00  0.00     0.036 H 
ATOM     43  H52 NLE d   1      89.466   5.678 133.643  0.00  0.00     0.036 H 
BRANCH  41  44
ATOM     44  CG  NLE d   1      91.309   4.906 132.915  0.00  0.00    -0.063 C 
ATOM     45  H53 NLE d   1      92.042   5.713 133.063  0.00  0.00     0.033 H 
ATOM     46  H54 NLE d   1      91.612   4.288 132.057  0.00  0.00     0.033 H 
BRANCH  44  47
ATOM     47  CD  NLE d   1      91.220   4.014 134.216  0.00  0.00    -0.068 C 
ATOM     48  H55 NLE d   1      90.322   3.382 134.157  0.00  0.00     0.032 H 
ATOM     49  H56 NLE d   1      91.151   4.669 135.097  0.00  0.00     0.032 H 
BRANCH  47  50
ATOM     50  CE  NLE d   1      92.433   3.132 134.354  0.00  0.00    -0.077 C 
ATOM     51  H57 NLE d   1      92.343   2.524 135.267  0.00  0.00     0.027 H 
ATOM     52  H58 NLE d   1      93.336   3.757 134.418  0.00  0.00     0.027 H 
ATOM     53  H59 NLE d   1      92.507   2.470 133.479  0.00  0.00     0.027 H 
ENDBRANCH  47  50
ENDBRANCH  44  47
ENDBRANCH  41  44
ENDBRANCH  11  41
ENDBRANCH   9  11
ENDBRANCH   5   7
BRANCH   5  54
ATOM     54  CB  ARG d   1      90.673  11.192 132.715  0.00  0.00    -0.036 C 
ATOM     55  H38 ARG d   1      89.841  10.868 133.358  0.00  0.00     0.036 H 
ATOM     56  H39 ARG d   1      90.297  11.391 131.701  0.00  0.00     0.036 H 
BRANCH  54  57
ATOM     57  CG  ARG d   1      91.236  12.491 133.280  0.00  0.00    -0.048 C 
ATOM     58  H40 ARG d   1      90.490  13.284 133.126  0.00  0.00     0.035 H 
ATOM     59  H41 ARG d   1      92.153  12.738 132.725  0.00  0.00     0.035 H 
BRANCH  57  60
ATOM     60  CD  ARG d   1      91.584  12.441 134.791  0.00  0.00     0.009 C 
ATOM     61  H42 ARG d   1      92.359  11.681 134.970  0.00  0.00     0.064 H 
ATOM     62  H43 ARG d   1      90.684  12.191 135.372  0.00  0.00     0.064 H 
BRANCH  60  63
ATOM     63  NE  ARG d   1      92.090  13.781 135.196  0.00  0.00    -0.227 N 
ATOM     64  CZ  ARG d   1      91.293  14.780 135.605  0.00  0.00     0.665 C 
ATOM     65  NH1 ARG d   1      89.995  14.620 135.684  0.00  0.00    -0.235 N 
ATOM     66  NH2 ARG d   1      91.840  15.945 135.949  0.00  0.00    -0.235 N 
ATOM     67  H45 ARG d   1      89.398  15.398 136.000  0.00  0.00     0.174 HD
ATOM     68  H46 ARG d   1      89.571  13.716 135.430  0.00  0.00     0.174 HD
ATOM     69  H47 ARG d   1      92.860  16.073 135.888  0.00  0.00     0.174 HD
ATOM     70  H48 ARG d   1      91.243  16.718 136.276  0.00  0.00     0.174 HD
ATOM     71  H44 ARG d   1      93.105  13.950 135.160  0.00  0.00     0.177 HD
ENDBRANCH  60  63
ENDBRANCH  57  60
ENDBRANCH  54  57
ENDBRANCH   5  54
ENDBRANCH   3   5
BRANCH   1  72
ATOM     72  CA  ALA d   1      95.263  11.126 131.938  0.00  0.00     0.086 C 
ATOM     73  H32 ALA d   1      94.941  11.546 130.974  0.00  0.00     0.086 H 
BRANCH  72  74
ATOM     74  N   ALA d   1      95.961  12.132 132.723  0.00  0.00    -0.346 N 
ATOM     75  C   THR d   1      95.481  13.358 132.947  0.00  0.00     0.243 C 
ATOM     76  O   THR d   1      94.439  13.709 132.486  0.00  0.00    -0.271 OA
ATOM     77  H31 ALA d   1      96.849  11.893 133.116  0.00  0.00     0.163 HD
BRANCH  75  78
ATOM     78  CA  THR d   1      96.391  14.252 133.777  0.00  0.00     0.113 C 
ATOM     79  H25 THR d   1      97.440  14.022 133.538  0.00  0.00     0.091 H 
BRANCH  78  80
ATOM     80  N   THR d   1      96.132  15.681 133.467  0.00  0.00    -0.344 N 
ATOM     81  C   GLN d   1      97.133  16.471 133.073  0.00  0.00     0.241 C 
ATOM     82  O   GLN d   1      98.300  16.079 133.012  0.00  0.00    -0.271 OA
ATOM     83  H24 THR d   1      95.207  16.052 133.554  0.00  0.00     0.163 HD
BRANCH  81  84
ATOM     84  CA  GLN d   1      96.736  17.938 132.759  0.00  0.00     0.090 C 
ATOM     85  H17 GLN d   1      97.319  18.271 131.888  0.00  0.00     0.087 H 
BRANCH  84  86
ATOM     86  N   GLN d   1      95.346  17.997 132.453  0.00  0.00    -0.346 N 
ATOM     87  C   LYS d   1      94.892  17.846 131.242  0.00  0.00     0.248 C 
ATOM     88  O   LYS d   1      95.603  17.519 130.284  0.00  0.00    -0.271 OA
ATOM     89  H16 GLN d   1      94.696  18.160 133.195  0.00  0.00     0.163 HD
BRANCH  87  90
ATOM     90  CA  LYS d   1      93.441  18.101 131.107  0.00  0.00     0.176 C 
ATOM     91  H4  LYS d   1      93.204  19.081 131.546  0.00  0.00     0.099 H 
BRANCH  90  92
ATOM     92  N   LYS d   1      93.065  18.098 129.683  0.00  0.00    -0.067 N 
ATOM     93  H1  LYS d   1      92.076  18.272 129.596  0.00  0.00     0.275 HD
ATOM     94  H2  LYS d   1      93.285  17.201 129.279  0.00  0.00     0.275 HD
ATOM     95  H3  LYS d   1      93.577  18.819 129.199  0.00  0.00     0.275 HD
ENDBRANCH  90  92
BRANCH  90  96
ATOM     96  CB  LYS d   1      92.632  16.995 131.847  0.00  0.00    -0.030 C 
ATOM     97  H5  LYS d   1      92.843  17.062 132.924  0.00  0.00     0.036 H 
ATOM     98  H6  LYS d   1      92.951  16.012 131.471  0.00  0.00     0.036 H 
BRANCH  96  99
ATOM     99  CG  LYS d   1      91.149  17.138 131.634  0.00  0.00    -0.061 C 
ATOM    100  H7  LYS d   1      90.918  16.842 130.600  0.00  0.00     0.033 H 
ATOM    101  H8  LYS d   1      90.879  18.194 131.782  0.00  0.00     0.033 H 
BRANCH  99 102
ATOM    102  CD  LYS d   1      90.300  16.289 132.576  0.00  0.00    -0.043 C 
ATOM    103  H9  LYS d   1      90.724  16.332 133.590  0.00  0.00     0.035 H 
ATOM    104  H10 LYS d   1      90.294  15.247 132.225  0.00  0.00     0.035 H 
BRANCH 102 105
ATOM    105  CE  LYS d   1      88.868  16.827 132.599  0.00  0.00     0.080 C 
ATOM    106  H11 LYS d   1      88.537  16.970 131.560  0.00  0.00     0.075 H 
ATOM    107  H12 LYS d   1      88.872  17.796 133.120  0.00  0.00     0.075 H 
BRANCH 105 108
ATOM    108  NZ  LYS d   1      87.888  15.931 133.284  0.00  0.00    -0.079 N 
ATOM    109  H13 LYS d   1      86.972  16.352 133.258  0.00  0.00     0.274 HD
ATOM    110  H14 LYS d   1      88.169  15.797 134.243  0.00  0.00     0.274 HD
ATOM    111  H15 LYS d   1      87.862  15.040 132.814  0.00  0.00     0.274 HD
ENDBRANCH 105 108
ENDBRANCH 102 105
ENDBRANCH  99 102
ENDBRANCH  96  99
ENDBRANCH  90  96
ENDBRANCH  87  90
ENDBRANCH  84  86
BRANCH  84 112
ATOM    112  CB  GLN d   1      96.984  18.924 133.926  0.00  0.00    -0.030 C 
ATOM    113  H18 GLN d   1      98.068  19.018 134.089  0.00  0.00     0.037 H 
ATOM    114  H19 GLN d   1      96.510  18.526 134.835  0.00  0.00     0.037 H 
BRANCH 112 115
ATOM    115  CG  GLN d   1      96.387  20.354 133.621  0.00  0.00     0.011 C 
ATOM    116  H20 GLN d   1      96.843  21.070 134.320  0.00  0.00     0.047 H 
ATOM    117  H21 GLN d   1      95.301  20.314 133.793  0.00  0.00     0.047 H 
BRANCH 115 118
ATOM    118  CD  GLN d   1      96.629  20.879 132.160  0.00  0.00     0.215 C 
ATOM    119  OE1 GLN d   1      95.730  21.463 131.458  0.00  0.00    -0.274 OA
ATOM    120  NE2 GLN d   1      97.852  20.655 131.683  0.00  0.00    -0.370 N 
ATOM    121  H22 GLN d   1      98.092  20.957 130.760  0.00  0.00     0.159 HD
ATOM    122  H23 GLN d   1      98.531  20.185 132.248  0.00  0.00     0.159 HD
ENDBRANCH 115 118
ENDBRANCH 112 115
ENDBRANCH  84 112
ENDBRANCH  81  84
ENDBRANCH  78  80
BRANCH  78 123
ATOM    123  CB  THR d   1      96.143  13.969 135.251  0.00  0.00     0.060 C 
ATOM    124  H26 THR d   1      96.169  12.878 135.391  0.00  0.00     0.086 H 
BRANCH 123 125
ATOM    125  OG1 THR d   1      94.817  14.427 135.602  0.00  0.00    -0.393 OA
ATOM    126  H27 THR d   1      94.656  14.253 136.522  0.00  0.00     0.210 HD
ENDBRANCH 123 125
BRANCH 123 127
ATOM    127  CG2 THR d   1      97.210  14.557 136.149  0.00  0.00    -0.050 C 
ATOM    128  H28 THR d   1      96.978  14.321 137.198  0.00  0.00     0.031 H 
ATOM    129  H29 THR d   1      97.240  15.649 136.017  0.00  0.00     0.031 H 
ATOM    130  H30 THR d   1      98.188  14.129 135.885  0.00  0.00     0.031 H 
ENDBRANCH 123 127
ENDBRANCH  78 123
ENDBRANCH  75  78
ENDBRANCH  72  74
BRANCH  72 131
ATOM    131  CB  ALA d   1      96.203   9.949 131.727  0.00  0.00    -0.049 C 
ATOM    132  H33 ALA d   1      95.694   9.175 131.134  0.00  0.00     0.030 H 
ATOM    133  H34 ALA d   1      96.493   9.532 132.703  0.00  0.00     0.030 H 
ATOM    134  H35 ALA d   1      97.102  10.289 131.191  0.00  0.00     0.030 H 
ENDBRANCH  72 131
ENDBRANCH   1  72
TORSDOF 41
