REMARK WARNING: 32 MAX_TORS EXCEEDED!!!
REMARK  35 active torsions:
REMARK  status: ('A' for Active; 'I' for Inactive)
REMARK    1  A    between atoms: N_1  and  CA_2 
REMARK    2  A    between atoms: CA_2  and  C_3 
REMARK    3  A    between atoms: CA_2  and  CB_5 
REMARK       I    between atoms: C_3  and  N_7 
REMARK    4  A    between atoms: CB_5  and  OG_6 
REMARK    5  A    between atoms: N_7  and  CA_8 
REMARK    6  A    between atoms: CA_8  and  C_9 
REMARK    7  A    between atoms: CA_8  and  CB_11 
REMARK       I    between atoms: C_9  and  N_15 
REMARK    8  A    between atoms: CB_11  and  CG_12 
REMARK    9  A    between atoms: CG_12  and  CD1_13 
REMARK   10  A    between atoms: CG_12  and  CD2_14 
REMARK   11  A    between atoms: N_15  and  CA_16 
REMARK   12  A    between atoms: CA_16  and  C_17 
REMARK   13  A    between atoms: CA_16  and  CB_19 
REMARK       I    between atoms: C_17  and  N_24 
REMARK   14  A    between atoms: CB_19  and  CG_20 
REMARK   15  A    between atoms: CG_20  and  CD_21 
REMARK       I    between atoms: CD_21  and  NE2_23 
REMARK   16  A    between atoms: N_24  and  CA_25 
REMARK   17  A    between atoms: CA_25  and  C_26 
REMARK   18  A    between atoms: CA_25  and  CB_28 
REMARK       I    between atoms: C_26  and  N_35 
REMARK   19  A    between atoms: CB_28  and  CG_29 
REMARK   20  A    between atoms: N_35  and  CA_36 
REMARK   21  A    between atoms: CA_36  and  C_37 
REMARK   22  A    between atoms: CA_36  and  CB_39 
REMARK       I    between atoms: C_37  and  N_43 
REMARK   23  A    between atoms: CB_39  and  CG_40 
REMARK   24  A    between atoms: CG_40  and  CD1_41 
REMARK   25  A    between atoms: CG_40  and  CD2_42 
REMARK   26  A    between atoms: N_43  and  CA_44 
REMARK   27  A    between atoms: CA_44  and  C_45 
REMARK   28  A    between atoms: CA_44  and  CB_47 
REMARK       I    between atoms: C_45  and  N_51 
REMARK   29  A    between atoms: CB_47  and  CG_48 
REMARK   30  A    between atoms: CG_48  and  CD1_49 
REMARK   31  A    between atoms: CG_48  and  CD2_50 
REMARK   32  A    between atoms: N_51  and  CA_52 
REMARK   33  A    between atoms: CA_52  and  C_53 
REMARK   34  A    between atoms: CA_52  and  CB_55 
REMARK   35  A    between atoms: CB_55  and  CG_56 
ROOT
ATOM      1  CA  PHE d   1     -24.198 -12.268 -19.505  0.00  0.00     0.093 C 
ATOM      2  H28 PHE d   1     -23.858 -12.043 -20.527  0.00  0.00     0.088 H 
ENDROOT
BRANCH   1   3
ATOM      3  N   PHE d   1     -23.086 -11.790 -18.626  0.00  0.00    -0.346 N 
ATOM      4  C   GLN d   1     -22.666 -10.511 -18.679  0.00  0.00     0.241 C 
ATOM      5  O   GLN d   1     -23.120  -9.684 -19.487  0.00  0.00    -0.271 OA
ATOM      6  H27 PHE d   1     -22.649 -12.428 -17.991  0.00  0.00     0.163 HD
BRANCH   4   7
ATOM      7  CA  GLN d   1     -21.613 -10.028 -17.658  0.00  0.00     0.090 C 
ATOM      8  H20 GLN d   1     -21.672  -8.930 -17.675  0.00  0.00     0.087 H 
BRANCH   7   9
ATOM      9  N   GLN d   1     -21.872 -10.419 -16.299  0.00  0.00    -0.346 N 
ATOM     10  C   LEU d   1     -23.050 -10.197 -15.708  0.00  0.00     0.241 C 
ATOM     11  O   LEU d   1     -24.067  -9.762 -16.295  0.00  0.00    -0.271 OA
ATOM     12  H19 GLN d   1     -21.148 -10.872 -15.779  0.00  0.00     0.163 HD
BRANCH  10  13
ATOM     13  CA  LEU d   1     -23.108 -10.562 -14.237  0.00  0.00     0.089 C 
ATOM     14  H9  LEU d   1     -24.130 -10.399 -13.864  0.00  0.00     0.087 H 
BRANCH  13  15
ATOM     15  N   LEU d   1     -22.768 -11.964 -14.073  0.00  0.00    -0.346 N 
ATOM     16  C   SER d   1     -23.354 -12.972 -14.758  0.00  0.00     0.251 C 
ATOM     17  O   SER d   1     -24.398 -12.878 -15.464  0.00  0.00    -0.271 OA
ATOM     18  H8  LEU d   1     -22.056 -12.199 -13.412  0.00  0.00     0.163 HD
BRANCH  16  19
ATOM     19  CA  SER d   1     -22.602 -14.300 -14.590  0.00  0.00     0.195 C 
ATOM     20  H4  SER d   1     -21.837 -14.134 -13.817  0.00  0.00     0.102 H 
BRANCH  19  21
ATOM     21  N   SER d   1     -23.477 -15.402 -14.083  0.00  0.00    -0.064 N 
ATOM     22  H1  SER d   1     -22.935 -16.247 -13.992  0.00  0.00     0.275 HD
ATOM     23  H2  SER d   1     -24.233 -15.556 -14.732  0.00  0.00     0.275 HD
ATOM     24  H3  SER d   1     -23.853 -15.146 -13.184  0.00  0.00     0.275 HD
ENDBRANCH  19  21
BRANCH  19  25
ATOM     25  CB  SER d   1     -21.849 -14.669 -15.882  0.00  0.00     0.051 C 
ATOM     26  H5  SER d   1     -22.577 -14.993 -16.640  0.00  0.00     0.077 H 
ATOM     27  H6  SER d   1     -21.153 -15.493 -15.667  0.00  0.00     0.077 H 
BRANCH  25  28
ATOM     28  OG  SER d   1     -21.103 -13.548 -16.398  0.00  0.00    -0.398 OA
ATOM     29  H7  SER d   1     -20.652 -13.808 -17.192  0.00  0.00     0.209 HD
ENDBRANCH  25  28
ENDBRANCH  19  25
ENDBRANCH  16  19
ENDBRANCH  13  15
BRANCH  13  30
ATOM     30  CB  LEU d   1     -22.142  -9.657 -13.453  0.00  0.00    -0.035 C 
ATOM     31  H10 LEU d   1     -21.424  -9.252 -14.181  0.00  0.00     0.037 H 
ATOM     32  H11 LEU d   1     -21.612 -10.303 -12.737  0.00  0.00     0.037 H 
BRANCH  30  33
ATOM     33  CG  LEU d   1     -22.693  -8.449 -12.646  0.00  0.00    -0.059 C 
ATOM     34  H12 LEU d   1     -23.184  -8.880 -11.761  0.00  0.00     0.038 H 
BRANCH  33  35
ATOM     35  CD1 LEU d   1     -21.600  -7.530 -12.146  0.00  0.00    -0.073 C 
ATOM     36  H13 LEU d   1     -22.049  -6.697 -11.585  0.00  0.00     0.028 H 
ATOM     37  H14 LEU d   1     -21.035  -7.132 -13.002  0.00  0.00     0.028 H 
ATOM     38  H15 LEU d   1     -20.921  -8.092 -11.488  0.00  0.00     0.028 H 
ENDBRANCH  33  35
BRANCH  33  39
ATOM     39  CD2 LEU d   1     -23.751  -7.602 -13.364  0.00  0.00    -0.073 C 
ATOM     40  H16 LEU d   1     -24.554  -8.256 -13.735  0.00  0.00     0.028 H 
ATOM     41  H17 LEU d   1     -23.287  -7.076 -14.211  0.00  0.00     0.028 H 
ATOM     42  H18 LEU d   1     -24.171  -6.867 -12.662  0.00  0.00     0.028 H 
ENDBRANCH  33  39
ENDBRANCH  30  33
ENDBRANCH  13  30
ENDBRANCH  10  13
ENDBRANCH   7   9
BRANCH   7  43
ATOM     43  CB  GLN d   1     -20.175 -10.386 -18.044  0.00  0.00    -0.030 C 
ATOM     44  H21 GLN d   1     -20.035 -11.465 -17.883  0.00  0.00     0.037 H 
ATOM     45  H22 GLN d   1     -19.494  -9.826 -17.386  0.00  0.00     0.037 H 
BRANCH  43  46
ATOM     46  CG  GLN d   1     -19.810 -10.072 -19.477  0.00  0.00     0.011 C 
ATOM     47  H23 GLN d   1     -20.646 -10.381 -20.122  0.00  0.00     0.047 H 
ATOM     48  H24 GLN d   1     -18.912 -10.650 -19.739  0.00  0.00     0.047 H 
BRANCH  46  49
ATOM     49  CD  GLN d   1     -19.524  -8.603 -19.740  0.00  0.00     0.215 C 
ATOM     50  OE1 GLN d   1     -19.457  -7.763 -18.828  0.00  0.00    -0.274 OA
ATOM     51  NE2 GLN d   1     -19.325  -8.289 -21.013  0.00  0.00    -0.370 N 
ATOM     52  H25 GLN d   1     -19.131  -7.342 -21.270  0.00  0.00     0.159 HD
ATOM     53  H26 GLN d   1     -19.369  -8.999 -21.716  0.00  0.00     0.159 HD
ENDBRANCH  46  49
ENDBRANCH  43  46
ENDBRANCH   7  43
ENDBRANCH   4   7
ENDBRANCH   1   3
BRANCH   1  54
ATOM     54  C   PHE d   1     -25.572 -11.534 -19.355  0.00  0.00     0.241 C 
ATOM     55  O   PHE d   1     -26.353 -11.405 -20.318  0.00  0.00    -0.271 OA
ATOM     56  N   LEU d   1     -25.884 -11.097 -18.145  0.00  0.00    -0.346 N 
ATOM     57  H36 LEU d   1     -25.247 -11.261 -17.392  0.00  0.00     0.163 HD
BRANCH  56  58
ATOM     58  CA  LEU d   1     -27.137 -10.379 -17.873  0.00  0.00     0.089 C 
ATOM     59  H37 LEU d   1     -27.975 -10.912 -18.346  0.00  0.00     0.087 H 
BRANCH  58  60
ATOM     60  C   LEU d   1     -27.078  -8.937 -18.432  0.00  0.00     0.241 C 
ATOM     61  O   LEU d   1     -28.025  -8.449 -19.084  0.00  0.00    -0.271 OA
ATOM     62  N   LEU d   1     -25.954  -8.262 -18.168  0.00  0.00    -0.346 N 
ATOM     63  H47 LEU d   1     -25.273  -8.675 -17.563  0.00  0.00     0.163 HD
BRANCH  62  64
ATOM     64  CA  LEU d   1     -25.687  -6.942 -18.733  0.00  0.00     0.089 C 
ATOM     65  H48 LEU d   1     -26.421  -6.242 -18.308  0.00  0.00     0.087 H 
BRANCH  64  66
ATOM     66  C   LEU d   1     -25.912  -6.981 -20.252  0.00  0.00     0.241 C 
ATOM     67  O   LEU d   1     -26.552  -6.069 -20.781  0.00  0.00    -0.271 OA
ATOM     68  N   ASP d   1     -25.430  -8.056 -20.905  0.00  0.00    -0.344 N 
ATOM     69  H58 ASP d   1     -24.663  -8.550 -20.495  0.00  0.00     0.163 HD
BRANCH  68  70
ATOM     70  CA  ASP d   1     -25.970  -8.554 -22.202  0.00  0.00     0.105 C 
ATOM     71  H59 ASP d   1     -26.205  -7.702 -22.857  0.00  0.00     0.090 H 
BRANCH  70  72
ATOM     72  C   ASP d   1     -27.264  -9.365 -21.880  0.00  0.00     0.197 C 
ATOM     73  O   ASP d   1     -28.095  -9.689 -22.734  0.00  0.00    -0.646 OA
ATOM     74  OXT ASP d   1     -27.562  -9.749 -20.745  0.00  0.00    -0.646 OA
ENDBRANCH  70  72
BRANCH  70  75
ATOM     75  CB  ASP d   1     -24.976  -9.490 -22.914  0.00  0.00     0.044 C 
ATOM     76  H60 ASP d   1     -25.206  -9.488 -23.990  0.00  0.00     0.053 H 
ATOM     77  H61 ASP d   1     -25.107 -10.506 -22.513  0.00  0.00     0.053 H 
BRANCH  75  78
ATOM     78  CG  ASP d   1     -23.483  -9.076 -22.728  0.00  0.00     0.175 C 
ATOM     79  OD1 ASP d   1     -22.598  -9.990 -22.653  0.00  0.00    -0.648 OA
ATOM     80  OD2 ASP d   1     -23.179  -7.853 -22.661  0.00  0.00    -0.648 OA
ENDBRANCH  75  78
ENDBRANCH  70  75
ENDBRANCH  68  70
ENDBRANCH  64  66
BRANCH  64  81
ATOM     81  CB  LEU d   1     -24.304  -6.425 -18.349  0.00  0.00    -0.035 C 
ATOM     82  H49 LEU d   1     -23.538  -6.984 -18.906  0.00  0.00     0.037 H 
ATOM     83  H50 LEU d   1     -24.149  -6.566 -17.269  0.00  0.00     0.037 H 
BRANCH  81  84
ATOM     84  CG  LEU d   1     -24.192  -4.933 -18.689  0.00  0.00    -0.059 C 
ATOM     85  H51 LEU d   1     -24.282  -4.856 -19.783  0.00  0.00     0.038 H 
BRANCH  84  86
ATOM     86  CD1 LEU d   1     -25.365  -4.088 -18.096  0.00  0.00    -0.073 C 
ATOM     87  H52 LEU d   1     -25.231  -3.031 -18.371  0.00  0.00     0.028 H 
ATOM     88  H53 LEU d   1     -25.369  -4.184 -17.000  0.00  0.00     0.028 H 
ATOM     89  H54 LEU d   1     -26.321  -4.454 -18.499  0.00  0.00     0.028 H 
ENDBRANCH  84  86
BRANCH  84  90
ATOM     90  CD2 LEU d   1     -22.812  -4.374 -18.328  0.00  0.00    -0.073 C 
ATOM     91  H55 LEU d   1     -22.032  -5.009 -18.772  0.00  0.00     0.028 H 
ATOM     92  H56 LEU d   1     -22.696  -4.362 -17.234  0.00  0.00     0.028 H 
ATOM     93  H57 LEU d   1     -22.718  -3.350 -18.718  0.00  0.00     0.028 H 
ENDBRANCH  84  90
ENDBRANCH  81  84
ENDBRANCH  64  81
ENDBRANCH  62  64
ENDBRANCH  58  60
BRANCH  58  94
ATOM     94  CB  LEU d   1     -27.336 -10.350 -16.370  0.00  0.00    -0.035 C 
ATOM     95  H38 LEU d   1     -27.145  -9.312 -16.061  0.00  0.00     0.037 H 
ATOM     96  H39 LEU d   1     -26.559 -11.006 -15.951  0.00  0.00     0.037 H 
BRANCH  94  97
ATOM     97  CG  LEU d   1     -28.624 -10.751 -15.694  0.00  0.00    -0.059 C 
ATOM     98  H40 LEU d   1     -29.302  -9.885 -15.675  0.00  0.00     0.038 H 
BRANCH  97  99
ATOM     99  CD1 LEU d   1     -29.388 -11.908 -16.342  0.00  0.00    -0.073 C 
ATOM    100  H41 LEU d   1     -30.304 -12.110 -15.767  0.00  0.00     0.028 H 
ATOM    101  H42 LEU d   1     -28.754 -12.807 -16.350  0.00  0.00     0.028 H 
ATOM    102  H43 LEU d   1     -29.655 -11.638 -17.374  0.00  0.00     0.028 H 
ENDBRANCH  97  99
BRANCH  97 103
ATOM    103  CD2 LEU d   1     -28.172 -11.082 -14.272  0.00  0.00    -0.073 C 
ATOM    104  H44 LEU d   1     -27.630 -10.223 -13.850  0.00  0.00     0.028 H 
ATOM    105  H45 LEU d   1     -27.509 -11.960 -14.293  0.00  0.00     0.028 H 
ATOM    106  H46 LEU d   1     -29.052 -11.302 -13.649  0.00  0.00     0.028 H 
ENDBRANCH  97 103
ENDBRANCH  94  97
ENDBRANCH  58  94
ENDBRANCH  56  58
ENDBRANCH   1  54
BRANCH   1 107
ATOM    107  CB  PHE d   1     -24.417 -13.799 -19.460  0.00  0.00    -0.014 C 
ATOM    108  H29 PHE d   1     -24.495 -14.112 -18.408  0.00  0.00     0.043 H 
ATOM    109  H30 PHE d   1     -23.551 -14.292 -19.926  0.00  0.00     0.043 H 
BRANCH 107 110
ATOM    110  CG  PHE d   1     -25.684 -14.239 -20.196  0.00  0.00    -0.056 A 
ATOM    111  CD1 PHE d   1     -26.889 -14.484 -19.495  0.00  0.00    -0.077 A 
ATOM    112  CE1 PHE d   1     -28.066 -14.843 -20.188  0.00  0.00    -0.082 A 
ATOM    113  H31 PHE d   1     -26.909 -14.395 -18.415  0.00  0.00     0.084 H 
ATOM    114  CZ  PHE d   1     -28.063 -14.941 -21.588  0.00  0.00    -0.083 A 
ATOM    115  H33 PHE d   1     -28.977 -15.044 -19.636  0.00  0.00     0.083 H 
ATOM    116  CE2 PHE d   1     -26.891 -14.676 -22.290  0.00  0.00    -0.082 A 
ATOM    117  H35 PHE d   1     -28.966 -15.221 -22.118  0.00  0.00     0.083 H 
ATOM    118  CD2 PHE d   1     -25.718 -14.321 -21.603  0.00  0.00    -0.077 A 
ATOM    119  H34 PHE d   1     -26.883 -14.744 -23.372  0.00  0.00     0.083 H 
ATOM    120  H32 PHE d   1     -24.818 -14.105 -22.168  0.00  0.00     0.084 H 
ENDBRANCH 107 110
ENDBRANCH   1 107
TORSDOF 35
