REMARK  10 active torsions:
REMARK  status: ('A' for Active; 'I' for Inactive)
REMARK    1  A    between atoms: C1_1  and  O_29 
REMARK    2  A    between atoms: C3_3  and  C4_26 
REMARK    3  A    between atoms: C14_10  and  O1_4 
REMARK    4  A    between atoms: C11_7  and  C12_8 
REMARK    5  A    between atoms: C13_9  and  C14_10 
REMARK       I    between atoms: C15_11  and  N_24 
REMARK    6  A    between atoms: C5_25  and  C15_11 
REMARK    7  A    between atoms: S1_22  and  C16_12 
REMARK    8  A    between atoms: N_24  and  S1_22 
REMARK    9  A    between atoms: C8_31  and  C7_28 
REMARK   10  A    between atoms: O_29  and  C_30 
ROOT
ATOM      1  C1  68E d   1      29.451 175.665  19.344  0.00  0.00     0.080 A 
ATOM      2  C2  68E d   1      29.467 174.357  19.810  0.00  0.00    -0.043 A 
ATOM      3  C3  68E d   1      28.481 173.449  19.484  0.00  0.00    -0.044 A 
ATOM      4  C5  68E d   1      27.453 173.848  18.599  0.00  0.00     0.040 A 
ATOM      5  C6  68E d   1      27.444 175.159  18.102  0.00  0.00    -0.053 A 
ATOM      6  C7  68E d   1      28.418 176.110  18.482  0.00  0.00     0.015 A 
ATOM      7  H1  68E d   1      30.281 174.039  20.451  0.00  0.00     0.088 H 
ATOM      8  H15 68E d   1      26.667 175.452  17.405  0.00  0.00     0.086 H 
ENDROOT
BRANCH   4   9
ATOM      9  C15 68E d   1      26.426 172.978  18.213  0.00  0.00     0.265 C 
ATOM     10  O2  68E d   1      25.261 173.236  18.506  0.00  0.00    -0.267 OA
ATOM     11  N   68E d   1      26.818 171.839  17.602  0.00  0.00    -0.246 N 
ATOM     12  H11 68E d   1      27.788 171.664  17.436  0.00  0.00     0.182 HD
BRANCH  11  13
ATOM     13  S1  68E d   1      25.657 170.717  17.123  0.00  0.00     0.267 S 
ATOM     14  O3  68E d   1      24.394 171.486  16.693  0.00  0.00    -0.200 OA
ATOM     15  O4  68E d   1      26.156 169.882  15.941  0.00  0.00    -0.200 OA
BRANCH  13  16
ATOM     16  C16 68E d   1      25.311 169.734  18.538  0.00  0.00     0.109 A 
ATOM     17  C17 68E d   1      24.033 169.790  19.113  0.00  0.00    -0.058 A 
ATOM     18  C18 68E d   1      23.733 169.037  20.250  0.00  0.00    -0.081 A 
ATOM     19  H5  68E d   1      23.272 170.423  18.671  0.00  0.00     0.086 H 
ATOM     20  C19 68E d   1      24.731 168.262  20.843  0.00  0.00    -0.071 A 
ATOM     21  H6  68E d   1      22.733 169.054  20.669  0.00  0.00     0.083 H 
ATOM     22  C20 68E d   1      26.028 168.235  20.308  0.00  0.00    -0.006 A 
ATOM     23  H7  68E d   1      24.502 167.675  21.725  0.00  0.00     0.084 H 
ATOM     24  C21 68E d   1      27.031 167.485  20.931  0.00  0.00    -0.069 A 
ATOM     25  C24 68E d   1      26.331 168.985  19.157  0.00  0.00     0.090 A 
ATOM     26  C22 68E d   1      28.328 167.467  20.402  0.00  0.00    -0.065 A 
ATOM     27  H8  68E d   1      26.804 166.916  21.826  0.00  0.00     0.085 H 
ATOM     28  C23 68E d   1      28.617 168.225  19.265  0.00  0.00     0.003 A 
ATOM     29  H9  68E d   1      29.101 166.869  20.871  0.00  0.00     0.085 H 
ATOM     30  N1  68E d   1      27.592 168.979  18.659  0.00  0.00    -0.259 NA
ATOM     31  H10 68E d   1      29.619 168.233  18.853  0.00  0.00     0.114 H 
ENDBRANCH  13  16
ENDBRANCH  11  13
ENDBRANCH   4   9
BRANCH   3  32
ATOM     32  C4  68E d   1      28.607 172.149  20.029  0.00  0.00    -0.050 C 
ATOM     33  H12 68E d   1      29.490 172.110  20.683  0.00  0.00     0.033 H 
ATOM     34  H13 68E d   1      28.722 171.419  19.214  0.00  0.00     0.033 H 
ATOM     35  H14 68E d   1      27.707 171.907  20.613  0.00  0.00     0.033 H 
ENDBRANCH   3  32
BRANCH   6  36
ATOM     36  C8  68E d   1      28.387 177.361  17.957  0.00  0.00     0.019 A 
ATOM     37  S   68E d   1      28.902 178.722  18.662  0.00  0.00    -0.080 SA
ATOM     38  C11 68E d   1      28.562 179.729  17.387  0.00  0.00     0.059 A 
ATOM     39  C10 68E d   1      28.052 178.993  16.405  0.00  0.00    -0.057 A 
ATOM     40  C9  68E d   1      27.923 177.686  16.741  0.00  0.00    -0.064 A 
ATOM     41  H19 68E d   1      27.768 179.397  15.434  0.00  0.00     0.086 H 
ATOM     42  H20 68E d   1      27.475 176.953  16.072  0.00  0.00     0.085 H 
BRANCH  38  43
ATOM     43  C12 68E d   1      28.827 181.125  17.401  0.00  0.00    -0.057 C 
ATOM     44  C13 68E d   1      29.120 182.299  17.574  0.00  0.00    -0.075 C 
BRANCH  44  45
ATOM     45  C14 68E d   1      29.527 183.707  17.876  0.00  0.00     0.071 C 
ATOM     46  H3  68E d   1      30.464 183.699  18.452  0.00  0.00     0.093 H 
ATOM     47  H4  68E d   1      29.681 184.251  16.933  0.00  0.00     0.093 H 
BRANCH  45  48
ATOM     48  O1  68E d   1      28.514 184.358  18.635  0.00  0.00    -0.389 OA
ATOM     49  H2  68E d   1      27.704 184.367  18.138  0.00  0.00     0.210 HD
ENDBRANCH  45  48
ENDBRANCH  44  45
ENDBRANCH  38  43
ENDBRANCH   6  36
BRANCH   1  50
ATOM     50  O   68E d   1      30.404 176.568  19.720  0.00  0.00    -0.355 OA
BRANCH  50  51
ATOM     51  C   68E d   1      31.314 176.216  20.774  0.00  0.00     0.010 C 
ATOM     52  H16 68E d   1      32.011 177.049  20.950  0.00  0.00     0.066 H 
ATOM     53  H17 68E d   1      31.881 175.319  20.485  0.00  0.00     0.066 H 
ATOM     54  H18 68E d   1      30.747 176.011  21.694  0.00  0.00     0.066 H 
ENDBRANCH  50  51
ENDBRANCH   1  50
TORSDOF 10
