REMARK  13 active torsions:
REMARK  status: ('A' for Active; 'I' for Inactive)
REMARK    1  A    between atoms: C8_1  and  O2_2 
REMARK    2  A    between atoms: O2_2  and  C5_3 
REMARK    3  A    between atoms: C1_8  and  S1_9 
REMARK    4  A    between atoms: S1_9  and  N5_12 
REMARK       I    between atoms: N5_12  and  C7_13 
REMARK    5  A    between atoms: C7_13  and  C9_15 
REMARK    6  A    between atoms: C10_17  and  O3_18 
REMARK    7  A    between atoms: O3_18  and  C20_19 
REMARK    8  A    between atoms: C12_21  and  O5_22 
REMARK    9  A    between atoms: O5_22  and  C15_23 
REMARK   10  A    between atoms: C13_24  and  C16_25 
REMARK   11  A    between atoms: C19_29  and  C21_30 
REMARK   12  A    between atoms: C22_31  and  C23_32 
REMARK   13  A    between atoms: C23_32  and  O24_33 
ROOT
ATOM      1  C9  6L2 d   1      27.591 173.908  18.617  0.00  0.00     0.067 A 
ATOM      2  C14 6L2 d   1      27.584 175.245  18.163  0.00  0.00    -0.051 A 
ATOM      3  C10 6L2 d   1      28.574 173.501  19.546  0.00  0.00     0.086 A 
ATOM      4  C11 6L2 d   1      29.554 174.396  19.966  0.00  0.00    -0.017 A 
ATOM      5  C12 6L2 d   1      29.547 175.724  19.504  0.00  0.00     0.082 A 
ATOM      6  C13 6L2 d   1      28.547 176.178  18.594  0.00  0.00     0.015 A 
ATOM      7  H15 6L2 d   1      26.818 175.561  17.465  0.00  0.00     0.086 H 
ATOM      8  H19 6L2 d   1      30.326 174.068  20.652  0.00  0.00     0.092 H 
ENDROOT
BRANCH   1   9
ATOM      9  C7  6L2 d   1      26.545 173.031  18.280  0.00  0.00     0.267 C 
ATOM     10  N5  6L2 d   1      25.347 173.422  18.737  0.00  0.00    -0.250 N 
ATOM     11  H14 6L2 d   1      25.243 174.323  19.157  0.00  0.00     0.181 HD
ATOM     12  O8  6L2 d   1      26.758 171.932  17.767  0.00  0.00    -0.267 OA
BRANCH  10  13
ATOM     13  S1  6L2 d   1      24.018 172.400  18.605  0.00  0.00     0.237 S 
ATOM     14  O1  6L2 d   1      23.739 172.034  17.161  0.00  0.00    -0.205 OA
ATOM     15  O4  6L2 d   1      22.820 173.101  19.222  0.00  0.00    -0.205 OA
BRANCH  13  16
ATOM     16  C1  6L2 d   1      24.489 170.791  19.579  0.00  0.00     0.065 C 
ATOM     17  C6  6L2 d   1      24.665 171.274  21.005  0.00  0.00    -0.023 C 
ATOM     18  C5  6L2 d   1      25.100 170.143  21.976  0.00  0.00     0.039 C 
ATOM     19  H5  6L2 d   1      25.433 172.061  21.017  0.00  0.00     0.038 H 
ATOM     20  H6  6L2 d   1      23.709 171.689  21.356  0.00  0.00     0.038 H 
ATOM     21  C4  6L2 d   1      25.539 168.858  21.236  0.00  0.00    -0.041 C 
ATOM     22  H4  6L2 d   1      24.212 169.879  22.570  0.00  0.00     0.083 H 
ATOM     23  C3  6L2 d   1      24.457 168.345  20.228  0.00  0.00    -0.061 C 
ATOM     24  H7  6L2 d   1      25.729 168.070  21.980  0.00  0.00     0.036 H 
ATOM     25  H8  6L2 d   1      26.465 169.070  20.681  0.00  0.00     0.036 H 
ATOM     26  C2  6L2 d   1      23.713 169.477  19.470  0.00  0.00    -0.047 C 
ATOM     27  H9  6L2 d   1      23.714 167.757  20.787  0.00  0.00     0.033 H 
ATOM     28  H10 6L2 d   1      24.953 167.700  19.487  0.00  0.00     0.033 H 
ATOM     29  H11 6L2 d   1      22.712 169.609  19.908  0.00  0.00     0.035 H 
ATOM     30  H12 6L2 d   1      23.616 169.200  18.410  0.00  0.00     0.035 H 
ATOM     31  H13 6L2 d   1      25.488 170.520  19.208  0.00  0.00     0.067 H 
BRANCH  18  32
ATOM     32  O2  6L2 d   1      26.118 170.591  22.914  0.00  0.00    -0.391 OA
BRANCH  32  33
ATOM     33  C8  6L2 d   1      26.114 172.002  23.270  0.00  0.00     0.004 C 
ATOM     34  H1  6L2 d   1      26.929 172.203  23.981  0.00  0.00     0.066 H 
ATOM     35  H2  6L2 d   1      25.151 172.260  23.734  0.00  0.00     0.066 H 
ATOM     36  H3  6L2 d   1      26.259 172.609  22.364  0.00  0.00     0.066 H 
ENDBRANCH  32  33
ENDBRANCH  18  32
ENDBRANCH  13  16
ENDBRANCH  10  13
ENDBRANCH   1   9
BRANCH   3  37
ATOM     37  O3  6L2 d   1      28.512 172.190  19.978  0.00  0.00    -0.355 OA
BRANCH  37  38
ATOM     38  C20 6L2 d   1      29.308 171.839  21.127  0.00  0.00     0.010 C 
ATOM     39  H16 6L2 d   1      29.165 170.774  21.360  0.00  0.00     0.066 H 
ATOM     40  H17 6L2 d   1      28.997 172.448  21.988  0.00  0.00     0.066 H 
ATOM     41  H18 6L2 d   1      30.370 172.027  20.909  0.00  0.00     0.066 H 
ENDBRANCH  37  38
ENDBRANCH   3  37
BRANCH   6  42
ATOM     42  C16 6L2 d   1      28.537 177.448  18.076  0.00  0.00     0.019 A 
ATOM     43  S20 6L2 d   1      29.010 178.874  18.853  0.00  0.00    -0.080 SA
ATOM     44  C19 6L2 d   1      28.758 179.852  17.568  0.00  0.00     0.059 A 
ATOM     45  C18 6L2 d   1      28.252 179.147  16.552  0.00  0.00    -0.057 A 
ATOM     46  C17 6L2 d   1      28.144 177.809  16.832  0.00  0.00    -0.064 A 
ATOM     47  H24 6L2 d   1      27.956 179.589  15.601  0.00  0.00     0.086 H 
ATOM     48  H23 6L2 d   1      27.769 177.089  16.106  0.00  0.00     0.085 H 
BRANCH  44  49
ATOM     49  C21 6L2 d   1      29.052 181.271  17.636  0.00  0.00    -0.057 C 
ATOM     50  C22 6L2 d   1      29.319 182.307  17.802  0.00  0.00    -0.075 C 
BRANCH  50  51
ATOM     51  C23 6L2 d   1      29.719 183.684  18.055  0.00  0.00     0.071 C 
ATOM     52  H25 6L2 d   1      29.731 184.238  17.105  0.00  0.00     0.093 H 
ATOM     53  H26 6L2 d   1      30.726 183.693  18.497  0.00  0.00     0.093 H 
BRANCH  51  54
ATOM     54  O24 6L2 d   1      28.814 184.307  18.946  0.00  0.00    -0.389 OA
ATOM     55  H27 6L2 d   1      27.944 184.303  18.566  0.00  0.00     0.210 HD
ENDBRANCH  51  54
ENDBRANCH  50  51
ENDBRANCH  44  49
ENDBRANCH   6  42
BRANCH   5  56
ATOM     56  O5  6L2 d   1      30.530 176.601  19.868  0.00  0.00    -0.355 OA
BRANCH  56  57
ATOM     57  C15 6L2 d   1      31.534 176.199  20.845  0.00  0.00     0.010 C 
ATOM     58  H20 6L2 d   1      32.237 177.029  21.011  0.00  0.00     0.066 H 
ATOM     59  H21 6L2 d   1      32.083 175.323  20.468  0.00  0.00     0.066 H 
ATOM     60  H22 6L2 d   1      31.040 175.942  21.794  0.00  0.00     0.066 H 
ENDBRANCH  56  57
ENDBRANCH   5  56
TORSDOF 13
