REMARK  8 active torsions:
REMARK  status: ('A' for Active; 'I' for Inactive)
REMARK    1  A    between atoms: N09_14  and  C10_1 
REMARK    2  A    between atoms: N22_23  and  C21_4 
REMARK    3  A    between atoms: C23_24  and  C24_5 
REMARK    4  A    between atoms: C24_5  and  C25_25 
REMARK    5  A    between atoms: C05_10  and  N06_11 
REMARK    6  A    between atoms: N06_11  and  C07_12 
REMARK    7  A    between atoms: O15_19  and  C14_18 
REMARK    8  A    between atoms: C16_20  and  O15_19 
REMARK       I    between atoms: N22_23  and  C23_24 
ROOT
ATOM      1  O15 6L4 d   1     -12.910 -50.490 -16.102  0.00  0.00    -0.288 OA
ENDROOT
BRANCH   1   2
ATOM      2  C14 6L4 d   1     -13.462 -49.185 -16.060  0.00  0.00     0.212 A 
ATOM      3  C02 6L4 d   1     -12.722 -48.174 -15.448  0.00  0.00     0.105 A 
ATOM      4 CL01 6L4 d   1     -11.114 -48.491 -14.745  0.00  0.00    -0.078 Cl
ATOM      5  C03 6L4 d   1     -13.278 -46.904 -15.406  0.00  0.00     0.046 A 
ATOM      6  N04 6L4 d   1     -14.470 -46.692 -15.934  0.00  0.00    -0.073 NA
ATOM      7  H8  6L4 d   1     -12.736 -46.088 -14.941  0.00  0.00     0.118 H 
ATOM      8  C05 6L4 d   1     -15.145 -47.672 -16.503  0.00  0.00     0.729 A 
ATOM      9  N13 6L4 d   1     -14.653 -48.900 -16.565  0.00  0.00    -0.036 NA
BRANCH   8  10
ATOM     10  N06 6L4 d   1     -16.454 -47.364 -17.065  0.00  0.00    -0.185 N 
ATOM     11  H9  6L4 d   1     -16.782 -46.388 -17.033  0.00  0.00     0.184 HD
BRANCH  10  12
ATOM     12  C07 6L4 d   1     -17.322 -48.366 -17.670  0.00  0.00     0.085 A 
ATOM     13  C08 6L4 d   1     -16.940 -49.523 -18.306  0.00  0.00     0.026 A 
ATOM     14  N09 6L4 d   1     -18.032 -50.131 -18.707  0.00  0.00    -0.283 N 
ATOM     15  H10 6L4 d   1     -15.918 -49.871 -18.451  0.00  0.00     0.117 H 
ATOM     16  N11 6L4 d   1     -19.139 -49.402 -18.362  0.00  0.00    -0.183 NA
ATOM     17  C12 6L4 d   1     -18.711 -48.307 -17.722  0.00  0.00     0.049 A 
ATOM     18  H11 6L4 d   1     -19.337 -47.514 -17.316  0.00  0.00     0.121 H 
BRANCH  14  19
ATOM     19  C10 6L4 d   1     -18.062 -51.398 -19.420  0.00  0.00     0.002 C 
ATOM     20  H1  6L4 d   1     -17.034 -51.762 -19.565  0.00  0.00     0.059 H 
ATOM     21  H2  6L4 d   1     -18.542 -51.256 -20.400  0.00  0.00     0.059 H 
ATOM     22  H3  6L4 d   1     -18.633 -52.134 -18.835  0.00  0.00     0.059 H 
ENDBRANCH  14  19
ENDBRANCH  10  12
ENDBRANCH   8  10
ENDBRANCH   1   2
BRANCH   1  23
ATOM     23  C16 6L4 d   1     -13.496 -51.391 -17.011  0.00  0.00     0.104 A 
ATOM     24  C17 6L4 d   1     -14.843 -51.718 -16.954  0.00  0.00    -0.048 A 
ATOM     25  C18 6L4 d   1     -15.386 -52.619 -17.860  0.00  0.00    -0.080 A 
ATOM     26  H4  6L4 d   1     -15.475 -51.267 -16.198  0.00  0.00     0.087 H 
ATOM     27  C19 6L4 d   1     -14.578 -53.214 -18.818  0.00  0.00    -0.081 A 
ATOM     28  H12 6L4 d   1     -16.443 -52.858 -17.819  0.00  0.00     0.083 H 
ATOM     29  C20 6L4 d   1     -13.227 -52.904 -18.870  0.00  0.00    -0.054 A 
ATOM     30  H13 6L4 d   1     -15.001 -53.919 -19.524  0.00  0.00     0.083 H 
ATOM     31  C21 6L4 d   1     -12.690 -52.001 -17.966  0.00  0.00     0.069 A 
ATOM     32  H5  6L4 d   1     -12.592 -53.367 -19.617  0.00  0.00     0.087 H 
BRANCH  31  33
ATOM     33  N22 6L4 d   1     -11.276 -51.673 -18.015  0.00  0.00    -0.325 N 
ATOM     34  C23 6L4 d   1     -10.817 -50.635 -18.920  0.00  0.00     0.221 C 
ATOM     35  O26 6L4 d   1     -11.591 -50.067 -19.607  0.00  0.00    -0.273 OA
ATOM     36  H14 6L4 d   1     -10.625 -52.158 -17.431  0.00  0.00     0.169 HD
BRANCH  34  37
ATOM     37  C24 6L4 d   1      -9.334 -50.276 -18.972  0.00  0.00     0.006 C 
ATOM     38  H6  6L4 d   1      -9.001 -50.264 -20.020  0.00  0.00     0.046 H 
ATOM     39  H7  6L4 d   1      -8.759 -51.029 -18.413  0.00  0.00     0.046 H 
BRANCH  37  40
ATOM     40  C25 6L4 d   1      -9.096 -48.904 -18.354  0.00  0.00    -0.068 C 
ATOM     41  H15 6L4 d   1      -8.024 -48.662 -18.400  0.00  0.00     0.028 H 
ATOM     42  H16 6L4 d   1      -9.425 -48.913 -17.305  0.00  0.00     0.028 H 
ATOM     43  H17 6L4 d   1      -9.667 -48.147 -18.911  0.00  0.00     0.028 H 
ENDBRANCH  37  40
ENDBRANCH  34  37
ENDBRANCH  31  33
ENDBRANCH   1  23
TORSDOF 8
