REMARK WARNING: 32 MAX_TORS EXCEEDED!!!
REMARK  54 active torsions:
REMARK  status: ('A' for Active; 'I' for Inactive)
REMARK    1  A    between atoms: CA_2  and  N_1 
REMARK    2  A    between atoms: C_3  and  CA_2 
REMARK    3  A    between atoms: CA_2  and  CB_5 
REMARK       I    between atoms: N_7  and  C_3 
REMARK    4  A    between atoms: CB_5  and  OG_6 
REMARK    5  A    between atoms: CA_8  and  N_7 
REMARK    6  A    between atoms: C_9  and  CA_8 
REMARK    7  A    between atoms: CA_8  and  CB_11 
REMARK       I    between atoms: N_16  and  C_9 
REMARK    8  A    between atoms: CB_11  and  CG_12 
REMARK    9  A    between atoms: CG_12  and  CD_13 
REMARK   10  A    between atoms: CD_13  and  CE_14 
REMARK   11  A    between atoms: CE_14  and  NZ_15 
REMARK   12  A    between atoms: CA_17  and  N_16 
REMARK   13  A    between atoms: C_18  and  CA_17 
REMARK       I    between atoms: N_20  and  C_18 
REMARK   14  A    between atoms: CA_21  and  N_20 
REMARK   15  A    between atoms: C_22  and  CA_21 
REMARK   16  A    between atoms: CA_21  and  CB_24 
REMARK       I    between atoms: N_28  and  C_22 
REMARK   17  A    between atoms: CB_24  and  CG_25 
REMARK   18  A    between atoms: CG_25  and  CD1_26 
REMARK   19  A    between atoms: CG_25  and  CD2_27 
REMARK   20  A    between atoms: CA_29  and  N_28 
REMARK   21  A    between atoms: C_30  and  CA_29 
REMARK   22  A    between atoms: CA_29  and  CB_32 
REMARK       I    between atoms: N2_42  and  C_30 
REMARK   23  A    between atoms: CB_32  and  CG_33 
REMARK   24  A    between atoms: C2_41  and  C1_39 
REMARK       I    between atoms: C1_39  and  N_50 
REMARK   25  A    between atoms: C2_41  and  N2_42 
REMARK   26  A    between atoms: C2_41  and  C3_43 
REMARK   27  A    between atoms: C3_43  and  C4_44 
REMARK   28  A    between atoms: C4_44  and  C5_45 
REMARK   29  A    between atoms: C5_45  and  N6_46 
REMARK       I    between atoms: N6_46  and  C7_47 
REMARK       I    between atoms: C7_47  and  N8_49 
REMARK   30  A    between atoms: N_50  and  CA_51 
REMARK   31  A    between atoms: CA_51  and  C_52 
REMARK   32  A    between atoms: CA_51  and  CB_54 
REMARK       I    between atoms: C_52  and  N_55 
REMARK   33  A    between atoms: N_55  and  CA_56 
REMARK   34  A    between atoms: CA_56  and  C_57 
REMARK   35  A    between atoms: CA_56  and  CB_59 
REMARK       I    between atoms: C_57  and  N_60 
REMARK   36  A    between atoms: N_60  and  CA_61 
REMARK   37  A    between atoms: CA_61  and  C_62 
REMARK   38  A    between atoms: CA_61  and  CB_64 
REMARK       I    between atoms: C_62  and  N_67 
REMARK   39  A    between atoms: CB_64  and  CG1_65 
REMARK   40  A    between atoms: CB_64  and  CG2_66 
REMARK   41  A    between atoms: CA_68  and  C_69 
REMARK       I    between atoms: C_69  and  N_74 
REMARK   42  A    between atoms: N_74  and  CA_75 
REMARK   43  A    between atoms: CA_75  and  C_76 
REMARK   44  A    between atoms: CA_75  and  CB_78 
REMARK       I    between atoms: C_76  and  N_80 
REMARK   45  A    between atoms: CB_78  and  OG_79 
REMARK   46  A    between atoms: N_80  and  CA_81 
REMARK   47  A    between atoms: CA_81  and  C_82 
REMARK       I    between atoms: C_82  and  N_84 
REMARK   48  A    between atoms: N_84  and  CA_85 
REMARK   49  A    between atoms: CA_85  and  C_86 
REMARK   50  A    between atoms: CA_85  and  CB_88 
REMARK       I    between atoms: C_86  and  N_89 
REMARK   51  A    between atoms: N_89  and  CA_90 
REMARK   52  A    between atoms: CA_90  and  C_91 
REMARK   53  A    between atoms: CA_90  and  CB_93 
REMARK   54  A    between atoms: CB_93  and  OG_94 
ROOT
ATOM      1  C2  CIR d   1     -43.773   7.488 -23.322  0.00  0.00     0.089 C 
ATOM      2  H44 CIR d   1     -44.265   7.135 -24.240  0.00  0.00     0.087 H 
ENDROOT
BRANCH   1   3
ATOM      3  C1  CIR d   1     -42.385   8.073 -23.622  0.00  0.00     0.241 C 
ATOM      4  O1  CIR d   1     -41.577   8.404 -22.745  0.00  0.00    -0.271 OA
ATOM      5  N   ALA d   1     -42.116   8.319 -24.924  0.00  0.00    -0.346 N 
ATOM      6  H55 ALA d   1     -42.776   8.026 -25.615  0.00  0.00     0.163 HD
BRANCH   5   7
ATOM      7  CA  ALA d   1     -40.899   8.996 -25.359  0.00  0.00     0.086 C 
ATOM      8  H56 ALA d   1     -40.089   8.683 -24.684  0.00  0.00     0.086 H 
BRANCH   7   9
ATOM      9  C   ALA d   1     -41.016  10.497 -25.274  0.00  0.00     0.240 C 
ATOM     10  O   ALA d   1     -42.046  11.020 -25.662  0.00  0.00    -0.271 OA
ATOM     11  N   ALA d   1     -39.972  11.202 -24.780  0.00  0.00    -0.346 N 
ATOM     12  H60 ALA d   1     -39.285  10.739 -24.220  0.00  0.00     0.163 HD
BRANCH  11  13
ATOM     13  CA  ALA d   1     -39.833  12.642 -25.055  0.00  0.00     0.086 C 
ATOM     14  H61 ALA d   1     -40.833  13.096 -24.988  0.00  0.00     0.086 H 
BRANCH  13  15
ATOM     15  C   ALA d   1     -39.317  12.851 -26.478  0.00  0.00     0.240 C 
ATOM     16  O   ALA d   1     -38.644  11.995 -27.023  0.00  0.00    -0.271 OA
ATOM     17  N   VAL d   1     -39.728  13.930 -27.131  0.00  0.00    -0.346 N 
ATOM     18  H65 VAL d   1     -40.277  14.615 -26.652  0.00  0.00     0.163 HD
BRANCH  17  19
ATOM     19  CA  VAL d   1     -39.389  14.138 -28.553  0.00  0.00     0.092 C 
ATOM     20  H66 VAL d   1     -38.886  13.233 -28.925  0.00  0.00     0.088 H 
BRANCH  19  21
ATOM     21  C   VAL d   1     -38.413  15.307 -28.593  0.00  0.00     0.243 C 
ATOM     22  O   VAL d   1     -38.612  16.279 -27.887  0.00  0.00    -0.271 OA
ATOM     23  N   PRO d   1     -37.341  15.165 -29.371  0.00  0.00    -0.337 N 
ATOM     24  CA  PRO d   1     -36.442  16.296 -29.567  0.00  0.00     0.091 C 
ATOM     25  CD  PRO d   1     -36.792  13.908 -29.918  0.00  0.00    -0.001 C 
ATOM     26  CB  PRO d   1     -35.187  15.662 -30.153  0.00  0.00    -0.036 C 
ATOM     27  H74 PRO d   1     -36.218  16.777 -28.603  0.00  0.00     0.087 H 
ATOM     28  CG  PRO d   1     -35.610  14.348 -30.724  0.00  0.00    -0.048 C 
ATOM     29  H75 PRO d   1     -34.433  15.511 -29.366  0.00  0.00     0.036 H 
ATOM     30  H76 PRO d   1     -34.769  16.304 -30.943  0.00  0.00     0.036 H 
ATOM     31  H77 PRO d   1     -34.795  13.614 -30.639  0.00  0.00     0.035 H 
ATOM     32  H78 PRO d   1     -35.890  14.463 -31.781  0.00  0.00     0.035 H 
ATOM     33  H79 PRO d   1     -37.533  13.402 -30.555  0.00  0.00     0.064 H 
ATOM     34  H80 PRO d   1     -36.482  13.232 -29.108  0.00  0.00     0.064 H 
BRANCH  24  35
ATOM     35  C   PRO d   1     -37.028  17.354 -30.529  0.00  0.00     0.241 C 
ATOM     36  O   PRO d   1     -37.720  16.993 -31.463  0.00  0.00    -0.271 OA
ATOM     37  N   SER d   1     -36.718  18.623 -30.284  0.00  0.00    -0.344 N 
ATOM     38  H81 SER d   1     -36.268  18.843 -29.418  0.00  0.00     0.163 HD
BRANCH  37  39
ATOM     39  CA  SER d   1     -37.002  19.718 -31.219  0.00  0.00     0.109 C 
ATOM     40  H82 SER d   1     -38.013  19.571 -31.627  0.00  0.00     0.090 H 
BRANCH  39  41
ATOM     41  C   SER d   1     -36.010  19.822 -32.386  0.00  0.00     0.242 C 
ATOM     42  O   SER d   1     -34.854  19.397 -32.264  0.00  0.00    -0.271 OA
ATOM     43  N   GLY d   1     -36.455  20.423 -33.490  0.00  0.00    -0.350 N 
ATOM     44  H86 GLY d   1     -37.407  20.729 -33.516  0.00  0.00     0.163 HD
BRANCH  43  45
ATOM     45  CA  GLY d   1     -35.623  20.653 -34.652  0.00  0.00     0.069 C 
ATOM     46  H87 GLY d   1     -36.250  20.680 -35.555  0.00  0.00     0.078 H 
ATOM     47  H88 GLY d   1     -34.884  19.843 -34.743  0.00  0.00     0.078 H 
BRANCH  45  48
ATOM     48  C   GLY d   1     -34.902  21.986 -34.490  0.00  0.00     0.236 C 
ATOM     49  O   GLY d   1     -35.506  23.021 -34.160  0.00  0.00    -0.272 OA
ATOM     50  N   ALA d   1     -33.613  21.968 -34.762  0.00  0.00    -0.347 N 
ATOM     51  H89 ALA d   1     -33.218  21.122 -35.118  0.00  0.00     0.163 HD
BRANCH  50  52
ATOM     52  CA  ALA d   1     -32.729  23.116 -34.572  0.00  0.00     0.086 C 
ATOM     53  H90 ALA d   1     -32.887  23.500 -33.553  0.00  0.00     0.086 H 
BRANCH  52  54
ATOM     54  C   ALA d   1     -32.978  24.271 -35.559  0.00  0.00     0.240 C 
ATOM     55  O   ALA d   1     -33.447  24.049 -36.666  0.00  0.00    -0.271 OA
ATOM     56  N   SER d   1     -32.634  25.499 -35.161  0.00  0.00    -0.343 N 
ATOM     57  H94 SER d   1     -32.405  25.659 -34.201  0.00  0.00     0.163 HD
BRANCH  56  58
ATOM     58  CA  SER d   1     -32.588  26.605 -36.102  0.00  0.00     0.116 C 
ATOM     59  H95 SER d   1     -33.547  26.627 -36.641  0.00  0.00     0.093 H 
BRANCH  58  60
ATOM     60  C   SER d   1     -31.448  26.416 -37.166  0.00  0.00     0.198 C 
ATOM     61  O   SER d   1     -30.335  25.915 -36.959  0.00  0.00    -0.646 OA
ATOM     62  OXT SER d   1     -31.643  26.752 -38.331  0.00  0.00    -0.646 OA
ENDBRANCH  58  60
BRANCH  58  63
ATOM     63  CB  SER d   1     -32.434  27.938 -35.360  0.00  0.00     0.045 C 
ATOM     64  H96 SER d   1     -33.203  28.007 -34.577  0.00  0.00     0.077 H 
ATOM     65  H97 SER d   1     -32.562  28.766 -36.073  0.00  0.00     0.077 H 
BRANCH  63  66
ATOM     66  OG  SER d   1     -31.162  28.031 -34.768  0.00  0.00    -0.398 OA
ATOM     67  H98 SER d   1     -31.049  27.319 -34.149  0.00  0.00     0.209 HD
ENDBRANCH  63  66
ENDBRANCH  58  63
ENDBRANCH  56  58
ENDBRANCH  52  54
BRANCH  52  68
ATOM     68  CB  ALA d   1     -31.277  22.653 -34.710  0.00  0.00    -0.049 C 
ATOM     69  H91 ALA d   1     -30.604  23.511 -34.568  0.00  0.00     0.030 H 
ATOM     70  H92 ALA d   1     -31.122  22.227 -35.712  0.00  0.00     0.030 H 
ATOM     71  H93 ALA d   1     -31.062  21.889 -33.949  0.00  0.00     0.030 H 
ENDBRANCH  52  68
ENDBRANCH  50  52
ENDBRANCH  45  48
ENDBRANCH  43  45
ENDBRANCH  39  41
BRANCH  39  72
ATOM     72  CB  SER d   1     -36.939  21.029 -30.469  0.00  0.00     0.044 C 
ATOM     73  H83 SER d   1     -37.047  21.864 -31.177  0.00  0.00     0.077 H 
ATOM     74  H84 SER d   1     -35.972  21.110 -29.950  0.00  0.00     0.077 H 
BRANCH  72  75
ATOM     75  OG  SER d   1     -37.978  21.072 -29.533  0.00  0.00    -0.398 OA
ATOM     76  H85 SER d   1     -38.812  21.001 -29.983  0.00  0.00     0.209 HD
ENDBRANCH  72  75
ENDBRANCH  39  72
ENDBRANCH  37  39
ENDBRANCH  24  35
ENDBRANCH  19  21
BRANCH  19  77
ATOM     77  CB  VAL d   1     -40.606  14.415 -29.484  0.00  0.00    -0.033 C 
ATOM     78  H67 VAL d   1     -40.960  15.440 -29.300  0.00  0.00     0.042 H 
BRANCH  77  79
ATOM     79  CG1 VAL d   1     -40.175  14.306 -30.966  0.00  0.00    -0.071 C 
ATOM     80  H68 VAL d   1     -41.041  14.503 -31.615  0.00  0.00     0.028 H 
ATOM     81  H69 VAL d   1     -39.792  13.294 -31.163  0.00  0.00     0.028 H 
ATOM     82  H70 VAL d   1     -39.386  15.043 -31.174  0.00  0.00     0.028 H 
ENDBRANCH  77  79
BRANCH  77  83
ATOM     83  CG2 VAL d   1     -41.759  13.443 -29.173  0.00  0.00    -0.071 C 
ATOM     84  H71 VAL d   1     -42.045  13.540 -28.116  0.00  0.00     0.028 H 
ATOM     85  H72 VAL d   1     -41.432  12.411 -29.371  0.00  0.00     0.028 H 
ATOM     86  H73 VAL d   1     -42.623  13.683 -29.811  0.00  0.00     0.028 H 
ENDBRANCH  77  83
ENDBRANCH  19  77
ENDBRANCH  17  19
ENDBRANCH  13  15
BRANCH  13  87
ATOM     87  CB  ALA d   1     -38.953  13.327 -24.032  0.00  0.00    -0.049 C 
ATOM     88  H62 ALA d   1     -38.876  14.398 -24.273  0.00  0.00     0.030 H 
ATOM     89  H63 ALA d   1     -37.951  12.874 -24.048  0.00  0.00     0.030 H 
ATOM     90  H64 ALA d   1     -39.393  13.207 -23.031  0.00  0.00     0.030 H 
ENDBRANCH  13  87
ENDBRANCH  11  13
ENDBRANCH   7   9
BRANCH   7  91
ATOM     91  CB  ALA d   1     -40.509   8.589 -26.789  0.00  0.00    -0.049 C 
ATOM     92  H57 ALA d   1     -39.590   9.117 -27.083  0.00  0.00     0.030 H 
ATOM     93  H58 ALA d   1     -41.322   8.855 -27.481  0.00  0.00     0.030 H 
ATOM     94  H59 ALA d   1     -40.336   7.503 -26.827  0.00  0.00     0.030 H 
ENDBRANCH   7  91
ENDBRANCH   5   7
ENDBRANCH   1   3
BRANCH   1  95
ATOM     95  N2  CIR d   1     -43.678   6.439 -22.359  0.00  0.00    -0.346 N 
ATOM     96  C   PHE d   1     -43.691   5.160 -22.733  0.00  0.00     0.241 C 
ATOM     97  O   PHE d   1     -43.890   4.856 -23.876  0.00  0.00    -0.271 OA
ATOM     98  H45 CIR d   1     -43.600   6.667 -21.389  0.00  0.00     0.163 HD
BRANCH  96  99
ATOM     99  CA  PHE d   1     -43.434   4.085 -21.704  0.00  0.00     0.093 C 
ATOM    100  H36 PHE d   1     -43.566   4.514 -20.700  0.00  0.00     0.088 H 
BRANCH  99 101
ATOM    101  N   PHE d   1     -44.436   2.989 -21.885  0.00  0.00    -0.346 N 
ATOM    102  C   LEU d   1     -45.768   3.231 -21.846  0.00  0.00     0.241 C 
ATOM    103  O   LEU d   1     -46.234   4.336 -21.660  0.00  0.00    -0.271 OA
ATOM    104  H35 PHE d   1     -44.114   2.055 -22.039  0.00  0.00     0.163 HD
BRANCH 102 105
ATOM    105  CA  LEU d   1     -46.732   2.054 -22.050  0.00  0.00     0.089 C 
ATOM    106  H25 LEU d   1     -46.133   1.181 -22.348  0.00  0.00     0.087 H 
BRANCH 105 107
ATOM    107  N   LEU d   1     -47.432   1.707 -20.827  0.00  0.00    -0.346 N 
ATOM    108  C   GLY d   1     -47.420   0.456 -20.355  0.00  0.00     0.236 C 
ATOM    109  O   GLY d   1     -46.738  -0.445 -20.855  0.00  0.00    -0.272 OA
ATOM    110  H24 LEU d   1     -47.932   2.416 -20.329  0.00  0.00     0.163 HD
BRANCH 108 111
ATOM    111  CA  GLY d   1     -48.322   0.154 -19.178  0.00  0.00     0.069 C 
ATOM    112  H22 GLY d   1     -47.946   0.693 -18.296  0.00  0.00     0.078 H 
ATOM    113  H23 GLY d   1     -49.339   0.501 -19.413  0.00  0.00     0.078 H 
BRANCH 111 114
ATOM    114  N   GLY d   1     -48.371  -1.288 -18.869  0.00  0.00    -0.351 N 
ATOM    115  C   LYS d   1     -49.442  -2.081 -19.034  0.00  0.00     0.240 C 
ATOM    116  O   LYS d   1     -50.523  -1.756 -19.610  0.00  0.00    -0.271 OA
ATOM    117  H21 GLY d   1     -47.539  -1.709 -18.507  0.00  0.00     0.163 HD
BRANCH 115 118
ATOM    118  CA  LYS d   1     -49.240  -3.493 -18.474  0.00  0.00     0.089 C 
ATOM    119  H9  LYS d   1     -48.236  -3.564 -18.031  0.00  0.00     0.087 H 
BRANCH 118 120
ATOM    120  N   LYS d   1     -50.243  -3.703 -17.425  0.00  0.00    -0.346 N 
ATOM    121  C   SER d   1     -49.952  -3.979 -16.153  0.00  0.00     0.251 C 
ATOM    122  O   SER d   1     -48.857  -4.283 -15.782  0.00  0.00    -0.271 OA
ATOM    123  H8  LYS d   1     -51.208  -3.635 -17.680  0.00  0.00     0.163 HD
BRANCH 121 124
ATOM    124  CA  SER d   1     -51.098  -3.952 -15.168  0.00  0.00     0.195 C 
ATOM    125  H4  SER d   1     -50.691  -3.972 -14.146  0.00  0.00     0.102 H 
BRANCH 124 126
ATOM    126  N   SER d   1     -51.906  -2.697 -15.332  0.00  0.00    -0.064 N 
ATOM    127  H1  SER d   1     -52.664  -2.696 -14.668  0.00  0.00     0.275 HD
ATOM    128  H2  SER d   1     -52.279  -2.657 -16.268  0.00  0.00     0.275 HD
ATOM    129  H3  SER d   1     -51.317  -1.895 -15.170  0.00  0.00     0.275 HD
ENDBRANCH 124 126
BRANCH 124 130
ATOM    130  CB  SER d   1     -51.945  -5.176 -15.375  0.00  0.00     0.051 C 
ATOM    131  H5  SER d   1     -52.130  -5.305 -16.452  0.00  0.00     0.077 H 
ATOM    132  H6  SER d   1     -52.903  -5.041 -14.852  0.00  0.00     0.077 H 
BRANCH 130 133
ATOM    133  OG  SER d   1     -51.314  -6.326 -14.880  0.00  0.00    -0.398 OA
ATOM    134  H7  SER d   1     -51.873  -7.080 -15.025  0.00  0.00     0.209 HD
ENDBRANCH 130 133
ENDBRANCH 124 130
ENDBRANCH 121 124
ENDBRANCH 118 120
BRANCH 118 135
ATOM    135  CB  LYS d   1     -49.358  -4.551 -19.579  0.00  0.00    -0.038 C 
ATOM    136  H10 LYS d   1     -50.423  -4.794 -19.704  0.00  0.00     0.036 H 
ATOM    137  H11 LYS d   1     -48.813  -5.448 -19.250  0.00  0.00     0.036 H 
BRANCH 135 138
ATOM    138  CG  LYS d   1     -48.810  -4.141 -20.933  0.00  0.00    -0.061 C 
ATOM    139  H12 LYS d   1     -47.918  -3.516 -20.777  0.00  0.00     0.033 H 
ATOM    140  H13 LYS d   1     -49.578  -3.558 -21.462  0.00  0.00     0.033 H 
BRANCH 138 141
ATOM    141  CD  LYS d   1     -48.426  -5.330 -21.792  0.00  0.00    -0.043 C 
ATOM    142  H14 LYS d   1     -49.120  -6.160 -21.593  0.00  0.00     0.035 H 
ATOM    143  H15 LYS d   1     -47.401  -5.642 -21.542  0.00  0.00     0.035 H 
BRANCH 141 144
ATOM    144  CE  LYS d   1     -48.492  -4.963 -23.270  0.00  0.00     0.080 C 
ATOM    145  H16 LYS d   1     -47.958  -4.013 -23.416  0.00  0.00     0.075 H 
ATOM    146  H17 LYS d   1     -49.548  -4.836 -23.549  0.00  0.00     0.075 H 
BRANCH 144 147
ATOM    147  NZ  LYS d   1     -47.890  -5.981 -24.166  0.00  0.00    -0.079 N 
ATOM    148  H18 LYS d   1     -47.968  -5.675 -25.123  0.00  0.00     0.274 HD
ATOM    149  H19 LYS d   1     -48.375  -6.857 -24.053  0.00  0.00     0.274 HD
ATOM    150  H20 LYS d   1     -46.917  -6.103 -23.931  0.00  0.00     0.274 HD
ENDBRANCH 144 147
ENDBRANCH 141 144
ENDBRANCH 138 141
ENDBRANCH 135 138
ENDBRANCH 118 135
ENDBRANCH 115 118
ENDBRANCH 111 114
ENDBRANCH 108 111
ENDBRANCH 105 107
BRANCH 105 151
ATOM    151  CB  LEU d   1     -47.715   2.354 -23.179  0.00  0.00    -0.035 C 
ATOM    152  H26 LEU d   1     -48.285   3.253 -22.900  0.00  0.00     0.037 H 
ATOM    153  H27 LEU d   1     -48.400   1.498 -23.266  0.00  0.00     0.037 H 
BRANCH 151 154
ATOM    154  CG  LEU d   1     -47.094   2.600 -24.556  0.00  0.00    -0.059 C 
ATOM    155  H28 LEU d   1     -46.393   3.441 -24.451  0.00  0.00     0.038 H 
BRANCH 154 156
ATOM    156  CD1 LEU d   1     -46.301   1.381 -25.011  0.00  0.00    -0.073 C 
ATOM    157  H29 LEU d   1     -45.863   1.577 -26.001  0.00  0.00     0.028 H 
ATOM    158  H30 LEU d   1     -46.970   0.510 -25.072  0.00  0.00     0.028 H 
ATOM    159  H31 LEU d   1     -45.497   1.176 -24.289  0.00  0.00     0.028 H 
ENDBRANCH 154 156
BRANCH 154 160
ATOM    160  CD2 LEU d   1     -48.097   2.981 -25.616  0.00  0.00    -0.073 C 
ATOM    161  H32 LEU d   1     -48.666   3.861 -25.282  0.00  0.00     0.028 H 
ATOM    162  H33 LEU d   1     -48.787   2.141 -25.787  0.00  0.00     0.028 H 
ATOM    163  H34 LEU d   1     -47.569   3.219 -26.552  0.00  0.00     0.028 H 
ENDBRANCH 154 160
ENDBRANCH 151 154
ENDBRANCH 105 151
ENDBRANCH 102 105
ENDBRANCH  99 101
BRANCH  99 164
ATOM    164  CB  PHE d   1     -41.954   3.568 -21.828  0.00  0.00    -0.014 C 
ATOM    165  H37 PHE d   1     -41.305   4.426 -22.060  0.00  0.00     0.043 H 
ATOM    166  H38 PHE d   1     -41.909   2.841 -22.652  0.00  0.00     0.043 H 
BRANCH 164 167
ATOM    167  CG  PHE d   1     -41.439   2.909 -20.588  0.00  0.00    -0.056 A 
ATOM    168  CD1 PHE d   1     -41.205   3.653 -19.442  0.00  0.00    -0.077 A 
ATOM    169  CE1 PHE d   1     -40.769   3.045 -18.268  0.00  0.00    -0.082 A 
ATOM    170  H39 PHE d   1     -41.364   4.725 -19.460  0.00  0.00     0.084 H 
ATOM    171  CZ  PHE d   1     -40.550   1.684 -18.237  0.00  0.00    -0.083 A 
ATOM    172  H41 PHE d   1     -40.602   3.641 -17.378  0.00  0.00     0.083 H 
ATOM    173  CE2 PHE d   1     -40.773   0.939 -19.378  0.00  0.00    -0.082 A 
ATOM    174  H43 PHE d   1     -40.207   1.204 -17.327  0.00  0.00     0.083 H 
ATOM    175  CD2 PHE d   1     -41.221   1.548 -20.541  0.00  0.00    -0.077 A 
ATOM    176  H42 PHE d   1     -40.596  -0.131 -19.365  0.00  0.00     0.083 H 
ATOM    177  H40 PHE d   1     -41.402   0.946 -21.424  0.00  0.00     0.084 H 
ENDBRANCH 164 167
ENDBRANCH  99 164
ENDBRANCH  96  99
ENDBRANCH   1  95
BRANCH   1 178
ATOM    178  C3  CIR d   1     -44.549   8.636 -22.655  0.00  0.00    -0.036 C 
ATOM    179  H46 CIR d   1     -43.904   9.112 -21.902  0.00  0.00     0.036 H 
ATOM    180  H47 CIR d   1     -45.443   8.223 -22.164  0.00  0.00     0.036 H 
BRANCH 178 181
ATOM    181  C4  CIR d   1     -44.981   9.681 -23.660  0.00  0.00    -0.048 C 
ATOM    182  H48 CIR d   1     -45.793   9.284 -24.288  0.00  0.00     0.035 H 
ATOM    183  H49 CIR d   1     -44.130   9.963 -24.297  0.00  0.00     0.035 H 
BRANCH 181 184
ATOM    184  C5  CIR d   1     -45.469  10.887 -22.887  0.00  0.00    -0.003 C 
ATOM    185  H50 CIR d   1     -44.595  11.443 -22.516  0.00  0.00     0.064 H 
ATOM    186  H51 CIR d   1     -46.071  10.538 -22.035  0.00  0.00     0.064 H 
BRANCH 184 187
ATOM    187  N6  CIR d   1     -46.285  11.788 -23.695  0.00  0.00    -0.343 N 
ATOM    188  C7  CIR d   1     -47.531  11.625 -24.137  0.00  0.00     0.313 C 
ATOM    189  O7  CIR d   1     -48.069  12.533 -24.800  0.00  0.00    -0.248 OA
ATOM    190  N8  CIR d   1     -48.252  10.531 -23.841  0.00  0.00    -0.352 N 
ATOM    191  H53 CIR d   1     -49.185  10.438 -24.188  0.00  0.00     0.160 HD
ATOM    192  H54 CIR d   1     -47.856   9.809 -23.273  0.00  0.00     0.160 HD
ATOM    193  H52 CIR d   1     -45.847  12.649 -23.953  0.00  0.00     0.164 HD
ENDBRANCH 184 187
ENDBRANCH 181 184
ENDBRANCH 178 181
ENDBRANCH   1 178
TORSDOF 54
