REMARK WARNING: 32 MAX_TORS EXCEEDED!!!
REMARK  57 active torsions:
REMARK  status: ('A' for Active; 'I' for Inactive)
REMARK    1  A    between atoms: CA_2  and  N_1 
REMARK    2  A    between atoms: C_3  and  CA_2 
REMARK    3  A    between atoms: CA_2  and  CB_5 
REMARK       I    between atoms: N_10  and  C_3 
REMARK    4  A    between atoms: CB_5  and  CG_6 
REMARK    5  A    between atoms: CG_6  and  CD_7 
REMARK       I    between atoms: CD_7  and  NE2_9 
REMARK    6  A    between atoms: CA_11  and  N_10 
REMARK    7  A    between atoms: C_12  and  CA_11 
REMARK       I    between atoms: N_18  and  C_12 
REMARK    8  A    between atoms: C_15  and  CA_16 
REMARK       I    between atoms: N_28  and  C_15 
REMARK    9  A    between atoms: CA_16  and  CB1_17 
REMARK   10  A    between atoms: CA_16  and  N_18 
REMARK   11  A    between atoms: CA_16  and  CB_19 
REMARK   12  A    between atoms: CB_19  and  CG_20 
REMARK   13  A    between atoms: CG_20  and  CD_21 
REMARK   14  A    between atoms: CD_21  and  CE_22 
REMARK   15  A    between atoms: CE_22  and  CF_23 
REMARK   16  A    between atoms: CF_23  and  CH_24 
REMARK   17  A    between atoms: C_26  and  CA_27 
REMARK       I    between atoms: N_39  and  C_26 
REMARK   18  A    between atoms: CA_27  and  N_28 
REMARK   19  A    between atoms: CA_27  and  CB_29 
REMARK   20  A    between atoms: CA_40  and  N_39 
REMARK   21  A    between atoms: C_41  and  CA_40 
REMARK   22  A    between atoms: CA_40  and  CB_43 
REMARK       I    between atoms: N_51  and  C_41 
REMARK   23  A    between atoms: CB_43  and  CG_44 
REMARK   24  A    between atoms: C_48  and  CA_49 
REMARK       I    between atoms: N_58  and  C_48 
REMARK   25  A    between atoms: CA_49  and  CB1_50 
REMARK   26  A    between atoms: CA_49  and  N_51 
REMARK   27  A    between atoms: CA_49  and  CB_52 
REMARK   28  A    between atoms: CB_52  and  CG_53 
REMARK   29  A    between atoms: CG_53  and  CD_54 
REMARK   30  A    between atoms: CD_54  and  CE_55 
REMARK   31  A    between atoms: CE_55  and  CF_56 
REMARK   32  A    between atoms: CF_56  and  CH_57 
REMARK   33  A    between atoms: CA_59  and  N_58 
REMARK   34  A    between atoms: C_60  and  CA_59 
REMARK   35  A    between atoms: CA_59  and  CB_62 
REMARK       I    between atoms: N_66  and  C_60 
REMARK   36  A    between atoms: CB_62  and  CG_63 
REMARK   37  A    between atoms: CG_63  and  CD1_64 
REMARK   38  A    between atoms: CG_63  and  CD2_65 
REMARK   39  A    between atoms: CA_67  and  N_66 
REMARK   40  A    between atoms: C_68  and  CA_67 
REMARK   41  A    between atoms: CA_67  and  CB_70 
REMARK       I    between atoms: N_74  and  C_68 
REMARK   42  A    between atoms: CB_70  and  CG_71 
REMARK   43  A    between atoms: CA_75  and  N_74 
REMARK   44  A    between atoms: C_76  and  CA_75 
REMARK   45  A    between atoms: CA_75  and  CB_78 
REMARK       I    between atoms: N_82  and  C_76 
REMARK   46  A    between atoms: CB_78  and  CG_79 
REMARK   47  A    between atoms: CG_79  and  CD1_80 
REMARK   48  A    between atoms: CG_79  and  CD2_81 
REMARK   49  A    between atoms: CA_83  and  N_82 
REMARK   50  A    between atoms: C_84  and  CA_83 
REMARK   51  A    between atoms: CA_83  and  CB_86 
REMARK       I    between atoms: N_96  and  C_84 
REMARK   52  A    between atoms: CG_90  and  CD1_88 
REMARK   53  A    between atoms: CG_90  and  CD2_91 
REMARK   54  A    between atoms: CB_94  and  CG_90 
REMARK   55  A    between atoms: CA_95  and  CB_94 
REMARK   56  A    between atoms: CA_95  and  N_96 
REMARK   57  A    between atoms: CA_95  and  C_97 
REMARK       I    between atoms: C_97  and  N1_99 
ROOT
ATOM      1  CA  GLN d   1      14.112   7.677  14.078  0.00  0.00     0.110 C 
ENDROOT
BRANCH   1   2
ATOM      2  C   GLN d   1      12.608   7.755  14.285  0.00  0.00     0.246 C 
ATOM      3  O   GLN d   1      11.935   6.756  14.379  0.00  0.00    -0.271 OA
ATOM      4  N   GLN d   1      11.976   8.979  14.222  0.00  0.00    -0.346 N 
ATOM      5  H69 GLN d   1      12.525   9.806  14.103  0.00  0.00     0.163 HD
BRANCH   4   6
ATOM      6  CA  GLN d   1      10.514   9.098  14.326  0.00  0.00     0.089 C 
ATOM      7  H70 GLN d   1      10.171   8.526  15.201  0.00  0.00     0.087 H 
BRANCH   6   8
ATOM      8  C   GLN d   1       9.958   8.493  12.987  0.00  0.00     0.241 C 
ATOM      9  O   GLN d   1       8.761   8.222  12.872  0.00  0.00    -0.271 OA
ATOM     10  N   GLN d   1      10.836   8.293  12.011  0.00  0.00    -0.346 N 
ATOM     11  H80 GLN d   1      11.796   8.531  12.159  0.00  0.00     0.163 HD
BRANCH  10  12
ATOM     12  CA  GLN d   1      10.427   7.732  10.727  0.00  0.00     0.098 C 
ATOM     13  H81 GLN d   1      11.225   7.934   9.998  0.00  0.00     0.088 H 
BRANCH  12  14
ATOM     14  C   GLN d   1       9.141   8.374  10.212  0.00  0.00     0.241 C 
ATOM     15  O   GLN d   1       8.091   7.734  10.159  0.00  0.00    -0.271 OA
ATOM     16  N   GLN d   1       9.237   9.644   9.833  0.00  0.00    -0.346 N 
ATOM     17  H84 GLN d   1      10.123  10.101   9.906  0.00  0.00     0.163 HD
BRANCH  16  18
ATOM     18  CA  GLN d   1       8.097  10.401   9.312  0.00  0.00     0.089 C 
ATOM     19  H85 GLN d   1       7.227  10.088   9.908  0.00  0.00     0.087 H 
BRANCH  18  20
ATOM     20  C   GLN d   1       7.774  10.044   7.895  0.00  0.00     0.241 C 
ATOM     21  O   GLN d   1       8.728   9.741   7.151  0.00  0.00    -0.271 OA
ATOM     22  N   GLN d   1       6.498  10.196   7.498  0.00  0.00    -0.346 N 
ATOM     23  H95 GLN d   1       5.806  10.498   8.153  0.00  0.00     0.163 HD
BRANCH  22  24
ATOM     24  CA  GLN d   1       6.120   9.923   6.121  0.00  0.00     0.086 C 
ATOM     25  H96 GLN d   1       6.433   8.895   5.884  0.00  0.00     0.086 H 
BRANCH  24  26
ATOM     26  C   GLN d   1       6.804  10.835   5.139  0.00  0.00     0.240 C 
ATOM     27  O   GLN d   1       6.954  11.973   5.443  0.00  0.00    -0.271 OA
ATOM     28  N   GLN d   1       7.240  10.200   3.989  0.00  0.00    -0.346 N 
ATOM     29 4H10 GLN d   1       7.114   9.215   3.868  0.00  0.00     0.163 HD
BRANCH  28  30
ATOM     30  CA  GLN d   1       7.865  10.976   2.994  0.00  0.00     0.090 C 
ATOM     31 3H10 GLN d   1       8.791  11.379   3.431  0.00  0.00     0.087 H 
BRANCH  30  32
ATOM     32  CB  GLN d   1       8.219  10.077   1.818  0.00  0.00    -0.016 C 
ATOM     33 1H10 GLN d   1       8.208  10.686   0.902  0.00  0.00     0.038 H 
ATOM     34 2H10 GLN d   1       9.231   9.677   1.981  0.00  0.00     0.038 H 
BRANCH  32  35
ATOM     35  CG  GLN d   1       7.318   8.969   1.636  0.00  0.00     0.116 C 
ATOM     36 0H10 GLN d   1       6.281   9.327   1.722  0.00  0.00     0.073 H 
BRANCH  35  37
ATOM     37  CD1 GLN d   1       7.624   7.896   2.632  0.00  0.00     0.187 C 
ATOM     38  O2  GLN d   1       6.720   7.454   3.236  0.00  0.00    -0.647 OA
ATOM     39  O3  GLN d   1       8.862   7.351   2.727  0.00  0.00    -0.647 OA
ENDBRANCH  35  37
BRANCH  35  40
ATOM     40  CD2 GLN d   1       7.526   8.211   0.344  0.00  0.00     0.187 C 
ATOM     41  O4  GLN d   1       8.666   8.224  -0.206  0.00  0.00    -0.647 OA
ATOM     42  O5  GLN d   1       6.582   7.541  -0.102  0.00  0.00    -0.647 OA
ENDBRANCH  35  40
ENDBRANCH  32  35
ENDBRANCH  30  32
BRANCH  30  43
ATOM     43  C   GLN d   1       7.072  12.152   2.436  0.00  0.00     0.238 C 
ATOM     44  O   GLN d   1       5.845  11.898   2.232  0.00  0.00    -0.271 OA
ATOM     45  N1  GLN d   1       7.821  13.322   2.390  0.00  0.00    -0.368 N 
ATOM     46 5H10 GLN d   1       7.411  14.165   2.042  0.00  0.00     0.159 HD
ATOM     47 6H10 GLN d   1       8.770  13.321   2.705  0.00  0.00     0.159 HD
ENDBRANCH  30  43
ENDBRANCH  28  30
ENDBRANCH  24  26
BRANCH  24  48
ATOM     48  CB  GLN d   1       4.617   9.992   5.998  0.00  0.00    -0.049 C 
ATOM     49  H97 GLN d   1       4.324   9.786   4.958  0.00  0.00     0.030 H 
ATOM     50  H98 GLN d   1       4.271  10.996   6.284  0.00  0.00     0.030 H 
ATOM     51  H99 GLN d   1       4.160   9.244   6.662  0.00  0.00     0.030 H 
ENDBRANCH  24  48
ENDBRANCH  22  24
ENDBRANCH  18  20
BRANCH  18  52
ATOM     52  CB  GLN d   1       8.238  11.888   9.535  0.00  0.00    -0.035 C 
ATOM     53  H86 GLN d   1       7.385  12.361   9.026  0.00  0.00     0.037 H 
ATOM     54  H87 GLN d   1       9.173  12.189   9.040  0.00  0.00     0.037 H 
BRANCH  52  55
ATOM     55  CG  GLN d   1       8.283  12.466  10.902  0.00  0.00    -0.059 C 
ATOM     56  H88 GLN d   1       9.111  11.984  11.442  0.00  0.00     0.038 H 
BRANCH  55  57
ATOM     57  CD1 GLN d   1       8.618  13.910  10.870  0.00  0.00    -0.073 C 
ATOM     58  H89 GLN d   1       8.642  14.303  11.897  0.00  0.00     0.028 H 
ATOM     59  H90 GLN d   1       7.857  14.450  10.288  0.00  0.00     0.028 H 
ATOM     60  H91 GLN d   1       9.604  14.047  10.401  0.00  0.00     0.028 H 
ENDBRANCH  55  57
BRANCH  55  61
ATOM     61  CD2 GLN d   1       7.004  12.040  11.610  0.00  0.00    -0.073 C 
ATOM     62  H92 GLN d   1       6.897  10.947  11.547  0.00  0.00     0.028 H 
ATOM     63  H93 GLN d   1       6.140  12.521  11.128  0.00  0.00     0.028 H 
ATOM     64  H94 GLN d   1       7.051  12.344  12.666  0.00  0.00     0.028 H 
ENDBRANCH  55  61
ENDBRANCH  52  55
ENDBRANCH  18  52
ENDBRANCH  16  18
ENDBRANCH  12  14
BRANCH  12  65
ATOM     65  CB  GLN d   1      10.249   6.216  10.838  0.00  0.00     0.043 C 
ATOM     66  H82 GLN d   1       9.216   6.005  11.153  0.00  0.00     0.052 H 
ATOM     67  H83 GLN d   1      10.949   5.833  11.595  0.00  0.00     0.052 H 
BRANCH  65  68
ATOM     68  CG  GLN d   1      10.513   5.501   9.527  0.00  0.00     0.175 C 
ATOM     69  OD1 GLN d   1      10.912   6.172   8.552  0.00  0.00    -0.648 OA
ATOM     70  OD2 GLN d   1      10.320   4.268   9.471  0.00  0.00    -0.648 OA
ENDBRANCH  65  68
ENDBRANCH  12  65
ENDBRANCH  10  12
ENDBRANCH   6   8
BRANCH   6  71
ATOM     71  CB  GLN d   1       9.960  10.424  14.387  0.00  0.00    -0.035 C 
ATOM     72  H71 GLN d   1       9.211  10.535  13.589  0.00  0.00     0.037 H 
ATOM     73  H72 GLN d   1      10.767  11.156  14.236  0.00  0.00     0.037 H 
BRANCH  71  74
ATOM     74  CG  GLN d   1       9.281  10.697  15.759  0.00  0.00    -0.059 C 
ATOM     75  H73 GLN d   1      10.040  10.642  16.553  0.00  0.00     0.038 H 
BRANCH  74  76
ATOM     76  CD1 GLN d   1       8.623  12.074  15.821  0.00  0.00    -0.073 C 
ATOM     77  H74 GLN d   1       8.160  12.215  16.809  0.00  0.00     0.028 H 
ATOM     78  H75 GLN d   1       7.851  12.147  15.040  0.00  0.00     0.028 H 
ATOM     79  H76 GLN d   1       9.384  12.852  15.659  0.00  0.00     0.028 H 
ENDBRANCH  74  76
BRANCH  74  80
ATOM     80  CD2 GLN d   1       8.265   9.607  15.964  0.00  0.00    -0.073 C 
ATOM     81  H77 GLN d   1       8.763   8.627  15.915  0.00  0.00     0.028 H 
ATOM     82  H78 GLN d   1       7.498   9.668  15.178  0.00  0.00     0.028 H 
ATOM     83  H79 GLN d   1       7.791   9.728  16.949  0.00  0.00     0.028 H 
ENDBRANCH  74  80
ENDBRANCH  71  74
ENDBRANCH   6  71
ENDBRANCH   4   6
ENDBRANCH   1   2
BRANCH   1  84
ATOM     84  CB1 GLN d   1      14.436   6.681  12.965  0.00  0.00    -0.044 C 
ATOM     85  H52 GLN d   1      15.526   6.632  12.823  0.00  0.00     0.031 H 
ATOM     86  H53 GLN d   1      13.959   7.008  12.030  0.00  0.00     0.031 H 
ATOM     87  H54 GLN d   1      14.057   5.686  13.242  0.00  0.00     0.031 H 
ENDBRANCH   1  84
BRANCH   1  88
ATOM     88  N   GLN d   1      14.590   9.005  13.709  0.00  0.00    -0.342 N 
ATOM     89  C   GLN d   1      14.277   9.311  12.400  0.00  0.00     0.242 C 
ATOM     90  O   GLN d   1      13.411   8.693  11.780  0.00  0.00    -0.271 OA
ATOM     91  H55 GLN d   1      15.083   9.617  14.327  0.00  0.00     0.163 HD
BRANCH  89  92
ATOM     92  CA  GLN d   1      14.848  10.615  11.854  0.00  0.00     0.098 C 
ATOM     93  H49 GLN d   1      14.370  10.822  10.885  0.00  0.00     0.088 H 
BRANCH  92  94
ATOM     94  N   GLN d   1      14.565  11.730  12.750  0.00  0.00    -0.345 N 
ATOM     95  C   GLN d   1      13.334  12.134  13.040  0.00  0.00     0.242 C 
ATOM     96  O   GLN d   1      12.482  11.556  12.704  0.00  0.00    -0.271 OA
ATOM     97  H48 GLN d   1      15.335  12.214  13.166  0.00  0.00     0.163 HD
BRANCH  95  98
ATOM     98  CA  GLN d   1      13.151  13.419  13.849  0.00  0.00     0.097 C 
ATOM     99  H31 GLN d   1      12.203  13.252  14.382  0.00  0.00     0.088 H 
BRANCH  98 100
ATOM    100  N   GLN d   1      14.143  13.420  14.886  0.00  0.00    -0.345 N 
ATOM    101  C   GLN d   1      13.899  12.739  15.974  0.00  0.00     0.246 C 
ATOM    102  O   GLN d   1      12.921  12.029  15.976  0.00  0.00    -0.271 OA
ATOM    103  H32 GLN d   1      14.998  13.928  14.779  0.00  0.00     0.163 HD
BRANCH 101 104
ATOM    104  CA  GLN d   1      14.951  12.649  17.067  0.00  0.00     0.110 C 
BRANCH 104 105
ATOM    105  CB1 GLN d   1      15.045  11.212  17.583  0.00  0.00    -0.044 C 
ATOM    106  H14 GLN d   1      15.808  11.155  18.373  0.00  0.00     0.031 H 
ATOM    107  H15 GLN d   1      15.324  10.543  16.756  0.00  0.00     0.031 H 
ATOM    108  H16 GLN d   1      14.071  10.905  17.991  0.00  0.00     0.031 H 
ENDBRANCH 104 105
BRANCH 104 109
ATOM    109  N   GLN d   1      16.217  13.071  16.473  0.00  0.00    -0.342 N 
ATOM    110  C   GLN d   1      16.994  12.251  15.874  0.00  0.00     0.236 C 
ATOM    111  O   GLN d   1      16.575  11.132  15.619  0.00  0.00    -0.272 OA
ATOM    112  H17 GLN d   1      16.485  14.032  16.537  0.00  0.00     0.163 HD
BRANCH 110 113
ATOM    113  CA  GLN d   1      18.270  12.712  15.287  0.00  0.00     0.069 C 
ATOM    114  H12 GLN d   1      18.893  13.049  16.128  0.00  0.00     0.078 H 
ATOM    115  H13 GLN d   1      18.732  11.830  14.820  0.00  0.00     0.078 H 
BRANCH 113 116
ATOM    116  N   GLN d   1      18.316  13.751  14.313  0.00  0.00    -0.351 N 
ATOM    117  C   GLN d   1      18.650  13.509  13.049  0.00  0.00     0.248 C 
ATOM    118  O   GLN d   1      18.939  12.387  12.635  0.00  0.00    -0.271 OA
ATOM    119  H11 GLN d   1      18.091  14.686  14.587  0.00  0.00     0.163 HD
BRANCH 117 120
ATOM    120  CA  GLN d   1      18.659  14.713  12.113  0.00  0.00     0.176 C 
ATOM    121  H4  GLN d   1      19.599  15.264  12.268  0.00  0.00     0.099 H 
BRANCH 120 122
ATOM    122  N   GLN d   1      18.599  14.297  10.718  0.00  0.00    -0.066 N 
ATOM    123  H1  GLN d   1      18.606  15.111  10.124  0.00  0.00     0.275 HD
ATOM    124  H2  GLN d   1      17.752  13.773  10.560  0.00  0.00     0.275 HD
ATOM    125  H3  GLN d   1      19.397  13.719  10.505  0.00  0.00     0.275 HD
ENDBRANCH 120 122
BRANCH 120 126
ATOM    126  CB  GLN d   1      17.491  15.645  12.445  0.00  0.00    -0.022 C 
ATOM    127  H5  GLN d   1      16.555  15.077  12.339  0.00  0.00     0.037 H 
ATOM    128  H6  GLN d   1      17.498  16.478  11.726  0.00  0.00     0.037 H 
BRANCH 126 129
ATOM    129  CG  GLN d   1      17.540  16.226  13.849  0.00  0.00     0.011 C 
ATOM    130  H7  GLN d   1      17.584  15.398  14.572  0.00  0.00     0.047 H 
ATOM    131  H8  GLN d   1      16.626  16.813  14.020  0.00  0.00     0.047 H 
BRANCH 129 132
ATOM    132  CD  GLN d   1      18.741  17.124  14.066  0.00  0.00     0.215 C 
ATOM    133  OE1 GLN d   1      18.910  18.132  13.379  0.00  0.00    -0.274 OA
ATOM    134  NE2 GLN d   1      19.584  16.763  15.027  0.00  0.00    -0.370 N 
ATOM    135  H9  GLN d   1      20.395  17.318  15.215  0.00  0.00     0.159 HD
ATOM    136  H10 GLN d   1      19.408  15.937  15.562  0.00  0.00     0.159 HD
ENDBRANCH 129 132
ENDBRANCH 126 129
ENDBRANCH 120 126
ENDBRANCH 117 120
ENDBRANCH 113 116
ENDBRANCH 110 113
ENDBRANCH 104 109
BRANCH 104 137
ATOM    137  CB  GLN d   1      14.560  13.575  18.221  0.00  0.00    -0.033 C 
ATOM    138  H18 GLN d   1      14.463  14.597  17.826  0.00  0.00     0.037 H 
ATOM    139  H19 GLN d   1      15.362  13.547  18.973  0.00  0.00     0.037 H 
BRANCH 137 140
ATOM    140  CG  GLN d   1      13.259  13.203  18.900  0.00  0.00    -0.062 C 
ATOM    141  H20 GLN d   1      13.412  13.195  19.989  0.00  0.00     0.033 H 
ATOM    142  H21 GLN d   1      12.953  12.201  18.566  0.00  0.00     0.033 H 
BRANCH 140 143
ATOM    143  CD  GLN d   1      12.163  14.192  18.562  0.00  0.00    -0.065 C 
ATOM    144  H22 GLN d   1      12.360  14.609  17.563  0.00  0.00     0.033 H 
ATOM    145  H23 GLN d   1      12.176  15.002  19.306  0.00  0.00     0.033 H 
BRANCH 143 146
ATOM    146  CE  GLN d   1      10.775  13.549  18.561  0.00  0.00    -0.065 C 
ATOM    147  H24 GLN d   1      10.683  12.876  17.696  0.00  0.00     0.033 H 
ATOM    148  H25 GLN d   1      10.007  14.334  18.498  0.00  0.00     0.033 H 
BRANCH 146 149
ATOM    149  CF  GLN d   1      10.583  12.749  19.852  0.00  0.00    -0.069 C 
ATOM    150  H26 GLN d   1       9.636  13.043  20.328  0.00  0.00     0.032 H 
ATOM    151  H27 GLN d   1      11.418  12.954  20.538  0.00  0.00     0.032 H 
BRANCH 149 152
ATOM    152  CH  GLN d   1      10.547  11.255  19.526  0.00  0.00    -0.077 C 
ATOM    153  H28 GLN d   1      10.409  10.681  20.454  0.00  0.00     0.027 H 
ATOM    154  H29 GLN d   1      11.494  10.961  19.050  0.00  0.00     0.027 H 
ATOM    155  H30 GLN d   1       9.712  11.049  18.840  0.00  0.00     0.027 H 
ENDBRANCH 149 152
ENDBRANCH 146 149
ENDBRANCH 143 146
ENDBRANCH 140 143
ENDBRANCH 137 140
ENDBRANCH 104 137
ENDBRANCH 101 104
ENDBRANCH  98 100
BRANCH  98 156
ATOM    156  CB  GLN d   1      12.895  14.694  13.185  0.00  0.00    -0.010 C 
ATOM    157  CG  GLN d   1      14.171  15.171  12.501  0.00  0.00    -0.052 C 
ATOM    158  CL  GLN d   1      13.905  16.495  11.805  0.00  0.00    -0.053 C 
ATOM    159  H33 GLN d   1      14.491  14.424  11.759  0.00  0.00     0.034 H 
ATOM    160  H34 GLN d   1      14.963  15.304  13.253  0.00  0.00     0.034 H 
ATOM    161  CK  GLN d   1      12.815  16.309  10.762  0.00  0.00    -0.058 C 
ATOM    162  CM  GLN d   1      13.457  17.526  12.828  0.00  0.00    -0.058 C 
ATOM    163  H42 GLN d   1      14.826  16.842  11.314  0.00  0.00     0.040 H 
ATOM    164  CI  GLN d   1      11.542  15.830  11.439  0.00  0.00    -0.053 C 
ATOM    165  H40 GLN d   1      12.623  17.267  10.257  0.00  0.00     0.034 H 
ATOM    166  H41 GLN d   1      13.140  15.563  10.022  0.00  0.00     0.034 H 
ATOM    167  CH  GLN d   1      11.806  14.505  12.136  0.00  0.00    -0.052 C 
ATOM    168  CJ  GLN d   1      11.093  16.861  12.463  0.00  0.00    -0.058 C 
ATOM    169  H37 GLN d   1      10.754  15.696  10.684  0.00  0.00     0.040 H 
ATOM    170  H35 GLN d   1      10.883  14.156  12.623  0.00  0.00     0.034 H 
ATOM    171  H36 GLN d   1      12.134  13.760  11.396  0.00  0.00     0.034 H 
ATOM    172  CN  GLN d   1      12.183  17.048  13.506  0.00  0.00    -0.053 C 
ATOM    173  H38 GLN d   1      10.172  16.513  12.954  0.00  0.00     0.034 H 
ATOM    174  H39 GLN d   1      10.900  17.819  11.958  0.00  0.00     0.034 H 
ATOM    175  CO  GLN d   1      12.447  15.726  14.207  0.00  0.00    -0.052 C 
ATOM    176  H45 GLN d   1      11.859  17.796  14.245  0.00  0.00     0.040 H 
ATOM    177  H46 GLN d   1      13.236  15.862  14.962  0.00  0.00     0.034 H 
ATOM    178  H47 GLN d   1      11.525  15.380  14.698  0.00  0.00     0.034 H 
ATOM    179  H43 GLN d   1      13.266  18.484  12.323  0.00  0.00     0.034 H 
ATOM    180  H44 GLN d   1      14.246  17.660  13.583  0.00  0.00     0.034 H 
ENDBRANCH  98 156
ENDBRANCH  95  98
ENDBRANCH  92  94
BRANCH  92 181
ATOM    181  CB  GLN d   1      16.355  10.477  11.630  0.00  0.00     0.043 C 
ATOM    182  H50 GLN d   1      16.570   9.450  11.300  0.00  0.00     0.052 H 
ATOM    183  H51 GLN d   1      16.872  10.672  12.581  0.00  0.00     0.052 H 
BRANCH 181 184
ATOM    184  CG  GLN d   1      16.880  11.442  10.585  0.00  0.00     0.175 C 
ATOM    185  OD1 GLN d   1      16.061  12.155   9.968  0.00  0.00    -0.648 OA
ATOM    186  OD2 GLN d   1      18.111  11.486  10.380  0.00  0.00    -0.648 OA
ENDBRANCH 181 184
ENDBRANCH  92 181
ENDBRANCH  89  92
ENDBRANCH   1  88
BRANCH   1 187
ATOM    187  CB  GLN d   1      14.766   7.227  15.386  0.00  0.00    -0.033 C 
ATOM    188  H56 GLN d   1      15.853   7.177  15.225  0.00  0.00     0.037 H 
ATOM    189  H57 GLN d   1      14.385   6.225  15.631  0.00  0.00     0.037 H 
BRANCH 187 190
ATOM    190  CG  GLN d   1      14.502   8.154  16.603  0.00  0.00    -0.062 C 
ATOM    191  H58 GLN d   1      14.401   9.195  16.264  0.00  0.00     0.033 H 
ATOM    192  H59 GLN d   1      15.336   8.080  17.316  0.00  0.00     0.033 H 
BRANCH 190 193
ATOM    193  CD  GLN d   1      13.200   7.698  17.276  0.00  0.00    -0.065 C 
ATOM    194  H60 GLN d   1      13.401   6.810  17.893  0.00  0.00     0.033 H 
ATOM    195  H61 GLN d   1      12.459   7.447  16.503  0.00  0.00     0.033 H 
BRANCH 193 196
ATOM    196  CE  GLN d   1      12.647   8.815  18.163  0.00  0.00    -0.065 C 
ATOM    197  H62 GLN d   1      11.911   9.403  17.596  0.00  0.00     0.033 H 
ATOM    198  H63 GLN d   1      13.470   9.470  18.484  0.00  0.00     0.033 H 
BRANCH 196 199
ATOM    199  CF  GLN d   1      11.973   8.204  19.393  0.00  0.00    -0.069 C 
ATOM    200  H64 GLN d   1      12.742   7.825  20.082  0.00  0.00     0.032 H 
ATOM    201  H65 GLN d   1      11.321   7.375  19.080  0.00  0.00     0.032 H 
BRANCH 199 202
ATOM    202  CH  GLN d   1      11.136   9.272  20.100  0.00  0.00    -0.077 C 
ATOM    203  H66 GLN d   1      10.652   8.832  20.984  0.00  0.00     0.027 H 
ATOM    204  H67 GLN d   1      10.367   9.651  19.411  0.00  0.00     0.027 H 
ATOM    205  H68 GLN d   1      11.788  10.101  20.413  0.00  0.00     0.027 H 
ENDBRANCH 199 202
ENDBRANCH 196 199
ENDBRANCH 193 196
ENDBRANCH 190 193
ENDBRANCH 187 190
ENDBRANCH   1 187
TORSDOF 57
