REMARK  4 active torsions:
REMARK  status: ('A' for Active; 'I' for Inactive)
REMARK    1  A    between atoms: C1_1  and  S1_12 
REMARK    2  A    between atoms: N4_8  and  C2_2 
REMARK    3  A    between atoms: C3_3  and  C4_4 
REMARK       I    between atoms: C3_3  and  N4_8 
REMARK    4  A    between atoms: S1_12  and  N1_5 
ROOT
ATOM      1  C1  AZM d   1      34.971   9.666  19.577  0.00  0.00     0.237 A 
ATOM      2  C2  AZM d   1      37.298   9.974  19.863  0.00  0.00     0.197 A 
ATOM      3  N2  AZM d   1      36.906   8.704  20.183  0.00  0.00    -0.122 NA
ATOM      4  N3  AZM d   1      35.480   8.498  20.003  0.00  0.00    -0.126 NA
ATOM      5  S2  AZM d   1      36.100  10.943  19.376  0.00  0.00    -0.015 SA
ENDROOT
BRANCH   2   6
ATOM      6  N4  AZM d   1      38.576  10.437  20.257  0.00  0.00    -0.305 N 
ATOM      7  C3  AZM d   1      39.152  11.507  19.696  0.00  0.00     0.219 C 
ATOM      8  O3  AZM d   1      38.588  12.621  19.663  0.00  0.00    -0.274 OA
ATOM      9  H6  AZM d   1      39.065   9.948  20.979  0.00  0.00     0.171 HD
BRANCH   7  10
ATOM     10  C4  AZM d   1      40.524  11.292  19.100  0.00  0.00    -0.002 C 
ATOM     11  H1  AZM d   1      40.890  12.237  18.672  0.00  0.00     0.040 H 
ATOM     12  H2  AZM d   1      40.465  10.530  18.309  0.00  0.00     0.040 H 
ATOM     13  H3  AZM d   1      41.216  10.952  19.885  0.00  0.00     0.040 H 
ENDBRANCH   7  10
ENDBRANCH   2   6
BRANCH   1  14
ATOM     14  S1  AZM d   1      33.275   9.800  19.246  0.00  0.00     0.282 S 
ATOM     15  O1  AZM d   1      32.488   9.442  20.412  0.00  0.00    -0.199 OA
ATOM     16  O2  AZM d   1      32.963  11.103  18.674  0.00  0.00    -0.199 OA
BRANCH  14  17
ATOM     17  N1  AZM d   1      33.078   8.643  18.139  0.00  0.00    -0.323 N 
ATOM     18  H4  AZM d   1      32.174   8.476  17.745  0.00  0.00     0.169 HD
ATOM     19  H5  AZM d   1      33.860   8.093  17.846  0.00  0.00     0.169 HD
ENDBRANCH  14  17
ENDBRANCH   1  14
TORSDOF 4
