REMARK  5 active torsions:
REMARK  status: ('A' for Active; 'I' for Inactive)
REMARK    1  A    between atoms: S1_9  and  N1_1 
REMARK    2  A    between atoms: C5_5  and  O3_15 
REMARK    3  A    between atoms: O3_15  and  C8_6 
REMARK    4  A    between atoms: C8_6  and  C9_16 
REMARK    5  A    between atoms: C1_10  and  S1_9 
ROOT
ATOM      1  C2  EZL d   1      36.604   8.922  20.736  0.00  0.00     0.076 A 
ATOM      2  C3  EZL d   1      36.979  10.268  20.300  0.00  0.00     0.039 A 
ATOM      3  C4  EZL d   1      38.263  10.738  20.529  0.00  0.00    -0.032 A 
ATOM      4  C5  EZL d   1      39.201   9.913  21.152  0.00  0.00     0.070 A 
ATOM      5  C1  EZL d   1      34.764   9.785  19.799  0.00  0.00     0.214 A 
ATOM      6  N2  EZL d   1      35.314   8.709  20.405  0.00  0.00    -0.227 NA
ATOM      7  S2  EZL d   1      35.776  11.191  19.575  0.00  0.00    -0.054 SA
ATOM      8  C6  EZL d   1      38.857   8.621  21.555  0.00  0.00    -0.049 A 
ATOM      9  C7  EZL d   1      37.575   8.138  21.355  0.00  0.00    -0.051 A 
ATOM     10  H3  EZL d   1      38.537  11.742  20.226  0.00  0.00     0.090 H 
ATOM     11  H6  EZL d   1      39.601   7.990  22.029  0.00  0.00     0.087 H 
ATOM     12  H7  EZL d   1      37.324   7.136  21.684  0.00  0.00     0.087 H 
ENDROOT
BRANCH   4  13
ATOM     13  O3  EZL d   1      40.493  10.304  21.410  0.00  0.00    -0.351 OA
BRANCH  13  14
ATOM     14  C8  EZL d   1      41.223  11.239  20.610  0.00  0.00     0.023 C 
ATOM     15  H4  EZL d   1      41.345  12.180  21.167  0.00  0.00     0.074 H 
ATOM     16  H5  EZL d   1      40.670  11.433  19.679  0.00  0.00     0.074 H 
BRANCH  14  17
ATOM     17  C9  EZL d   1      42.590  10.670  20.276  0.00  0.00    -0.056 C 
ATOM     18  H8  EZL d   1      43.147  11.392  19.661  0.00  0.00     0.030 H 
ATOM     19  H9  EZL d   1      42.469   9.729  19.718  0.00  0.00     0.030 H 
ATOM     20  H10 EZL d   1      43.144  10.476  21.206  0.00  0.00     0.030 H 
ENDBRANCH  14  17
ENDBRANCH  13  14
ENDBRANCH   4  13
BRANCH   5  21
ATOM     21  S1  EZL d   1      33.167   9.743  19.321  0.00  0.00     0.281 S 
ATOM     22  O1  EZL d   1      32.788  10.995  18.731  0.00  0.00    -0.199 OA
ATOM     23  O2  EZL d   1      32.323   9.487  20.455  0.00  0.00    -0.199 OA
BRANCH  21  24
ATOM     24  N1  EZL d   1      32.987   8.442  18.424  0.00  0.00    -0.323 N 
ATOM     25  H1  EZL d   1      33.477   8.361  17.556  0.00  0.00     0.169 HD
ATOM     26  H2  EZL d   1      32.384   7.705  18.728  0.00  0.00     0.169 HD
ENDBRANCH  21  24
ENDBRANCH   5  21
TORSDOF 5
