REMARK  8 active torsions:
REMARK  status: ('A' for Active; 'I' for Inactive)
REMARK    1  A    between atoms: CAT_1  and  CAU_2 
REMARK    2  A    between atoms: CAU_2  and  CAV_3 
REMARK    3  A    between atoms: CAE_9  and  CAD_10 
REMARK    4  A    between atoms: CAE_9  and  CAJ_11 
REMARK    5  A    between atoms: CAL_16  and  CAM_17 
REMARK    6  A    between atoms: CAM_17  and  OAN_18 
REMARK    7  A    between atoms: OAN_18  and  SAO_19 
REMARK    8  A    between atoms: SAO_19  and  NAP_22 
ROOT
ATOM      1  CAU TOR d   1      38.497  10.698  20.072  0.00  0.00     0.161 C 
ATOM      2  OAR TOR d   1      37.666   9.536  20.221  0.00  0.00    -0.315 OA
ATOM      3  OAQ TOR d   1      38.770  10.754  18.667  0.00  0.00    -0.342 OA
ATOM      4  CAK TOR d   1      37.740  10.034  17.980  0.00  0.00     0.125 C 
ATOM      5  CAG TOR d   1      38.275   9.561  16.639  0.00  0.00     0.099 C 
ATOM      6  OAF TOR d   1      37.208   9.056  15.855  0.00  0.00    -0.345 OA
ATOM      7  CAE TOR d   1      37.700   8.040  15.015  0.00  0.00     0.158 C 
ATOM      8  OAA TOR d   1      38.885   7.546  15.662  0.00  0.00    -0.346 OA
ATOM      9  CAB TOR d   1      39.292   8.437  16.710  0.00  0.00     0.090 C 
ATOM     10  CAC TOR d   1      39.319   7.779  18.090  0.00  0.00     0.050 C 
ATOM     11  OAH TOR d   1      38.018   7.714  18.698  0.00  0.00    -0.348 OA
ATOM     12  CAL TOR d   1      37.315   8.940  18.956  0.00  0.00     0.219 C 
ATOM     13  H7  TOR d   1      36.879  10.692  17.789  0.00  0.00     0.096 H 
ATOM     14  H8  TOR d   1      38.736  10.423  16.134  0.00  0.00     0.091 H 
ATOM     15  H15 TOR d   1      40.299   8.826  16.497  0.00  0.00     0.090 H 
ATOM     16  H16 TOR d   1      39.985   8.361  18.744  0.00  0.00     0.078 H 
ATOM     17  H17 TOR d   1      39.710   6.756  17.985  0.00  0.00     0.078 H 
ENDROOT
BRANCH  12  18
ATOM     18  CAM TOR d   1      35.822   8.607  18.899  0.00  0.00     0.094 C 
ATOM     19  H18 TOR d   1      35.587   7.916  19.722  0.00  0.00     0.085 H 
ATOM     20  H19 TOR d   1      35.610   8.117  17.937  0.00  0.00     0.085 H 
BRANCH  18  21
ATOM     21  OAN TOR d   1      34.983   9.754  19.017  0.00  0.00    -0.254 OA
BRANCH  21  22
ATOM     22  SAO TOR d   1      33.451   9.604  19.168  0.00  0.00     0.355 S 
ATOM     23  OAS TOR d   1      33.137   9.143  20.526  0.00  0.00    -0.176 OA
ATOM     24  OAI TOR d   1      32.840  10.894  18.821  0.00  0.00    -0.176 OA
BRANCH  22  25
ATOM     25  NAP TOR d   1      32.915   8.507  18.260  0.00  0.00    -0.306 N 
ATOM     26  H20 TOR d   1      31.937   8.298  18.252  0.00  0.00     0.171 HD
ATOM     27  H21 TOR d   1      33.541   7.995  17.671  0.00  0.00     0.171 HD
ENDBRANCH  22  25
ENDBRANCH  21  22
ENDBRANCH  18  21
ENDBRANCH  12  18
BRANCH   1  28
ATOM     28  CAT TOR d   1      39.787  10.555  20.873  0.00  0.00    -0.025 C 
ATOM     29  H1  TOR d   1      39.550  10.514  21.946  0.00  0.00     0.035 H 
ATOM     30  H2  TOR d   1      40.440  11.418  20.674  0.00  0.00     0.035 H 
ATOM     31  H3  TOR d   1      40.302   9.630  20.576  0.00  0.00     0.035 H 
ENDBRANCH   1  28
BRANCH   1  32
ATOM     32  CAV TOR d   1      37.798  11.995  20.464  0.00  0.00    -0.025 C 
ATOM     33  H4  TOR d   1      36.867  12.099  19.887  0.00  0.00     0.035 H 
ATOM     34  H5  TOR d   1      38.459  12.847  20.250  0.00  0.00     0.035 H 
ATOM     35  H6  TOR d   1      37.563  11.975  21.538  0.00  0.00     0.035 H 
ENDBRANCH   1  32
BRANCH   7  36
ATOM     36  CAD TOR d   1      38.031   8.628  13.643  0.00  0.00    -0.025 C 
ATOM     37  H9  TOR d   1      37.109   8.998  13.171  0.00  0.00     0.035 H 
ATOM     38  H10 TOR d   1      38.481   7.850  13.009  0.00  0.00     0.035 H 
ATOM     39  H11 TOR d   1      38.741   9.460  13.762  0.00  0.00     0.035 H 
ENDBRANCH   7  36
BRANCH   7  40
ATOM     40  CAJ TOR d   1      36.617   6.967  14.899  0.00  0.00    -0.025 C 
ATOM     41  H12 TOR d   1      36.973   6.156  14.246  0.00  0.00     0.035 H 
ATOM     42  H13 TOR d   1      35.706   7.410  14.470  0.00  0.00     0.035 H 
ATOM     43  H14 TOR d   1      36.393   6.563  15.897  0.00  0.00     0.035 H 
ENDBRANCH   7  40
TORSDOF 8
