REMARK  4 active torsions:
REMARK  status: ('A' for Active; 'I' for Inactive)
REMARK    1  A    between atoms: S1_1  and  N2_5 
REMARK    2  A    between atoms: C14_10  and  S1_1 
REMARK    3  A    between atoms: C10_3  and  N1_2 
REMARK    4  A    between atoms: C11_4  and  C10_3 
ROOT
ATOM      1  C11 MOL d   1      37.441  10.042  20.139  0.00  0.00    -0.033 A 
ATOM      2  C12 MOL d   1      36.717  11.158  19.730  0.00  0.00    -0.074 A 
ATOM      3  C13 MOL d   1      35.359  11.041  19.439  0.00  0.00    -0.060 A 
ATOM      4  C14 MOL d   1      34.696   9.808  19.540  0.00  0.00     0.079 A 
ATOM      5  C15 MOL d   1      35.445   8.704  19.935  0.00  0.00    -0.060 A 
ATOM      6  C16 MOL d   1      36.797   8.830  20.238  0.00  0.00    -0.074 A 
ATOM      7  H8  MOL d   1      37.210  12.119  19.638  0.00  0.00     0.084 H 
ATOM      8  H9  MOL d   1      34.804  11.919  19.129  0.00  0.00     0.085 H 
ATOM      9  H10 MOL d   1      34.969   7.733  20.008  0.00  0.00     0.085 H 
ATOM     10  H11 MOL d   1      37.354   7.957  20.558  0.00  0.00     0.084 H 
ENDROOT
BRANCH   1  11
ATOM     11  C10 MOL d   1      38.912  10.163  20.452  0.00  0.00     0.103 C 
ATOM     12  H4  MOL d   1      39.148  11.200  20.734  0.00  0.00     0.082 H 
ATOM     13  H5  MOL d   1      39.172   9.489  21.282  0.00  0.00     0.082 H 
BRANCH  11  14
ATOM     14  N1  MOL d   1      39.673   9.789  19.252  0.00  0.00    -0.075 N 
ATOM     15  H1  MOL d   1      40.660   9.864  19.443  0.00  0.00     0.274 HD
ATOM     16  H2  MOL d   1      39.430  10.407  18.494  0.00  0.00     0.274 HD
ATOM     17  H3  MOL d   1      39.452   8.839  18.996  0.00  0.00     0.274 HD
ENDBRANCH  11  14
ENDBRANCH   1  11
BRANCH   4  18
ATOM     18  S1  MOL d   1      33.103   9.666  19.236  0.00  0.00     0.256 S 
ATOM     19  O5  MOL d   1      32.586  10.972  18.791  0.00  0.00    -0.201 OA
ATOM     20  O6  MOL d   1      32.416   9.375  20.502  0.00  0.00    -0.201 OA
BRANCH  18  21
ATOM     21  N2  MOL d   1      32.818   8.515  18.234  0.00  0.00    -0.324 N 
ATOM     22  H6  MOL d   1      33.208   8.545  17.314  0.00  0.00     0.169 HD
ATOM     23  H7  MOL d   1      32.244   7.744  18.509  0.00  0.00     0.169 HD
ENDBRANCH  18  21
ENDBRANCH   4  18
TORSDOF 4
