REMARK  11 active torsions:
REMARK  status: ('A' for Active; 'I' for Inactive)
REMARK       I    between atoms: C4_2  and  N9_3 
REMARK    1  A    between atoms: C4_2  and  C3_6 
REMARK    2  A    between atoms: N9_3  and  O10_4 
REMARK    3  A    between atoms: N9_3  and  C11_5 
REMARK    4  A    between atoms: C3_6  and  C2_7 
REMARK    5  A    between atoms: C2_7  and  C1_8 
REMARK    6  A    between atoms: C2_7  and  C13_13 
REMARK    7  A    between atoms: C1_8  and  P5_9 
REMARK    8  A    between atoms: C13_13  and  C14_14 
REMARK    9  A    between atoms: C14_14  and  C15_15 
REMARK   10  A    between atoms: C15_15  and  C16_16 
REMARK   11  A    between atoms: C21_21  and  C22_22 
ROOT
ATOM      1  C13 L54 d   1       0.044  13.224  19.425  0.00  0.00    -0.060 C 
ATOM      2  H10 L54 d   1       0.743  13.013  18.602  0.00  0.00     0.033 H 
ATOM      3  H11 L54 d   1      -0.772  13.863  19.058  0.00  0.00     0.033 H 
ENDROOT
BRANCH   1   4
ATOM      4  C2  L54 d   1       0.807  13.983  20.547  0.00  0.00    -0.034 C 
ATOM      5  H7  L54 d   1       1.118  14.955  20.136  0.00  0.00     0.041 H 
BRANCH   4   6
ATOM      6  C3  L54 d   1       2.087  13.229  20.977  0.00  0.00     0.015 C 
ATOM      7  H5  L54 d   1       2.190  13.271  22.071  0.00  0.00     0.047 H 
ATOM      8  H6  L54 d   1       2.023  12.179  20.655  0.00  0.00     0.047 H 
BRANCH   6   9
ATOM      9  C4  L54 d   1       3.290  13.889  20.326  0.00  0.00     0.243 C 
ATOM     10  O12 L54 d   1       3.710  14.930  20.808  0.00  0.00    -0.271 OA
ATOM     11  N9  L54 d   1       3.841  13.380  19.191  0.00  0.00    -0.233 N 
BRANCH  11  12
ATOM     12  O10 L54 d   1       4.909  14.045  18.600  0.00  0.00    -0.285 OA
ATOM     13  H1  L54 d   1       5.183  13.573  17.822  0.00  0.00     0.245 HD
ENDBRANCH  11  12
BRANCH  11  14
ATOM     14  C11 L54 d   1       3.338  12.138  18.568  0.00  0.00     0.009 C 
ATOM     15  H2  L54 d   1       3.928  11.915  17.666  0.00  0.00     0.060 H 
ATOM     16  H3  L54 d   1       2.281  12.268  18.292  0.00  0.00     0.060 H 
ATOM     17  H4  L54 d   1       3.431  11.306  19.282  0.00  0.00     0.060 H 
ENDBRANCH  11  14
ENDBRANCH   6   9
ENDBRANCH   4   6
BRANCH   4  18
ATOM     18  C1  L54 d   1      -0.098  14.258  21.745  0.00  0.00     0.043 C 
ATOM     19  H8  L54 d   1       0.494  14.209  22.671  0.00  0.00     0.054 H 
ATOM     20  H9  L54 d   1      -0.897  13.503  21.781  0.00  0.00     0.054 H 
BRANCH  18  21
ATOM     21  P5  L54 d   1      -0.832  15.907  21.585  0.00  0.00     0.259 P 
ATOM     22  O7  L54 d   1       0.005  16.886  22.350  0.00  0.00    -0.640 OA
ATOM     23  O6  L54 d   1      -2.216  15.871  22.146  0.00  0.00    -0.640 OA
ATOM     24  O8  L54 d   1      -0.889  16.306  20.146  0.00  0.00    -0.640 OA
ENDBRANCH  18  21
ENDBRANCH   4  18
ENDBRANCH   1   4
BRANCH   1  25
ATOM     25  C14 L54 d   1      -0.559  11.881  19.926  0.00  0.00    -0.061 C 
ATOM     26  H12 L54 d   1      -1.371  12.094  20.636  0.00  0.00     0.033 H 
ATOM     27  H13 L54 d   1       0.227  11.300  20.431  0.00  0.00     0.033 H 
BRANCH  25  28
ATOM     28  C15 L54 d   1      -1.119  11.057  18.753  0.00  0.00    -0.041 C 
ATOM     29  H14 L54 d   1      -1.937  11.615  18.274  0.00  0.00     0.040 H 
ATOM     30  H15 L54 d   1      -1.502  10.098  19.132  0.00  0.00     0.040 H 
BRANCH  28  31
ATOM     31  C16 L54 d   1      -0.034  10.796  17.741  0.00  0.00    -0.058 A 
ATOM     32  C17 L54 d   1       0.911   9.815  17.982  0.00  0.00    -0.076 A 
ATOM     33  C19 L54 d   1       1.922   9.588  17.066  0.00  0.00    -0.068 A 
ATOM     34  H16 L54 d   1       0.859   9.224  18.889  0.00  0.00     0.084 H 
ATOM     35  C21 L54 d   1       1.993  10.351  15.904  0.00  0.00     0.047 A 
ATOM     36  H17 L54 d   1       2.659   8.816  17.253  0.00  0.00     0.084 H 
ATOM     37  C20 L54 d   1       1.051  11.346  15.669  0.00  0.00    -0.068 A 
ATOM     38  C18 L54 d   1       0.037  11.565  16.585  0.00  0.00    -0.076 A 
ATOM     39  H19 L54 d   1       1.111  11.949  14.770  0.00  0.00     0.084 H 
ATOM     40  H18 L54 d   1      -0.702  12.336  16.401  0.00  0.00     0.084 H 
BRANCH  35  41
ATOM     41  C22 L54 d   1       3.104  10.105  14.908  0.00  0.00     0.417 C 
ATOM     42  F25 L54 d   1       3.407   8.799  14.894  0.00  0.00    -0.166 F 
ATOM     43  F23 L54 d   1       2.710  10.492  13.674  0.00  0.00    -0.166 F 
ATOM     44  F24 L54 d   1       4.186  10.804  15.268  0.00  0.00    -0.166 F 
ENDBRANCH  35  41
ENDBRANCH  28  31
ENDBRANCH  25  28
ENDBRANCH   1  25
TORSDOF 11
