REMARK  11 active torsions:
REMARK  status: ('A' for Active; 'I' for Inactive)
REMARK    1  A    between atoms: P5_2  and  C1_5 
REMARK    2  A    between atoms: C1_5  and  C2_6 
REMARK    3  A    between atoms: C2_6  and  C3_7 
REMARK    4  A    between atoms: C2_6  and  C13_13 
REMARK    5  A    between atoms: C3_7  and  C4_8 
REMARK       I    between atoms: C4_8  and  N9_9 
REMARK    6  A    between atoms: N9_9  and  C11_10 
REMARK    7  A    between atoms: N9_9  and  O10_11 
REMARK    8  A    between atoms: C13_13  and  C14_14 
REMARK    9  A    between atoms: C14_14  and  C15_15 
REMARK   10  A    between atoms: C15_15  and  C16_16 
REMARK   11  A    between atoms: C19_20  and  C22_22 
ROOT
ATOM      1  C13 L56 d   1       0.435  13.472  19.050  0.00  0.00    -0.060 C 
ATOM      2  H10 L56 d   1       1.232  13.412  18.294  0.00  0.00     0.033 H 
ATOM      3  H11 L56 d   1      -0.361  14.140  18.691  0.00  0.00     0.033 H 
ENDROOT
BRANCH   1   4
ATOM      4  C2  L56 d   1       1.034  14.067  20.364  0.00  0.00    -0.034 C 
ATOM      5  H3  L56 d   1       1.379  15.088  20.144  0.00  0.00     0.041 H 
BRANCH   4   6
ATOM      6  C1  L56 d   1      -0.035  14.156  21.460  0.00  0.00     0.043 C 
ATOM      7  H1  L56 d   1      -0.839  13.436  21.248  0.00  0.00     0.054 H 
ATOM      8  H2  L56 d   1       0.418  13.924  22.435  0.00  0.00     0.054 H 
BRANCH   6   9
ATOM      9  P5  L56 d   1      -0.720  15.838  21.494  0.00  0.00     0.259 P 
ATOM     10  O8  L56 d   1      -0.820  16.364  20.119  0.00  0.00    -0.640 OA
ATOM     11  O7  L56 d   1       0.176  16.716  22.307  0.00  0.00    -0.640 OA
ATOM     12  O6  L56 d   1      -2.100  15.793  22.123  0.00  0.00    -0.640 OA
ENDBRANCH   6   9
ENDBRANCH   4   6
BRANCH   4  13
ATOM     13  C3  L56 d   1       2.265  13.243  20.851  0.00  0.00     0.015 C 
ATOM     14  H4  L56 d   1       2.166  12.199  20.519  0.00  0.00     0.047 H 
ATOM     15  H5  L56 d   1       2.321  13.275  21.949  0.00  0.00     0.047 H 
BRANCH  13  16
ATOM     16  C4  L56 d   1       3.525  13.852  20.256  0.00  0.00     0.243 C 
ATOM     17  N9  L56 d   1       4.108  13.325  19.138  0.00  0.00    -0.233 N 
ATOM     18  O12 L56 d   1       3.950  14.882  20.745  0.00  0.00    -0.271 OA
BRANCH  17  19
ATOM     19  C11 L56 d   1       3.617  12.082  18.517  0.00  0.00     0.009 C 
ATOM     20  H6  L56 d   1       4.231  11.845  17.635  0.00  0.00     0.060 H 
ATOM     21  H7  L56 d   1       2.569  12.215  18.210  0.00  0.00     0.060 H 
ATOM     22  H8  L56 d   1       3.685  11.258  19.242  0.00  0.00     0.060 H 
ENDBRANCH  17  19
BRANCH  17  23
ATOM     23  O10 L56 d   1       5.224  13.964  18.583  0.00  0.00    -0.285 OA
ATOM     24  H9  L56 d   1       5.422  14.746  19.085  0.00  0.00     0.245 HD
ENDBRANCH  17  23
ENDBRANCH  13  16
ENDBRANCH   4  13
ENDBRANCH   1   4
BRANCH   1  25
ATOM     25  C14 L56 d   1      -0.158  12.061  19.258  0.00  0.00    -0.061 C 
ATOM     26  H12 L56 d   1      -1.041  12.128  19.910  0.00  0.00     0.033 H 
ATOM     27  H13 L56 d   1       0.597  11.413  19.728  0.00  0.00     0.033 H 
BRANCH  25  28
ATOM     28  C15 L56 d   1      -0.571  11.463  17.897  0.00  0.00    -0.041 C 
ATOM     29  H14 L56 d   1      -1.035  12.249  17.283  0.00  0.00     0.040 H 
ATOM     30  H15 L56 d   1      -1.296  10.652  18.064  0.00  0.00     0.040 H 
BRANCH  28  31
ATOM     31  C16 L56 d   1       0.636  10.909  17.167  0.00  0.00    -0.058 A 
ATOM     32  C18 L56 d   1       1.129  11.556  16.024  0.00  0.00    -0.077 A 
ATOM     33  C20 L56 d   1       2.235  11.041  15.341  0.00  0.00    -0.082 A 
ATOM     34  H16 L56 d   1       0.649  12.461  15.668  0.00  0.00     0.084 H 
ATOM     35  C21 L56 d   1       2.835   9.866  15.812  0.00  0.00    -0.077 A 
ATOM     36  H17 L56 d   1       2.622  11.543  14.461  0.00  0.00     0.083 H 
ATOM     37  C19 L56 d   1       2.329   9.222  16.948  0.00  0.00    -0.061 A 
ATOM     38  H18 L56 d   1       3.694   9.454  15.295  0.00  0.00     0.084 H 
ATOM     39  C17 L56 d   1       1.231   9.739  17.612  0.00  0.00    -0.071 A 
ATOM     40  H19 L56 d   1       0.835   9.228  18.482  0.00  0.00     0.085 H 
BRANCH  37  41
ATOM     41  C22 L56 d   1       2.974   7.950  17.450  0.00  0.00    -0.051 C 
ATOM     42  H20 L56 d   1       3.826   7.691  16.804  0.00  0.00     0.033 H 
ATOM     43  H21 L56 d   1       2.238   7.133  17.431  0.00  0.00     0.033 H 
ATOM     44  H22 L56 d   1       3.328   8.100  18.481  0.00  0.00     0.033 H 
ENDBRANCH  37  41
ENDBRANCH  28  31
ENDBRANCH  25  28
ENDBRANCH   1  25
TORSDOF 11
