REMARK  9 active torsions:
REMARK  status: ('A' for Active; 'I' for Inactive)
REMARK    1  A    between atoms: C12_4  and  C14_5 
REMARK    2  A    between atoms: C18_9  and  O19_28 
REMARK    3  A    between atoms: C25_15  and  C26_16 
REMARK       I    between atoms: N13_27  and  C25_15 
REMARK    4  A    between atoms: C29_18  and  C33_33 
REMARK    5  A    between atoms: C7_23  and  C6_22 
REMARK    6  A    between atoms: C10_26  and  N13_27 
REMARK    7  A    between atoms: N31_31  and  C32_32 
REMARK    8  A    between atoms: C32_32  and  C34_34 
REMARK    9  A    between atoms: C32_32  and  C35_35 
ROOT
ATOM      1  C11 6LT d   1      28.958 -29.487  13.194  0.00  0.00    -0.046 A 
ATOM      2  C12 6LT d   1      28.988 -29.711  14.578  0.00  0.00    -0.015 A 
ATOM      3  C7  6LT d   1      29.549 -28.736  15.435  0.00  0.00    -0.021 A 
ATOM      4  C8  6LT d   1      30.039 -27.530  14.860  0.00  0.00    -0.072 A 
ATOM      5  C9  6LT d   1      30.052 -27.334  13.475  0.00  0.00    -0.057 A 
ATOM      6  C10 6LT d   1      29.516 -28.319  12.628  0.00  0.00     0.035 A 
ATOM      7  H2  6LT d   1      28.498 -30.224  12.546  0.00  0.00     0.088 H 
ATOM      8  H18 6LT d   1      30.410 -26.746  15.510  0.00  0.00     0.084 H 
ATOM      9  H19 6LT d   1      30.473 -26.427  13.057  0.00  0.00     0.086 H 
ENDROOT
BRANCH   6  10
ATOM     10  N13 6LT d   1      29.430 -28.053  11.228  0.00  0.00    -0.322 N 
ATOM     11  C25 6LT d   1      29.533 -28.947  10.214  0.00  0.00     0.274 C 
ATOM     12  O27 6LT d   1      29.805 -30.129  10.368  0.00  0.00    -0.266 OA
ATOM     13  H20 6LT d   1      29.277 -27.100  10.966  0.00  0.00     0.169 HD
BRANCH  11  14
ATOM     14  C26 6LT d   1      29.441 -28.440   8.827  0.00  0.00     0.123 A 
ATOM     15  C28 6LT d   1      30.450 -27.712   8.327  0.00  0.00    -0.019 A 
ATOM     16  C29 6LT d   1      30.040 -27.334   6.975  0.00  0.00     0.121 A 
ATOM     17  H15 6LT d   1      31.384 -27.455   8.825  0.00  0.00     0.090 H 
ATOM     18  N30 6LT d   1      28.889 -27.828   6.819  0.00  0.00    -0.171 NA
ATOM     19  N31 6LT d   1      28.475 -28.501   7.922  0.00  0.00    -0.260 N 
BRANCH  16  20
ATOM     20  C33 6LT d   1      30.790 -26.517   5.959  0.00  0.00     0.251 C 
ATOM     21  F36 6LT d   1      30.016 -26.337   4.839  0.00  0.00    -0.207 F 
ATOM     22  F37 6LT d   1      31.104 -25.319   6.526  0.00  0.00    -0.207 F 
ATOM     23  H23 6LT d   1      31.715 -27.041   5.676  0.00  0.00     0.155 H 
ENDBRANCH  16  20
BRANCH  19  24
ATOM     24  C32 6LT d   1      27.164 -29.152   7.942  0.00  0.00     0.028 C 
ATOM     25  H22 6LT d   1      26.831 -29.311   8.978  0.00  0.00     0.074 H 
BRANCH  24  26
ATOM     26  C34 6LT d   1      26.159 -28.241   7.183  0.00  0.00    -0.056 C 
ATOM     27  H24 6LT d   1      25.164 -28.711   7.185  0.00  0.00     0.030 H 
ATOM     28  H25 6LT d   1      26.498 -28.105   6.146  0.00  0.00     0.030 H 
ATOM     29  H26 6LT d   1      26.103 -27.262   7.681  0.00  0.00     0.030 H 
ENDBRANCH  24  26
BRANCH  24  30
ATOM     30  C35 6LT d   1      27.266 -30.506   7.198  0.00  0.00    -0.056 C 
ATOM     31  H27 6LT d   1      26.285 -31.004   7.207  0.00  0.00     0.030 H 
ATOM     32  H28 6LT d   1      28.007 -31.145   7.700  0.00  0.00     0.030 H 
ATOM     33  H29 6LT d   1      27.578 -30.330   6.158  0.00  0.00     0.030 H 
ENDBRANCH  24  30
ENDBRANCH  19  24
ENDBRANCH  11  14
ENDBRANCH   6  10
BRANCH   2  34
ATOM     34  C14 6LT d   1      28.347 -30.965  15.078  0.00  0.00    -0.025 A 
ATOM     35  C20 6LT d   1      27.104 -30.900  15.746  0.00  0.00    -0.072 A 
ATOM     36  C21 6LT d   1      26.538 -32.097  16.185  0.00  0.00    -0.082 A 
ATOM     37  H10 6LT d   1      26.607 -29.951  15.912  0.00  0.00     0.084 H 
ATOM     38  C22 6LT d   1      27.180 -33.343  16.005  0.00  0.00    -0.083 A 
ATOM     39  H11 6LT d   1      25.574 -32.071  16.680  0.00  0.00     0.083 H 
ATOM     40  C23 6LT d   1      28.422 -33.407  15.360  0.00  0.00    -0.082 A 
ATOM     41  H12 6LT d   1      26.711 -34.251  16.367  0.00  0.00     0.083 H 
ATOM     42  C24 6LT d   1      29.008 -32.208  14.909  0.00  0.00    -0.072 A 
ATOM     43  H13 6LT d   1      28.921 -34.358  15.211  0.00  0.00     0.083 H 
ATOM     44  H14 6LT d   1      29.978 -32.236  14.426  0.00  0.00     0.084 H 
ENDBRANCH   2  34
BRANCH   3  45
ATOM     45  C6  6LT d   1      29.580 -28.974  16.974  0.00  0.00     0.068 C 
ATOM     46  C18 6LT d   1      30.971 -28.654  17.652  0.00  0.00     0.059 C 
ATOM     47  C17 6LT d   1      31.203 -29.448  18.978  0.00  0.00    -0.038 C 
ATOM     48  H9  6LT d   1      31.755 -28.965  16.946  0.00  0.00     0.086 H 
ATOM     49  C16 6LT d   1      30.423 -28.911  20.216  0.00  0.00    -0.058 C 
ATOM     50  H7  6LT d   1      30.897 -30.491  18.809  0.00  0.00     0.036 H 
ATOM     51  H8  6LT d   1      32.277 -29.415  19.212  0.00  0.00     0.036 H 
ATOM     52  C15 6LT d   1      28.904 -29.166  20.104  0.00  0.00    -0.025 C 
ATOM     53  H5  6LT d   1      30.801 -29.414  21.118  0.00  0.00     0.033 H 
ATOM     54  H6  6LT d   1      30.595 -27.828  20.300  0.00  0.00     0.033 H 
ATOM     55  C1  6LT d   1      28.167 -28.415  19.001  0.00  0.00     0.031 A 
ATOM     56  H3  6LT d   1      28.758 -30.242  19.930  0.00  0.00     0.042 H 
ATOM     57  H4  6LT d   1      28.446 -28.884  21.064  0.00  0.00     0.042 H 
ATOM     58  N2  6LT d   1      28.471 -28.328  17.712  0.00  0.00    -0.332 N 
ATOM     59  C5  6LT d   1      27.093 -27.632  19.269  0.00  0.00     0.025 A 
ATOM     60  C3  6LT d   1      27.595 -27.527  17.136  0.00  0.00     0.066 A 
ATOM     61  N4  6LT d   1      26.770 -27.091  17.965  0.00  0.00    -0.254 NA
ATOM     62  H1  6LT d   1      27.592 -27.279  16.076  0.00  0.00     0.143 H 
ATOM     63  H16 6LT d   1      26.599 -27.455  20.223  0.00  0.00     0.117 H 
ATOM     64  H17 6LT d   1      29.430 -30.056  17.099  0.00  0.00     0.085 H 
BRANCH  46  65
ATOM     65  O19 6LT d   1      31.119 -27.228  17.871  0.00  0.00    -0.393 OA
ATOM     66  H21 6LT d   1      30.422 -26.922  18.440  0.00  0.00     0.210 HD
ENDBRANCH  46  65
ENDBRANCH   3  45
TORSDOF 9
