REMARK  3 active torsions:
REMARK  status: ('A' for Active; 'I' for Inactive)
REMARK    1  A    between atoms: C12_4  and  C13_5 
REMARK    2  A    between atoms: C24_15  and  O25_25 
REMARK    3  A    between atoms: C6_19  and  C7_20 
ROOT
ATOM      1  C11 6M3 d   1      29.189 -29.974  12.921  0.00  0.00    -0.051 A 
ATOM      2  C12 6M3 d   1      29.259 -30.152  14.298  0.00  0.00    -0.014 A 
ATOM      3  C14 6M3 d   1      29.337 -28.629  10.883  0.00  0.00     0.099 C 
ATOM      4  C7  6M3 d   1      29.721 -29.100  15.125  0.00  0.00    -0.021 A 
ATOM      5  C8  6M3 d   1      30.008 -27.839  14.483  0.00  0.00    -0.072 A 
ATOM      6  C9  6M3 d   1      29.913 -27.666  13.082  0.00  0.00    -0.062 A 
ATOM      7  C10 6M3 d   1      29.498 -28.770  12.299  0.00  0.00     0.045 A 
ATOM      8  N15 6M3 d   1      29.208 -28.515   9.743  0.00  0.00    -0.191 NA
ATOM      9  H2  6M3 d   1      28.880 -30.811  12.305  0.00  0.00     0.087 H 
ATOM     10  H16 6M3 d   1      30.306 -26.996  15.095  0.00  0.00     0.084 H 
ATOM     11  H17 6M3 d   1      30.151 -26.714  12.621  0.00  0.00     0.085 H 
ENDROOT
BRANCH   2  12
ATOM     12  C13 6M3 d   1      29.106 -31.545  14.862  0.00  0.00    -0.004 C 
ATOM     13  C16 6M3 d   1      27.868 -31.958  15.394  0.00  0.00     0.045 C 
ATOM     14  C17 6M3 d   1      27.639 -33.267  15.848  0.00  0.00    -0.061 C 
ATOM     15 CL1  6M3 d   1      26.665 -30.784  15.691  0.00  0.00    -0.083 Cl
ATOM     16  C18 6M3 d   1      28.661 -34.215  15.681  0.00  0.00    -0.081 C 
ATOM     17  H3  6M3 d   1      26.699 -33.538  16.315  0.00  0.00     0.086 H 
ATOM     18  C19 6M3 d   1      29.874 -33.839  15.062  0.00  0.00    -0.082 C 
ATOM     19  H4  6M3 d   1      28.520 -35.233  16.026  0.00  0.00     0.083 H 
ATOM     20  C20 6M3 d   1      30.099 -32.514  14.622  0.00  0.00    -0.071 C 
ATOM     21  H5  6M3 d   1      30.650 -34.583  14.921  0.00  0.00     0.083 H 
ATOM     22  H6  6M3 d   1      31.017 -32.250  14.110  0.00  0.00     0.084 H 
ENDBRANCH   2  12
BRANCH   4  23
ATOM     23  C6  6M3 d   1      29.831 -29.265  16.667  0.00  0.00     0.068 C 
ATOM     24  C24 6M3 d   1      31.268 -28.899  17.180  0.00  0.00     0.059 C 
ATOM     25  C23 6M3 d   1      31.559 -29.610  18.549  0.00  0.00    -0.038 C 
ATOM     26  H13 6M3 d   1      32.020 -29.219  16.444  0.00  0.00     0.086 H 
ATOM     27  C22 6M3 d   1      30.784 -29.070  19.797  0.00  0.00    -0.058 C 
ATOM     28  H11 6M3 d   1      31.305 -30.674  18.433  0.00  0.00     0.036 H 
ATOM     29  H12 6M3 d   1      32.635 -29.510  18.755  0.00  0.00     0.036 H 
ATOM     30  C21 6M3 d   1      29.260 -29.377  19.774  0.00  0.00    -0.025 C 
ATOM     31  H9  6M3 d   1      31.216 -29.529  20.698  0.00  0.00     0.033 H 
ATOM     32  H10 6M3 d   1      30.917 -27.979  19.842  0.00  0.00     0.033 H 
ATOM     33  C1  6M3 d   1      28.484 -28.614  18.706  0.00  0.00     0.031 A 
ATOM     34  H7  6M3 d   1      29.128 -30.454  19.593  0.00  0.00     0.042 H 
ATOM     35  H8  6M3 d   1      28.841 -29.116  20.757  0.00  0.00     0.042 H 
ATOM     36  N2  6M3 d   1      28.751 -28.559  17.406  0.00  0.00    -0.332 N 
ATOM     37  C5  6M3 d   1      27.416 -27.811  18.993  0.00  0.00     0.025 A 
ATOM     38  C3  6M3 d   1      27.860 -27.763  16.846  0.00  0.00     0.066 A 
ATOM     39  N4  6M3 d   1      27.049 -27.302  17.669  0.00  0.00    -0.254 NA
ATOM     40  H1  6M3 d   1      27.837 -27.535  15.781  0.00  0.00     0.143 H 
ATOM     41  H14 6M3 d   1      26.956 -27.603  19.958  0.00  0.00     0.117 H 
ATOM     42  H15 6M3 d   1      29.691 -30.336  16.875  0.00  0.00     0.085 H 
BRANCH  24  43
ATOM     43  O25 6M3 d   1      31.306 -27.455  17.321  0.00  0.00    -0.393 OA
ATOM     44  H18 6M3 d   1      30.644 -27.181  17.945  0.00  0.00     0.210 HD
ENDBRANCH  24  43
ENDBRANCH   4  23
TORSDOF 3
