REMARK  9 active torsions:
REMARK  status: ('A' for Active; 'I' for Inactive)
REMARK    1  A    between atoms: PB_2  and  O3A_5 
REMARK    2  A    between atoms: O3A_5  and  PA_6 
REMARK    3  A    between atoms: PA_6  and  O5'_9 
REMARK    4  A    between atoms: O5'_9  and  C5'_10 
REMARK    5  A    between atoms: C5'_10  and  C4'_11 
REMARK    6  A    between atoms: C3'_13  and  O3'_14 
REMARK    7  A    between atoms: C2'_15  and  O2'_16 
REMARK    8  A    between atoms: C1'_17  and  N1_18 
REMARK    9  A    between atoms: C4_22  and  N4_23 
ROOT
ATOM      1  C4' CDP d   1     -10.711 -21.275  28.447  0.00  0.00     0.089 C 
ATOM      2  O4' CDP d   1      -9.898 -21.158  29.829  0.00  0.00    -0.354 OA
ATOM      3  C3' CDP d   1      -9.866 -21.292  27.472  0.00  0.00     0.091 C 
ATOM      4  C2' CDP d   1      -8.480 -21.572  28.095  0.00  0.00     0.104 C 
ATOM      5  C1' CDP d   1      -8.616 -21.253  29.570  0.00  0.00     0.137 C 
ATOM      6  H3  CDP d   1     -11.386 -20.413  28.337  0.00  0.00     0.090 H 
ATOM      7  H4  CDP d   1     -10.129 -22.078  26.749  0.00  0.00     0.091 H 
ATOM      8  H6  CDP d   1      -8.197 -22.625  27.948  0.00  0.00     0.093 H 
ATOM      9  H8  CDP d   1      -8.111 -20.304  29.804  0.00  0.00     0.122 H 
ENDROOT
BRANCH   5  10
ATOM     10  N1  CDP d   1      -8.012 -22.351  30.363  0.00  0.00    -0.301 N 
ATOM     11  C2  CDP d   1      -6.653 -22.244  30.879  0.00  0.00     0.326 A 
ATOM     12  O2  CDP d   1      -5.989 -21.243  30.669  0.00  0.00    -0.247 OA
ATOM     13  N3  CDP d   1      -6.078 -23.354  31.661  0.00  0.00    -0.295 N 
ATOM     14  C4  CDP d   1      -6.840 -24.527  31.915  0.00  0.00     0.100 A 
ATOM     15  H9  CDP d   1      -5.146 -23.281  32.015  0.00  0.00     0.172 HD
ATOM     16  C5  CDP d   1      -8.208 -24.640  31.397  0.00  0.00    -0.044 A 
ATOM     17  C6  CDP d   1      -8.785 -23.531  30.614  0.00  0.00     0.020 A 
ATOM     18  H12 CDP d   1      -8.794 -25.537  31.590  0.00  0.00     0.085 H 
ATOM     19  H13 CDP d   1      -9.060 -23.945  29.633  0.00  0.00     0.070 H 
ATOM     20  H14 CDP d   1      -9.694 -23.208  31.143  0.00  0.00     0.070 H 
BRANCH  14  21
ATOM     21  N4  CDP d   1      -6.286 -25.582  32.663  0.00  0.00    -0.386 N 
ATOM     22  H10 CDP d   1      -6.840 -26.431  32.845  0.00  0.00     0.157 HD
ATOM     23  H11 CDP d   1      -5.326 -25.506  33.028  0.00  0.00     0.157 HD
ENDBRANCH  14  21
ENDBRANCH   5  10
BRANCH   4  24
ATOM     24  O2' CDP d   1      -7.528 -20.750  27.538  0.00  0.00    -0.388 OA
ATOM     25  H7  CDP d   1      -7.484 -20.907  26.602  0.00  0.00     0.210 HD
ENDBRANCH   4  24
BRANCH   1  26
ATOM     26  C5' CDP d   1     -11.519 -22.553  28.455  0.00  0.00     0.058 C 
ATOM     27  H1  CDP d   1     -12.159 -22.591  27.561  0.00  0.00     0.079 H 
ATOM     28  H2  CDP d   1     -10.841 -23.419  28.457  0.00  0.00     0.079 H 
BRANCH  26  29
ATOM     29  O5' CDP d   1     -12.322 -22.576  29.615  0.00  0.00    -0.287 OA
BRANCH  29  30
ATOM     30  PA  CDP d   1     -12.786 -23.976  30.161  0.00  0.00     0.418 P 
ATOM     31  O1A CDP d   1     -11.590 -24.835  30.412  0.00  0.00    -0.624 OA
ATOM     32  O2A CDP d   1     -13.551 -23.777  31.444  0.00  0.00    -0.624 OA
BRANCH  30  33
ATOM     33  O3A CDP d   1     -13.719 -24.690  29.052  0.00  0.00    -0.173 OA
BRANCH  33  34
ATOM     34  PB  CDP d   1     -14.329 -26.157  29.235  0.00  0.00     0.431 P 
ATOM     35  O3B CDP d   1     -14.333 -26.530  30.712  0.00  0.00    -0.616 OA
ATOM     36  O1B CDP d   1     -13.490 -27.165  28.462  0.00  0.00    -0.616 OA
ATOM     37  O2B CDP d   1     -15.753 -26.178  28.705  0.00  0.00    -0.616 OA
ENDBRANCH  33  34
ENDBRANCH  30  33
ENDBRANCH  29  30
ENDBRANCH  26  29
ENDBRANCH   1  26
BRANCH   3  38
ATOM     38  O3' CDP d   1      -9.853 -19.964  26.794  0.00  0.00    -0.390 OA
ATOM     39  H5  CDP d   1      -9.230 -19.982  26.077  0.00  0.00     0.210 HD
ENDBRANCH   3  38
TORSDOF 9
