REMARK  11 active torsions:
REMARK  status: ('A' for Active; 'I' for Inactive)
REMARK    1  A    between atoms: C4_5  and  C9_4 
REMARK    2  A    between atoms: C2_6  and  C4_5 
REMARK    3  A    between atoms: C2_6  and  C6_7 
REMARK    4  A    between atoms: C1_13  and  C5_14 
REMARK    5  A    between atoms: C3_19  and  C1_13 
REMARK    6  A    between atoms: C10_22  and  O_24 
REMARK    7  A    between atoms: O_24  and  C18_25 
REMARK    8  A    between atoms: C18_25  and  C17_26 
REMARK    9  A    between atoms: C17_26  and  N_27 
REMARK   10  A    between atoms: N_27  and  C26_28 
REMARK   11  A    between atoms: N_27  and  C25_29 
ROOT
ATOM      1  C2  T0R d   1     -44.982  12.396  -7.127  0.00  0.00    -0.035 C 
ATOM      2  C1  T0R d   1     -45.443  13.051  -8.227  0.00  0.00    -0.009 C 
ENDROOT
BRANCH   2   3
ATOM      3  C5  T0R d   1     -46.310  12.405  -9.276  0.00  0.00    -0.025 A 
ATOM      4  C14 T0R d   1     -47.533  11.816  -8.955  0.00  0.00    -0.072 A 
ATOM      5  C20 T0R d   1     -48.314  11.233  -9.953  0.00  0.00    -0.082 A 
ATOM      6  H2  T0R d   1     -47.877  11.811  -7.927  0.00  0.00     0.084 H 
ATOM      7  C23 T0R d   1     -47.889  11.244 -11.284  0.00  0.00    -0.083 A 
ATOM      8  H12 T0R d   1     -49.258  10.768  -9.694  0.00  0.00     0.083 H 
ATOM      9  C19 T0R d   1     -46.672  11.836 -11.612  0.00  0.00    -0.082 A 
ATOM     10  H13 T0R d   1     -48.503  10.795 -12.056  0.00  0.00     0.083 H 
ATOM     11  C13 T0R d   1     -45.889  12.417 -10.610  0.00  0.00    -0.072 A 
ATOM     12  H14 T0R d   1     -46.333  11.846 -12.642  0.00  0.00     0.083 H 
ATOM     13  H15 T0R d   1     -44.945  12.882 -10.870  0.00  0.00     0.084 H 
ENDBRANCH   2   3
BRANCH   2  14
ATOM     14  C3  T0R d   1     -45.101  14.497  -8.514  0.00  0.00    -0.024 A 
ATOM     15  C8  T0R d   1     -46.082  15.468  -8.736  0.00  0.00    -0.070 A 
ATOM     16  C12 T0R d   1     -45.723  16.792  -9.027  0.00  0.00    -0.050 A 
ATOM     17  H16 T0R d   1     -47.130  15.195  -8.683  0.00  0.00     0.085 H 
ATOM     18  C10 T0R d   1     -44.372  17.151  -9.115  0.00  0.00     0.068 A 
ATOM     19  H17 T0R d   1     -46.493  17.539  -9.184  0.00  0.00     0.087 H 
ATOM     20  C11 T0R d   1     -43.402  16.175  -8.908  0.00  0.00    -0.050 A 
ATOM     21  C7  T0R d   1     -43.759  14.865  -8.628  0.00  0.00    -0.070 A 
ATOM     22  H1  T0R d   1     -42.353  16.443  -8.966  0.00  0.00     0.087 H 
ATOM     23  H18 T0R d   1     -42.986  14.117  -8.496  0.00  0.00     0.085 H 
BRANCH  18  24
ATOM     24  O   T0R d   1     -43.895  18.415  -9.384  0.00  0.00    -0.350 OA
BRANCH  24  25
ATOM     25  C18 T0R d   1     -44.631  19.551  -9.822  0.00  0.00     0.049 C 
ATOM     26  H19 T0R d   1     -45.564  19.636  -9.246  0.00  0.00     0.077 H 
ATOM     27  H20 T0R d   1     -44.868  19.453 -10.892  0.00  0.00     0.077 H 
BRANCH  25  28
ATOM     28  C17 T0R d   1     -43.765  20.788  -9.593  0.00  0.00     0.102 C 
ATOM     29  H21 T0R d   1     -42.715  20.545  -9.811  0.00  0.00     0.079 H 
ATOM     30  H22 T0R d   1     -43.857  21.110  -8.545  0.00  0.00     0.079 H 
BRANCH  28  31
ATOM     31  N   T0R d   1     -44.212  21.878 -10.483  0.00  0.00    -0.077 N 
ATOM     32  H23 T0R d   1     -44.569  21.465 -11.330  0.00  0.00     0.279 HD
BRANCH  31  33
ATOM     33  C26 T0R d   1     -43.088  22.765 -10.838  0.00  0.00     0.066 C 
ATOM     34  H24 T0R d   1     -43.448  23.566 -11.500  0.00  0.00     0.068 H 
ATOM     35  H25 T0R d   1     -42.311  22.183 -11.356  0.00  0.00     0.068 H 
ATOM     36  H26 T0R d   1     -42.667  23.207  -9.923  0.00  0.00     0.068 H 
ENDBRANCH  31  33
BRANCH  31  37
ATOM     37  C25 T0R d   1     -45.296  22.659  -9.857  0.00  0.00     0.066 C 
ATOM     38  H27 T0R d   1     -46.128  21.988  -9.597  0.00  0.00     0.068 H 
ATOM     39  H28 T0R d   1     -45.650  23.426 -10.562  0.00  0.00     0.068 H 
ATOM     40  H29 T0R d   1     -44.918  23.145  -8.946  0.00  0.00     0.068 H 
ENDBRANCH  31  37
ENDBRANCH  28  31
ENDBRANCH  25  28
ENDBRANCH  24  25
ENDBRANCH  18  24
ENDBRANCH   2  14
BRANCH   1  41
ATOM     41  C4  T0R d   1     -45.249  10.920  -6.834  0.00  0.00    -0.028 C 
ATOM     42  H5  T0R d   1     -45.382  10.421  -7.806  0.00  0.00     0.041 H 
ATOM     43  H6  T0R d   1     -44.349  10.526  -6.339  0.00  0.00     0.041 H 
BRANCH  41  44
ATOM     44  C9  T0R d   1     -46.443  10.521  -5.965  0.00  0.00     0.006 C 
ATOM     45 CL   T0R d   1     -47.280  11.880  -5.173  0.00  0.00    -0.130 Cl
ATOM     46  H3  T0R d   1     -47.170   9.997  -6.603  0.00  0.00     0.057 H 
ATOM     47  H4  T0R d   1     -46.083   9.838  -5.182  0.00  0.00     0.057 H 
ENDBRANCH  41  44
ENDBRANCH   1  41
BRANCH   1  48
ATOM     48  C6  T0R d   1     -44.087  13.098  -6.138  0.00  0.00    -0.029 A 
ATOM     49  C16 T0R d   1     -42.722  12.804  -6.134  0.00  0.00    -0.072 A 
ATOM     50  C22 T0R d   1     -41.860  13.440  -5.239  0.00  0.00    -0.082 A 
ATOM     51  H7  T0R d   1     -42.328  12.075  -6.833  0.00  0.00     0.084 H 
ATOM     52  C24 T0R d   1     -42.362  14.379  -4.341  0.00  0.00    -0.083 A 
ATOM     53  H8  T0R d   1     -40.802  13.204  -5.243  0.00  0.00     0.083 H 
ATOM     54  C21 T0R d   1     -43.724  14.675  -4.344  0.00  0.00    -0.082 A 
ATOM     55  H9  T0R d   1     -41.697  14.877  -3.644  0.00  0.00     0.083 H 
ATOM     56  C15 T0R d   1     -44.587  14.040  -5.239  0.00  0.00    -0.072 A 
ATOM     57  H10 T0R d   1     -44.117  15.405  -3.645  0.00  0.00     0.083 H 
ATOM     58  H11 T0R d   1     -45.644  14.279  -5.235  0.00  0.00     0.084 H 
ENDBRANCH   1  48
TORSDOF 11
