REMARK  10 active torsions:
REMARK  status: ('A' for Active; 'I' for Inactive)
REMARK    1  A    between atoms: O1_1  and  C42_2 
REMARK    2  A    between atoms: C41_7  and  C40_8 
REMARK    3  A    between atoms: C40_8  and  N18_9 
REMARK    4  A    between atoms: N18_9  and  C5_10 
REMARK    5  A    between atoms: C3_12  and  N10_22 
REMARK    6  A    between atoms: C8_16  and  C26_17 
REMARK    7  A    between atoms: C26_17  and  C28_18 
REMARK    8  A    between atoms: C26_17  and  C27_19 
REMARK    9  A    between atoms: N10_22  and  C11_23 
REMARK   10  A    between atoms: C11_23  and  C12_24 
ROOT
ATOM      1  C5  I73 d   1       0.652  -8.042 -27.214  0.00  0.00     0.129 A 
ATOM      2  C4  I73 d   1       1.889  -7.889 -27.862  0.00  0.00     0.005 A 
ATOM      3  C3  I73 d   1       2.307  -6.665 -28.475  0.00  0.00     0.131 A 
ATOM      4  N2  I73 d   1       1.458  -5.628 -28.436  0.00  0.00    -0.199 N 
ATOM      5  N1  I73 d   1       1.616  -4.314 -28.952  0.00  0.00    -0.176 NA
ATOM      6  C9  I73 d   1       0.466  -3.634 -28.601  0.00  0.00     0.032 A 
ATOM      7  C8  I73 d   1      -0.320  -4.608 -27.945  0.00  0.00     0.013 A 
ATOM      8  C7  I73 d   1       0.308  -5.809 -27.808  0.00  0.00     0.163 A 
ATOM      9  N6  I73 d   1      -0.165  -6.957 -27.193  0.00  0.00    -0.211 NA
ATOM     10  H15 I73 d   1       2.563  -8.744 -27.900  0.00  0.00     0.095 H 
ATOM     11  H16 I73 d   1       0.222  -2.589 -28.787  0.00  0.00     0.118 H 
ENDROOT
BRANCH   1  12
ATOM     12  N18 I73 d   1       0.279  -9.218 -26.627  0.00  0.00    -0.374 N 
ATOM     13  H14 I73 d   1       0.969  -9.982 -26.584  0.00  0.00     0.161 HD
BRANCH  12  14
ATOM     14  C40 I73 d   1      -1.053  -9.450 -26.055  0.00  0.00    -0.000 C 
ATOM     15  H12 I73 d   1      -1.603  -8.498 -26.099  0.00  0.00     0.064 H 
ATOM     16  H13 I73 d   1      -1.559 -10.196 -26.686  0.00  0.00     0.064 H 
BRANCH  14  17
ATOM     17  C41 I73 d   1      -1.113  -9.956 -24.596  0.00  0.00    -0.011 C 
ATOM     18  C42 I73 d   1      -0.660  -8.950 -23.511  0.00  0.00     0.063 C 
ATOM     19  C43 I73 d   1      -1.608  -7.754 -23.466  0.00  0.00     0.105 C 
ATOM     20  H2  I73 d   1       0.352  -8.599 -23.763  0.00  0.00     0.086 H 
ATOM     21  N44 I73 d   1      -2.986  -8.218 -23.205  0.00  0.00    -0.073 N 
ATOM     22  H3  I73 d   1      -1.577  -7.227 -24.431  0.00  0.00     0.079 H 
ATOM     23  H4  I73 d   1      -1.295  -7.070 -22.664  0.00  0.00     0.079 H 
ATOM     24  C45 I73 d   1      -3.551  -9.197 -24.132  0.00  0.00     0.082 C 
ATOM     25  H5  I73 d   1      -3.586  -7.408 -23.218  0.00  0.00     0.277 HD
ATOM     26  H6  I73 d   1      -2.998  -8.630 -22.285  0.00  0.00     0.277 HD
ATOM     27  C46 I73 d   1      -2.566 -10.380 -24.332  0.00  0.00    -0.035 C 
ATOM     28  H7  I73 d   1      -3.738  -8.713 -25.102  0.00  0.00     0.075 H 
ATOM     29  H8  I73 d   1      -4.498  -9.579 -23.724  0.00  0.00     0.075 H 
ATOM     30  H9  I73 d   1      -2.912 -10.975 -25.190  0.00  0.00     0.036 H 
ATOM     31  H10 I73 d   1      -2.584 -11.001 -23.424  0.00  0.00     0.036 H 
ATOM     32  H11 I73 d   1      -0.460 -10.838 -24.518  0.00  0.00     0.046 H 
BRANCH  18  33
ATOM     33  O1  I73 d   1      -0.631  -9.564 -22.167  0.00  0.00    -0.393 OA
ATOM     34  H1  I73 d   1      -0.045 -10.312 -22.174  0.00  0.00     0.210 HD
ENDBRANCH  18  33
ENDBRANCH  14  17
ENDBRANCH  12  14
ENDBRANCH   1  12
BRANCH   3  35
ATOM     35  N10 I73 d   1       3.514  -6.565 -29.087  0.00  0.00    -0.370 N 
ATOM     36  H24 I73 d   1       3.683  -5.845 -29.804  0.00  0.00     0.161 HD
BRANCH  35  37
ATOM     37  C11 I73 d   1       4.587  -7.520 -28.698  0.00  0.00     0.018 C 
ATOM     38  H25 I73 d   1       4.354  -7.937 -27.707  0.00  0.00     0.071 H 
ATOM     39  H26 I73 d   1       5.546  -6.983 -28.654  0.00  0.00     0.071 H 
BRANCH  37  40
ATOM     40  C12 I73 d   1       4.702  -8.666 -29.708  0.00  0.00    -0.041 A 
ATOM     41  C17 I73 d   1       4.426  -9.985 -29.348  0.00  0.00    -0.075 A 
ATOM     42  C16 I73 d   1       4.519 -11.033 -30.294  0.00  0.00    -0.082 A 
ATOM     43  H27 I73 d   1       4.136 -10.210 -28.328  0.00  0.00     0.084 H 
ATOM     44  C15 I73 d   1       4.885 -10.749 -31.632  0.00  0.00    -0.083 A 
ATOM     45  H28 I73 d   1       4.310 -12.054 -29.994  0.00  0.00     0.083 H 
ATOM     46  C14 I73 d   1       5.146  -9.421 -31.978  0.00  0.00    -0.082 A 
ATOM     47  H29 I73 d   1       4.961 -11.541 -32.368  0.00  0.00     0.083 H 
ATOM     48  C13 I73 d   1       5.052  -8.403 -31.024  0.00  0.00    -0.075 A 
ATOM     49  H30 I73 d   1       5.424  -9.177 -32.997  0.00  0.00     0.083 H 
ATOM     50  H31 I73 d   1       5.258  -7.381 -31.321  0.00  0.00     0.084 H 
ENDBRANCH  37  40
ENDBRANCH  35  37
ENDBRANCH   3  35
BRANCH   7  51
ATOM     51  C26 I73 d   1      -1.613  -4.654 -27.189  0.00  0.00    -0.030 C 
ATOM     52  H17 I73 d   1      -1.462  -5.633 -26.711  0.00  0.00     0.046 H 
BRANCH  51  53
ATOM     53  C28 I73 d   1      -1.665  -3.797 -25.914  0.00  0.00    -0.069 C 
ATOM     54  H18 I73 d   1      -2.652  -3.904 -25.441  0.00  0.00     0.028 H 
ATOM     55  H19 I73 d   1      -1.495  -2.742 -26.174  0.00  0.00     0.028 H 
ATOM     56  H20 I73 d   1      -0.885  -4.132 -25.215  0.00  0.00     0.028 H 
ENDBRANCH  51  53
BRANCH  51  57
ATOM     57  C27 I73 d   1      -2.932  -4.990 -27.883  0.00  0.00    -0.069 C 
ATOM     58  H21 I73 d   1      -2.732  -5.604 -28.773  0.00  0.00     0.028 H 
ATOM     59  H22 I73 d   1      -3.435  -4.059 -28.185  0.00  0.00     0.028 H 
ATOM     60  H23 I73 d   1      -3.579  -5.548 -27.190  0.00  0.00     0.028 H 
ENDBRANCH  51  57
ENDBRANCH   7  51
TORSDOF 10
