REMARK  9 active torsions:
REMARK  status: ('A' for Active; 'I' for Inactive)
REMARK    1  A    between atoms: C04_5  and  C05_7 
REMARK    2  A    between atoms: C05_7  and  N06_14 
REMARK    3  A    between atoms: C07_11  and  N05_13 
REMARK    4  A    between atoms: N06_14  and  C08_15 
REMARK    5  A    between atoms: C11_18  and  S01_21 
REMARK    6  A    between atoms: S01_21  and  N07_22 
REMARK    7  A    between atoms: N07_22  and  C14_23 
REMARK    8  A    between atoms: C15_26  and  C17_30 
REMARK    9  A    between atoms: C16_27  and  C18_31 
ROOT
ATOM      1  C08 6MB d   1      11.664  12.556 116.724  0.00  0.00     0.028 A 
ATOM      2  C09 6MB d   1      11.714  11.177 116.514  0.00  0.00    -0.056 A 
ATOM      3  C10 6MB d   1      10.665  10.504 115.900  0.00  0.00    -0.058 A 
ATOM      4  C11 6MB d   1       9.529  11.147 115.451  0.00  0.00     0.080 A 
ATOM      5  C12 6MB d   1       9.465  12.515 115.669  0.00  0.00    -0.058 A 
ATOM      6  C13 6MB d   1      10.499  13.214 116.281  0.00  0.00    -0.056 A 
ATOM      7  H8  6MB d   1      12.587  10.621 116.836  0.00  0.00     0.087 H 
ATOM      8  H9  6MB d   1      10.742   9.431 115.768  0.00  0.00     0.086 H 
ATOM      9  H10 6MB d   1       8.581  13.056 115.352  0.00  0.00     0.086 H 
ATOM     10  H11 6MB d   1      10.408  14.285 116.420  0.00  0.00     0.087 H 
ENDROOT
BRANCH   1  11
ATOM     11  N06 6MB d   1      12.705  13.274 117.347  0.00  0.00    -0.384 N 
ATOM     12  H7  6MB d   1      12.438  13.976 118.052  0.00  0.00     0.160 HD
BRANCH  11  13
ATOM     13  C05 6MB d   1      14.116  13.107 117.079  0.00  0.00     0.034 C 
ATOM     14  H2  6MB d   1      14.581  12.676 117.978  0.00  0.00     0.073 H 
ATOM     15  H3  6MB d   1      14.219  12.403 116.240  0.00  0.00     0.073 H 
BRANCH  13  16
ATOM     16  C04 6MB d   1      14.875  14.366 116.723  0.00  0.00     0.070 A 
ATOM     17  C03 6MB d   1      15.775  14.944 117.692  0.00  0.00     0.030 A 
ATOM     18  N01 6MB d   1      16.482  16.033 117.502  0.00  0.00    -0.237 NA
ATOM     19  H1  6MB d   1      15.874  14.441 118.647  0.00  0.00     0.118 H 
ATOM     20  C02 6MB d   1      16.339  16.669 116.265  0.00  0.00     0.201 A 
ATOM     21  C01 6MB d   1      15.446  16.096 115.317  0.00  0.00     0.160 A 
ATOM     22  N03 6MB d   1      17.085  17.811 116.075  0.00  0.00    -0.043 NA
ATOM     23  N02 6MB d   1      14.716  14.951 115.546  0.00  0.00    -0.242 NA
ATOM     24  C06 6MB d   1      15.374  16.827 114.089  0.00  0.00     0.226 A 
ATOM     25  N04 6MB d   1      16.065  17.943 113.825  0.00  0.00    -0.164 N 
ATOM     26  O01 6MB d   1      14.565  16.378 113.126  0.00  0.00    -0.169 OA
ATOM     27  C07 6MB d   1      16.911  18.399 114.850  0.00  0.00     0.702 A 
ATOM     28  H4  6MB d   1      15.984  18.423 112.951  0.00  0.00     0.186 HD
BRANCH  27  29
ATOM     29  N05 6MB d   1      17.615  19.542 114.574  0.00  0.00    -0.233 N 
ATOM     30  H5  6MB d   1      18.255  19.935 115.278  0.00  0.00     0.174 HD
ATOM     31  H6  6MB d   1      17.504  20.008 113.662  0.00  0.00     0.174 HD
ENDBRANCH  27  29
ENDBRANCH  13  16
ENDBRANCH  11  13
ENDBRANCH   1  11
BRANCH   4  32
ATOM     32  S01 6MB d   1       8.172  10.328 114.695  0.00  0.00     0.264 S 
ATOM     33  O02 6MB d   1       7.697  11.109 113.378  0.00  0.00    -0.200 OA
ATOM     34  O03 6MB d   1       8.901   9.130 113.867  0.00  0.00    -0.200 OA
BRANCH  32  35
ATOM     35  N07 6MB d   1       6.889   9.502 115.504  0.00  0.00    -0.258 N 
ATOM     36  H12 6MB d   1       6.112   9.234 114.935  0.00  0.00     0.181 HD
BRANCH  35  37
ATOM     37  C14 6MB d   1       6.806   9.165 116.849  0.00  0.00     0.190 A 
ATOM     38  C15 6MB d   1       5.960   9.520 117.902  0.00  0.00     0.018 A 
ATOM     39  C16 6MB d   1       6.498   8.805 119.031  0.00  0.00     0.068 A 
ATOM     40  N08 6MB d   1       7.579   8.105 118.643  0.00  0.00    -0.131 NA
ATOM     41  O04 6MB d   1       7.778   8.319 117.337  0.00  0.00    -0.194 OA
BRANCH  38  42
ATOM     42  C17 6MB d   1       4.795  10.402 117.865  0.00  0.00    -0.045 C 
ATOM     43  H13 6MB d   1       4.659  10.787 116.844  0.00  0.00     0.033 H 
ATOM     44  H14 6MB d   1       4.950  11.244 118.556  0.00  0.00     0.033 H 
ATOM     45  H15 6MB d   1       3.899   9.839 118.168  0.00  0.00     0.033 H 
ENDBRANCH  38  42
BRANCH  39  46
ATOM     46  C18 6MB d   1       6.007   8.785 120.429  0.00  0.00    -0.033 C 
ATOM     47  H16 6MB d   1       6.654   8.134 121.035  0.00  0.00     0.035 H 
ATOM     48  H17 6MB d   1       4.976   8.401 120.450  0.00  0.00     0.035 H 
ATOM     49  H18 6MB d   1       6.027   9.806 120.839  0.00  0.00     0.035 H 
ENDBRANCH  39  46
ENDBRANCH  35  37
ENDBRANCH  32  35
ENDBRANCH   4  32
TORSDOF 9
