REMARK  28 active torsions:
REMARK  status: ('A' for Active; 'I' for Inactive)
REMARK    1  A    between atoms: N_1  and  CB_2 
REMARK    2  A    between atoms: CB_2  and  CA_3 
REMARK    3  A    between atoms: CA_3  and  C_4 
REMARK       I    between atoms: C_4  and  N_6 
REMARK    4  A    between atoms: CA_7  and  C_8 
REMARK       I    between atoms: C_8  and  N_13 
REMARK    5  A    between atoms: N_13  and  CA_14 
REMARK    6  A    between atoms: CA_14  and  C_15 
REMARK    7  A    between atoms: CA_14  and  CB_17 
REMARK       I    between atoms: C_15  and  N_25 
REMARK    8  A    between atoms: CB_17  and  CG_18 
REMARK    9  A    between atoms: CZ_23  and  OH_24 
REMARK   10  A    between atoms: N_25  and  CA_26 
REMARK   11  A    between atoms: CA_32  and  CB_35 
REMARK   12  A    between atoms: CB_35  and  CG1_36 
REMARK   13  A    between atoms: CB_35  and  CG2_37 
REMARK   14  A    between atoms: CA_39  and  CB_42 
REMARK   15  A    between atoms: CB_42  and  CG_43 
REMARK   16  A    between atoms: CZ_48  and  OH_49 
REMARK   17  A    between atoms: CA_51  and  CB_54 
REMARK   18  A    between atoms: CB_54  and  CG_55 
REMARK   19  A    between atoms: CG_55  and  CD_56 
REMARK   20  A    between atoms: CD_56  and  NE_57 
REMARK       I    between atoms: NE_57  and  CZ_58 
REMARK       I    between atoms: CZ_58  and  NH1_59 
REMARK   21  A    between atoms: CZ_58  and  NH2_60 
REMARK   22  A    between atoms: CA_67  and  CB_70 
REMARK   23  A    between atoms: CB_70  and  OG_71 
REMARK   24  A    between atoms: CA_73  and  CB_76 
REMARK   25  A    between atoms: CB_76  and  CG_77 
REMARK   26  A    between atoms: CA_87  and  CB_90 
REMARK   27  A    between atoms: CB_90  and  OG_91 
REMARK   28  A    between atoms: CA_93  and  C_94 
REMARK       I    between atoms: C_94  and  N_98 
ROOT
ATOM      1  N   BAL d   1      -7.039 -22.809 136.043  0.00  0.00    -0.359 N 
ATOM      2  CB  BAL d   1      -6.859 -22.924 134.602  0.00  0.00     0.003 C 
ATOM      3  CA  BAL d   1      -7.391 -24.255 134.126  0.00  0.00     0.024 C 
ATOM      4  C   BAL d   1      -8.878 -24.325 134.344  0.00  0.00     0.219 C 
ATOM      5  O   BAL d   1      -9.616 -23.829 133.552  0.00  0.00    -0.274 OA
ATOM      6  H59 BAL d   1      -7.845 -22.324 136.382  0.00  0.00     0.162 HD
ATOM      7  H60 BAL d   1      -5.788 -22.851 134.361  0.00  0.00     0.064 H 
ATOM      8  H61 BAL d   1      -7.404 -22.112 134.100  0.00  0.00     0.064 H 
ATOM      9  H62 BAL d   1      -6.902 -25.064 134.688  0.00  0.00     0.049 H 
ATOM     10  H63 BAL d   1      -7.175 -24.371 133.054  0.00  0.00     0.049 H 
ATOM     11  N   TYR d   1      -9.567 -20.789 140.971  0.00  0.00    -0.346 N 
ATOM     12  CA  TYR d   1      -9.447 -21.007 139.533  0.00  0.00     0.093 C 
ATOM     13  C   TYR d   1      -8.031 -21.349 139.205  0.00  0.00     0.241 C 
ATOM     14  O   TYR d   1      -7.118 -20.587 139.491  0.00  0.00    -0.271 OA
ATOM     15  H37 TYR d   1      -9.359 -19.884 141.342  0.00  0.00     0.163 HD
ATOM     16  H38 TYR d   1     -10.103 -21.840 139.240  0.00  0.00     0.088 H 
ATOM     17  CA  CYS d   1     -13.361 -22.134 144.950  0.00  0.00     0.098 C 
ATOM     18  C   CYS d   1     -12.131 -21.344 144.564  0.00  0.00     0.242 C 
ATOM     19  O   CYS d   1     -12.035 -20.177 144.881  0.00  0.00    -0.271 OA
ATOM     20  CB  CYS d   1     -14.261 -22.064 143.730  0.00  0.00     0.013 C 
ATOM     21  SG  CYS d   1     -15.956 -22.533 143.988  0.00  0.00    -0.095 SA
ATOM     22  N   CYS d   1     -13.822 -26.275 143.695  0.00  0.00    -0.345 N 
ATOM     23  CA  CYS d   1     -14.573 -25.778 144.835  0.00  0.00     0.098 C 
ATOM     24  CB  CYS d   1     -16.003 -25.541 144.412  0.00  0.00     0.013 C 
ATOM     25  SG  CYS d   1     -16.126 -24.354 143.053  0.00  0.00    -0.095 SA
ATOM     26  H25 CYS d   1     -13.099 -23.181 145.162  0.00  0.00     0.088 H 
ATOM     27  H26 CYS d   1     -13.840 -22.730 142.962  0.00  0.00     0.053 H 
ATOM     28  H27 CYS d   1     -14.250 -21.027 143.362  0.00  0.00     0.053 H 
ATOM     29  H84 CYS d   1     -14.127 -27.125 143.265  0.00  0.00     0.163 HD
ATOM     30  H85 CYS d   1     -14.124 -24.829 145.164  0.00  0.00     0.088 H 
ATOM     31  H86 CYS d   1     -16.567 -25.153 145.273  0.00  0.00     0.053 H 
ATOM     32  H87 CYS d   1     -16.440 -26.497 144.088  0.00  0.00     0.053 H 
ATOM     33  N   VAL d   1     -11.235 -21.991 143.832  0.00  0.00    -0.346 N 
ATOM     34  CA  VAL d   1     -10.056 -21.357 143.271  0.00  0.00     0.092 C 
ATOM     35  C   VAL d   1      -9.943 -21.751 141.800  0.00  0.00     0.241 C 
ATOM     36  O   VAL d   1     -10.240 -22.889 141.420  0.00  0.00    -0.271 OA
ATOM     37  H28 VAL d   1     -11.379 -22.965 143.657  0.00  0.00     0.163 HD
ATOM     38  H29 VAL d   1     -10.173 -20.266 143.345  0.00  0.00     0.088 H 
ATOM     39  N   ARG d   1      -7.848 -22.542 138.613  0.00  0.00    -0.346 N 
ATOM     40  CA  ARG d   1      -6.548 -23.106 138.379  0.00  0.00     0.089 C 
ATOM     41  C   ARG d   1      -6.205 -23.305 136.915  0.00  0.00     0.240 C 
ATOM     42  O   ARG d   1      -5.199 -23.954 136.606  0.00  0.00    -0.271 OA
ATOM     43  H46 ARG d   1      -8.653 -23.060 138.323  0.00  0.00     0.163 HD
ATOM     44  H47 ARG d   1      -5.796 -22.437 138.823  0.00  0.00     0.087 H 
ATOM     45  N   SER d   1      -9.295 -24.898 135.472  0.00  0.00    -0.346 N 
ATOM     46  CA  SER d   1     -10.700 -24.993 135.851  0.00  0.00     0.109 C 
ATOM     47  C   SER d   1     -10.873 -24.468 137.226  0.00  0.00     0.243 C 
ATOM     48  O   SER d   1      -9.939 -24.450 138.020  0.00  0.00    -0.271 OA
ATOM     49  N   SER d   1     -12.021 -25.113 140.925  0.00  0.00    -0.344 N 
ATOM     50  CA  SER d   1     -12.306 -26.214 141.843  0.00  0.00     0.109 C 
ATOM     51  C   SER d   1     -12.746 -25.662 143.187  0.00  0.00     0.243 C 
ATOM     52  O   SER d   1     -12.157 -24.691 143.721  0.00  0.00    -0.271 OA
ATOM     53  H64 SER d   1      -8.610 -25.283 136.090  0.00  0.00     0.163 HD
ATOM     54  H65 SER d   1     -11.311 -24.412 135.144  0.00  0.00     0.090 H 
ATOM     55  H79 SER d   1     -11.468 -24.338 141.231  0.00  0.00     0.163 HD
ATOM     56  H80 SER d   1     -13.156 -26.774 141.427  0.00  0.00     0.090 H 
ATOM     57  N   TRP d   1     -12.111 -24.097 137.537  0.00  0.00    -0.346 N 
ATOM     58  CA  TRP d   1     -12.491 -23.823 138.899  0.00  0.00     0.093 C 
ATOM     59  C   TRP d   1     -12.493 -25.141 139.694  0.00  0.00     0.241 C 
ATOM     60  O   TRP d   1     -12.909 -26.164 139.184  0.00  0.00    -0.271 OA
ATOM     61  H69 TRP d   1     -12.792 -24.006 136.811  0.00  0.00     0.163 HD
ATOM     62  H70 TRP d   1     -11.783 -23.113 139.352  0.00  0.00     0.088 H 
ENDROOT
BRANCH  17  63
ATOM     63  N   CYS d   1     -13.964 -21.542 146.146  0.00  0.00    -0.345 N 
ATOM     64  C   TYR d   1     -14.319 -22.262 147.209  0.00  0.00     0.241 C 
ATOM     65  O   TYR d   1     -14.208 -23.485 147.259  0.00  0.00    -0.271 OA
ATOM     66  H24 CYS d   1     -14.116 -20.554 146.166  0.00  0.00     0.163 HD
BRANCH  64  67
ATOM     67  CA  TYR d   1     -14.871 -21.489 148.407  0.00  0.00     0.093 C 
ATOM     68  H16 TYR d   1     -14.798 -22.142 149.289  0.00  0.00     0.088 H 
BRANCH  67  69
ATOM     69  N   TYR d   1     -14.110 -20.308 148.657  0.00  0.00    -0.346 N 
ATOM     70  C   PRO d   1     -12.838 -20.364 148.990  0.00  0.00     0.241 C 
ATOM     71  O   PRO d   1     -12.241 -21.415 149.214  0.00  0.00    -0.271 OA
ATOM     72  H15 TYR d   1     -14.554 -19.416 148.577  0.00  0.00     0.163 HD
BRANCH  70  73
ATOM     73  CA  PRO d   1     -12.124 -19.023 149.098  0.00  0.00     0.091 C 
ATOM     74  N   PRO d   1     -11.379 -18.915 150.331  0.00  0.00    -0.339 N 
ATOM     75  C   BAL d   1     -11.998 -18.753 151.515  0.00  0.00     0.222 C 
ATOM     76  CD  PRO d   1      -9.946 -19.046 150.065  0.00  0.00    -0.001 C 
ATOM     77  O   BAL d   1     -11.346 -18.667 152.552  0.00  0.00    -0.273 OA
ATOM     78  CG  PRO d   1      -9.812 -19.363 148.599  0.00  0.00    -0.048 C 
ATOM     79  H13 PRO d   1      -9.520 -19.859 150.670  0.00  0.00     0.064 H 
ATOM     80  H14 PRO d   1      -9.428 -18.104 150.299  0.00  0.00     0.064 H 
ATOM     81  CB  PRO d   1     -11.082 -18.905 147.981  0.00  0.00    -0.036 C 
ATOM     82  H11 PRO d   1      -8.956 -18.825 148.165  0.00  0.00     0.035 H 
ATOM     83  H12 PRO d   1      -9.679 -20.445 148.449  0.00  0.00     0.035 H 
ATOM     84  H9  PRO d   1     -10.994 -17.863 147.641  0.00  0.00     0.036 H 
ATOM     85  H10 PRO d   1     -11.352 -19.547 147.129  0.00  0.00     0.036 H 
ATOM     86  H8  PRO d   1     -12.861 -18.210 149.027  0.00  0.00     0.087 H 
BRANCH  75  87
ATOM     87  CA  BAL d   1     -13.510 -18.716 151.573  0.00  0.00     0.032 C 
ATOM     88  H6  BAL d   1     -13.868 -18.329 150.607  0.00  0.00     0.049 H 
ATOM     89  H7  BAL d   1     -13.860 -19.750 151.707  0.00  0.00     0.049 H 
BRANCH  87  90
ATOM     90  CB  BAL d   1     -14.161 -17.856 152.689  0.00  0.00     0.087 C 
ATOM     91  H4  BAL d   1     -14.882 -17.181 152.204  0.00  0.00     0.075 H 
ATOM     92  H5  BAL d   1     -14.696 -18.542 153.362  0.00  0.00     0.075 H 
BRANCH  90  93
ATOM     93  N   BAL d   1     -13.287 -17.037 153.512  0.00  0.00    -0.079 N 
ATOM     94  H1  BAL d   1     -13.838 -16.535 154.191  0.00  0.00     0.274 HD
ATOM     95  H2  BAL d   1     -12.794 -16.380 152.928  0.00  0.00     0.274 HD
ATOM     96  H3  BAL d   1     -12.623 -17.628 153.988  0.00  0.00     0.274 HD
ENDBRANCH  90  93
ENDBRANCH  87  90
ENDBRANCH  75  87
ENDBRANCH  70  73
ENDBRANCH  67  69
BRANCH  67  97
ATOM     97  CB  TYR d   1     -16.334 -21.100 148.223  0.00  0.00    -0.014 C 
ATOM     98  H17 TYR d   1     -16.423 -20.494 147.309  0.00  0.00     0.043 H 
ATOM     99  H18 TYR d   1     -16.650 -20.503 149.091  0.00  0.00     0.043 H 
BRANCH  97 100
ATOM    100  CG  TYR d   1     -17.240 -22.277 148.102  0.00  0.00    -0.056 A 
ATOM    101  CD1 TYR d   1     -17.269 -23.285 149.066  0.00  0.00    -0.074 A 
ATOM    102  CE1 TYR d   1     -18.122 -24.374 148.917  0.00  0.00    -0.051 A 
ATOM    103  H19 TYR d   1     -16.624 -23.220 149.935  0.00  0.00     0.084 H 
ATOM    104  CZ  TYR d   1     -18.958 -24.441 147.814  0.00  0.00     0.065 A 
ATOM    105  H21 TYR d   1     -18.133 -25.165 149.659  0.00  0.00     0.087 H 
ATOM    106  CE2 TYR d   1     -18.938 -23.448 146.886  0.00  0.00    -0.051 A 
ATOM    107  CD2 TYR d   1     -18.083 -22.379 147.040  0.00  0.00    -0.074 A 
ATOM    108  H22 TYR d   1     -19.595 -23.497 146.025  0.00  0.00     0.087 H 
ATOM    109  H20 TYR d   1     -18.082 -21.595 146.292  0.00  0.00     0.084 H 
BRANCH 104 110
ATOM    110  OH  TYR d   1     -19.847 -25.479 147.639  0.00  0.00    -0.361 OA
ATOM    111  H23 TYR d   1     -20.733 -25.137 147.627  0.00  0.00     0.217 HD
ENDBRANCH 104 110
ENDBRANCH  97 100
ENDBRANCH  67  97
ENDBRANCH  64  67
ENDBRANCH  17  63
BRANCH  34 112
ATOM    112  CB  VAL d   1      -8.765 -21.765 144.020  0.00  0.00    -0.033 C 
ATOM    113  H30 VAL d   1      -8.612 -22.847 143.897  0.00  0.00     0.042 H 
BRANCH 112 114
ATOM    114  CG1 VAL d   1      -7.566 -21.025 143.457  0.00  0.00    -0.071 C 
ATOM    115  H31 VAL d   1      -6.659 -21.328 144.001  0.00  0.00     0.028 H 
ATOM    116  H32 VAL d   1      -7.717 -19.941 143.571  0.00  0.00     0.028 H 
ATOM    117  H33 VAL d   1      -7.452 -21.269 142.391  0.00  0.00     0.028 H 
ENDBRANCH 112 114
BRANCH 112 118
ATOM    118  CG2 VAL d   1      -8.878 -21.444 145.496  0.00  0.00    -0.071 C 
ATOM    119  H34 VAL d   1      -9.744 -21.973 145.921  0.00  0.00     0.028 H 
ATOM    120  H35 VAL d   1      -9.011 -20.360 145.626  0.00  0.00     0.028 H 
ATOM    121  H36 VAL d   1      -7.962 -21.766 146.012  0.00  0.00     0.028 H 
ENDBRANCH 112 118
ENDBRANCH  34 112
BRANCH  23 122
ATOM    122  C   CYS d   1     -14.579 -26.744 146.001  0.00  0.00     0.239 C 
ATOM    123  O   CYS d   1     -14.773 -27.925 145.792  0.00  0.00    -0.271 OA
ATOM    124  N   NH2 d   1     -14.377 -26.274 147.238  0.00  0.00    -0.368 N 
ATOM    125  H88 NH2 d   1     -14.378 -26.901 148.017  0.00  0.00     0.159 HD
ATOM    126  H89 NH2 d   1     -14.225 -25.296 147.383  0.00  0.00     0.159 HD
ENDBRANCH  23 122
BRANCH  12 127
ATOM    127  CB  TYR d   1      -9.856 -19.736 138.739  0.00  0.00    -0.014 C 
ATOM    128  H39 TYR d   1      -9.189 -18.909 139.023  0.00  0.00     0.043 H 
ATOM    129  H40 TYR d   1     -10.894 -19.475 138.994  0.00  0.00     0.043 H 
BRANCH 127 130
ATOM    130  CG  TYR d   1      -9.759 -19.952 137.242  0.00  0.00    -0.056 A 
ATOM    131  CD1 TYR d   1     -10.624 -20.811 136.583  0.00  0.00    -0.074 A 
ATOM    132  CE1 TYR d   1     -10.533 -21.029 135.220  0.00  0.00    -0.051 A 
ATOM    133  H41 TYR d   1     -11.392 -21.325 137.150  0.00  0.00     0.084 H 
ATOM    134  CZ  TYR d   1      -9.547 -20.390 134.486  0.00  0.00     0.065 A 
ATOM    135  H43 TYR d   1     -11.230 -21.697 134.728  0.00  0.00     0.087 H 
ATOM    136  CE2 TYR d   1      -8.673 -19.533 135.122  0.00  0.00    -0.051 A 
ATOM    137  CD2 TYR d   1      -8.772 -19.335 136.501  0.00  0.00    -0.074 A 
ATOM    138  H44 TYR d   1      -7.911 -19.014 134.552  0.00  0.00     0.087 H 
ATOM    139  H42 TYR d   1      -8.061 -18.685 136.998  0.00  0.00     0.084 H 
BRANCH 134 140
ATOM    140  OH  TYR d   1      -9.468 -20.629 133.132  0.00  0.00    -0.361 OA
ATOM    141  H45 TYR d   1     -10.149 -21.242 132.880  0.00  0.00     0.217 HD
ENDBRANCH 134 140
ENDBRANCH 127 130
ENDBRANCH  12 127
BRANCH  50 142
ATOM    142  CB  SER d   1     -11.148 -27.198 141.955  0.00  0.00     0.044 C 
ATOM    143  H81 SER d   1     -10.910 -27.590 140.955  0.00  0.00     0.077 H 
ATOM    144  H82 SER d   1     -11.443 -28.028 142.614  0.00  0.00     0.077 H 
BRANCH 142 145
ATOM    145  OG  SER d   1     -10.020 -26.575 142.482  0.00  0.00    -0.398 OA
ATOM    146  H83 SER d   1     -10.221 -26.238 143.347  0.00  0.00     0.209 HD
ENDBRANCH 142 145
ENDBRANCH  50 142
BRANCH  40 147
ATOM    147  CB  ARG d   1      -6.489 -24.475 139.067  0.00  0.00    -0.036 C 
ATOM    148  H48 ARG d   1      -5.465 -24.865 138.972  0.00  0.00     0.036 H 
ATOM    149  H49 ARG d   1      -7.188 -25.151 138.552  0.00  0.00     0.036 H 
BRANCH 147 150
ATOM    150  CG  ARG d   1      -6.849 -24.446 140.525  0.00  0.00    -0.048 C 
ATOM    151  H50 ARG d   1      -7.037 -25.472 140.875  0.00  0.00     0.035 H 
ATOM    152  H51 ARG d   1      -7.756 -23.840 140.664  0.00  0.00     0.035 H 
BRANCH 150 153
ATOM    153  CD  ARG d   1      -5.732 -23.852 141.314  0.00  0.00     0.009 C 
ATOM    154  H52 ARG d   1      -5.726 -22.764 141.155  0.00  0.00     0.064 H 
ATOM    155  H53 ARG d   1      -4.782 -24.280 140.960  0.00  0.00     0.064 H 
BRANCH 153 156
ATOM    156  NE  ARG d   1      -5.863 -24.118 142.753  0.00  0.00    -0.227 N 
ATOM    157  CZ  ARG d   1      -5.064 -23.606 143.684  0.00  0.00     0.665 C 
ATOM    158  NH1 ARG d   1      -4.030 -22.815 143.353  0.00  0.00    -0.235 N 
ATOM    159  H55 ARG d   1      -3.422 -22.428 144.089  0.00  0.00     0.174 HD
ATOM    160  H56 ARG d   1      -3.845 -22.596 142.364  0.00  0.00     0.174 HD
ATOM    161  H54 ARG d   1      -6.623 -24.741 143.060  0.00  0.00     0.177 HD
BRANCH 157 162
ATOM    162  NH2 ARG d   1      -5.296 -23.890 144.971  0.00  0.00    -0.235 N 
ATOM    163  H57 ARG d   1      -6.088 -24.496 145.230  0.00  0.00     0.174 HD
ATOM    164  H58 ARG d   1      -4.683 -23.503 145.702  0.00  0.00     0.174 HD
ENDBRANCH 157 162
ENDBRANCH 153 156
ENDBRANCH 150 153
ENDBRANCH 147 150
ENDBRANCH  40 147
BRANCH  58 165
ATOM    165  CB  TRP d   1     -13.881 -23.238 138.905  0.00  0.00    -0.012 C 
ATOM    166  H71 TRP d   1     -14.300 -23.332 139.918  0.00  0.00     0.044 H 
ATOM    167  H72 TRP d   1     -14.505 -23.802 138.196  0.00  0.00     0.044 H 
BRANCH 165 168
ATOM    168  CG  TRP d   1     -13.893 -21.803 138.515  0.00  0.00    -0.028 A 
ATOM    169  CD1 TRP d   1     -14.259 -21.287 137.322  0.00  0.00    -0.015 A 
ATOM    170  NE1 TRP d   1     -14.165 -19.910 137.359  0.00  0.00    -0.365 N 
ATOM    171  H73 TRP d   1     -14.580 -21.870 136.460  0.00  0.00     0.112 H 
ATOM    172  CE2 TRP d   1     -13.707 -19.549 138.590  0.00  0.00     0.042 A 
ATOM    173  H74 TRP d   1     -14.400 -19.267 136.589  0.00  0.00     0.165 HD
ATOM    174  CD2 TRP d   1     -13.517 -20.726 139.333  0.00  0.00    -0.002 A 
ATOM    175  CZ2 TRP d   1     -13.433 -18.294 139.106  0.00  0.00    -0.056 A 
ATOM    176  CE3 TRP d   1     -13.048 -20.624 140.649  0.00  0.00    -0.070 A 
ATOM    177  CZ3 TRP d   1     -12.803 -19.357 141.165  0.00  0.00    -0.082 A 
ATOM    178  H75 TRP d   1     -12.880 -21.511 141.250  0.00  0.00     0.084 H 
ATOM    179  CH2 TRP d   1     -13.006 -18.215 140.389  0.00  0.00    -0.081 A 
ATOM    180  H77 TRP d   1     -12.449 -19.254 142.185  0.00  0.00     0.083 H 
ATOM    181  H78 TRP d   1     -12.817 -17.240 140.824  0.00  0.00     0.083 H 
ATOM    182  H76 TRP d   1     -13.556 -17.402 138.502  0.00  0.00     0.086 H 
ENDBRANCH 165 168
ENDBRANCH  58 165
BRANCH  46 183
ATOM    183  CB  SER d   1     -11.158 -26.450 135.858  0.00  0.00     0.044 C 
ATOM    184  H66 SER d   1     -12.219 -26.492 136.146  0.00  0.00     0.077 H 
ATOM    185  H67 SER d   1     -10.557 -27.012 136.588  0.00  0.00     0.077 H 
BRANCH 183 186
ATOM    186  OG  SER d   1     -11.003 -27.030 134.594  0.00  0.00    -0.398 OA
ATOM    187  H68 SER d   1     -11.294 -27.934 134.624  0.00  0.00     0.209 HD
ENDBRANCH 183 186
ENDBRANCH  46 183
TORSDOF 28
