REMARK  11 active torsions:
REMARK  status: ('A' for Active; 'I' for Inactive)
REMARK    1  A    between atoms: C1_1  and  C2_2 
REMARK    2  A    between atoms: C1_1  and  N2_3 
REMARK    3  A    between atoms: C1_1  and  C6_6 
REMARK    4  A    between atoms: C2_2  and  O2_4 
REMARK    5  A    between atoms: C2_2  and  C3_5 
REMARK       I    between atoms: C3_5  and  N_14 
REMARK    6  A    between atoms: C6_6  and  C7_7 
REMARK    7  A    between atoms: CA_15  and  C_16 
REMARK       I    between atoms: C_16  and  N_21 
REMARK    8  A    between atoms: CA_22  and  C_23 
REMARK       I    between atoms: C_23  and  N_28 
REMARK    9  A    between atoms: N_28  and  CA_29 
REMARK   10  A    between atoms: CA_29  and  C_30 
REMARK   11  A    between atoms: CA_29  and  CB_32 
REMARK       I    between atoms: C_30  and  N_33 
ROOT
ATOM      1  C3  01B d   1     -36.399  70.765 241.472  0.00  0.00     0.251 C 
ATOM      2  O3  01B d   1     -36.482  70.629 240.256  0.00  0.00    -0.270 OA
ATOM      3  N   PRO d   1     -35.598  69.861 242.297  0.00  0.00    -0.336 N 
ATOM      4  CA  PRO d   1     -34.815  68.705 241.851  0.00  0.00     0.092 C 
ATOM      5  CB  PRO d   1     -34.648  67.890 243.115  0.00  0.00    -0.036 C 
ATOM      6  CG  PRO d   1     -34.642  68.882 244.224  0.00  0.00    -0.048 C 
ATOM      7  CD  PRO d   1     -35.478  70.010 243.707  0.00  0.00    -0.001 C 
ATOM      8  H14 PRO d   1     -33.839  69.048 241.477  0.00  0.00     0.087 H 
ATOM      9  H15 PRO d   1     -33.700  67.333 243.092  0.00  0.00     0.036 H 
ATOM     10  H16 PRO d   1     -35.485  67.186 243.233  0.00  0.00     0.036 H 
ATOM     11  H17 PRO d   1     -33.618  69.221 244.439  0.00  0.00     0.035 H 
ATOM     12  H18 PRO d   1     -35.085  68.453 245.135  0.00  0.00     0.035 H 
ATOM     13  H19 PRO d   1     -36.475  69.979 244.171  0.00  0.00     0.064 H 
ATOM     14  H20 PRO d   1     -34.995  70.970 243.941  0.00  0.00     0.064 H 
ENDROOT
BRANCH   4  15
ATOM     15  C   PRO d   1     -35.440  67.867 240.808  0.00  0.00     0.243 C 
ATOM     16  O   PRO d   1     -36.636  67.563 240.875  0.00  0.00    -0.271 OA
ATOM     17  N   PRO d   1     -34.587  67.372 239.685  0.00  0.00    -0.337 N 
ATOM     18  CA  PRO d   1     -35.055  66.516 238.592  0.00  0.00     0.091 C 
ATOM     19  CD  PRO d   1     -33.187  67.659 239.534  0.00  0.00    -0.001 C 
ATOM     20  CB  PRO d   1     -33.906  66.450 237.609  0.00  0.00    -0.036 C 
ATOM     21  H21 PRO d   1     -35.933  66.965 238.105  0.00  0.00     0.087 H 
ATOM     22  CG  PRO d   1     -32.718  67.026 238.311  0.00  0.00    -0.048 C 
ATOM     23  H22 PRO d   1     -34.140  67.039 236.710  0.00  0.00     0.036 H 
ATOM     24  H23 PRO d   1     -33.710  65.406 237.322  0.00  0.00     0.036 H 
ATOM     25  H24 PRO d   1     -32.229  67.772 237.668  0.00  0.00     0.035 H 
ATOM     26  H25 PRO d   1     -32.003  66.226 238.554  0.00  0.00     0.035 H 
ATOM     27  H26 PRO d   1     -32.631  67.260 240.395  0.00  0.00     0.064 H 
ATOM     28  H27 PRO d   1     -33.035  68.747 239.471  0.00  0.00     0.064 H 
BRANCH  18  29
ATOM     29  C   PRO d   1     -35.439  65.156 239.135  0.00  0.00     0.241 C 
ATOM     30  O   PRO d   1     -36.349  64.531 238.633  0.00  0.00    -0.271 OA
ATOM     31  N   ALA d   1     -34.661  64.637 240.307  0.00  0.00    -0.346 N 
ATOM     32  H28 ALA d   1     -33.923  65.199 240.681  0.00  0.00     0.163 HD
BRANCH  31  33
ATOM     33  CA  ALA d   1     -34.938  63.344 240.924  0.00  0.00     0.086 C 
ATOM     34  H29 ALA d   1     -34.247  63.210 241.770  0.00  0.00     0.086 H 
BRANCH  33  35
ATOM     35  C   ALA d   1     -34.686  62.233 239.927  0.00  0.00     0.237 C 
ATOM     36  O   ALA d   1     -35.620  61.780 239.236  0.00  0.00    -0.271 OA
ATOM     37  N   NH2 d   1     -33.333  61.687 239.777  0.00  0.00    -0.368 N 
ATOM     38  H33 NH2 d   1     -33.160  60.953 239.120  0.00  0.00     0.159 HD
ATOM     39  H34 NH2 d   1     -32.584  62.049 240.332  0.00  0.00     0.159 HD
ENDBRANCH  33  35
BRANCH  33  40
ATOM     40  CB  ALA d   1     -36.353  63.293 241.463  0.00  0.00    -0.049 C 
ATOM     41  H30 ALA d   1     -36.535  62.310 241.922  0.00  0.00     0.030 H 
ATOM     42  H31 ALA d   1     -37.065  63.451 240.640  0.00  0.00     0.030 H 
ATOM     43  H32 ALA d   1     -36.486  64.081 242.219  0.00  0.00     0.030 H 
ENDBRANCH  33  40
ENDBRANCH  31  33
ENDBRANCH  18  29
ENDBRANCH   4  15
BRANCH   1  44
ATOM     44  C2  01B d   1     -37.101  71.889 242.143  0.00  0.00     0.139 C 
ATOM     45  H2  01B d   1     -37.274  71.655 243.204  0.00  0.00     0.101 H 
BRANCH  44  46
ATOM     46  C1  01B d   1     -38.405  72.181 241.461  0.00  0.00     0.136 C 
ATOM     47  H1  01B d   1     -38.450  71.714 240.466  0.00  0.00     0.089 H 
BRANCH  46  48
ATOM     48  N2  01B d   1     -38.489  73.575 241.359  0.00  0.00    -0.072 N 
ATOM     49  H3  01B d   1     -39.353  73.827 240.905  0.00  0.00     0.274 HD
ATOM     50  H4  01B d   1     -37.712  73.920 240.818  0.00  0.00     0.274 HD
ATOM     51  H5  01B d   1     -38.463  73.982 242.281  0.00  0.00     0.274 HD
ENDBRANCH  46  48
BRANCH  46  52
ATOM     52  C6  01B d   1     -39.518  71.646 242.353  0.00  0.00    -0.012 C 
ATOM     53  H7  01B d   1     -39.800  72.421 243.081  0.00  0.00     0.043 H 
ATOM     54  H8  01B d   1     -39.154  70.756 242.887  0.00  0.00     0.043 H 
BRANCH  52  55
ATOM     55  C7  01B d   1     -40.781  71.255 241.505  0.00  0.00    -0.056 A 
ATOM     56  C8  01B d   1     -40.943  71.767 240.264  0.00  0.00    -0.077 A 
ATOM     57  C9  01B d   1     -42.171  71.396 239.423  0.00  0.00    -0.082 A 
ATOM     58  H9  01B d   1     -40.199  72.445 239.860  0.00  0.00     0.084 H 
ATOM     59  C10 01B d   1     -43.115  70.542 239.929  0.00  0.00    -0.083 A 
ATOM     60  H10 01B d   1     -42.292  71.810 238.428  0.00  0.00     0.083 H 
ATOM     61  C11 01B d   1     -42.940  69.967 241.323  0.00  0.00    -0.082 A 
ATOM     62  H11 01B d   1     -43.983  70.278 239.336  0.00  0.00     0.083 H 
ATOM     63  C12 01B d   1     -41.843  70.295 242.072  0.00  0.00    -0.077 A 
ATOM     64  H12 01B d   1     -43.687  69.294 241.727  0.00  0.00     0.083 H 
ATOM     65  H13 01B d   1     -41.721  69.879 243.065  0.00  0.00     0.084 H 
ENDBRANCH  52  55
ENDBRANCH  46  52
ENDBRANCH  44  46
BRANCH  44  66
ATOM     66  O2  01B d   1     -36.270  73.017 242.006  0.00  0.00    -0.384 OA
ATOM     67  H6  01B d   1     -36.689  73.768 242.409  0.00  0.00     0.210 HD
ENDBRANCH  44  66
ENDBRANCH   1  44
TORSDOF 11
