REMARK  10 active torsions:
REMARK  status: ('A' for Active; 'I' for Inactive)
REMARK    1  A    between atoms: C17_3  and  C16_21 
REMARK    2  A    between atoms: C24_6  and  C27_28 
REMARK    3  A    between atoms: C02_9  and  C01_8 
REMARK    4  A    between atoms: C03_10  and  C02_9 
REMARK    5  A    between atoms: S04_11  and  C03_10 
REMARK    6  A    between atoms: N05_12  and  S04_11 
REMARK    7  A    between atoms: C08_15  and  N05_12 
REMARK    8  A    between atoms: C16_21  and  C12_18 
REMARK    9  A    between atoms: C30_30  and  O33_33 
REMARK   10  A    between atoms: O33_33  and  C34_34 
ROOT
ATOM      1  C17 6N9 d   1     -10.751  -4.520 -28.682  0.00  0.00     0.044 A 
ATOM      2  C20 6N9 d   1      -9.493  -4.068 -26.873  0.00  0.00     0.138 A 
ATOM      3  C22 6N9 d   1      -9.401  -4.406 -29.045  0.00  0.00    -0.006 A 
ATOM      4  C24 6N9 d   1     -11.520  -4.023 -24.939  0.00  0.00    -0.007 A 
ATOM      5  C19 6N9 d   1     -10.822  -4.307 -27.268  0.00  0.00     0.026 A 
ATOM      6  N21 6N9 d   1      -8.698  -4.138 -27.941  0.00  0.00    -0.349 N 
ATOM      7  C23 6N9 d   1     -11.775  -4.261 -26.290  0.00  0.00    -0.056 A 
ATOM      8  C25 6N9 d   1     -10.186  -3.801 -24.601  0.00  0.00     0.015 A 
ATOM      9  N26 6N9 d   1      -9.233  -3.834 -25.557  0.00  0.00    -0.242 NA
ATOM     10  H2  6N9 d   1      -8.997  -4.516 -30.050  0.00  0.00     0.112 H 
ATOM     11  H13 6N9 d   1      -7.677  -4.003 -27.918  0.00  0.00     0.167 HD
ATOM     12  H14 6N9 d   1     -12.806  -4.421 -26.586  0.00  0.00     0.086 H 
ATOM     13  H15 6N9 d   1      -9.914  -3.602 -23.571  0.00  0.00     0.116 H 
ENDROOT
BRANCH   1  14
ATOM     14  C16 6N9 d   1     -11.908  -4.817 -29.662  0.00  0.00     0.200 C 
ATOM     15  O18 6N9 d   1     -13.087  -4.755 -29.327  0.00  0.00    -0.286 OA
BRANCH  14  16
ATOM     16  C12 6N9 d   1     -11.470  -5.202 -31.072  0.00  0.00     0.094 A 
ATOM     17  C13 6N9 d   1     -11.602  -4.318 -32.130  0.00  0.00     0.160 A 
ATOM     18  C08 6N9 d   1     -11.182  -4.679 -33.400  0.00  0.00     0.082 A 
ATOM     19  F14 6N9 d   1     -12.152  -3.106 -31.998  0.00  0.00    -0.203 F 
ATOM     20  C09 6N9 d   1     -10.602  -5.913 -33.632  0.00  0.00    -0.051 A 
ATOM     21  C10 6N9 d   1     -10.445  -6.812 -32.560  0.00  0.00    -0.042 A 
ATOM     22  H12 6N9 d   1     -10.272  -6.185 -34.628  0.00  0.00     0.087 H 
ATOM     23  C11 6N9 d   1     -10.885  -6.437 -31.272  0.00  0.00     0.133 A 
ATOM     24  H1  6N9 d   1      -9.991  -7.783 -32.722  0.00  0.00     0.088 H 
ATOM     25  F15 6N9 d   1     -10.764  -7.257 -30.219  0.00  0.00    -0.205 F 
BRANCH  18  26
ATOM     26  N05 6N9 d   1     -11.392  -3.689 -34.376  0.00  0.00    -0.281 N 
ATOM     27  H11 6N9 d   1     -11.767  -2.804 -34.101  0.00  0.00     0.178 HD
BRANCH  26  28
ATOM     28  S04 6N9 d   1     -11.033  -3.955 -35.964  0.00  0.00     0.231 S 
ATOM     29  O06 6N9 d   1     -11.750  -3.043 -36.805  0.00  0.00    -0.206 OA
ATOM     30  O07 6N9 d   1     -11.548  -5.234 -36.394  0.00  0.00    -0.206 OA
BRANCH  28  31
ATOM     31  C03 6N9 d   1      -9.302  -3.963 -36.347  0.00  0.00     0.046 C 
ATOM     32  H9  6N9 d   1      -8.876  -4.922 -36.018  0.00  0.00     0.058 H 
ATOM     33  H10 6N9 d   1      -9.185  -3.864 -37.436  0.00  0.00     0.058 H 
BRANCH  31  34
ATOM     34  C02 6N9 d   1      -8.534  -2.841 -35.677  0.00  0.00    -0.055 C 
ATOM     35  H7  6N9 d   1      -8.950  -1.867 -35.974  0.00  0.00     0.033 H 
ATOM     36  H8  6N9 d   1      -8.588  -2.945 -34.583  0.00  0.00     0.033 H 
BRANCH  34  37
ATOM     37  C01 6N9 d   1      -7.083  -2.959 -36.146  0.00  0.00    -0.076 C 
ATOM     38  H4  6N9 d   1      -6.482  -2.162 -35.684  0.00  0.00     0.027 H 
ATOM     39  H5  6N9 d   1      -7.042  -2.861 -37.241  0.00  0.00     0.027 H 
ATOM     40  H6  6N9 d   1      -6.681  -3.939 -35.850  0.00  0.00     0.027 H 
ENDBRANCH  34  37
ENDBRANCH  31  34
ENDBRANCH  28  31
ENDBRANCH  26  28
ENDBRANCH  18  26
ENDBRANCH  14  16
ENDBRANCH   1  14
BRANCH   4  41
ATOM     41  C27 6N9 d   1     -12.570  -3.979 -23.871  0.00  0.00    -0.024 A 
ATOM     42  C28 6N9 d   1     -12.334  -4.438 -22.493  0.00  0.00    -0.070 A 
ATOM     43  C29 6N9 d   1     -13.294  -4.379 -21.516  0.00  0.00    -0.050 A 
ATOM     44  H3  6N9 d   1     -11.360  -4.840 -22.240  0.00  0.00     0.085 H 
ATOM     45  C30 6N9 d   1     -14.462  -3.906 -21.734  0.00  0.00     0.068 A 
ATOM     46  H16 6N9 d   1     -13.055  -4.746 -20.524  0.00  0.00     0.087 H 
ATOM     47  C31 6N9 d   1     -14.810  -3.451 -22.905  0.00  0.00    -0.050 A 
ATOM     48  C32 6N9 d   1     -13.935  -3.455 -23.984  0.00  0.00    -0.070 A 
ATOM     49  H17 6N9 d   1     -15.811  -3.058 -23.041  0.00  0.00     0.087 H 
ATOM     50  H18 6N9 d   1     -14.271  -3.060 -24.936  0.00  0.00     0.085 H 
BRANCH  45  51
ATOM     51  O33 6N9 d   1     -15.361  -3.881 -20.646  0.00  0.00    -0.356 OA
BRANCH  51  52
ATOM     52  C34 6N9 d   1     -16.708  -4.248 -20.940  0.00  0.00     0.010 C 
ATOM     53  H19 6N9 d   1     -17.312  -4.192 -20.022  0.00  0.00     0.066 H 
ATOM     54  H20 6N9 d   1     -16.731  -5.276 -21.332  0.00  0.00     0.066 H 
ATOM     55  H21 6N9 d   1     -17.120  -3.559 -21.692  0.00  0.00     0.066 H 
ENDBRANCH  51  52
ENDBRANCH  45  51
ENDBRANCH   4  41
TORSDOF 10
