REMARK  7 active torsions:
REMARK  status: ('A' for Active; 'I' for Inactive)
REMARK    1  A    between atoms: C17_2  and  C19_3 
REMARK    2  A    between atoms: C17_2  and  C20_4 
REMARK    3  A    between atoms: C11_9  and  C17_2 
REMARK    4  A    between atoms: C17_2  and  O18_26 
REMARK    5  A    between atoms: N28_30  and  C24_8 
REMARK    6  A    between atoms: C26_28  and  C3_15 
REMARK    7  A    between atoms: C6_18  and  C14_23 
REMARK       I    between atoms: C14_23  and  N16_25 
ROOT
ATOM      1  C13 6MV d   1      11.107  10.916   1.633  0.00  0.00    -0.069 A 
ATOM      2  C11 6MV d   1      11.529  13.007   0.445  0.00  0.00    -0.023 A 
ATOM      3  C12 6MV d   1      10.666  11.990   0.869  0.00  0.00    -0.073 A 
ATOM      4  C1  6MV d   1      14.587  10.418   2.749  0.00  0.00     0.060 A 
ATOM      5  C2  6MV d   1      13.274   9.888   2.741  0.00  0.00     0.015 A 
ATOM      6  C3  6MV d   1      13.013   8.674   3.411  0.00  0.00    -0.009 A 
ATOM      7  C4  6MV d   1      14.065   8.033   4.071  0.00  0.00    -0.070 A 
ATOM      8  C5  6MV d   1      15.344   8.569   4.074  0.00  0.00    -0.065 A 
ATOM      9  C6  6MV d   1      15.642   9.761   3.407  0.00  0.00     0.059 A 
ATOM     10  N7  6MV d   1      14.602  11.590   2.020  0.00  0.00    -0.354 N 
ATOM     11  C8  6MV d   1      13.323  11.852   1.553  0.00  0.00     0.044 A 
ATOM     12  C9  6MV d   1      12.457  10.826   1.976  0.00  0.00     0.004 A 
ATOM     13  C10 6MV d   1      12.875  12.936   0.790  0.00  0.00    -0.047 A 
ATOM     14  H1  6MV d   1      10.408  10.154   1.960  0.00  0.00     0.085 H 
ATOM     15  H11 6MV d   1       9.619  12.042   0.592  0.00  0.00     0.084 H 
ATOM     16  H13 6MV d   1      13.878   7.100   4.590  0.00  0.00     0.084 H 
ATOM     17  H14 6MV d   1      16.133   8.051   4.607  0.00  0.00     0.085 H 
ATOM     18  H15 6MV d   1      15.431  12.177   1.850  0.00  0.00     0.166 HD
ATOM     19  H16 6MV d   1      13.566  13.709   0.473  0.00  0.00     0.088 H 
ENDROOT
BRANCH   6  20
ATOM     20  C26 6MV d   1      11.665   8.035   3.447  0.00  0.00     0.016 A 
ATOM     21  C21 6MV d   1      11.054   7.876   4.687  0.00  0.00    -0.069 A 
ATOM     22  C22 6MV d   1       9.859   7.182   4.804  0.00  0.00    -0.080 A 
ATOM     23  H8  6MV d   1      11.517   8.299   5.571  0.00  0.00     0.085 H 
ATOM     24  C23 6MV d   1       9.234   6.653   3.687  0.00  0.00    -0.053 A 
ATOM     25  H9  6MV d   1       9.409   7.052   5.782  0.00  0.00     0.083 H 
ATOM     26  C24 6MV d   1       9.815   6.830   2.429  0.00  0.00     0.083 A 
ATOM     27  H10 6MV d   1       8.303   6.107   3.788  0.00  0.00     0.087 H 
ATOM     28  C25 6MV d   1      11.054   7.517   2.320  0.00  0.00     0.154 A 
ATOM     29  F27 6MV d   1      11.629   7.678   1.116  0.00  0.00    -0.203 F 
BRANCH  26  30
ATOM     30  N28 6MV d   1       9.170   6.293   1.256  0.00  0.00    -0.269 N 
ATOM     31  C33 6MV d   1       8.613   7.161   0.317  0.00  0.00     0.266 A 
ATOM     32  C32 6MV d   1       7.963   6.471  -0.816  0.00  0.00     0.061 A 
ATOM     33  O38 6MV d   1       8.699   8.366   0.422  0.00  0.00    -0.267 OA
ATOM     34  C31 6MV d   1       7.982   5.072  -0.871  0.00  0.00     0.073 A 
ATOM     35  C37 6MV d   1       7.348   7.200  -1.838  0.00  0.00    -0.065 A 
ATOM     36  C34 6MV d   1       7.388   4.418  -1.950  0.00  0.00    -0.054 A 
ATOM     37  N30 6MV d   1       8.585   4.299   0.119  0.00  0.00    -0.243 NA
ATOM     38  C35 6MV d   1       6.794   5.148  -2.965  0.00  0.00    -0.081 A 
ATOM     39  H12 6MV d   1       7.391   3.335  -1.994  0.00  0.00     0.087 H 
ATOM     40  C36 6MV d   1       6.766   6.530  -2.908  0.00  0.00    -0.082 A 
ATOM     41  H21 6MV d   1       6.348   4.634  -3.809  0.00  0.00     0.083 H 
ATOM     42  H22 6MV d   1       6.288   7.093  -3.701  0.00  0.00     0.083 H 
ATOM     43  C29 6MV d   1       9.107   4.931   1.104  0.00  0.00     0.074 A 
ATOM     44  H20 6MV d   1       9.543   4.328   1.899  0.00  0.00     0.144 H 
ATOM     45  H23 6MV d   1       7.325   8.283  -1.796  0.00  0.00     0.085 H 
ENDBRANCH  26  30
ENDBRANCH   6  20
BRANCH   9  46
ATOM     46  C14 6MV d   1      16.995  10.395   3.483  0.00  0.00     0.251 C 
ATOM     47  O15 6MV d   1      17.131  11.559   3.154  0.00  0.00    -0.268 OA
ATOM     48  N16 6MV d   1      18.007   9.693   3.997  0.00  0.00    -0.366 N 
ATOM     49  H17 6MV d   1      18.919  10.100   4.056  0.00  0.00     0.159 HD
ATOM     50  H18 6MV d   1      17.854   8.760   4.323  0.00  0.00     0.159 HD
ENDBRANCH   9  46
BRANCH   2  51
ATOM     51  C17 6MV d   1      11.007  14.178  -0.392  0.00  0.00     0.078 C 
BRANCH  51  52
ATOM     52  C19 6MV d   1      11.493  14.081  -1.827  0.00  0.00    -0.044 C 
ATOM     53  H2  6MV d   1      11.104  14.933  -2.404  0.00  0.00     0.032 H 
ATOM     54  H3  6MV d   1      11.134  13.142  -2.273  0.00  0.00     0.032 H 
ATOM     55  H4  6MV d   1      12.593  14.098  -1.844  0.00  0.00     0.032 H 
ENDBRANCH  51  52
BRANCH  51  56
ATOM     56  C20 6MV d   1      11.382  15.522   0.208  0.00  0.00    -0.044 C 
ATOM     57  H5  6MV d   1      11.022  15.573   1.246  0.00  0.00     0.032 H 
ATOM     58  H6  6MV d   1      10.920  16.328  -0.381  0.00  0.00     0.032 H 
ATOM     59  H7  6MV d   1      12.476  15.638   0.193  0.00  0.00     0.032 H 
ENDBRANCH  51  56
BRANCH  51  60
ATOM     60  O18 6MV d   1       9.567  14.125  -0.496  0.00  0.00    -0.386 OA
ATOM     61  H19 6MV d   1       9.184  14.218   0.369  0.00  0.00     0.211 HD
ENDBRANCH  51  60
ENDBRANCH   2  51
TORSDOF 7
