REMARK  27 active torsions:
REMARK  status: ('A' for Active; 'I' for Inactive)
REMARK    1  A    between atoms: C14_28  and  C15_3 
REMARK    2  A    between atoms: C21_6  and  C22_7 
REMARK    3  A    between atoms: S01_73  and  C21_6 
REMARK    4  A    between atoms: C22_7  and  C23_32 
REMARK    5  A    between atoms: C25_33  and  C24_8 
REMARK    6  A    between atoms: C24_8  and  O04_62 
REMARK    7  A    between atoms: C27_34  and  C26_9 
REMARK    8  A    between atoms: C26_9  and  O05_63 
REMARK    9  A    between atoms: C29_35  and  C28_10 
REMARK   10  A    between atoms: C28_10  and  O06_64 
REMARK   11  A    between atoms: C19_31  and  N03_13 
REMARK   12  A    between atoms: N03_13  and  S01_73 
REMARK   13  A    between atoms: N_16  and  C48_54 
REMARK   14  A    between atoms: S_74  and  N_16 
REMARK   15  A    between atoms: O04_62  and  C01_17 
REMARK   16  A    between atoms: C04_20  and  C07_23 
REMARK   17  A    between atoms: C12_27  and  C14_28 
REMARK   18  A    between atoms: O05_63  and  C25_33 
REMARK   19  A    between atoms: O06_64  and  C27_34 
REMARK   20  A    between atoms: O07_65  and  C29_35 
REMARK   21  A    between atoms: C30_36  and  O07_65 
REMARK   22  A    between atoms: C36_42  and  C33_39 
REMARK   23  A    between atoms: C43_49  and  C41_47 
REMARK   24  A    between atoms: C44_50  and  C43_49 
REMARK   25  A    between atoms: C50_56  and  C51_57 
REMARK   26  A    between atoms: C50_56  and  S_74 
REMARK   27  A    between atoms: C51_57  and  C_58 
ROOT
ATOM      1  C26 6NB d   1     -13.374  -2.460  15.078  0.00  0.00     0.039 C 
ATOM      2  H9  6NB d   1     -13.973  -2.866  15.906  0.00  0.00     0.077 H 
ATOM      3  H10 6NB d   1     -13.911  -2.609  14.130  0.00  0.00     0.077 H 
ENDROOT
BRANCH   1   4
ATOM      4  C27 6NB d   1     -12.036  -3.172  15.022  0.00  0.00     0.039 C 
ATOM      5  H29 6NB d   1     -11.819  -3.489  13.991  0.00  0.00     0.077 H 
ATOM      6  H30 6NB d   1     -12.048  -4.052  15.681  0.00  0.00     0.077 H 
BRANCH   4   7
ATOM      7  O06 6NB d   1     -11.061  -2.246  15.463  0.00  0.00    -0.387 OA
BRANCH   7   8
ATOM      8  C28 6NB d   1      -9.888  -2.833  16.050  0.00  0.00     0.040 C 
ATOM      9  H11 6NB d   1      -8.981  -2.501  15.523  0.00  0.00     0.077 H 
ATOM     10  H12 6NB d   1      -9.811  -2.568  17.115  0.00  0.00     0.077 H 
BRANCH   8  11
ATOM     11  C29 6NB d   1     -10.096  -4.363  15.877  0.00  0.00     0.046 C 
ATOM     12  H31 6NB d   1     -10.451  -4.595  14.862  0.00  0.00     0.078 H 
ATOM     13  H32 6NB d   1     -10.819  -4.743  16.614  0.00  0.00     0.078 H 
BRANCH  11  14
ATOM     14  O07 6NB d   1      -8.837  -4.914  16.095  0.00  0.00    -0.349 OA
BRANCH  14  15
ATOM     15  C30 6NB d   1      -8.912  -6.034  16.970  0.00  0.00     0.068 A 
ATOM     16  C31 6NB d   1      -8.561  -7.273  16.476  0.00  0.00    -0.050 A 
ATOM     17  C32 6NB d   1      -8.607  -8.380  17.301  0.00  0.00    -0.070 A 
ATOM     18  H33 6NB d   1      -8.250  -7.378  15.443  0.00  0.00     0.087 H 
ATOM     19  C33 6NB d   1      -9.045  -8.197  18.642  0.00  0.00    -0.024 A 
ATOM     20  H34 6NB d   1      -8.318  -9.359  16.937  0.00  0.00     0.085 H 
ATOM     21  C34 6NB d   1      -9.408  -6.961  19.136  0.00  0.00    -0.070 A 
ATOM     22  C35 6NB d   1      -9.349  -5.844  18.320  0.00  0.00    -0.050 A 
ATOM     23  H35 6NB d   1      -9.740  -6.864  20.163  0.00  0.00     0.085 H 
ATOM     24  H36 6NB d   1      -9.623  -4.862  18.689  0.00  0.00     0.087 H 
BRANCH  19  25
ATOM     25  C36 6NB d   1      -9.105  -9.405  19.564  0.00  0.00    -0.007 A 
ATOM     26  C37 6NB d   1      -9.356 -10.705  19.041  0.00  0.00    -0.056 A 
ATOM     27  C38 6NB d   1      -9.381 -11.759  19.978  0.00  0.00     0.026 A 
ATOM     28  H37 6NB d   1      -9.519 -10.875  17.983  0.00  0.00     0.086 H 
ATOM     29  C39 6NB d   1      -9.141 -11.475  21.298  0.00  0.00     0.138 A 
ATOM     30  C41 6NB d   1      -9.621 -13.200  19.914  0.00  0.00     0.044 A 
ATOM     31  N04 6NB d   1      -8.878 -10.206  21.749  0.00  0.00    -0.242 NA
ATOM     32  N05 6NB d   1      -9.212 -12.610  22.009  0.00  0.00    -0.349 N 
ATOM     33  C40 6NB d   1      -8.856  -9.205  20.931  0.00  0.00     0.015 A 
ATOM     34  H38 6NB d   1      -8.645  -8.209  21.302  0.00  0.00     0.116 H 
ATOM     35  C42 6NB d   1      -9.497 -13.662  21.205  0.00  0.00    -0.006 A 
ATOM     36  H15 6NB d   1      -9.069 -12.673  23.027  0.00  0.00     0.167 HD
ATOM     37  H39 6NB d   1      -9.609 -14.697  21.525  0.00  0.00     0.112 H 
BRANCH  30  38
ATOM     38  C43 6NB d   1      -9.914 -14.035  18.701  0.00  0.00     0.200 C 
ATOM     39  O08 6NB d   1      -9.729 -13.642  17.593  0.00  0.00    -0.286 OA
BRANCH  38  40
ATOM     40  C44 6NB d   1     -10.374 -15.516  18.921  0.00  0.00     0.094 A 
ATOM     41  C45 6NB d   1     -11.619 -15.834  19.464  0.00  0.00     0.133 A 
ATOM     42  C46 6NB d   1     -11.998 -17.158  19.674  0.00  0.00    -0.042 A 
ATOM     43  F   6NB d   1     -12.443 -14.806  19.767  0.00  0.00    -0.205 F 
ATOM     44  C47 6NB d   1     -11.082 -18.160  19.331  0.00  0.00    -0.051 A 
ATOM     45  H40 6NB d   1     -12.969 -17.404  20.089  0.00  0.00     0.088 H 
ATOM     46  C48 6NB d   1      -9.815 -17.811  18.792  0.00  0.00     0.082 A 
ATOM     47  H41 6NB d   1     -11.340 -19.203  19.477  0.00  0.00     0.087 H 
ATOM     48  C49 6NB d   1      -9.476 -16.502  18.589  0.00  0.00     0.160 A 
ATOM     49  F03 6NB d   1      -8.298 -16.159  18.093  0.00  0.00    -0.203 F 
BRANCH  46  50
ATOM     50  N   6NB d   1      -8.856 -18.778  18.445  0.00  0.00    -0.281 N 
ATOM     51  H16 6NB d   1      -8.023 -18.492  17.972  0.00  0.00     0.178 HD
BRANCH  50  52
ATOM     52  S   6NB d   1      -9.077 -20.389  18.805  0.00  0.00     0.231 S 
ATOM     53  O09 6NB d   1      -7.971 -21.066  18.200  0.00  0.00    -0.206 OA
ATOM     54  O   6NB d   1     -10.256 -20.870  18.109  0.00  0.00    -0.206 OA
BRANCH  52  55
ATOM     55  C50 6NB d   1      -9.334 -20.656  20.565  0.00  0.00     0.046 C 
ATOM     56  H42 6NB d   1     -10.021 -19.883  20.939  0.00  0.00     0.058 H 
ATOM     57  H43 6NB d   1      -9.788 -21.648  20.705  0.00  0.00     0.058 H 
BRANCH  55  58
ATOM     58  C51 6NB d   1      -8.057 -20.594  21.373  0.00  0.00    -0.055 C 
ATOM     59  H44 6NB d   1      -7.727 -19.548  21.459  0.00  0.00     0.033 H 
ATOM     60  H45 6NB d   1      -7.276 -21.185  20.872  0.00  0.00     0.033 H 
BRANCH  58  61
ATOM     61  C   6NB d   1      -8.313 -21.160  22.755  0.00  0.00    -0.076 C 
ATOM     62  H46 6NB d   1      -7.386 -21.117  23.346  0.00  0.00     0.027 H 
ATOM     63  H47 6NB d   1      -8.644 -22.205  22.668  0.00  0.00     0.027 H 
ATOM     64  H48 6NB d   1      -9.095 -20.569  23.255  0.00  0.00     0.027 H 
ENDBRANCH  58  61
ENDBRANCH  55  58
ENDBRANCH  52  55
ENDBRANCH  50  52
ENDBRANCH  46  50
ENDBRANCH  38  40
ENDBRANCH  30  38
ENDBRANCH  19  25
ENDBRANCH  14  15
ENDBRANCH  11  14
ENDBRANCH   8  11
ENDBRANCH   7   8
ENDBRANCH   4   7
ENDBRANCH   1   4
BRANCH   1  65
ATOM     65  O05 6NB d   1     -13.153  -1.079  15.285  0.00  0.00    -0.387 OA
BRANCH  65  66
ATOM     66  C25 6NB d   1     -14.323  -0.306  15.166  0.00  0.00     0.040 C 
ATOM     67  H27 6NB d   1     -14.296   0.258  14.222  0.00  0.00     0.077 H 
ATOM     68  H28 6NB d   1     -15.202  -0.968  15.173  0.00  0.00     0.077 H 
BRANCH  66  69
ATOM     69  C24 6NB d   1     -14.410   0.664  16.333  0.00  0.00     0.046 C 
ATOM     70  H7  6NB d   1     -13.403   1.002  16.619  0.00  0.00     0.078 H 
ATOM     71  H8  6NB d   1     -14.892   0.178  17.194  0.00  0.00     0.078 H 
BRANCH  69  72
ATOM     72  O04 6NB d   1     -15.202   1.784  15.888  0.00  0.00    -0.349 OA
BRANCH  72  73
ATOM     73  C01 6NB d   1     -15.379   2.826  16.902  0.00  0.00     0.068 A 
ATOM     74  C02 6NB d   1     -15.652   4.111  16.494  0.00  0.00    -0.050 A 
ATOM     75  C03 6NB d   1     -15.832   5.137  17.451  0.00  0.00    -0.070 A 
ATOM     76  H17 6NB d   1     -15.729   4.338  15.437  0.00  0.00     0.087 H 
ATOM     77  C04 6NB d   1     -15.734   4.842  18.801  0.00  0.00    -0.024 A 
ATOM     78  H18 6NB d   1     -16.046   6.150  17.129  0.00  0.00     0.085 H 
ATOM     79  C05 6NB d   1     -15.471   3.544  19.239  0.00  0.00    -0.070 A 
ATOM     80  C06 6NB d   1     -15.292   2.522  18.284  0.00  0.00    -0.050 A 
ATOM     81  H19 6NB d   1     -15.405   3.324  20.298  0.00  0.00     0.085 H 
ATOM     82  H20 6NB d   1     -15.088   1.507  18.606  0.00  0.00     0.087 H 
BRANCH  77  83
ATOM     83  C07 6NB d   1     -15.935   5.973  19.809  0.00  0.00    -0.007 A 
ATOM     84  C08 6NB d   1     -15.576   7.320  19.469  0.00  0.00    -0.056 A 
ATOM     85  C09 6NB d   1     -15.799   8.320  20.479  0.00  0.00     0.026 A 
ATOM     86  H21 6NB d   1     -15.158   7.571  18.501  0.00  0.00     0.086 H 
ATOM     87  C10 6NB d   1     -16.331   7.953  21.693  0.00  0.00     0.138 A 
ATOM     88  C12 6NB d   1     -15.593   9.760  20.567  0.00  0.00     0.044 A 
ATOM     89  N01 6NB d   1     -16.635   6.657  21.957  0.00  0.00    -0.242 NA
ATOM     90  N02 6NB d   1     -16.440   9.058  22.499  0.00  0.00    -0.349 N 
ATOM     91  C11 6NB d   1     -16.449   5.691  21.054  0.00  0.00     0.015 A 
ATOM     92  H22 6NB d   1     -16.707   4.669  21.306  0.00  0.00     0.116 H 
ATOM     93  C13 6NB d   1     -16.025  10.123  21.864  0.00  0.00    -0.006 A 
ATOM     94  H13 6NB d   1     -16.797   9.050  23.465  0.00  0.00     0.167 HD
ATOM     95  H1  6NB d   1     -16.014  11.133  22.271  0.00  0.00     0.112 H 
BRANCH  88  96
ATOM     96  C14 6NB d   1     -15.030  10.708  19.511  0.00  0.00     0.200 C 
ATOM     97  O01 6NB d   1     -14.883  10.359  18.362  0.00  0.00    -0.286 OA
BRANCH  96  98
ATOM     98  C15 6NB d   1     -14.698  12.135  19.967  0.00  0.00     0.094 A 
ATOM     99  C20 6NB d   1     -15.528  13.168  19.546  0.00  0.00     0.160 A 
ATOM    100  C19 6NB d   1     -15.270  14.480  19.955  0.00  0.00     0.082 A 
ATOM    101  F01 6NB d   1     -16.585  12.867  18.746  0.00  0.00    -0.203 F 
ATOM    102  C18 6NB d   1     -14.165  14.780  20.777  0.00  0.00    -0.051 A 
ATOM    103  C17 6NB d   1     -13.315  13.724  21.212  0.00  0.00    -0.042 A 
ATOM    104  H23 6NB d   1     -13.965  15.803  21.075  0.00  0.00     0.087 H 
ATOM    105  C16 6NB d   1     -13.606  12.408  20.796  0.00  0.00     0.133 A 
ATOM    106  H2  6NB d   1     -12.462  13.927  21.849  0.00  0.00     0.088 H 
ATOM    107  F02 6NB d   1     -12.838  11.368  21.150  0.00  0.00    -0.205 F 
BRANCH 100 108
ATOM    108  N03 6NB d   1     -16.162  15.471  19.489  0.00  0.00    -0.281 N 
ATOM    109  H14 6NB d   1     -16.847  15.225  18.803  0.00  0.00     0.178 HD
BRANCH 108 110
ATOM    110  S01 6NB d   1     -16.104  17.028  20.047  0.00  0.00     0.231 S 
ATOM    111  O02 6NB d   1     -14.828  17.541  19.717  0.00  0.00    -0.206 OA
ATOM    112  O03 6NB d   1     -17.105  17.715  19.294  0.00  0.00    -0.206 OA
BRANCH 110 113
ATOM    113  C21 6NB d   1     -16.225  17.278  21.810  0.00  0.00     0.046 C 
ATOM    114  H3  6NB d   1     -15.541  16.579  22.313  0.00  0.00     0.058 H 
ATOM    115  H4  6NB d   1     -15.929  18.312  22.041  0.00  0.00     0.058 H 
BRANCH 113 116
ATOM    116  C22 6NB d   1     -17.669  17.039  22.348  0.00  0.00    -0.055 C 
ATOM    117  H5  6NB d   1     -18.007  16.032  22.063  0.00  0.00     0.033 H 
ATOM    118  H6  6NB d   1     -18.351  17.789  21.921  0.00  0.00     0.033 H 
BRANCH 116 119
ATOM    119  C23 6NB d   1     -17.659  17.166  23.893  0.00  0.00    -0.076 C 
ATOM    120  H24 6NB d   1     -18.674  16.999  24.281  0.00  0.00     0.027 H 
ATOM    121  H25 6NB d   1     -17.320  18.173  24.176  0.00  0.00     0.027 H 
ATOM    122  H26 6NB d   1     -16.976  16.416  24.318  0.00  0.00     0.027 H 
ENDBRANCH 116 119
ENDBRANCH 113 116
ENDBRANCH 110 113
ENDBRANCH 108 110
ENDBRANCH 100 108
ENDBRANCH  96  98
ENDBRANCH  88  96
ENDBRANCH  77  83
ENDBRANCH  72  73
ENDBRANCH  69  72
ENDBRANCH  66  69
ENDBRANCH  65  66
ENDBRANCH   1  65
TORSDOF 27
