REMARK  24 active torsions:
REMARK  status: ('A' for Active; 'I' for Inactive)
REMARK    1  A    between atoms: C17_3  and  C16_21 
REMARK    2  A    between atoms: C27_28  and  C24_6 
REMARK    3  A    between atoms: C02_9  and  C01_8 
REMARK    4  A    between atoms: C03_10  and  C02_9 
REMARK    5  A    between atoms: S04_11  and  C03_10 
REMARK    6  A    between atoms: N05_12  and  S04_11 
REMARK    7  A    between atoms: C08_15  and  N05_12 
REMARK    8  A    between atoms: C16_21  and  C12_18 
REMARK    9  A    between atoms: C33_33  and  C30_30 
REMARK   10  A    between atoms: N34_34  and  C33_33 
REMARK       I    between atoms: C35_35  and  N34_34 
REMARK   11  A    between atoms: C36_36  and  C35_35 
REMARK   12  A    between atoms: O37_37  and  C36_36 
REMARK   13  A    between atoms: C38_38  and  O37_37 
REMARK   14  A    between atoms: C39_39  and  C38_38 
REMARK       I    between atoms: N40_40  and  C39_39 
REMARK   15  A    between atoms: C41_41  and  N40_40 
REMARK   16  A    between atoms: C71_71  and  C41_41 
REMARK   17  A    between atoms: C43_43  and  C42_42 
REMARK   18  A    between atoms: C44_44  and  C43_43 
REMARK   19  A    between atoms: S45_45  and  C44_44 
REMARK   20  A    between atoms: N46_46  and  S45_45 
REMARK   21  A    between atoms: C49_49  and  N46_46 
REMARK   22  A    between atoms: C57_57  and  C53_53 
REMARK   23  A    between atoms: C58_58  and  C57_57 
REMARK   24  A    between atoms: C68_68  and  C65_65 
ROOT
ATOM      1  O37 6NC d   1     -20.292  -1.667 -16.814  0.00  0.00    -0.373 OA
ENDROOT
BRANCH   1   2
ATOM      2  C36 6NC d   1     -20.266  -2.856 -16.044  0.00  0.00     0.093 C 
ATOM      3  H22 6NC d   1     -19.532  -3.566 -16.452  0.00  0.00     0.089 H 
ATOM      4  H23 6NC d   1     -20.018  -2.634 -14.996  0.00  0.00     0.089 H 
BRANCH   2   5
ATOM      5  C35 6NC d   1     -21.668  -3.416 -16.154  0.00  0.00     0.241 C 
ATOM      6  N34 6NC d   1     -22.095  -4.510 -15.295  0.00  0.00    -0.355 N 
ATOM      7  H21 6NC d   1     -21.485  -4.890 -14.600  0.00  0.00     0.162 HD
ATOM      8  O74 6NC d   1     -22.431  -2.981 -16.955  0.00  0.00    -0.271 OA
BRANCH   6   9
ATOM      9  C33 6NC d   1     -23.460  -5.041 -15.484  0.00  0.00     0.019 C 
ATOM     10  H19 6NC d   1     -23.851  -5.410 -14.524  0.00  0.00     0.071 H 
ATOM     11  H20 6NC d   1     -24.118  -4.247 -15.867  0.00  0.00     0.071 H 
BRANCH   9  12
ATOM     12  C30 6NC d   1     -23.397  -6.199 -16.500  0.00  0.00    -0.040 A 
ATOM     13  C29 6NC d   1     -23.692  -7.464 -16.096  0.00  0.00    -0.074 A 
ATOM     14  C28 6NC d   1     -23.641  -8.504 -16.986  0.00  0.00    -0.072 A 
ATOM     15  H16 6NC d   1     -23.969  -7.650 -15.065  0.00  0.00     0.084 H 
ATOM     16  C27 6NC d   1     -23.261  -8.258 -18.327  0.00  0.00    -0.025 A 
ATOM     17  H3  6NC d   1     -23.890  -9.509 -16.665  0.00  0.00     0.084 H 
ATOM     18  C32 6NC d   1     -22.953  -7.005 -18.743  0.00  0.00    -0.072 A 
ATOM     19  C31 6NC d   1     -23.006  -5.965 -17.847  0.00  0.00    -0.074 A 
ATOM     20  H18 6NC d   1     -22.668  -6.825 -19.773  0.00  0.00     0.084 H 
ATOM     21  H17 6NC d   1     -22.749  -4.962 -18.168  0.00  0.00     0.084 H 
BRANCH  16  22
ATOM     22  C24 6NC d   1     -23.198  -9.435 -19.323  0.00  0.00    -0.007 A 
ATOM     23  C23 6NC d   1     -22.955 -10.718 -18.851  0.00  0.00    -0.056 A 
ATOM     24  C19 6NC d   1     -22.914 -11.805 -19.807  0.00  0.00     0.026 A 
ATOM     25  H14 6NC d   1     -22.800 -10.901 -17.794  0.00  0.00     0.086 H 
ATOM     26  C17 6NC d   1     -22.688 -13.238 -19.750  0.00  0.00     0.044 A 
ATOM     27  C20 6NC d   1     -23.107 -11.526 -21.148  0.00  0.00     0.138 A 
ATOM     28  C22 6NC d   1     -22.761 -13.720 -21.039  0.00  0.00    -0.006 A 
ATOM     29  N21 6NC d   1     -23.017 -12.685 -21.862  0.00  0.00    -0.349 N 
ATOM     30  H2  6NC d   1     -22.634 -14.759 -21.340  0.00  0.00     0.112 H 
ATOM     31  H13 6NC d   1     -23.129 -12.758 -22.883  0.00  0.00     0.167 HD
ATOM     32  N26 6NC d   1     -23.346 -10.241 -21.581  0.00  0.00    -0.242 NA
ATOM     33  C25 6NC d   1     -23.400  -9.220 -20.717  0.00  0.00     0.015 A 
ATOM     34  H15 6NC d   1     -23.599  -8.219 -21.082  0.00  0.00     0.116 H 
BRANCH  26  35
ATOM     35  C16 6NC d   1     -22.415 -14.112 -18.552  0.00  0.00     0.200 C 
ATOM     36  O18 6NC d   1     -22.535 -13.744 -17.426  0.00  0.00    -0.286 OA
BRANCH  35  37
ATOM     37  C12 6NC d   1     -21.991 -15.569 -18.794  0.00  0.00     0.094 A 
ATOM     38  C13 6NC d   1     -22.898 -16.539 -18.415  0.00  0.00     0.160 A 
ATOM     39  C08 6NC d   1     -22.566 -17.887 -18.583  0.00  0.00     0.082 A 
ATOM     40  F14 6NC d   1     -24.074 -16.189 -17.884  0.00  0.00    -0.203 F 
ATOM     41  C09 6NC d   1     -21.353 -18.268 -19.138  0.00  0.00    -0.051 A 
ATOM     42  C10 6NC d   1     -20.429 -17.298 -19.523  0.00  0.00    -0.042 A 
ATOM     43  H12 6NC d   1     -21.124 -19.319 -19.272  0.00  0.00     0.087 H 
ATOM     44  C11 6NC d   1     -20.756 -15.952 -19.346  0.00  0.00     0.133 A 
ATOM     45  H1  6NC d   1     -19.475 -17.583 -19.951  0.00  0.00     0.088 H 
ATOM     46  F15 6NC d   1     -19.862 -15.050 -19.737  0.00  0.00    -0.205 F 
BRANCH  39  47
ATOM     47  N05 6NC d   1     -23.549 -18.864 -18.161  0.00  0.00    -0.281 N 
ATOM     48  H11 6NC d   1     -24.349 -18.595 -17.624  0.00  0.00     0.178 HD
BRANCH  47  49
ATOM     49  S04 6NC d   1     -23.299 -20.468 -18.605  0.00  0.00     0.231 S 
ATOM     50  O06 6NC d   1     -24.301 -21.317 -17.996  0.00  0.00    -0.206 OA
ATOM     51  O07 6NC d   1     -22.063 -20.935 -17.986  0.00  0.00    -0.206 OA
BRANCH  49  52
ATOM     52  C03 6NC d   1     -23.182 -20.407 -20.422  0.00  0.00     0.046 C 
ATOM     53  H9  6NC d   1     -23.627 -19.459 -20.759  0.00  0.00     0.058 H 
ATOM     54  H10 6NC d   1     -22.116 -20.430 -20.694  0.00  0.00     0.058 H 
BRANCH  52  55
ATOM     55  C02 6NC d   1     -23.896 -21.568 -21.177  0.00  0.00    -0.055 C 
ATOM     56  H7  6NC d   1     -23.223 -22.437 -21.224  0.00  0.00     0.033 H 
ATOM     57  H8  6NC d   1     -24.812 -21.843 -20.634  0.00  0.00     0.033 H 
BRANCH  55  58
ATOM     58  C01 6NC d   1     -24.267 -21.133 -22.613  0.00  0.00    -0.076 C 
ATOM     59  H4  6NC d   1     -24.769 -21.964 -23.130  0.00  0.00     0.027 H 
ATOM     60  H5  6NC d   1     -23.353 -20.859 -23.161  0.00  0.00     0.027 H 
ATOM     61  H6  6NC d   1     -24.943 -20.266 -22.570  0.00  0.00     0.027 H 
ENDBRANCH  55  58
ENDBRANCH  52  55
ENDBRANCH  49  52
ENDBRANCH  47  49
ENDBRANCH  39  47
ENDBRANCH  35  37
ENDBRANCH  26  35
ENDBRANCH  16  22
ENDBRANCH   9  12
ENDBRANCH   6   9
ENDBRANCH   2   5
ENDBRANCH   1   2
BRANCH   1  62
ATOM     62  C38 6NC d   1     -20.342  -0.489 -15.986  0.00  0.00     0.093 C 
ATOM     63  H24 6NC d   1     -20.745  -0.733 -14.992  0.00  0.00     0.089 H 
ATOM     64  H25 6NC d   1     -20.967   0.285 -16.455  0.00  0.00     0.089 H 
BRANCH  62  65
ATOM     65  C39 6NC d   1     -18.864  -0.004 -15.872  0.00  0.00     0.241 C 
ATOM     66  N40 6NC d   1     -18.532   1.186 -15.099  0.00  0.00    -0.355 N 
ATOM     67  H26 6NC d   1     -19.239   1.696 -14.609  0.00  0.00     0.162 HD
ATOM     68  O75 6NC d   1     -17.992  -0.590 -16.406  0.00  0.00    -0.271 OA
BRANCH  66  69
ATOM     69  C41 6NC d   1     -17.132   1.612 -15.061  0.00  0.00     0.019 C 
ATOM     70  H27 6NC d   1     -16.466   0.757 -15.248  0.00  0.00     0.071 H 
ATOM     71  H28 6NC d   1     -16.893   2.056 -14.083  0.00  0.00     0.071 H 
BRANCH  69  72
ATOM     72  C71 6NC d   1     -16.982   2.681 -16.198  0.00  0.00    -0.040 A 
ATOM     73  C70 6NC d   1     -16.533   3.974 -15.853  0.00  0.00    -0.074 A 
ATOM     74  C69 6NC d   1     -16.383   4.929 -16.832  0.00  0.00    -0.072 A 
ATOM     75  H44 6NC d   1     -16.307   4.214 -14.820  0.00  0.00     0.084 H 
ATOM     76  C68 6NC d   1     -16.687   4.620 -18.165  0.00  0.00    -0.025 A 
ATOM     77  H43 6NC d   1     -16.030   5.920 -16.573  0.00  0.00     0.084 H 
ATOM     78  C73 6NC d   1     -17.139   3.344 -18.524  0.00  0.00    -0.072 A 
ATOM     79  C72 6NC d   1     -17.295   2.383 -17.533  0.00  0.00    -0.074 A 
ATOM     80  H46 6NC d   1     -17.363   3.110 -19.558  0.00  0.00     0.084 H 
ATOM     81  H45 6NC d   1     -17.661   1.396 -17.793  0.00  0.00     0.084 H 
BRANCH  76  82
ATOM     82  C65 6NC d   1     -16.506   5.693 -19.211  0.00  0.00    -0.007 A 
ATOM     83  C64 6NC d   1     -16.829   7.032 -18.953  0.00  0.00    -0.056 A 
ATOM     84  C60 6NC d   1     -16.597   7.953 -20.023  0.00  0.00     0.026 A 
ATOM     85  H41 6NC d   1     -17.231   7.351 -17.998  0.00  0.00     0.086 H 
ATOM     86  C58 6NC d   1     -16.799   9.349 -20.165  0.00  0.00     0.044 A 
ATOM     87  C61 6NC d   1     -16.099   7.531 -21.207  0.00  0.00     0.138 A 
ATOM     88  C63 6NC d   1     -16.407   9.677 -21.470  0.00  0.00    -0.006 A 
ATOM     89  N62 6NC d   1     -15.998   8.600 -22.076  0.00  0.00    -0.349 N 
ATOM     90  H40 6NC d   1     -16.439  10.674 -21.907  0.00  0.00     0.112 H 
ATOM     91  H39 6NC d   1     -15.655   8.553 -23.046  0.00  0.00     0.167 HD
ATOM     92  N67 6NC d   1     -15.795   6.219 -21.390  0.00  0.00    -0.242 NA
ATOM     93  C66 6NC d   1     -15.995   5.331 -20.437  0.00  0.00     0.015 A 
ATOM     94  H42 6NC d   1     -15.751   4.291 -20.623  0.00  0.00     0.116 H 
BRANCH  86  95
ATOM     95  C57 6NC d   1     -17.368  10.321 -19.077  0.00  0.00     0.200 C 
ATOM     96  O59 6NC d   1     -17.516   9.975 -17.955  0.00  0.00    -0.286 OA
BRANCH  95  97
ATOM     97  C53 6NC d   1     -17.713  11.740 -19.537  0.00  0.00     0.094 A 
ATOM     98  C52 6NC d   1     -18.806  11.990 -20.325  0.00  0.00     0.133 A 
ATOM     99  C51 6NC d   1     -19.099  13.294 -20.740  0.00  0.00    -0.042 A 
ATOM    100  F56 6NC d   1     -19.617  10.948 -20.706  0.00  0.00    -0.205 F 
ATOM    101  C50 6NC d   1     -18.261  14.354 -20.340  0.00  0.00    -0.051 A 
ATOM    102  H38 6NC d   1     -19.964  13.487 -21.364  0.00  0.00     0.088 H 
ATOM    103  C49 6NC d   1     -17.166  14.073 -19.554  0.00  0.00     0.082 A 
ATOM    104  H37 6NC d   1     -18.474  15.372 -20.645  0.00  0.00     0.087 H 
ATOM    105  C54 6NC d   1     -16.872  12.791 -19.159  0.00  0.00     0.160 A 
ATOM    106  F55 6NC d   1     -15.786  12.577 -18.375  0.00  0.00    -0.203 F 
BRANCH 103 107
ATOM    107  N46 6NC d   1     -16.262  15.085 -19.113  0.00  0.00    -0.281 N 
ATOM    108  H36 6NC d   1     -15.525  14.869 -18.473  0.00  0.00     0.178 HD
BRANCH 107 109
ATOM    109  S45 6NC d   1     -16.465  16.647 -19.695  0.00  0.00     0.231 S 
ATOM    110  O47 6NC d   1     -17.796  17.129 -19.279  0.00  0.00    -0.206 OA
ATOM    111  O48 6NC d   1     -15.527  17.540 -19.010  0.00  0.00    -0.206 OA
BRANCH 109 112
ATOM    112  C44 6NC d   1     -16.371  16.773 -21.519  0.00  0.00     0.046 C 
ATOM    113  H34 6NC d   1     -16.857  15.891 -21.962  0.00  0.00     0.058 H 
ATOM    114  H35 6NC d   1     -16.899  17.683 -21.840  0.00  0.00     0.058 H 
BRANCH 112 115
ATOM    115  C43 6NC d   1     -14.918  16.841 -22.013  0.00  0.00    -0.055 C 
ATOM    116  H32 6NC d   1     -14.350  17.514 -21.354  0.00  0.00     0.033 H 
ATOM    117  H33 6NC d   1     -14.481  15.832 -21.972  0.00  0.00     0.033 H 
BRANCH 115 118
ATOM    118  C42 6NC d   1     -14.825  17.358 -23.440  0.00  0.00    -0.076 C 
ATOM    119  H29 6NC d   1     -13.770  17.390 -23.750  0.00  0.00     0.027 H 
ATOM    120  H30 6NC d   1     -15.253  18.370 -23.492  0.00  0.00     0.027 H 
ATOM    121  H31 6NC d   1     -15.384  16.688 -24.110  0.00  0.00     0.027 H 
ENDBRANCH 115 118
ENDBRANCH 112 115
ENDBRANCH 109 112
ENDBRANCH 107 109
ENDBRANCH 103 107
ENDBRANCH  95  97
ENDBRANCH  86  95
ENDBRANCH  76  82
ENDBRANCH  69  72
ENDBRANCH  66  69
ENDBRANCH  62  65
ENDBRANCH   1  62
TORSDOF 24
