REMARK  9 active torsions:
REMARK  status: ('A' for Active; 'I' for Inactive)
REMARK    1  A    between atoms: C11_5  and  C12_18 
REMARK    2  A    between atoms: C8_7  and  N1_8 
REMARK    3  A    between atoms: N1_8  and  C5_9 
REMARK    4  A    between atoms: C5_9  and  C6_10 
REMARK    5  A    between atoms: C5_9  and  C2_14 
REMARK    6  A    between atoms: C6_10  and  C7_11 
REMARK    7  A    between atoms: C2_14  and  C4_15 
REMARK    8  A    between atoms: C2_14  and  C3_16 
REMARK    9  A    between atoms: C2_14  and  C1_17 
ROOT
ATOM      1  N1  6NS d   1     -50.021  -5.564   5.169  0.00  0.00    -0.366 N 
ATOM      2  H2  6NS d   1     -50.530  -5.787   6.036  0.00  0.00     0.161 HD
ENDROOT
BRANCH   1   3
ATOM      3  C8  6NS d   1     -50.659  -4.794   4.273  0.00  0.00     0.166 A 
ATOM      4  C9  6NS d   1     -51.965  -4.263   4.366  0.00  0.00     0.179 A 
ATOM      5  F2  6NS d   1     -52.765  -4.431   5.441  0.00  0.00    -0.201 F 
ATOM      6  C10 6NS d   1     -52.431  -3.521   3.287  0.00  0.00     0.045 A 
ATOM      7  N2  6NS d   1     -51.682  -3.295   2.203  0.00  0.00    -0.237 NA
ATOM      8  H1  6NS d   1     -53.434  -3.112   3.326  0.00  0.00     0.119 H 
ATOM      9  C11 6NS d   1     -50.496  -3.796   2.214  0.00  0.00     0.164 A 
ATOM     10  N3  6NS d   1     -49.943  -4.532   3.174  0.00  0.00    -0.208 NA
BRANCH   9  11
ATOM     11  C12 6NS d   1     -49.694  -3.531   1.066  0.00  0.00     0.041 A 
ATOM     12  C15 6NS d   1     -48.310  -3.924   0.772  0.00  0.00     0.028 A 
ATOM     13  C16 6NS d   1     -47.354  -4.613   1.512  0.00  0.00    -0.030 A 
ATOM     14  C14 6NS d   1     -47.983  -3.457  -0.491  0.00  0.00     0.138 A 
ATOM     15  C17 6NS d   1     -46.123  -4.788   0.941  0.00  0.00     0.134 A 
ATOM     16  H15 6NS d   1     -47.576  -4.996   2.502  0.00  0.00     0.089 H 
ATOM     17  F1  6NS d   1     -45.172  -5.445   1.652  0.00  0.00    -0.205 F 
ATOM     18  C18 6NS d   1     -45.856  -4.282  -0.370  0.00  0.00     0.042 A 
ATOM     19  N5  6NS d   1     -46.786  -3.626  -1.070  0.00  0.00    -0.239 NA
ATOM     20  H16 6NS d   1     -44.875  -4.434  -0.806  0.00  0.00     0.119 H 
ATOM     21  N4  6NS d   1     -49.063  -2.803  -1.004  0.00  0.00    -0.349 N 
ATOM     22  C13 6NS d   1     -50.075  -2.845  -0.083  0.00  0.00    -0.007 A 
ATOM     23  H17 6NS d   1     -49.110  -2.353  -1.929  0.00  0.00     0.167 HD
ATOM     24  H18 6NS d   1     -51.056  -2.397  -0.231  0.00  0.00     0.112 H 
ENDBRANCH   9  11
ENDBRANCH   1   3
BRANCH   1  25
ATOM     25  C5  6NS d   1     -48.677  -6.115   5.033  0.00  0.00     0.026 C 
ATOM     26  H3  6NS d   1     -48.252  -5.812   4.065  0.00  0.00     0.074 H 
BRANCH  25  27
ATOM     27  C6  6NS d   1     -48.854  -7.652   5.066  0.00  0.00     0.035 C 
ATOM     28  H4  6NS d   1     -49.322  -7.951   6.015  0.00  0.00     0.052 H 
ATOM     29  H5  6NS d   1     -47.873  -8.140   4.972  0.00  0.00     0.052 H 
BRANCH  27  30
ATOM     30  C7  6NS d   1     -49.735  -8.060   3.916  0.00  0.00     0.174 C 
ATOM     31  O2  6NS d   1     -50.992  -8.153   4.230  0.00  0.00    -0.648 OA
ATOM     32  O1  6NS d   1     -49.306  -8.276   2.806  0.00  0.00    -0.648 OA
ENDBRANCH  27  30
ENDBRANCH  25  27
BRANCH  25  33
ATOM     33  C2  6NS d   1     -47.731  -5.628   6.152  0.00  0.00    -0.030 C 
BRANCH  33  34
ATOM     34  C4  6NS d   1     -46.403  -6.378   6.076  0.00  0.00    -0.068 C 
ATOM     35  H6  6NS d   1     -45.736  -6.025   6.876  0.00  0.00     0.028 H 
ATOM     36  H7  6NS d   1     -45.933  -6.193   5.099  0.00  0.00     0.028 H 
ATOM     37  H8  6NS d   1     -46.583  -7.456   6.198  0.00  0.00     0.028 H 
ENDBRANCH  33  34
BRANCH  33  38
ATOM     38  C3  6NS d   1     -47.465  -4.132   5.993  0.00  0.00    -0.068 C 
ATOM     39  H9  6NS d   1     -48.416  -3.583   6.046  0.00  0.00     0.028 H 
ATOM     40  H10 6NS d   1     -46.988  -3.946   5.019  0.00  0.00     0.028 H 
ATOM     41  H11 6NS d   1     -46.799  -3.790   6.799  0.00  0.00     0.028 H 
ENDBRANCH  33  38
BRANCH  33  42
ATOM     42  C1  6NS d   1     -48.365  -5.878   7.519  0.00  0.00    -0.068 C 
ATOM     43  H12 6NS d   1     -48.560  -6.954   7.642  0.00  0.00     0.028 H 
ATOM     44  H13 6NS d   1     -49.312  -5.323   7.591  0.00  0.00     0.028 H 
ATOM     45  H14 6NS d   1     -47.680  -5.537   8.309  0.00  0.00     0.028 H 
ENDBRANCH  33  42
ENDBRANCH  25  33
ENDBRANCH   1  25
TORSDOF 9
