REMARK  6 active torsions:
REMARK  status: ('A' for Active; 'I' for Inactive)
REMARK    1  A    between atoms: CAS_9  and  CAR_10 
REMARK    2  A    between atoms: CAR_10  and  PBB_11 
REMARK    3  A    between atoms: CAR_10  and  NAQ_15 
REMARK    4  A    between atoms: NAQ_15  and  C4_16 
REMARK    5  A    between atoms: CAH_24  and  CAE_25 
REMARK    6  A    between atoms: CAB_28  and  CAA_29 
ROOT
ATOM      1  C4  YL4 d   1       5.068  71.335  27.358  0.00  0.00     0.139 A 
ATOM      2  N3  YL4 d   1       4.743  70.017  27.434  0.00  0.00    -0.224 NA
ATOM      3  C2  YL4 d   1       3.499  69.636  27.922  0.00  0.00     0.090 A 
ATOM      4  N1  YL4 d   1       2.630  70.658  28.309  0.00  0.00    -0.234 NA
ATOM      5  C6  YL4 d   1       2.997  71.960  28.213  0.00  0.00     0.113 A 
ATOM      6  SAI YL4 d   1       2.131  73.371  28.609  0.00  0.00    -0.069 SA
ATOM      7  C5  YL4 d   1       4.214  72.342  27.735  0.00  0.00     0.047 A 
ATOM      8  CAL YL4 d   1       4.371  73.725  27.715  0.00  0.00    -0.049 A 
ATOM      9  CAH YL4 d   1       3.330  74.477  28.169  0.00  0.00     0.018 A 
ATOM     10  H8  YL4 d   1       3.216  68.592  27.999  0.00  0.00     0.146 H 
ATOM     11  H9  YL4 d   1       5.288  74.186  27.352  0.00  0.00     0.087 H 
ENDROOT
BRANCH   1  12
ATOM     12  NAQ YL4 d   1       6.277  71.692  26.887  0.00  0.00    -0.353 N 
ATOM     13  H7  YL4 d   1       6.380  72.650  26.522  0.00  0.00     0.162 HD
BRANCH  12  14
ATOM     14  CAR YL4 d   1       7.487  70.806  26.852  0.00  0.00     0.145 C 
ATOM     15  H6  YL4 d   1       7.269  69.846  27.342  0.00  0.00     0.102 H 
BRANCH  14  16
ATOM     16  CAS YL4 d   1       7.871  70.578  25.519  0.00  0.00    -0.021 A 
ATOM     17  CAT YL4 d   1       8.183  69.294  25.041  0.00  0.00    -0.061 A 
ATOM     18  CAU YL4 d   1       8.534  69.136  23.736  0.00  0.00     0.000 A 
ATOM     19  H1  YL4 d   1       8.144  68.438  25.705  0.00  0.00     0.085 H 
ATOM     20  CAY YL4 d   1       8.896  67.980  23.034  0.00  0.00    -0.049 C 
ATOM     21  CAV YL4 d   1       8.619  70.201  22.865  0.00  0.00     0.085 A 
ATOM     22  CAZ YL4 d   1       8.707  68.439  21.550  0.00  0.00     0.020 C 
ATOM     23  H2  YL4 d   1       9.223  67.015  23.419  0.00  0.00     0.087 H 
ATOM     24  OBA YL4 d   1       8.988  69.860  21.586  0.00  0.00    -0.322 OA
ATOM     25  H3  YL4 d   1       8.429  67.832  20.690  0.00  0.00     0.123 H 
ATOM     26  CAW YL4 d   1       8.328  71.437  23.296  0.00  0.00    -0.049 A 
ATOM     27  CAX YL4 d   1       7.948  71.660  24.615  0.00  0.00    -0.071 A 
ATOM     28  H4  YL4 d   1       8.390  72.272  22.608  0.00  0.00     0.087 H 
ATOM     29  H5  YL4 d   1       7.711  72.664  24.949  0.00  0.00     0.084 H 
ENDBRANCH  14  16
BRANCH  14  30
ATOM     30  PBB YL4 d   1       8.881  71.728  27.795  0.00  0.00     0.287 P 
ATOM     31  OBD YL4 d   1       8.576  71.714  29.446  0.00  0.00    -0.638 OA
ATOM     32  OBE YL4 d   1      10.334  70.957  27.505  0.00  0.00    -0.638 OA
ATOM     33  OBC YL4 d   1       8.750  73.354  27.282  0.00  0.00    -0.638 OA
ENDBRANCH  14  30
ENDBRANCH  12  14
ENDBRANCH   1  12
BRANCH   9  34
ATOM     34  CAE YL4 d   1       3.219  75.860  28.240  0.00  0.00    -0.019 A 
ATOM     35  CAD YL4 d   1       1.949  76.453  28.147  0.00  0.00    -0.071 A 
ATOM     36  CAC YL4 d   1       1.774  77.834  28.205  0.00  0.00    -0.076 A 
ATOM     37  H10 YL4 d   1       1.079  75.817  28.026  0.00  0.00     0.084 H 
ATOM     38  CAB YL4 d   1       2.846  78.712  28.356  0.00  0.00    -0.062 A 
ATOM     39  H11 YL4 d   1       0.771  78.239  28.130  0.00  0.00     0.084 H 
ATOM     40  CAG YL4 d   1       4.133  78.166  28.448  0.00  0.00    -0.076 A 
ATOM     41  CAF YL4 d   1       4.307  76.769  28.385  0.00  0.00    -0.071 A 
ATOM     42  H15 YL4 d   1       4.992  78.816  28.567  0.00  0.00     0.084 H 
ATOM     43  H16 YL4 d   1       5.312  76.368  28.450  0.00  0.00     0.084 H 
BRANCH  38  44
ATOM     44  CAA YL4 d   1       2.577  80.104  28.390  0.00  0.00    -0.051 C 
ATOM     45  H12 YL4 d   1       3.520  80.657  28.513  0.00  0.00     0.033 H 
ATOM     46  H13 YL4 d   1       1.908  80.328  29.234  0.00  0.00     0.033 H 
ATOM     47  H14 YL4 d   1       2.094  80.407  27.449  0.00  0.00     0.033 H 
ENDBRANCH  38  44
ENDBRANCH   9  34
TORSDOF 6
