REMARK  7 active torsions:
REMARK  status: ('A' for Active; 'I' for Inactive)
REMARK    1  A    between atoms: CAX_7  and  CAV_8 
REMARK    2  A    between atoms: CAV_8  and  CAC_9 
REMARK    3  A    between atoms: CAC_9  and  PAA_10 
REMARK    4  A    between atoms: CAC_9  and  NAB_14 
REMARK    5  A    between atoms: NAB_14  and  C4_15 
REMARK    6  A    between atoms: CAM_23  and  CAO_24 
REMARK    7  A    between atoms: CAR_27  and  CAW_28 
ROOT
ATOM      1  C4  YL5 d   1       3.212  71.524  27.584  0.00  0.00     0.139 A 
ATOM      2  N3  YL5 d   1       3.983  70.433  27.340  0.00  0.00    -0.224 NA
ATOM      3  C2  YL5 d   1       5.341  70.573  27.036  0.00  0.00     0.090 A 
ATOM      4  N1  YL5 d   1       5.853  71.870  26.990  0.00  0.00    -0.234 NA
ATOM      5  C6  YL5 d   1       5.044  72.927  27.237  0.00  0.00     0.113 A 
ATOM      6  SAN YL5 d   1       5.421  74.588  27.231  0.00  0.00    -0.069 SA
ATOM      7  C5  YL5 d   1       3.720  72.791  27.547  0.00  0.00     0.047 A 
ATOM      8  CAL YL5 d   1       3.108  74.007  27.763  0.00  0.00    -0.049 A 
ATOM      9  CAM YL5 d   1       3.892  75.122  27.652  0.00  0.00     0.018 A 
ATOM     10  H9  YL5 d   1       5.969  69.710  26.844  0.00  0.00     0.146 H 
ATOM     11  H10 YL5 d   1       2.050  74.077  28.010  0.00  0.00     0.087 H 
ENDROOT
BRANCH   1  12
ATOM     12  NAB YL5 d   1       1.899  71.345  27.896  0.00  0.00    -0.357 N 
ATOM     13  H8  YL5 d   1       1.321  72.174  28.098  0.00  0.00     0.162 HD
BRANCH  12  14
ATOM     14  CAC YL5 d   1       1.261  69.992  27.958  0.00  0.00     0.123 C 
ATOM     15  H7  YL5 d   1       1.842  69.327  27.302  0.00  0.00     0.095 H 
BRANCH  14  16
ATOM     16  CAV YL5 d   1       1.263  69.342  29.388  0.00  0.00    -0.010 C 
ATOM     17  H5  YL5 d   1       0.506  69.834  30.016  0.00  0.00     0.044 H 
ATOM     18  H6  YL5 d   1       1.030  68.270  29.305  0.00  0.00     0.044 H 
BRANCH  16  19
ATOM     19  CAX YL5 d   1       2.510  69.500  29.960  0.00  0.00    -0.053 A 
ATOM     20  CAY YL5 d   1       3.445  68.479  29.844  0.00  0.00    -0.040 A 
ATOM     21  CAZ YL5 d   1       4.706  68.653  30.415  0.00  0.00     0.116 A 
ATOM     22  H1  YL5 d   1       3.199  67.563  29.319  0.00  0.00     0.089 H 
ATOM     23  FBD YL5 d   1       5.546  67.712  30.285  0.00  0.00    -0.206 F 
ATOM     24  CBA YL5 d   1       5.057  69.829  31.103  0.00  0.00    -0.046 A 
ATOM     25  CBB YL5 d   1       4.122  70.851  31.227  0.00  0.00    -0.080 A 
ATOM     26  H2  YL5 d   1       6.046  69.937  31.532  0.00  0.00     0.088 H 
ATOM     27  CBC YL5 d   1       2.857  70.675  30.663  0.00  0.00    -0.077 A 
ATOM     28  H3  YL5 d   1       4.371  71.767  31.751  0.00  0.00     0.083 H 
ATOM     29  H4  YL5 d   1       2.120  71.463  30.768  0.00  0.00     0.084 H 
ENDBRANCH  16  19
ENDBRANCH  14  16
BRANCH  14  30
ATOM     30  PAA YL5 d   1      -0.505  70.099  27.267  0.00  0.00     0.283 P 
ATOM     31  OAD YL5 d   1      -1.400  70.423  28.642  0.00  0.00    -0.638 OA
ATOM     32  OAU YL5 d   1      -0.603  71.205  26.283  0.00  0.00    -0.638 OA
ATOM     33  OAE YL5 d   1      -0.847  68.744  26.759  0.00  0.00    -0.638 OA
ENDBRANCH  14  30
ENDBRANCH  12  14
ENDBRANCH   1  12
BRANCH   9  34
ATOM     34  CAO YL5 d   1       3.549  76.446  27.766  0.00  0.00    -0.019 A 
ATOM     35  CAP YL5 d   1       2.206  76.880  27.734  0.00  0.00    -0.071 A 
ATOM     36  CAQ YL5 d   1       1.891  78.235  27.795  0.00  0.00    -0.076 A 
ATOM     37  H11 YL5 d   1       1.409  76.149  27.661  0.00  0.00     0.084 H 
ATOM     38  CAR YL5 d   1       2.888  79.205  27.888  0.00  0.00    -0.062 A 
ATOM     39  H12 YL5 d   1       0.852  78.541  27.770  0.00  0.00     0.084 H 
ATOM     40  CAS YL5 d   1       4.216  78.801  27.902  0.00  0.00    -0.076 A 
ATOM     41  CAT YL5 d   1       4.544  77.448  27.832  0.00  0.00    -0.071 A 
ATOM     42  H16 YL5 d   1       5.004  79.543  27.968  0.00  0.00     0.084 H 
ATOM     43  H17 YL5 d   1       5.588  77.157  27.828  0.00  0.00     0.084 H 
BRANCH  38  44
ATOM     44  CAW YL5 d   1       2.543  80.562  27.953  0.00  0.00    -0.051 C 
ATOM     45  H13 YL5 d   1       3.457  81.170  28.022  0.00  0.00     0.033 H 
ATOM     46  H14 YL5 d   1       1.917  80.739  28.840  0.00  0.00     0.033 H 
ATOM     47  H15 YL5 d   1       1.984  80.842  27.048  0.00  0.00     0.033 H 
ENDBRANCH  38  44
ENDBRANCH   9  34
TORSDOF 7
