REMARK  4 active torsions:
REMARK  status: ('A' for Active; 'I' for Inactive)
REMARK    1  A    between atoms: PAR_2  and  CAQ_5 
REMARK    2  A    between atoms: CAQ_5  and  CAC_6 
REMARK    3  A    between atoms: CAD_14  and  CAJ_15 
REMARK    4  A    between atoms: CAM_18  and  CAP_19 
ROOT
ATOM      1  CAC 6O3 d   1       5.084  73.102  28.147  0.00  0.00    -0.013 A 
ATOM      2  C5  6O3 d   1       4.968  71.713  28.262  0.00  0.00     0.026 A 
ATOM      3  C6  6O3 d   1       5.931  70.763  28.082  0.00  0.00     0.017 A 
ATOM      4  N1  6O3 d   1       5.687  69.375  28.204  0.00  0.00    -0.253 NA
ATOM      5  C2  6O3 d   1       4.400  68.947  28.533  0.00  0.00     0.087 A 
ATOM      6  N3  6O3 d   1       3.424  69.943  28.722  0.00  0.00    -0.234 NA
ATOM      7  C4  6O3 d   1       3.714  71.262  28.588  0.00  0.00     0.112 A 
ATOM      8  SAE 6O3 d   1       2.692  72.605  28.800  0.00  0.00    -0.068 SA
ATOM      9  CAD 6O3 d   1       3.945  73.873  28.439  0.00  0.00     0.025 A 
ATOM     10  H3  6O3 d   1       6.934  71.089  27.833  0.00  0.00     0.116 H 
ATOM     11  H4  6O3 d   1       4.163  67.894  28.638  0.00  0.00     0.146 H 
ENDROOT
BRANCH   9  12
ATOM     12  CAJ 6O3 d   1       3.695  75.262  28.373  0.00  0.00    -0.018 A 
ATOM     13  CAK 6O3 d   1       4.634  76.317  28.622  0.00  0.00    -0.071 A 
ATOM     14  CAL 6O3 d   1       4.328  77.680  28.482  0.00  0.00    -0.076 A 
ATOM     15  H5  6O3 d   1       5.636  76.047  28.936  0.00  0.00     0.084 H 
ATOM     16  CAM 6O3 d   1       3.054  78.093  28.091  0.00  0.00    -0.062 A 
ATOM     17  H6  6O3 d   1       5.093  78.422  28.681  0.00  0.00     0.084 H 
ATOM     18  CAN 6O3 d   1       2.099  77.096  27.817  0.00  0.00    -0.076 A 
ATOM     19  CAO 6O3 d   1       2.412  75.724  27.949  0.00  0.00    -0.071 A 
ATOM     20  H10 6O3 d   1       1.104  77.386  27.499  0.00  0.00     0.084 H 
ATOM     21  H11 6O3 d   1       1.646  74.992  27.719  0.00  0.00     0.084 H 
BRANCH  16  22
ATOM     22  CAP 6O3 d   1       2.772  79.476  27.969  0.00  0.00    -0.051 C 
ATOM     23  H7  6O3 d   1       1.727  79.611  27.654  0.00  0.00     0.033 H 
ATOM     24  H8  6O3 d   1       3.442  79.922  27.219  0.00  0.00     0.033 H 
ATOM     25  H9  6O3 d   1       2.929  79.969  28.940  0.00  0.00     0.033 H 
ENDBRANCH  16  22
ENDBRANCH   9  12
BRANCH   1  26
ATOM     26  CAQ 6O3 d   1       6.523  73.686  27.805  0.00  0.00     0.065 C 
ATOM     27  H1  6O3 d   1       6.576  74.718  28.181  0.00  0.00     0.061 H 
ATOM     28  H2  6O3 d   1       7.277  73.070  28.317  0.00  0.00     0.061 H 
BRANCH  26  29
ATOM     29  PAR 6O3 d   1       6.884  73.703  26.150  0.00  0.00     0.263 P 
ATOM     30  OAS 6O3 d   1       5.603  74.434  25.374  0.00  0.00    -0.639 OA
ATOM     31  OAT 6O3 d   1       6.919  72.168  25.515  0.00  0.00    -0.639 OA
ATOM     32  OAU 6O3 d   1       8.204  74.423  26.064  0.00  0.00    -0.639 OA
ENDBRANCH  26  29
ENDBRANCH   1  26
TORSDOF 4
