REMARK  15 active torsions:
REMARK  status: ('A' for Active; 'I' for Inactive)
REMARK    1  A    between atoms: N_1  and  CA_2 
REMARK    2  A    between atoms: CA_2  and  C_3 
REMARK    3  A    between atoms: CA_2  and  CB_5 
REMARK       I    between atoms: C_3  and  N_9 
REMARK    4  A    between atoms: CB_5  and  CG_6 
REMARK    5  A    between atoms: CG_6  and  CD1_7 
REMARK    6  A    between atoms: CG_6  and  CD2_8 
REMARK    7  A    between atoms: N_9  and  CA_10 
REMARK    8  A    between atoms: CA_10  and  C_11 
REMARK    9  A    between atoms: CA_10  and  CB_13 
REMARK       I    between atoms: C_11  and  N_17 
REMARK   10  A    between atoms: CB_13  and  CG_14 
REMARK   11  A    between atoms: N_17  and  CA_18 
REMARK   12  A    between atoms: CA_18  and  C_19 
REMARK   13  A    between atoms: CA_18  and  CB_21 
REMARK   14  A    between atoms: CB_21  and  CG1_22 
REMARK   15  A    between atoms: CB_21  and  CG2_23 
ROOT
ATOM      1  CA  ASP d   1      15.378   2.032  15.647  0.00  0.00     0.098 C 
ATOM      2  H15 ASP d   1      14.653   2.644  16.203  0.00  0.00     0.088 H 
ENDROOT
BRANCH   1   3
ATOM      3  N   ASP d   1      15.221   2.323  14.235  0.00  0.00    -0.345 N 
ATOM      4  C   LEU d   1      14.747   3.482  13.800  0.00  0.00     0.249 C 
ATOM      5  O   LEU d   1      14.387   4.374  14.533  0.00  0.00    -0.271 OA
ATOM      6  H14 ASP d   1      15.479   1.625  13.567  0.00  0.00     0.163 HD
BRANCH   4   7
ATOM      7  CA  LEU d   1      14.656   3.643  12.311  0.00  0.00     0.176 C 
ATOM      8  H4  LEU d   1      14.778   2.654  11.846  0.00  0.00     0.099 H 
BRANCH   7   9
ATOM      9  N   LEU d   1      13.351   4.164  11.948  0.00  0.00    -0.066 N 
ATOM     10  H1  LEU d   1      13.298   4.269  10.947  0.00  0.00     0.275 HD
ATOM     11  H2  LEU d   1      13.213   5.060  12.388  0.00  0.00     0.275 HD
ATOM     12  H3  LEU d   1      12.636   3.524  12.257  0.00  0.00     0.275 HD
ENDBRANCH   7   9
BRANCH   7  13
ATOM     13  CB  LEU d   1      15.757   4.550  11.798  0.00  0.00    -0.028 C 
ATOM     14  H5  LEU d   1      16.709   4.236  12.252  0.00  0.00     0.037 H 
ATOM     15  H6  LEU d   1      15.529   5.582  12.101  0.00  0.00     0.037 H 
BRANCH  13  16
ATOM     16  CG  LEU d   1      15.907   4.513  10.289  0.00  0.00    -0.059 C 
ATOM     17  H7  LEU d   1      14.976   4.864   9.821  0.00  0.00     0.038 H 
BRANCH  16  18
ATOM     18  CD1 LEU d   1      17.028   5.412   9.887  0.00  0.00    -0.073 C 
ATOM     19  H8  LEU d   1      17.142   5.389   8.793  0.00  0.00     0.028 H 
ATOM     20  H9  LEU d   1      17.960   5.069  10.360  0.00  0.00     0.028 H 
ATOM     21  H10 LEU d   1      16.808   6.440  10.212  0.00  0.00     0.028 H 
ENDBRANCH  16  18
BRANCH  16  22
ATOM     22  CD2 LEU d   1      16.178   3.109   9.848  0.00  0.00    -0.073 C 
ATOM     23  H11 LEU d   1      15.343   2.461  10.152  0.00  0.00     0.028 H 
ATOM     24  H12 LEU d   1      17.108   2.751  10.314  0.00  0.00     0.028 H 
ATOM     25  H13 LEU d   1      16.283   3.082   8.753  0.00  0.00     0.028 H 
ENDBRANCH  16  22
ENDBRANCH  13  16
ENDBRANCH   7  13
ENDBRANCH   4   7
ENDBRANCH   1   3
BRANCH   1  26
ATOM     26  C   ASP d   1      16.767   2.380  16.137  0.00  0.00     0.241 C 
ATOM     27  O   ASP d   1      17.344   1.667  16.943  0.00  0.00    -0.271 OA
ATOM     28  N   VAL d   1      17.274   3.478  15.593  0.00  0.00    -0.344 N 
ATOM     29  H18 VAL d   1      16.859   3.797  14.741  0.00  0.00     0.163 HD
BRANCH  28  30
ATOM     30  CA  VAL d   1      18.380   4.260  16.124  0.00  0.00     0.099 C 
ATOM     31  H19 VAL d   1      19.286   3.963  15.575  0.00  0.00     0.090 H 
BRANCH  30  32
ATOM     32  C   VAL d   1      18.648   4.066  17.617  0.00  0.00     0.197 C 
ATOM     33  O   VAL d   1      19.786   4.201  18.084  0.00  0.00    -0.646 OA
ATOM     34  OXT VAL d   1      17.734   3.769  18.396  0.00  0.00    -0.646 OA
ENDBRANCH  30  32
BRANCH  30  35
ATOM     35  CB  VAL d   1      18.131   5.760  15.898  0.00  0.00    -0.032 C 
ATOM     36  H20 VAL d   1      17.817   5.908  14.854  0.00  0.00     0.042 H 
BRANCH  35  37
ATOM     37  CG1 VAL d   1      17.010   6.258  16.809  0.00  0.00    -0.071 C 
ATOM     38  H21 VAL d   1      16.845   7.332  16.634  0.00  0.00     0.028 H 
ATOM     39  H22 VAL d   1      17.292   6.096  17.860  0.00  0.00     0.028 H 
ATOM     40  H23 VAL d   1      16.085   5.705  16.589  0.00  0.00     0.028 H 
ENDBRANCH  35  37
BRANCH  35  41
ATOM     41  CG2 VAL d   1      19.409   6.531  16.122  0.00  0.00    -0.071 C 
ATOM     42  H24 VAL d   1      20.192   6.146  15.451  0.00  0.00     0.028 H 
ATOM     43  H25 VAL d   1      19.731   6.412  17.167  0.00  0.00     0.028 H 
ATOM     44  H26 VAL d   1      19.236   7.597  15.911  0.00  0.00     0.028 H 
ENDBRANCH  35  41
ENDBRANCH  30  35
ENDBRANCH  28  30
ENDBRANCH   1  26
BRANCH   1  45
ATOM     45  CB  ASP d   1      15.092   0.578  15.932  0.00  0.00     0.043 C 
ATOM     46  H16 ASP d   1      15.796   0.223  16.699  0.00  0.00     0.052 H 
ATOM     47  H17 ASP d   1      15.236   0.001  15.006  0.00  0.00     0.052 H 
BRANCH  45  48
ATOM     48  CG  ASP d   1      13.705   0.361  16.420  0.00  0.00     0.175 C 
ATOM     49  OD1 ASP d   1      13.058   1.337  16.842  0.00  0.00    -0.648 OA
ATOM     50  OD2 ASP d   1      13.279  -0.804  16.402  0.00  0.00    -0.648 OA
ENDBRANCH  45  48
ENDBRANCH   1  45
TORSDOF 15
