REMARK  13 active torsions:
REMARK  status: ('A' for Active; 'I' for Inactive)
REMARK    1  A    between atoms: C09_17  and  C10_1 
REMARK    2  A    between atoms: C10_1  and  C11_18 
REMARK    3  A    between atoms: C20_4  and  C19_24 
REMARK    4  A    between atoms: C25_27  and  C26_7 
REMARK    5  A    between atoms: C26_7  and  C27_28 
REMARK    6  A    between atoms: C01_9  and  C02_10 
REMARK    7  A    between atoms: C19_24  and  C01_9 
REMARK    8  A    between atoms: C02_10  and  C03_11 
REMARK    9  A    between atoms: C03_11  and  C04_12 
REMARK   10  A    between atoms: C07_15  and  N08_16 
REMARK       I    between atoms: N08_16  and  C09_17 
REMARK   11  A    between atoms: N24_26  and  C23_25 
REMARK       I    between atoms: N24_26  and  C25_27 
REMARK   12  A    between atoms: C31_31  and  O33_33 
REMARK   13  A    between atoms: O33_33  and  C34_34 
ROOT
ATOM      1  C19 63J d   1      -1.921 -71.791  17.404  0.00  0.00    -0.023 C 
ATOM      2  H19 63J d   1      -1.824 -71.060  16.587  0.00  0.00     0.042 H 
ATOM      3  H20 63J d   1      -1.074 -72.492  17.371  0.00  0.00     0.042 H 
ENDROOT
BRANCH   1   4
ATOM      4  C20 63J d   1      -3.206 -72.580  17.192  0.00  0.00     0.057 A 
ATOM      5  C21 63J d   1      -3.478 -73.702  17.960  0.00  0.00    -0.054 A 
ATOM      6  C22 63J d   1      -4.652 -74.384  17.722  0.00  0.00    -0.035 A 
ATOM      7  H5  63J d   1      -2.787 -74.034  18.726  0.00  0.00     0.086 H 
ATOM      8  C23 63J d   1      -5.520 -73.944  16.727  0.00  0.00     0.152 A 
ATOM      9  H6  63J d   1      -4.899 -75.261  18.309  0.00  0.00     0.089 H 
ATOM     10  N39 63J d   1      -5.216 -72.845  16.020  0.00  0.00    -0.132 NA
ATOM     11  N40 63J d   1      -4.071 -72.174  16.246  0.00  0.00    -0.153 NA
BRANCH   8  12
ATOM     12  N24 63J d   1      -6.767 -74.602  16.445  0.00  0.00    -0.310 N 
ATOM     13  C25 63J d   1      -7.111 -75.925  16.877  0.00  0.00     0.227 C 
ATOM     14  O38 63J d   1      -6.338 -76.597  17.531  0.00  0.00    -0.273 OA
ATOM     15  H21 63J d   1      -7.444 -74.100  15.908  0.00  0.00     0.170 HD
BRANCH  13  16
ATOM     16  C26 63J d   1      -8.473 -76.513  16.537  0.00  0.00     0.033 C 
ATOM     17  H7  63J d   1      -8.355 -77.567  16.247  0.00  0.00     0.054 H 
ATOM     18  H8  63J d   1      -8.917 -75.950  15.703  0.00  0.00     0.054 H 
BRANCH  16  19
ATOM     19  C27 63J d   1      -9.384 -76.421  17.753  0.00  0.00    -0.047 A 
ATOM     20  C28 63J d   1     -10.674 -75.921  17.639  0.00  0.00    -0.076 A 
ATOM     21  C29 63J d   1     -11.498 -75.834  18.760  0.00  0.00    -0.080 A 
ATOM     22  H9  63J d   1     -11.043 -75.596  16.673  0.00  0.00     0.084 H 
ATOM     23  C30 63J d   1     -11.036 -76.239  20.005  0.00  0.00    -0.050 A 
ATOM     24  H22 63J d   1     -12.506 -75.448  18.659  0.00  0.00     0.083 H 
ATOM     25  C31 63J d   1      -9.745 -76.740  20.125  0.00  0.00     0.078 A 
ATOM     26  H23 63J d   1     -11.677 -76.165  20.876  0.00  0.00     0.087 H 
ATOM     27  C32 63J d   1      -8.931 -76.827  18.999  0.00  0.00    -0.044 A 
ATOM     28  H24 63J d   1      -7.925 -77.219  19.098  0.00  0.00     0.088 H 
BRANCH  25  29
ATOM     29  O33 63J d   1      -9.259 -77.147  21.382  0.00  0.00    -0.255 OA
BRANCH  29  30
ATOM     30  C34 63J d   1      -8.474 -76.158  22.008  0.00  0.00     0.530 C 
ATOM     31  F35 63J d   1      -9.192 -75.027  22.129  0.00  0.00    -0.144 F 
ATOM     32  F36 63J d   1      -7.366 -75.918  21.281  0.00  0.00    -0.144 F 
ATOM     33  F37 63J d   1      -8.125 -76.591  23.226  0.00  0.00    -0.144 F 
ENDBRANCH  29  30
ENDBRANCH  25  29
ENDBRANCH  16  19
ENDBRANCH  13  16
ENDBRANCH   8  12
ENDBRANCH   1   4
BRANCH   1  34
ATOM     34  C01 63J d   1      -1.871 -71.042  18.725  0.00  0.00    -0.060 C 
ATOM     35  H10 63J d   1      -2.053 -71.752  19.545  0.00  0.00     0.033 H 
ATOM     36  H11 63J d   1      -0.874 -70.593  18.843  0.00  0.00     0.033 H 
BRANCH  34  37
ATOM     37  C02 63J d   1      -2.909 -69.951  18.782  0.00  0.00    -0.059 C 
ATOM     38  H12 63J d   1      -3.800 -70.335  19.300  0.00  0.00     0.033 H 
ATOM     39  H13 63J d   1      -3.178 -69.662  17.755  0.00  0.00     0.033 H 
BRANCH  37  40
ATOM     40  C03 63J d   1      -2.402 -68.725  19.521  0.00  0.00    -0.017 C 
ATOM     41  H14 63J d   1      -3.002 -67.857  19.212  0.00  0.00     0.043 H 
ATOM     42  H15 63J d   1      -1.350 -68.560  19.246  0.00  0.00     0.043 H 
BRANCH  40  43
ATOM     43  C04 63J d   1      -2.491 -68.861  21.034  0.00  0.00     0.101 A 
ATOM     44  N05 63J d   1      -1.506 -69.341  21.805  0.00  0.00    -0.145 NA
ATOM     45  N06 63J d   1      -1.756 -69.381  23.125  0.00  0.00    -0.123 NA
ATOM     46  C07 63J d   1      -2.959 -68.939  23.537  0.00  0.00     0.196 A 
ATOM     47  S18 63J d   1      -3.795 -68.445  22.102  0.00  0.00    -0.033 SA
BRANCH  46  48
ATOM     48  N08 63J d   1      -3.369 -68.908  24.904  0.00  0.00    -0.304 N 
ATOM     49  C09 63J d   1      -4.551 -68.269  25.385  0.00  0.00     0.229 C 
ATOM     50  O17 63J d   1      -5.304 -67.703  24.619  0.00  0.00    -0.273 OA
ATOM     51  H16 63J d   1      -2.785 -69.368  25.573  0.00  0.00     0.171 HD
BRANCH  49  52
ATOM     52  C10 63J d   1      -4.860 -68.291  26.877  0.00  0.00     0.049 C 
ATOM     53  H1  63J d   1      -4.891 -67.256  27.249  0.00  0.00     0.056 H 
ATOM     54  H2  63J d   1      -4.064 -68.844  27.397  0.00  0.00     0.056 H 
BRANCH  52  55
ATOM     55  C11 63J d   1      -6.189 -68.956  27.171  0.00  0.00     0.043 A 
ATOM     56  C12 63J d   1      -7.246 -68.229  27.704  0.00  0.00    -0.059 A 
ATOM     57  C13 63J d   1      -8.463 -68.844  27.970  0.00  0.00    -0.080 A 
ATOM     58  H17 63J d   1      -7.120 -67.173  27.914  0.00  0.00     0.086 H 
ATOM     59  C14 63J d   1      -8.598 -70.202  27.695  0.00  0.00    -0.066 A 
ATOM     60  H3  63J d   1      -9.290 -68.278  28.383  0.00  0.00     0.083 H 
ATOM     61  C15 63J d   1      -7.522 -70.900  27.166  0.00  0.00     0.002 A 
ATOM     62  H18 63J d   1      -9.535 -70.710  27.892  0.00  0.00     0.085 H 
ATOM     63  N16 63J d   1      -6.358 -70.265  26.925  0.00  0.00    -0.265 NA
ATOM     64  H4  63J d   1      -7.618 -71.957  26.946  0.00  0.00     0.114 H 
ENDBRANCH  52  55
ENDBRANCH  49  52
ENDBRANCH  46  48
ENDBRANCH  40  43
ENDBRANCH  37  40
ENDBRANCH  34  37
ENDBRANCH   1  34
TORSDOF 13
