REMARK  8 active torsions:
REMARK  status: ('A' for Active; 'I' for Inactive)
REMARK    1  A    between atoms: C07_7  and  C05_5 
REMARK    2  A    between atoms: C08_8  and  C07_7 
REMARK       I    between atoms: N01_27  and  C08_8 
REMARK    3  A    between atoms: C09_9  and  N01_27 
REMARK    4  A    between atoms: C11_11  and  C10_10 
REMARK    5  A    between atoms: C17_17  and  C15_15 
REMARK    6  A    between atoms: N06_32  and  C18_18 
REMARK    7  A    between atoms: C19_19  and  C20_20 
REMARK       I    between atoms: C19_19  and  N06_32 
REMARK    8  A    between atoms: C20_20  and  C21_21 
ROOT
ATOM      1  C11 ZBS d   1       7.097  -9.172  78.692  0.00  0.00    -0.003 C 
ATOM      2  C12 ZBS d   1       8.348  -9.609  77.945  0.00  0.00    -0.056 C 
ATOM      3  C13 ZBS d   1       9.031  -8.490  77.179  0.00  0.00    -0.064 C 
ATOM      4  C14 ZBS d   1       9.316  -7.285  78.039  0.00  0.00    -0.056 C 
ATOM      5  C15 ZBS d   1       8.021  -6.793  78.638  0.00  0.00    -0.003 C 
ATOM      6  C16 ZBS d   1       7.291  -7.862  79.441  0.00  0.00    -0.047 C 
ATOM      7  H8  ZBS d   1       6.850  -9.952  79.427  0.00  0.00     0.050 H 
ATOM      8  H9  ZBS d   1       8.067 -10.396  77.230  0.00  0.00     0.034 H 
ATOM      9  H10 ZBS d   1       9.063 -10.015  78.675  0.00  0.00     0.034 H 
ATOM     10  H11 ZBS d   1       8.379  -8.183  76.348  0.00  0.00     0.033 H 
ATOM     11  H12 ZBS d   1       9.982  -8.868  76.777  0.00  0.00     0.033 H 
ATOM     12  H13 ZBS d   1       9.764  -6.490  77.424  0.00  0.00     0.034 H 
ATOM     13  H14 ZBS d   1      10.013  -7.562  78.844  0.00  0.00     0.034 H 
ATOM     14  H15 ZBS d   1       7.361  -6.469  77.820  0.00  0.00     0.050 H 
ATOM     15  H16 ZBS d   1       7.872  -8.067  80.353  0.00  0.00     0.035 H 
ATOM     16  H17 ZBS d   1       6.301  -7.471  79.717  0.00  0.00     0.035 H 
ENDROOT
BRANCH   1  17
ATOM     17  C10 ZBS d   1       5.930  -9.035  77.717  0.00  0.00     0.105 A 
ATOM     18  N02 ZBS d   1       5.995  -8.761  76.400  0.00  0.00    -0.144 NA
ATOM     19  N03 ZBS d   1       4.816  -8.687  75.744  0.00  0.00    -0.123 NA
ATOM     20  C09 ZBS d   1       3.709  -8.910  76.476  0.00  0.00     0.196 A 
ATOM     21  S01 ZBS d   1       4.265  -9.207  78.075  0.00  0.00    -0.033 SA
BRANCH  20  22
ATOM     22  N01 ZBS d   1       2.372  -8.850  75.975  0.00  0.00    -0.304 N 
ATOM     23  C08 ZBS d   1       1.210  -9.146  76.743  0.00  0.00     0.227 C 
ATOM     24  O01 ZBS d   1       1.301  -9.508  77.900  0.00  0.00    -0.273 OA
ATOM     25  H25 ZBS d   1       2.244  -8.582  75.020  0.00  0.00     0.171 HD
BRANCH  23  26
ATOM     26  C07 ZBS d   1      -0.160  -9.012  76.098  0.00  0.00     0.033 C 
ATOM     27  H6  ZBS d   1      -0.101  -9.363  75.057  0.00  0.00     0.054 H 
ATOM     28  H7  ZBS d   1      -0.879  -9.631  76.654  0.00  0.00     0.054 H 
BRANCH  26  29
ATOM     29  C05 ZBS d   1      -0.639  -7.568  76.107  0.00  0.00    -0.050 A 
ATOM     30  C04 ZBS d   1      -1.836  -7.215  75.500  0.00  0.00    -0.076 A 
ATOM     31  C03 ZBS d   1      -2.257  -5.890  75.519  0.00  0.00    -0.082 A 
ATOM     32  H4  ZBS d   1      -2.441  -7.971  75.012  0.00  0.00     0.084 H 
ATOM     33  C02 ZBS d   1      -1.487  -4.913  76.142  0.00  0.00    -0.083 A 
ATOM     34  H3  ZBS d   1      -3.192  -5.616  75.045  0.00  0.00     0.083 H 
ATOM     35  C01 ZBS d   1      -0.292  -5.260  76.750  0.00  0.00    -0.082 A 
ATOM     36  H2  ZBS d   1      -1.822  -3.882  76.151  0.00  0.00     0.083 H 
ATOM     37  C06 ZBS d   1       0.129  -6.586  76.730  0.00  0.00    -0.076 A 
ATOM     38  H1  ZBS d   1       0.311  -4.503  77.238  0.00  0.00     0.083 H 
ATOM     39  H5  ZBS d   1       1.065  -6.858  77.204  0.00  0.00     0.084 H 
ENDBRANCH  26  29
ENDBRANCH  23  26
ENDBRANCH  20  22
ENDBRANCH   1  17
BRANCH   5  40
ATOM     40  C17 ZBS d   1       8.330  -5.599  79.532  0.00  0.00     0.105 A 
ATOM     41  N05 ZBS d   1       8.928  -5.567  80.738  0.00  0.00    -0.144 NA
ATOM     42  N04 ZBS d   1       9.075  -4.354  81.329  0.00  0.00    -0.123 NA
ATOM     43  C18 ZBS d   1       8.614  -3.293  80.638  0.00  0.00     0.196 A 
ATOM     44  S02 ZBS d   1       7.980  -3.967  79.196  0.00  0.00    -0.033 SA
BRANCH  43  45
ATOM     45  N06 ZBS d   1       8.614  -1.919  81.003  0.00  0.00    -0.304 N 
ATOM     46  C19 ZBS d   1       8.957  -0.896  80.075  0.00  0.00     0.227 C 
ATOM     47  O02 ZBS d   1       9.281  -1.186  78.937  0.00  0.00    -0.273 OA
ATOM     48  H26 ZBS d   1       8.366  -1.664  81.938  0.00  0.00     0.171 HD
BRANCH  46  49
ATOM     49  C20 ZBS d   1       8.910   0.558  80.522  0.00  0.00     0.033 C 
ATOM     50  H18 ZBS d   1       9.323   1.202  79.731  0.00  0.00     0.054 H 
ATOM     51  H19 ZBS d   1       9.501   0.682  81.442  0.00  0.00     0.054 H 
BRANCH  49  52
ATOM     52  C21 ZBS d   1       7.466   0.939  80.788  0.00  0.00    -0.050 A 
ATOM     53  C22 ZBS d   1       6.543   0.905  79.744  0.00  0.00    -0.076 A 
ATOM     54  C23 ZBS d   1       5.213   1.235  79.966  0.00  0.00    -0.082 A 
ATOM     55  H20 ZBS d   1       6.867   0.618  78.750  0.00  0.00     0.084 H 
ATOM     56  C24 ZBS d   1       4.808   1.598  81.241  0.00  0.00    -0.083 A 
ATOM     57  H21 ZBS d   1       4.499   1.209  79.151  0.00  0.00     0.083 H 
ATOM     58  C25 ZBS d   1       5.724   1.628  82.287  0.00  0.00    -0.082 A 
ATOM     59  H22 ZBS d   1       3.772   1.860  81.424  0.00  0.00     0.083 H 
ATOM     60  C26 ZBS d   1       7.053   1.296  82.064  0.00  0.00    -0.076 A 
ATOM     61  H23 ZBS d   1       5.398   1.912  83.281  0.00  0.00     0.083 H 
ATOM     62  H24 ZBS d   1       7.764   1.315  82.882  0.00  0.00     0.084 H 
ENDBRANCH  49  52
ENDBRANCH  46  49
ENDBRANCH  43  45
ENDBRANCH   5  40
TORSDOF 8
