REMARK  15 active torsions:
REMARK  status: ('A' for Active; 'I' for Inactive)
REMARK    1  A    between atoms: C03_8  and  N12_1 
REMARK       I    between atoms: N12_1  and  C14_18 
REMARK    2  A    between atoms: O18_21  and  C17_2 
REMARK    3  A    between atoms: C20_3  and  C19_22 
REMARK    4  A    between atoms: N22_23  and  C20_3 
REMARK    5  A    between atoms: O11_16  and  C21_4 
REMARK       I    between atoms: C21_4  and  N22_23 
REMARK    6  A    between atoms: C27_27  and  C28_5 
REMARK    7  A    between atoms: C01_6  and  C07_12 
REMARK    8  A    between atoms: N25_25  and  C02_7 
REMARK    9  A    between atoms: C05_10  and  C29_28 
REMARK   10  A    between atoms: C07_12  and  C08_13 
REMARK   11  A    between atoms: C07_12  and  O11_16 
REMARK   12  A    between atoms: C08_13  and  C09_14 
REMARK   13  A    between atoms: C08_13  and  O13_17 
REMARK   14  A    between atoms: C09_14  and  O10_15 
REMARK       I    between atoms: C14_18  and  N15_19 
REMARK   15  A    between atoms: C19_22  and  O18_21 
REMARK       I    between atoms: N25_25  and  C27_27 
ROOT
ATOM      1  C01 6PY d   1     378.031 153.672  62.430  0.00  0.00     0.095 C 
ATOM      2  C02 6PY d   1     376.560 154.113  62.413  0.00  0.00     0.063 C 
ATOM      3  C03 6PY d   1     376.483 155.639  62.334  0.00  0.00     0.068 C 
ATOM      4  C04 6PY d   1     377.484 156.312  63.303  0.00  0.00    -0.040 C 
ATOM      5  C05 6PY d   1     378.556 155.620  63.756  0.00  0.00     0.144 C 
ATOM      6  O06 6PY d   1     378.681 154.293  63.472  0.00  0.00    -0.335 OA
ATOM      7  H10 6PY d   1     378.496 153.969  61.478  0.00  0.00     0.091 H 
ATOM      8  H11 6PY d   1     376.112 153.818  63.373  0.00  0.00     0.080 H 
ATOM      9  H12 6PY d   1     376.721 155.963  61.310  0.00  0.00     0.083 H 
ATOM     10  H13 6PY d   1     377.326 157.342  63.620  0.00  0.00     0.084 H 
ENDROOT
BRANCH   1  11
ATOM     11  C07 6PY d   1     378.192 152.183  62.605  0.00  0.00     0.103 C 
ATOM     12  H14 6PY d   1     377.618 151.662  61.825  0.00  0.00     0.092 H 
BRANCH  11  13
ATOM     13  C08 6PY d   1     379.646 151.751  62.535  0.00  0.00     0.084 C 
ATOM     14  H15 6PY d   1     380.204 152.272  63.327  0.00  0.00     0.090 H 
BRANCH  13  15
ATOM     15  C09 6PY d   1     379.793 150.276  62.760  0.00  0.00     0.043 C 
ATOM     16  H16 6PY d   1     379.330 150.030  63.727  0.00  0.00     0.078 H 
ATOM     17  H17 6PY d   1     380.867 150.041  62.797  0.00  0.00     0.078 H 
BRANCH  15  18
ATOM     18  O10 6PY d   1     379.204 149.468  61.777  0.00  0.00    -0.398 OA
ATOM     19  H18 6PY d   1     379.600 149.657  60.934  0.00  0.00     0.209 HD
ENDBRANCH  15  18
ENDBRANCH  13  15
BRANCH  13  20
ATOM     20  O13 6PY d   1     380.151 152.126  61.332  0.00  0.00    -0.391 OA
ATOM     21  H19 6PY d   1     379.689 151.669  60.639  0.00  0.00     0.210 HD
ENDBRANCH  13  20
ENDBRANCH  11  13
BRANCH  11  22
ATOM     22  O11 6PY d   1     377.725 151.844  63.838  0.00  0.00    -0.293 OA
BRANCH  22  23
ATOM     23  C21 6PY d   1     376.774 150.828  63.918  0.00  0.00     0.361 C 
ATOM     24  N22 6PY d   1     376.587 150.262  65.214  0.00  0.00    -0.335 N 
ATOM     25  H26 6PY d   1     377.116 150.619  65.984  0.00  0.00     0.164 HD
ATOM     26  O23 6PY d   1     376.158 150.453  62.991  0.00  0.00    -0.239 OA
BRANCH  24  27
ATOM     27  C20 6PY d   1     375.656 149.192  65.438  0.00  0.00     0.017 C 
ATOM     28  H5  6PY d   1     375.142 149.354  66.397  0.00  0.00     0.067 H 
ATOM     29  H6  6PY d   1     374.917 149.179  64.624  0.00  0.00     0.067 H 
BRANCH  27  30
ATOM     30  C19 6PY d   1     376.369 147.874  65.477  0.00  0.00     0.034 C 
ATOM     31  H24 6PY d   1     376.614 147.544  64.457  0.00  0.00     0.076 H 
ATOM     32  H25 6PY d   1     375.740 147.116  65.967  0.00  0.00     0.076 H 
BRANCH  30  33
ATOM     33  O18 6PY d   1     377.540 148.080  66.213  0.00  0.00    -0.394 OA
BRANCH  33  34
ATOM     34  C17 6PY d   1     377.935 147.036  67.056  0.00  0.00     0.004 C 
ATOM     35  H2  6PY d   1     378.863 147.316  67.577  0.00  0.00     0.066 H 
ATOM     36  H3  6PY d   1     378.109 146.129  66.459  0.00  0.00     0.066 H 
ATOM     37  H4  6PY d   1     377.144 146.842  67.795  0.00  0.00     0.066 H 
ENDBRANCH  33  34
ENDBRANCH  30  33
ENDBRANCH  27  30
ENDBRANCH  24  27
ENDBRANCH  22  23
ENDBRANCH  11  22
ENDBRANCH   1  11
BRANCH   2  38
ATOM     38  N25 6PY d   1     375.836 153.437  61.402  0.00  0.00    -0.352 N 
ATOM     39  C27 6PY d   1     374.578 152.828  61.641  0.00  0.00     0.214 C 
ATOM     40  O26 6PY d   1     374.054 152.846  62.690  0.00  0.00    -0.274 OA
ATOM     41  H27 6PY d   1     376.227 153.387  60.483  0.00  0.00     0.163 HD
BRANCH  39  42
ATOM     42  C28 6PY d   1     373.871 152.139  60.494  0.00  0.00    -0.003 C 
ATOM     43  H7  6PY d   1     372.916 151.724  60.848  0.00  0.00     0.040 H 
ATOM     44  H8  6PY d   1     374.504 151.326  60.108  0.00  0.00     0.040 H 
ATOM     45  H9  6PY d   1     373.679 152.867  59.691  0.00  0.00     0.040 H 
ENDBRANCH  39  42
ENDBRANCH   2  38
BRANCH   3  46
ATOM     46  N12 6PY d   1     375.152 155.990  62.637  0.00  0.00    -0.217 N 
ATOM     47  C14 6PY d   1     374.172 156.116  61.602  0.00  0.00     0.665 C 
ATOM     48  N15 6PY d   1     372.881 156.401  62.015  0.00  0.00    -0.235 N 
ATOM     49  N16 6PY d   1     374.462 155.948  60.351  0.00  0.00    -0.235 N 
ATOM     50  H20 6PY d   1     372.129 156.504  61.319  0.00  0.00     0.174 HD
ATOM     51  H21 6PY d   1     372.673 156.510  63.018  0.00  0.00     0.174 HD
ATOM     52  H22 6PY d   1     375.430 155.737  60.071  0.00  0.00     0.174 HD
ATOM     53  H23 6PY d   1     373.724 156.025  59.636  0.00  0.00     0.174 HD
ATOM     54  H1  6PY d   1     374.881 156.158  63.616  0.00  0.00     0.178 HD
ENDBRANCH   3  46
BRANCH   5  55
ATOM     55  C29 6PY d   1     379.640 156.293  64.565  0.00  0.00     0.233 C 
ATOM     56  O30 6PY d   1     380.633 155.651  64.886  0.00  0.00    -0.642 OA
ATOM     57  O31 6PY d   1     379.573 157.468  64.841  0.00  0.00    -0.642 OA
ENDBRANCH   5  55
TORSDOF 15
