REMARK  2 active torsions:
REMARK  status: ('A' for Active; 'I' for Inactive)
REMARK    1  A    between atoms: S09_10  and  N12_1 
REMARK    2  A    between atoms: C05_6  and  S09_10 
ROOT
ATOM      1  C01 6OT d   1       4.568   1.657  14.336  0.00  0.00     0.037 A 
ATOM      2  C02 6OT d   1       5.716   1.202  13.703  0.00  0.00    -0.041 A 
ATOM      3  C03 6OT d   1       5.868  -0.147  13.416  0.00  0.00     0.037 A 
ATOM      4  C04 6OT d   1       4.867  -1.038  13.763  0.00  0.00    -0.039 A 
ATOM      5  C05 6OT d   1       3.726  -0.578  14.398  0.00  0.00     0.082 A 
ATOM      6  C06 6OT d   1       3.566   0.766  14.687  0.00  0.00    -0.039 A 
ATOM      7 CL7  6OT d   1       4.397   3.341  14.682  0.00  0.00    -0.084 Cl
ATOM      8 CL8  6OT d   1       7.296  -0.711  12.626  0.00  0.00    -0.084 Cl
ATOM      9  H3  6OT d   1       6.497   1.903  13.432  0.00  0.00     0.088 H 
ATOM     10  H4  6OT d   1       4.976  -2.093  13.538  0.00  0.00     0.088 H 
ATOM     11  H5  6OT d   1       2.668   1.118  15.182  0.00  0.00     0.088 H 
ENDROOT
BRANCH   5  12
ATOM     12  S09 6OT d   1       2.466  -1.721  14.829  0.00  0.00     0.256 S 
ATOM     13  O10 6OT d   1       1.193  -1.053  14.966  0.00  0.00    -0.201 OA
ATOM     14  O11 6OT d   1       2.222  -2.612  13.721  0.00  0.00    -0.201 OA
BRANCH  12  15
ATOM     15  N12 6OT d   1       2.878  -2.519  16.188  0.00  0.00    -0.324 N 
ATOM     16  H1  6OT d   1       2.263  -3.210  16.568  0.00  0.00     0.169 HD
ATOM     17  H2  6OT d   1       3.746  -2.318  16.642  0.00  0.00     0.169 HD
ENDBRANCH  12  15
ENDBRANCH   5  12
TORSDOF 2
