REMARK  13 active torsions:
REMARK  status: ('A' for Active; 'I' for Inactive)
REMARK    1  A    between atoms: C2_2  and  N29_29 
REMARK    2  A    between atoms: C4_4  and  N7_7 
REMARK    3  A    between atoms: N7_7  and  C8_8 
REMARK    4  A    between atoms: C11_11  and  N16_16 
REMARK    5  A    between atoms: C13_13  and  O14_14 
REMARK    6  A    between atoms: O14_14  and  C15_15 
REMARK    7  A    between atoms: C19_19  and  N22_22 
REMARK    8  A    between atoms: N25_25  and  C28_28 
REMARK    9  A    between atoms: N29_29  and  C30_30 
REMARK   10  A    between atoms: C31_31  and  S36_36 
REMARK   11  A    between atoms: S36_36  and  C37_37 
REMARK   12  A    between atoms: C37_37  and  C38_38 
REMARK   13  A    between atoms: C37_37  and  C39_39 
ROOT
ATOM      1  C8  GUI d   1      30.011 133.234 -30.754  0.00  0.00     0.082 A 
ATOM      2  C9  GUI d   1      29.733 132.032 -30.114  0.00  0.00    -0.052 A 
ATOM      3  C10 GUI d   1      30.678 131.014 -30.068  0.00  0.00    -0.060 A 
ATOM      4  C11 GUI d   1      31.940 131.144 -30.643  0.00  0.00     0.013 A 
ATOM      5  C12 GUI d   1      32.280 132.339 -31.271  0.00  0.00    -0.028 A 
ATOM      6  C13 GUI d   1      31.360 133.384 -31.351  0.00  0.00     0.097 A 
ATOM      7  H3  GUI d   1      28.767 131.887 -29.645  0.00  0.00     0.087 H 
ATOM      8  H4  GUI d   1      30.424 130.087 -29.567  0.00  0.00     0.086 H 
ATOM      9  H5  GUI d   1      33.268 132.458 -31.701  0.00  0.00     0.090 H 
ENDROOT
BRANCH   1  10
ATOM     10  N7  GUI d   1      29.132 134.278 -30.830  0.00  0.00    -0.185 N 
ATOM     11  H2  GUI d   1      29.525 135.228 -30.766  0.00  0.00     0.184 HD
BRANCH  10  12
ATOM     12  C4  GUI d   1      27.782 134.173 -30.983  0.00  0.00     0.728 A 
ATOM     13  N3  GUI d   1      27.189 132.962 -31.061  0.00  0.00    -0.043 NA
ATOM     14  C2  GUI d   1      25.865 132.815 -31.216  0.00  0.00     0.170 A 
ATOM     15  C1  GUI d   1      25.055 134.046 -31.303  0.00  0.00     0.098 A 
ATOM     16  C6  GUI d   1      25.706 135.267 -31.229  0.00  0.00     0.046 A 
ATOM     17 CL   GUI d   1      23.277 133.930 -31.522  0.00  0.00    -0.079 Cl
ATOM     18  N5  GUI d   1      27.036 135.302 -31.073  0.00  0.00    -0.073 NA
ATOM     19  H1  GUI d   1      25.141 136.190 -31.297  0.00  0.00     0.118 H 
BRANCH  14  20
ATOM     20  N29 GUI d   1      25.256 131.603 -31.282  0.00  0.00    -0.338 N 
ATOM     21  H31 GUI d   1      24.235 131.611 -31.417  0.00  0.00     0.167 HD
BRANCH  20  22
ATOM     22  C30 GUI d   1      25.845 130.374 -31.190  0.00  0.00     0.055 A 
ATOM     23  C31 GUI d   1      25.105 129.241 -30.555  0.00  0.00     0.086 A 
ATOM     24  C32 GUI d   1      25.726 127.997 -30.488  0.00  0.00    -0.060 A 
ATOM     25  C33 GUI d   1      27.015 127.801 -30.977  0.00  0.00    -0.081 A 
ATOM     26  H32 GUI d   1      25.194 127.162 -30.045  0.00  0.00     0.085 H 
ATOM     27  C34 GUI d   1      27.713 128.850 -31.560  0.00  0.00    -0.081 A 
ATOM     28  H33 GUI d   1      27.477 126.823 -30.902  0.00  0.00     0.083 H 
ATOM     29  C35 GUI d   1      27.135 130.116 -31.666  0.00  0.00    -0.056 A 
ATOM     30  H34 GUI d   1      28.716 128.684 -31.936  0.00  0.00     0.083 H 
ATOM     31  H35 GUI d   1      27.699 130.918 -32.128  0.00  0.00     0.087 H 
BRANCH  23  32
ATOM     32  S36 GUI d   1      23.621 129.406 -29.979  0.00  0.00     0.181 S 
ATOM     33  O40 GUI d   1      22.894 128.192 -30.254  0.00  0.00    -0.222 OA
ATOM     34  O41 GUI d   1      22.958 130.506 -30.624  0.00  0.00    -0.222 OA
BRANCH  32  35
ATOM     35  C37 GUI d   1      23.597 129.717 -28.326  0.00  0.00     0.042 C 
ATOM     36  H36 GUI d   1      22.546 129.868 -28.038  0.00  0.00     0.063 H 
BRANCH  35  37
ATOM     37  C38 GUI d   1      24.358 130.988 -27.958  0.00  0.00    -0.060 C 
ATOM     38  H37 GUI d   1      24.310 131.142 -26.870  0.00  0.00     0.029 H 
ATOM     39  H38 GUI d   1      23.904 131.849 -28.471  0.00  0.00     0.029 H 
ATOM     40  H39 GUI d   1      25.409 130.889 -28.268  0.00  0.00     0.029 H 
ENDBRANCH  35  37
BRANCH  35  41
ATOM     41  C39 GUI d   1      24.129 128.527 -27.528  0.00  0.00    -0.060 C 
ATOM     42  H40 GUI d   1      24.100 128.763 -26.454  0.00  0.00     0.029 H 
ATOM     43  H41 GUI d   1      25.166 128.318 -27.829  0.00  0.00     0.029 H 
ATOM     44  H42 GUI d   1      23.504 127.644 -27.726  0.00  0.00     0.029 H 
ENDBRANCH  35  41
ENDBRANCH  32  35
ENDBRANCH  23  32
ENDBRANCH  20  22
ENDBRANCH  14  20
ENDBRANCH  10  12
ENDBRANCH   1  10
BRANCH   6  45
ATOM     45  O14 GUI d   1      31.680 134.562 -31.974  0.00  0.00    -0.354 OA
BRANCH  45  46
ATOM     46  C15 GUI d   1      32.258 134.533 -33.277  0.00  0.00     0.010 C 
ATOM     47  H6  GUI d   1      32.447 135.562 -33.617  0.00  0.00     0.066 H 
ATOM     48  H7  GUI d   1      31.566 134.037 -33.974  0.00  0.00     0.066 H 
ATOM     49  H8  GUI d   1      33.207 133.977 -33.245  0.00  0.00     0.066 H 
ENDBRANCH  45  46
ENDBRANCH   6  45
BRANCH   4  50
ATOM     50  N16 GUI d   1      32.860 130.071 -30.528  0.00  0.00    -0.283 NA
ATOM     51  C17 GUI d   1      32.243 128.778 -30.878  0.00  0.00    -0.015 C 
ATOM     52  C18 GUI d   1      33.176 127.646 -30.461  0.00  0.00    -0.027 C 
ATOM     53  H9  GUI d   1      32.074 128.733 -31.964  0.00  0.00     0.056 H 
ATOM     54  H10 GUI d   1      31.282 128.675 -30.352  0.00  0.00     0.056 H 
ATOM     55  C19 GUI d   1      34.562 127.791 -31.086  0.00  0.00     0.106 C 
ATOM     56  H11 GUI d   1      32.739 126.689 -30.782  0.00  0.00     0.037 H 
ATOM     57  H12 GUI d   1      33.277 127.654 -29.366  0.00  0.00     0.037 H 
ATOM     58  C20 GUI d   1      35.086 129.220 -30.937  0.00  0.00    -0.027 C 
ATOM     59  H13 GUI d   1      34.503 127.528 -32.152  0.00  0.00     0.084 H 
ATOM     60  C21 GUI d   1      34.059 130.266 -31.355  0.00  0.00    -0.015 C 
ATOM     61  H14 GUI d   1      35.982 129.334 -31.565  0.00  0.00     0.037 H 
ATOM     62  H15 GUI d   1      35.353 129.389 -29.884  0.00  0.00     0.037 H 
ATOM     63  H16 GUI d   1      34.465 131.275 -31.193  0.00  0.00     0.056 H 
ATOM     64  H17 GUI d   1      33.806 130.138 -32.418  0.00  0.00     0.056 H 
BRANCH  55  65
ATOM     65  N22 GUI d   1      35.526 126.909 -30.408  0.00  0.00    -0.064 N 
ATOM     66  C23 GUI d   1      36.787 126.880 -31.168  0.00  0.00     0.106 C 
ATOM     67  C24 GUI d   1      37.824 126.144 -30.325  0.00  0.00     0.105 C 
ATOM     68  H19 GUI d   1      37.127 127.907 -31.367  0.00  0.00     0.078 H 
ATOM     69  H20 GUI d   1      36.637 126.352 -32.121  0.00  0.00     0.078 H 
ATOM     70  N25 GUI d   1      37.365 124.778 -30.008  0.00  0.00    -0.072 N 
ATOM     71  H21 GUI d   1      37.986 126.697 -29.388  0.00  0.00     0.078 H 
ATOM     72  H22 GUI d   1      38.769 126.086 -30.885  0.00  0.00     0.078 H 
ATOM     73  C26 GUI d   1      36.030 124.784 -29.376  0.00  0.00     0.105 C 
ATOM     74  H23 GUI d   1      37.319 124.242 -30.861  0.00  0.00     0.279 HD
ATOM     75  C27 GUI d   1      35.025 125.531 -30.254  0.00  0.00     0.106 C 
ATOM     76  H24 GUI d   1      36.095 125.281 -28.397  0.00  0.00     0.078 H 
ATOM     77  H25 GUI d   1      35.690 123.747 -29.239  0.00  0.00     0.078 H 
ATOM     78  H26 GUI d   1      34.949 125.045 -31.238  0.00  0.00     0.078 H 
ATOM     79  H27 GUI d   1      34.036 125.540 -29.772  0.00  0.00     0.078 H 
ATOM     80  H18 GUI d   1      35.706 127.285 -29.490  0.00  0.00     0.280 HD
BRANCH  70  81
ATOM     81  C28 GUI d   1      38.331 124.156 -29.091  0.00  0.00     0.066 C 
ATOM     82  H28 GUI d   1      39.327 124.149 -29.557  0.00  0.00     0.068 H 
ATOM     83  H29 GUI d   1      38.020 123.123 -28.876  0.00  0.00     0.068 H 
ATOM     84  H30 GUI d   1      38.369 124.730 -28.154  0.00  0.00     0.068 H 
ENDBRANCH  70  81
ENDBRANCH  55  65
ENDBRANCH   4  50
TORSDOF 13
