REMARK  9 active torsions:
REMARK  status: ('A' for Active; 'I' for Inactive)
REMARK       I    between atoms: N1_4  and  C8_6 
REMARK    1  A    between atoms: C8_6  and  C_18 
REMARK       I    between atoms: N2_7  and  C13_13 
REMARK    2  A    between atoms: C14_14  and  N2_7 
REMARK    3  A    between atoms: C13_13  and  C12_11 
REMARK    4  A    between atoms: C19_27  and  N3_12 
REMARK    5  A    between atoms: C15_15  and  C14_14 
REMARK    6  A    between atoms: C_18  and  C1_19 
REMARK    7  A    between atoms: C_18  and  N_22 
REMARK    8  A    between atoms: C1_19  and  C2_20 
REMARK    9  A    between atoms: C18_26  and  C19_27 
ROOT
ATOM      1  N1  MOL d   1       5.081 -13.058  92.470  0.00  0.00    -0.337 N 
ATOM      2  C8  MOL d   1       4.172 -13.459  93.373  0.00  0.00     0.251 C 
ATOM      3  C9  MOL d   1       6.199 -13.835  91.903  0.00  0.00    -0.001 C 
ATOM      4  C10 MOL d   1       7.016 -12.807  91.172  0.00  0.00    -0.048 C 
ATOM      5  C11 MOL d   1       6.070 -11.667  90.828  0.00  0.00    -0.036 C 
ATOM      6  C12 MOL d   1       4.935 -11.729  91.856  0.00  0.00     0.091 C 
ATOM      7  O1  MOL d   1       3.243 -12.742  93.710  0.00  0.00    -0.271 OA
ATOM      8  H10 MOL d   1       5.829 -14.606  91.211  0.00  0.00     0.064 H 
ATOM      9  H11 MOL d   1       6.790 -14.310  92.700  0.00  0.00     0.064 H 
ATOM     10  H12 MOL d   1       7.438 -13.241  90.253  0.00  0.00     0.035 H 
ATOM     11  H13 MOL d   1       7.832 -12.443  91.814  0.00  0.00     0.035 H 
ATOM     12  H14 MOL d   1       5.671 -11.796  89.811  0.00  0.00     0.036 H 
ATOM     13  H15 MOL d   1       6.594 -10.702  90.897  0.00  0.00     0.036 H 
ATOM     14  H16 MOL d   1       5.020 -10.922  92.598  0.00  0.00     0.087 H 
ENDROOT
BRANCH   2  15
ATOM     15  C   MOL d   1       4.299 -14.865  94.004  0.00  0.00     0.176 C 
ATOM     16  H23 MOL d   1       5.006 -15.484  93.432  0.00  0.00     0.099 H 
BRANCH  15  17
ATOM     17  C1  MOL d   1       4.793 -14.722  95.448  0.00  0.00    -0.027 C 
ATOM     18  H24 MOL d   1       4.722 -15.706  95.935  0.00  0.00     0.037 H 
ATOM     19  H25 MOL d   1       4.137 -14.007  95.967  0.00  0.00     0.037 H 
BRANCH  17  20
ATOM     20  C2  MOL d   1       6.233 -14.229  95.575  0.00  0.00    -0.052 C 
ATOM     21  C7  MOL d   1       7.237 -15.294  95.137  0.00  0.00    -0.062 C 
ATOM     22  C6  MOL d   1       8.672 -14.797  95.269  0.00  0.00    -0.065 C 
ATOM     23  H7  MOL d   1       7.109 -16.187  95.767  0.00  0.00     0.033 H 
ATOM     24  H8  MOL d   1       7.045 -15.556  94.086  0.00  0.00     0.033 H 
ATOM     25  C5  MOL d   1       8.976 -14.336  96.689  0.00  0.00    -0.065 C 
ATOM     26  H5  MOL d   1       9.359 -15.614  95.004  0.00  0.00     0.033 H 
ATOM     27  H6  MOL d   1       8.823 -13.953  94.579  0.00  0.00     0.033 H 
ATOM     28  C4  MOL d   1       7.992 -13.273  97.133  0.00  0.00    -0.065 C 
ATOM     29  H3  MOL d   1       8.908 -15.197  97.370  0.00  0.00     0.033 H 
ATOM     30  H4  MOL d   1       9.994 -13.921  96.723  0.00  0.00     0.033 H 
ATOM     31  C3  MOL d   1       6.561 -13.772  96.997  0.00  0.00    -0.062 C 
ATOM     32  H1  MOL d   1       8.123 -12.377  96.508  0.00  0.00     0.033 H 
ATOM     33  H2  MOL d   1       8.187 -13.018  98.185  0.00  0.00     0.033 H 
ATOM     34  H27 MOL d   1       5.875 -12.957  97.273  0.00  0.00     0.033 H 
ATOM     35  H28 MOL d   1       6.417 -14.620  97.682  0.00  0.00     0.033 H 
ATOM     36  H26 MOL d   1       6.345 -13.362  94.907  0.00  0.00     0.040 H 
ENDBRANCH  17  20
ENDBRANCH  15  17
BRANCH  15  37
ATOM     37  N   MOL d   1       2.950 -15.460  93.957  0.00  0.00    -0.066 N 
ATOM     38  H29 MOL d   1       2.652 -15.542  92.998  0.00  0.00     0.275 HD
ATOM     39  H30 MOL d   1       2.305 -14.871  94.460  0.00  0.00     0.275 HD
ATOM     40  H31 MOL d   1       2.971 -16.374  94.381  0.00  0.00     0.275 HD
ENDBRANCH  15  37
ENDBRANCH   2  15
BRANCH   6  41
ATOM     41  C13 MOL d   1       3.582 -11.677  91.158  0.00  0.00     0.240 C 
ATOM     42  N2  MOL d   1       2.875 -10.564  91.319  0.00  0.00    -0.355 N 
ATOM     43  H9  MOL d   1       3.276  -9.796  91.819  0.00  0.00     0.162 HD
ATOM     44  O   MOL d   1       3.206 -12.607  90.434  0.00  0.00    -0.271 OA
BRANCH  42  45
ATOM     45  C14 MOL d   1       1.524 -10.441  90.780  0.00  0.00     0.019 C 
ATOM     46  H19 MOL d   1       1.340 -11.267  90.077  0.00  0.00     0.071 H 
ATOM     47  H20 MOL d   1       1.433  -9.481  90.251  0.00  0.00     0.071 H 
BRANCH  45  48
ATOM     48  C15 MOL d   1       0.500 -10.495  91.885  0.00  0.00    -0.040 A 
ATOM     49  C21 MOL d   1       0.102 -11.692  92.457  0.00  0.00    -0.074 A 
ATOM     50  C20 MOL d   1      -0.834 -11.722  93.471  0.00  0.00    -0.069 A 
ATOM     51  H32 MOL d   1       0.533 -12.621  92.102  0.00  0.00     0.084 H 
ATOM     52  C18 MOL d   1      -1.395 -10.542  93.955  0.00  0.00     0.007 A 
ATOM     53  H33 MOL d   1      -1.136 -12.673  93.895  0.00  0.00     0.085 H 
ATOM     54  C17 MOL d   1      -0.994  -9.351  93.386  0.00  0.00    -0.069 A 
ATOM     55  C16 MOL d   1      -0.063  -9.327  92.368  0.00  0.00    -0.074 A 
ATOM     56  H34 MOL d   1      -1.417  -8.419  93.744  0.00  0.00     0.085 H 
ATOM     57  H35 MOL d   1       0.233  -8.376  91.939  0.00  0.00     0.084 H 
BRANCH  52  58
ATOM     58  C19 MOL d   1      -2.429 -10.570  94.998  0.00  0.00     0.102 C 
ATOM     59  N4  MOL d   1      -3.091 -11.636  95.303  0.00  0.00    -0.385 N 
ATOM     60  H21 MOL d   1      -2.910 -12.516  94.799  0.00  0.00     0.157 HD
ATOM     61  H22 MOL d   1      -3.800 -11.606  96.050  0.00  0.00     0.157 HD
BRANCH  58  62
ATOM     62  N3  MOL d   1      -2.674  -9.435  95.660  0.00  0.00    -0.385 N 
ATOM     63  H17 MOL d   1      -2.152  -8.579  95.425  0.00  0.00     0.157 HD
ATOM     64  H18 MOL d   1      -3.385  -9.417  96.405  0.00  0.00     0.157 HD
ENDBRANCH  58  62
ENDBRANCH  52  58
ENDBRANCH  45  48
ENDBRANCH  42  45
ENDBRANCH   6  41
TORSDOF 9
