REMARK  12 active torsions:
REMARK  status: ('A' for Active; 'I' for Inactive)
REMARK    1  A    between atoms: C1_1  and  N6_39 
REMARK    2  A    between atoms: C2_2  and  O3_6 
REMARK    3  A    between atoms: C4_29  and  C3_3 
REMARK    4  A    between atoms: O3_6  and  C20_16 
REMARK    5  A    between atoms: C11_7  and  C12_8 
REMARK    6  A    between atoms: N3_36  and  C11_7 
REMARK       I    between atoms: C12_8  and  N4_37 
REMARK    7  A    between atoms: N4_37  and  C13_9 
REMARK    8  A    between atoms: C20_16  and  C21_17 
REMARK    9  A    between atoms: N6_39  and  C26_22 
REMARK   10  A    between atoms: C30_26  and  O4_40 
REMARK   11  A    between atoms: C10_35  and  C7_32 
REMARK       I    between atoms: C10_35  and  N3_36 
REMARK   12  A    between atoms: O4_40  and  C31_41 
ROOT
ATOM      1  C1  6PV d   1      -3.288  -8.980   1.276  0.00  0.00     0.729 A 
ATOM      2  C2  6PV d   1      -4.721  -9.912   2.789  0.00  0.00     0.196 A 
ATOM      3  C3  6PV d   1      -5.405  -8.673   2.917  0.00  0.00     0.046 A 
ATOM      4  C19 6PV d   1      -4.868  -7.629   2.126  0.00  0.00     0.036 A 
ATOM      5  N1  6PV d   1      -3.814  -7.780   1.309  0.00  0.00    -0.074 NA
ATOM      6  N2  6PV d   1      -3.677 -10.044   1.969  0.00  0.00    -0.037 NA
ATOM      7  H8  6PV d   1      -5.335  -6.652   2.183  0.00  0.00     0.117 H 
ENDROOT
BRANCH   3   8
ATOM      8  C4  6PV d   1      -6.392  -8.417   3.978  0.00  0.00    -0.020 A 
ATOM      9  C5  6PV d   1      -7.192  -9.444   4.537  0.00  0.00    -0.071 A 
ATOM     10  C6  6PV d   1      -8.009  -9.232   5.656  0.00  0.00    -0.067 A 
ATOM     11  H23 6PV d   1      -7.171 -10.428   4.083  0.00  0.00     0.084 H 
ATOM     12  C7  6PV d   1      -7.999  -7.975   6.300  0.00  0.00     0.032 A 
ATOM     13  H24 6PV d   1      -8.645 -10.028   6.025  0.00  0.00     0.085 H 
ATOM     14  C8  6PV d   1      -7.199  -6.942   5.769  0.00  0.00    -0.067 A 
ATOM     15  C9  6PV d   1      -6.361  -7.167   4.656  0.00  0.00    -0.071 A 
ATOM     16  H25 6PV d   1      -7.228  -5.958   6.224  0.00  0.00     0.085 H 
ATOM     17  H26 6PV d   1      -5.692  -6.385   4.317  0.00  0.00     0.084 H 
BRANCH  12  18
ATOM     18  C10 6PV d   1      -8.841  -7.794   7.519  0.00  0.00     0.252 C 
ATOM     19  O1  6PV d   1      -9.336  -8.782   8.047  0.00  0.00    -0.268 OA
ATOM     20  N3  6PV d   1      -8.999  -6.567   8.019  0.00  0.00    -0.348 N 
ATOM     21  H27 6PV d   1      -8.575  -5.813   7.517  0.00  0.00     0.163 HD
BRANCH  20  22
ATOM     22  C11 6PV d   1      -9.733  -6.228   9.229  0.00  0.00     0.069 C 
ATOM     23  H1  6PV d   1     -10.689  -5.751   8.967  0.00  0.00     0.078 H 
ATOM     24  H2  6PV d   1      -9.925  -7.136   9.819  0.00  0.00     0.078 H 
BRANCH  22  25
ATOM     25  C12 6PV d   1      -8.864  -5.253  10.036  0.00  0.00     0.239 C 
ATOM     26  O2  6PV d   1      -7.818  -4.898   9.528  0.00  0.00    -0.271 OA
ATOM     27  N4  6PV d   1      -9.268  -4.780  11.215  0.00  0.00    -0.326 N 
ATOM     28  H28 6PV d   1     -10.159  -5.089  11.547  0.00  0.00     0.169 HD
BRANCH  27  29
ATOM     29  C13 6PV d   1      -8.538  -3.865  12.053  0.00  0.00     0.034 A 
ATOM     30  C14 6PV d   1      -7.320  -3.199  11.686  0.00  0.00    -0.057 A 
ATOM     31  C15 6PV d   1      -6.632  -2.332  12.579  0.00  0.00    -0.081 A 
ATOM     32  H3  6PV d   1      -6.911  -3.362  10.695  0.00  0.00     0.086 H 
ATOM     33  C16 6PV d   1      -7.178  -2.138  13.868  0.00  0.00    -0.083 A 
ATOM     34  H4  6PV d   1      -5.716  -1.835  12.280  0.00  0.00     0.083 H 
ATOM     35  C17 6PV d   1      -8.380  -2.789  14.244  0.00  0.00    -0.081 A 
ATOM     36  H5  6PV d   1      -6.675  -1.487  14.574  0.00  0.00     0.083 H 
ATOM     37  C18 6PV d   1      -9.064  -3.649  13.341  0.00  0.00    -0.057 A 
ATOM     38  H6  6PV d   1      -8.785  -2.628  15.237  0.00  0.00     0.083 H 
ATOM     39  H7  6PV d   1      -9.985  -4.135  13.643  0.00  0.00     0.086 H 
ENDBRANCH  27  29
ENDBRANCH  22  25
ENDBRANCH  20  22
ENDBRANCH  12  18
ENDBRANCH   3   8
BRANCH   2  40
ATOM     40  O3  6PV d   1      -5.106 -10.992   3.551  0.00  0.00    -0.333 OA
BRANCH  40  41
ATOM     41  C20 6PV d   1      -4.407 -12.241   3.486  0.00  0.00     0.031 C 
ATOM     42  H9  6PV d   1      -3.436 -12.107   2.988  0.00  0.00     0.075 H 
ATOM     43  H10 6PV d   1      -5.004 -12.982   2.933  0.00  0.00     0.075 H 
BRANCH  41  44
ATOM     44  C21 6PV d   1      -4.200 -12.702   4.932  0.00  0.00    -0.030 C 
ATOM     45  C22 6PV d   1      -3.723 -14.171   4.975  0.00  0.00    -0.037 C 
ATOM     46  C23 6PV d   1      -3.556 -14.598   6.447  0.00  0.00     0.082 C 
ATOM     47  H12 6PV d   1      -2.759 -14.262   4.452  0.00  0.00     0.036 H 
ATOM     48  H13 6PV d   1      -4.468 -14.816   4.486  0.00  0.00     0.036 H 
ATOM     49  N5  6PV d   1      -2.576 -13.723   7.111  0.00  0.00    -0.075 N 
ATOM     50  H14 6PV d   1      -3.203 -15.639   6.488  0.00  0.00     0.075 H 
ATOM     51  H15 6PV d   1      -4.524 -14.519   6.963  0.00  0.00     0.075 H 
ATOM     52  C24 6PV d   1      -2.963 -12.310   7.132  0.00  0.00     0.082 C 
ATOM     53  H29 6PV d   1      -1.697 -13.804   6.625  0.00  0.00     0.277 HD
ATOM     54  H30 6PV d   1      -2.464 -14.036   8.063  0.00  0.00     0.277 HD
ATOM     55  C25 6PV d   1      -3.189 -11.802   5.692  0.00  0.00    -0.037 C 
ATOM     56  H16 6PV d   1      -3.893 -12.196   7.708  0.00  0.00     0.075 H 
ATOM     57  H17 6PV d   1      -2.164 -11.721   7.605  0.00  0.00     0.075 H 
ATOM     58  H18 6PV d   1      -3.582 -10.775   5.731  0.00  0.00     0.036 H 
ATOM     59  H19 6PV d   1      -2.229 -11.807   5.155  0.00  0.00     0.036 H 
ATOM     60  H11 6PV d   1      -5.169 -12.638   5.449  0.00  0.00     0.043 H 
ENDBRANCH  41  44
ENDBRANCH  40  41
ENDBRANCH   2  40
BRANCH   1  61
ATOM     61  N6  6PV d   1      -2.172  -9.201   0.529  0.00  0.00    -0.188 N 
ATOM     62  H31 6PV d   1      -1.992  -8.508  -0.211  0.00  0.00     0.184 HD
BRANCH  61  63
ATOM     63  C26 6PV d   1      -1.231 -10.238   0.623  0.00  0.00     0.052 A 
ATOM     64  C27 6PV d   1      -1.015 -10.981   1.835  0.00  0.00    -0.057 A 
ATOM     65  C28 6PV d   1      -0.073 -12.032   1.871  0.00  0.00    -0.078 A 
ATOM     66  H20 6PV d   1      -1.579 -10.733   2.727  0.00  0.00     0.086 H 
ATOM     67  C29 6PV d   1       0.639 -12.342   0.688  0.00  0.00    -0.051 A 
ATOM     68  H21 6PV d   1       0.101 -12.589   2.784  0.00  0.00     0.083 H 
ATOM     69  C30 6PV d   1       0.426 -11.628  -0.527  0.00  0.00     0.070 A 
ATOM     70  H22 6PV d   1       1.367 -13.145   0.706  0.00  0.00     0.087 H 
ATOM     71  C32 6PV d   1      -0.515 -10.560  -0.551  0.00  0.00    -0.025 A 
ATOM     72  H35 6PV d   1      -0.681  -9.998  -1.463  0.00  0.00     0.091 H 
BRANCH  69  73
ATOM     73  O4  6PV d   1       1.119 -11.905  -1.683  0.00  0.00    -0.356 OA
BRANCH  73  74
ATOM     74  C31 6PV d   1       1.156 -11.014  -2.794  0.00  0.00     0.010 C 
ATOM     75  H32 6PV d   1       1.770 -11.452  -3.595  0.00  0.00     0.066 H 
ATOM     76  H33 6PV d   1       1.593 -10.055  -2.480  0.00  0.00     0.066 H 
ATOM     77  H34 6PV d   1       0.134 -10.848  -3.165  0.00  0.00     0.066 H 
ENDBRANCH  73  74
ENDBRANCH  69  73
ENDBRANCH  61  63
ENDBRANCH   1  61
TORSDOF 12
