REMARK  4 active torsions:
REMARK  status: ('A' for Active; 'I' for Inactive)
REMARK    1  A    between atoms: C4_11  and  C10_1 
REMARK    2  A    between atoms: C5_12  and  C16_5 
REMARK    3  A    between atoms: C17_6  and  C18_7 
REMARK    4  A    between atoms: C6_13  and  C1_8 
ROOT
ATOM      1  C1  6P5 d   1      24.440   3.679 -19.589  0.00  0.00     0.061 A 
ATOM      2  S2  6P5 d   1      24.931   2.365 -20.291  0.00  0.00    -0.065 SA
ATOM      3  N3  6P5 d   1      22.560   2.095 -19.695  0.00  0.00    -0.244 NA
ATOM      4  C4  6P5 d   1      23.658   1.419 -20.322  0.00  0.00     0.108 A 
ATOM      5  C5  6P5 d   1      23.040   3.532 -19.217  0.00  0.00     0.051 A 
ENDROOT
BRANCH   4   6
ATOM      6  C10 6P5 d   1      23.507   0.014 -20.841  0.00  0.00    -0.000 A 
ATOM      7  C13 6P5 d   1      22.139  -0.469 -21.256  0.00  0.00    -0.070 A 
ATOM      8  C14 6P5 d   1      21.972  -1.725 -21.690  0.00  0.00    -0.076 A 
ATOM      9  H2  6P5 d   1      21.289   0.202 -21.203  0.00  0.00     0.085 H 
ATOM     10  C17 6P5 d   1      23.156  -2.660 -21.731  0.00  0.00    -0.062 A 
ATOM     11  H13 6P5 d   1      20.994  -2.067 -22.009  0.00  0.00     0.084 H 
ATOM     12  C15 6P5 d   1      24.374  -2.238 -21.341  0.00  0.00    -0.076 A 
ATOM     13  C12 6P5 d   1      24.557  -0.821 -20.851  0.00  0.00    -0.070 A 
ATOM     14  H3  6P5 d   1      25.221  -2.914 -21.379  0.00  0.00     0.084 H 
ATOM     15  H12 6P5 d   1      25.529  -0.482 -20.510  0.00  0.00     0.085 H 
BRANCH  10  16
ATOM     16  C18 6P5 d   1      22.971  -4.076 -22.222  0.00  0.00    -0.051 C 
ATOM     17  H7  6P5 d   1      21.917  -4.235 -22.494  0.00  0.00     0.033 H 
ATOM     18  H8  6P5 d   1      23.255  -4.780 -21.426  0.00  0.00     0.033 H 
ATOM     19  H9  6P5 d   1      23.606  -4.244 -23.104  0.00  0.00     0.033 H 
ENDBRANCH  10  16
ENDBRANCH   4   6
BRANCH   1  20
ATOM     20  C6  6P5 d   1      25.277   4.893 -19.290  0.00  0.00     0.097 A 
ATOM     21  N7  6P5 d   1      25.203   5.608 -18.147  0.00  0.00    -0.174 NA
ATOM     22  N8  6P5 d   1      26.111   6.621 -18.200  0.00  0.00    -0.289 N 
ATOM     23  C11 6P5 d   1      26.811   6.531 -19.426  0.00  0.00    -0.002 A 
ATOM     24  H10 6P5 d   1      26.263   7.332 -17.471  0.00  0.00     0.188 HD
ATOM     25  C9  6P5 d   1      26.274   5.432 -20.105  0.00  0.00    -0.036 A 
ATOM     26  H1  6P5 d   1      27.609   7.186 -19.772  0.00  0.00     0.113 H 
ATOM     27  H11 6P5 d   1      26.577   5.066 -21.085  0.00  0.00     0.089 H 
ENDBRANCH   1  20
BRANCH   5  28
ATOM     28  C16 6P5 d   1      22.152   4.532 -18.510  0.00  0.00    -0.034 C 
ATOM     29  H4  6P5 d   1      21.147   4.104 -18.382  0.00  0.00     0.035 H 
ATOM     30  H5  6P5 d   1      22.085   5.452 -19.110  0.00  0.00     0.035 H 
ATOM     31  H6  6P5 d   1      22.578   4.768 -17.524  0.00  0.00     0.035 H 
ENDBRANCH   5  28
TORSDOF 4
