REMARK  7 active torsions:
REMARK  status: ('A' for Active; 'I' for Inactive)
REMARK    1  A    between atoms: C02_2  and  C01_1 
REMARK    2  A    between atoms: C04_4  and  C14_20 
REMARK    3  A    between atoms: C11_7  and  C10_6 
REMARK    4  A    between atoms: C12_19  and  C11_7 
REMARK    5  A    between atoms: C13_8  and  O20_21 
REMARK    6  A    between atoms: C09_18  and  C19_13 
REMARK    7  A    between atoms: O20_21  and  C21_14 
ROOT
ATOM      1  C02 6PQ d   1      -6.463  44.499 -30.386  0.00  0.00     0.071 A 
ATOM      2  C07 6PQ d   1      -7.162  44.172 -29.194  0.00  0.00    -0.029 A 
ATOM      3  C10 6PQ d   1      -8.015  43.125 -29.591  0.00  0.00     0.061 A 
ATOM      4  N06 6PQ d   1      -6.875  43.690 -31.352  0.00  0.00    -0.277 N 
ATOM      5  N08 6PQ d   1      -7.791  42.893 -30.878  0.00  0.00    -0.179 NA
ATOM      6  H1  6PQ d   1      -7.062  44.623 -28.208  0.00  0.00     0.090 H 
ATOM      7  H14 6PQ d   1      -6.527  43.691 -32.322  0.00  0.00     0.189 HD
ENDROOT
BRANCH   3   8
ATOM      8  C11 6PQ d   1      -8.990  42.425 -28.686  0.00  0.00     0.001 C 
ATOM      9  H2  6PQ d   1      -9.225  41.427 -29.084  0.00  0.00     0.049 H 
ATOM     10  H3  6PQ d   1      -9.916  43.013 -28.601  0.00  0.00     0.049 H 
BRANCH   8  11
ATOM     11  C12 6PQ d   1      -8.330  42.302 -27.336  0.00  0.00    -0.052 A 
ATOM     12  C15 6PQ d   1      -8.667  43.148 -26.283  0.00  0.00    -0.074 A 
ATOM     13  C18 6PQ d   1      -8.035  43.006 -25.053  0.00  0.00    -0.050 A 
ATOM     14  H4  6PQ d   1      -9.420  43.915 -26.422  0.00  0.00     0.084 H 
ATOM     15  C13 6PQ d   1      -7.081  42.016 -24.894  0.00  0.00     0.068 A 
ATOM     16  H7  6PQ d   1      -8.286  43.663 -24.228  0.00  0.00     0.087 H 
ATOM     17  C17 6PQ d   1      -6.746  41.185 -25.949  0.00  0.00    -0.050 A 
ATOM     18  C16 6PQ d   1      -7.370  41.322 -27.175  0.00  0.00    -0.074 A 
ATOM     19  H6  6PQ d   1      -5.989  40.421 -25.813  0.00  0.00     0.087 H 
ATOM     20  H5  6PQ d   1      -7.109  40.669 -28.000  0.00  0.00     0.084 H 
BRANCH  15  21
ATOM     21  O20 6PQ d   1      -6.415  41.844 -23.675  0.00  0.00    -0.356 OA
BRANCH  21  22
ATOM     22  C21 6PQ d   1      -7.240  41.790 -22.540  0.00  0.00     0.010 C 
ATOM     23  H11 6PQ d   1      -6.620  41.654 -21.642  0.00  0.00     0.066 H 
ATOM     24  H12 6PQ d   1      -7.939  40.946 -22.634  0.00  0.00     0.066 H 
ATOM     25  H13 6PQ d   1      -7.808  42.728 -22.454  0.00  0.00     0.066 H 
ENDBRANCH  21  22
ENDBRANCH  15  21
ENDBRANCH   8  11
ENDBRANCH   3   8
BRANCH   1  26
ATOM     26  C01 6PQ d   1      -5.398  45.556 -30.490  0.00  0.00     0.059 A 
ATOM     27  C04 6PQ d   1      -5.131  46.470 -31.546  0.00  0.00     0.051 A 
ATOM     28  N03 6PQ d   1      -4.065  47.300 -31.317  0.00  0.00    -0.250 NA
ATOM     29  C09 6PQ d   1      -3.438  47.118 -30.137  0.00  0.00     0.072 A 
ATOM     30  S05 6PQ d   1      -4.233  45.880 -29.295  0.00  0.00    -0.071 SA
BRANCH  27  31
ATOM     31  C14 6PQ d   1      -5.939  46.532 -32.820  0.00  0.00    -0.034 C 
ATOM     32  H15 6PQ d   1      -5.534  47.319 -33.473  0.00  0.00     0.035 H 
ATOM     33  H16 6PQ d   1      -6.988  46.760 -32.578  0.00  0.00     0.035 H 
ATOM     34  H17 6PQ d   1      -5.884  45.562 -33.336  0.00  0.00     0.035 H 
ENDBRANCH  27  31
BRANCH  29  35
ATOM     35  C19 6PQ d   1      -2.240  47.911 -29.671  0.00  0.00    -0.029 C 
ATOM     36  H8  6PQ d   1      -1.960  48.642 -30.445  0.00  0.00     0.036 H 
ATOM     37  H9  6PQ d   1      -1.397  47.229 -29.489  0.00  0.00     0.036 H 
ATOM     38  H10 6PQ d   1      -2.490  48.441 -28.740  0.00  0.00     0.036 H 
ENDBRANCH  29  35
ENDBRANCH   1  26
TORSDOF 7
