REMARK  6 active torsions:
REMARK  status: ('A' for Active; 'I' for Inactive)
REMARK    1  A    between atoms: C02_2  and  C01_1 
REMARK    2  A    between atoms: C08_17  and  C04_3 
REMARK    3  A    between atoms: C05_4  and  C07_5 
REMARK    4  A    between atoms: C11_7  and  C13_8 
REMARK    5  A    between atoms: C13_8  and  C15_9 
REMARK    6  A    between atoms: C13_8  and  C14_20 
ROOT
ATOM      1  N09 6PS d   1      95.264  54.669  -2.981  0.00  0.00    -0.277 N 
ATOM      2  C11 6PS d   1      93.536  55.889  -3.549  0.00  0.00     0.065 A 
ATOM      3  C08 6PS d   1      95.265  55.700  -2.154  0.00  0.00     0.071 A 
ATOM      4  N10 6PS d   1      94.257  54.796  -3.791  0.00  0.00    -0.178 NA
ATOM      5  C12 6PS d   1      94.158  56.550  -2.454  0.00  0.00    -0.028 A 
ATOM      6  H7  6PS d   1      95.945  53.897  -2.983  0.00  0.00     0.189 HD
ATOM      7  H14 6PS d   1      93.862  57.477  -1.965  0.00  0.00     0.090 H 
ENDROOT
BRANCH   2   8
ATOM      8  C13 6PS d   1      92.293  56.304  -4.309  0.00  0.00     0.012 C 
ATOM      9  H8  6PS d   1      91.556  55.487  -4.280  0.00  0.00     0.056 H 
BRANCH   8  10
ATOM     10  C15 6PS d   1      91.673  57.547  -3.706  0.00  0.00    -0.049 A 
ATOM     11  C16 6PS d   1      92.086  58.809  -4.109  0.00  0.00    -0.076 A 
ATOM     12  C17 6PS d   1      91.509  59.948  -3.559  0.00  0.00    -0.082 A 
ATOM     13  H9  6PS d   1      92.864  58.907  -4.858  0.00  0.00     0.084 H 
ATOM     14  C18 6PS d   1      90.501  59.831  -2.612  0.00  0.00    -0.083 A 
ATOM     15  H10 6PS d   1      91.847  60.930  -3.870  0.00  0.00     0.083 H 
ATOM     16  C19 6PS d   1      90.081  58.569  -2.218  0.00  0.00    -0.082 A 
ATOM     17  H11 6PS d   1      90.046  60.717  -2.184  0.00  0.00     0.083 H 
ATOM     18  C20 6PS d   1      90.664  57.433  -2.762  0.00  0.00    -0.076 A 
ATOM     19  H12 6PS d   1      89.293  58.469  -1.481  0.00  0.00     0.083 H 
ATOM     20  H13 6PS d   1      90.329  56.451  -2.447  0.00  0.00     0.084 H 
ENDBRANCH   8  10
BRANCH   8  21
ATOM     21  C14 6PS d   1      92.699  56.569  -5.732  0.00  0.00    -0.064 C 
ATOM     22  H15 6PS d   1      93.148  55.661  -6.160  0.00  0.00     0.028 H 
ATOM     23  H16 6PS d   1      93.433  57.388  -5.758  0.00  0.00     0.028 H 
ATOM     24  H17 6PS d   1      91.813  56.852  -6.319  0.00  0.00     0.028 H 
ENDBRANCH   8  21
ENDBRANCH   2   8
BRANCH   3  25
ATOM     25  C04 6PS d   1      96.265  55.913  -1.057  0.00  0.00     0.059 A 
ATOM     26  C05 6PS d   1      97.603  55.431  -0.987  0.00  0.00     0.051 A 
ATOM     27  N06 6PS d   1      98.261  55.809   0.147  0.00  0.00    -0.250 NA
ATOM     28  C02 6PS d   1      97.550  56.555   1.005  0.00  0.00     0.072 A 
ATOM     29  S03 6PS d   1      96.008  56.813   0.364  0.00  0.00    -0.071 SA
BRANCH  26  30
ATOM     30  C07 6PS d   1      98.286  54.581  -2.044  0.00  0.00    -0.034 C 
ATOM     31  H4  6PS d   1      99.315  54.357  -1.726  0.00  0.00     0.035 H 
ATOM     32  H5  6PS d   1      98.309  55.129  -2.997  0.00  0.00     0.035 H 
ATOM     33  H6  6PS d   1      97.730  53.641  -2.175  0.00  0.00     0.035 H 
ENDBRANCH  26  30
BRANCH  28  34
ATOM     34  C01 6PS d   1      98.100  57.049   2.313  0.00  0.00    -0.029 C 
ATOM     35  H1  6PS d   1      99.138  56.704   2.428  0.00  0.00     0.036 H 
ATOM     36  H2  6PS d   1      97.489  56.657   3.139  0.00  0.00     0.036 H 
ATOM     37  H3  6PS d   1      98.076  58.149   2.329  0.00  0.00     0.036 H 
ENDBRANCH  28  34
ENDBRANCH   3  25
TORSDOF 6
