REMARK  7 active torsions:
REMARK  status: ('A' for Active; 'I' for Inactive)
REMARK    1  A    between atoms: C03_15  and  C01_1 
REMARK    2  A    between atoms: C02_2  and  C03_15 
REMARK    3  A    between atoms: C15_9  and  C16_10 
REMARK    4  A    between atoms: C18_11  and  C12_18 
REMARK    5  A    between atoms: C14_20  and  C19_12 
REMARK    6  A    between atoms: C03_15  and  C20_13 
REMARK    7  A    between atoms: C03_15  and  C21_14 
ROOT
ATOM      1  C02 6OZ d   1      14.750 -20.721  12.612  0.00  0.00     0.069 A 
ATOM      2  N09 6OZ d   1      12.944 -19.498  13.127  0.00  0.00    -0.277 N 
ATOM      3  C11 6OZ d   1      13.766 -20.979  11.672  0.00  0.00    -0.028 A 
ATOM      4  N10 6OZ d   1      14.247 -19.833  13.504  0.00  0.00    -0.178 NA
ATOM      5  C12 6OZ d   1      12.676 -20.189  11.995  0.00  0.00     0.071 A 
ATOM      6  H5  6OZ d   1      12.310 -18.850  13.616  0.00  0.00     0.189 HD
ATOM      7  H6  6OZ d   1      13.836 -21.673  10.836  0.00  0.00     0.090 H 
ENDROOT
BRANCH   1   8
ATOM      8  C03 6OZ d   1      16.124 -21.360  12.668  0.00  0.00     0.026 C 
BRANCH   8   9
ATOM      9  C01 6OZ d   1      15.829 -22.852  12.864  0.00  0.00    -0.044 A 
ATOM     10  C04 6OZ d   1      16.476 -23.874  12.160  0.00  0.00    -0.076 A 
ATOM     11  C05 6OZ d   1      16.138 -25.204  12.396  0.00  0.00    -0.082 A 
ATOM     12  H1  6OZ d   1      17.240 -23.630  11.431  0.00  0.00     0.084 H 
ATOM     13  C06 6OZ d   1      15.152 -25.537  13.306  0.00  0.00    -0.083 A 
ATOM     14  H2  6OZ d   1      16.656 -25.990  11.858  0.00  0.00     0.083 H 
ATOM     15  C07 6OZ d   1      14.494 -24.526  14.002  0.00  0.00    -0.082 A 
ATOM     16  H3  6OZ d   1      14.893 -26.576  13.476  0.00  0.00     0.083 H 
ATOM     17  C08 6OZ d   1      14.832 -23.195  13.779  0.00  0.00    -0.076 A 
ATOM     18  H4  6OZ d   1      13.719 -24.776  14.717  0.00  0.00     0.083 H 
ATOM     19  H19 6OZ d   1      14.314 -22.413  14.323  0.00  0.00     0.084 H 
ENDBRANCH   8   9
BRANCH   8  20
ATOM     20  C20 6OZ d   1      16.860 -20.811  13.839  0.00  0.00    -0.060 C 
ATOM     21  H13 6OZ d   1      17.860 -21.267  13.891  0.00  0.00     0.029 H 
ATOM     22  H14 6OZ d   1      16.305 -21.039  14.761  0.00  0.00     0.029 H 
ATOM     23  H15 6OZ d   1      16.960 -19.721  13.731  0.00  0.00     0.029 H 
ENDBRANCH   8  20
BRANCH   8  24
ATOM     24  C21 6OZ d   1      16.893 -21.056  11.407  0.00  0.00    -0.060 C 
ATOM     25  H16 6OZ d   1      16.351 -21.461  10.540  0.00  0.00     0.029 H 
ATOM     26  H17 6OZ d   1      17.889 -21.518  11.465  0.00  0.00     0.029 H 
ATOM     27  H18 6OZ d   1      17.000 -19.967  11.296  0.00  0.00     0.029 H 
ENDBRANCH   8  24
ENDBRANCH   1   8
BRANCH   5  28
ATOM     28  C18 6OZ d   1      11.356 -20.170  11.255  0.00  0.00     0.055 A 
ATOM     29  C15 6OZ d   1      10.361 -19.104  11.358  0.00  0.00     0.046 A 
ATOM     30  N13 6OZ d   1       9.154 -19.530  10.468  0.00  0.00    -0.268 NA
ATOM     31  C14 6OZ d   1       9.443 -20.794   9.862  0.00  0.00     0.139 A 
ATOM     32  S17 6OZ d   1      10.869 -21.303  10.315  0.00  0.00    -0.089 SA
BRANCH  29  33
ATOM     33  C16 6OZ d   1      10.406 -17.835  12.145  0.00  0.00    -0.035 C 
ATOM     34  H7  6OZ d   1       9.476 -17.270  11.982  0.00  0.00     0.035 H 
ATOM     35  H8  6OZ d   1      11.265 -17.231  11.818  0.00  0.00     0.035 H 
ATOM     36  H9  6OZ d   1      10.510 -18.070  13.214  0.00  0.00     0.035 H 
ENDBRANCH  29  33
BRANCH  31  37
ATOM     37  C19 6OZ d   1       8.463 -21.452   8.955  0.00  0.00    -0.039 C 
ATOM     38  H10 6OZ d   1       7.570 -20.817   8.858  0.00  0.00     0.032 H 
ATOM     39  H11 6OZ d   1       8.175 -22.428   9.372  0.00  0.00     0.032 H 
ATOM     40  H12 6OZ d   1       8.919 -21.596   7.965  0.00  0.00     0.032 H 
ENDBRANCH  31  37
ENDBRANCH   5  28
TORSDOF 7
