REMARK  8 active torsions:
REMARK  status: ('A' for Active; 'I' for Inactive)
REMARK    1  A    between atoms: C01_1  and  C06_3 
REMARK    2  A    between atoms: C04_2  and  C08_18 
REMARK    3  A    between atoms: C07_4  and  C03_16 
REMARK    4  A    between atoms: C13_7  and  C11_6 
REMARK    5  A    between atoms: C13_7  and  C15_8 
REMARK    6  A    between atoms: C14_21  and  C13_7 
REMARK    7  A    between atoms: C18_11  and  O21_22 
REMARK    8  A    between atoms: O21_22  and  C22_14 
ROOT
ATOM      1  C13 6P1 d   1      16.151 -20.975  12.836  0.00  0.00     0.012 C 
ATOM      2  H5  6P1 d   1      16.296 -21.396  13.842  0.00  0.00     0.056 H 
ENDROOT
BRANCH   1   3
ATOM      3  C11 6P1 d   1      14.714 -20.530  12.683  0.00  0.00     0.065 A 
ATOM      4  N10 6P1 d   1      14.092 -19.744  13.534  0.00  0.00    -0.178 NA
ATOM      5  N09 6P1 d   1      12.866 -19.486  13.203  0.00  0.00    -0.277 N 
ATOM      6  C07 6P1 d   1      12.617 -20.105  12.061  0.00  0.00     0.071 A 
ATOM      7  H4  6P1 d   1      12.204 -18.903  13.734  0.00  0.00     0.189 HD
ATOM      8  C12 6P1 d   1      13.776 -20.831  11.655  0.00  0.00    -0.028 A 
ATOM      9  H19 6P1 d   1      13.910 -21.460  10.776  0.00  0.00     0.090 H 
BRANCH   6  10
ATOM     10  C03 6P1 d   1      11.299 -20.107  11.346  0.00  0.00     0.059 A 
ATOM     11  C04 6P1 d   1      10.227 -19.176  11.329  0.00  0.00     0.051 A 
ATOM     12  N05 6P1 d   1       9.154 -19.560  10.557  0.00  0.00    -0.250 NA
ATOM     13  C01 6P1 d   1       9.303 -20.747   9.950  0.00  0.00     0.072 A 
ATOM     14  S02 6P1 d   1      10.824 -21.377  10.348  0.00  0.00    -0.071 SA
BRANCH  11  15
ATOM     15  C08 6P1 d   1      10.245 -17.880  12.097  0.00  0.00    -0.034 C 
ATOM     16  H16 6P1 d   1       9.305 -17.337  11.922  0.00  0.00     0.035 H 
ATOM     17  H17 6P1 d   1      11.092 -17.265  11.759  0.00  0.00     0.035 H 
ATOM     18  H18 6P1 d   1      10.351 -18.092  13.171  0.00  0.00     0.035 H 
ENDBRANCH  11  15
BRANCH  13  19
ATOM     19  C06 6P1 d   1       8.296 -21.416   9.053  0.00  0.00    -0.029 C 
ATOM     20  H1  6P1 d   1       7.400 -20.783   8.971  0.00  0.00     0.036 H 
ATOM     21  H2  6P1 d   1       8.018 -22.392   9.478  0.00  0.00     0.036 H 
ATOM     22  H3  6P1 d   1       8.734 -21.562   8.055  0.00  0.00     0.036 H 
ENDBRANCH  13  19
ENDBRANCH   6  10
ENDBRANCH   1   3
BRANCH   1  23
ATOM     23  C15 6P1 d   1      17.051 -19.775  12.650  0.00  0.00    -0.064 C 
ATOM     24  H6  6P1 d   1      16.798 -19.008  13.397  0.00  0.00     0.028 H 
ATOM     25  H7  6P1 d   1      16.910 -19.364  11.640  0.00  0.00     0.028 H 
ATOM     26  H8  6P1 d   1      18.100 -20.080  12.778  0.00  0.00     0.028 H 
ENDBRANCH   1  23
BRANCH   1  27
ATOM     27  C14 6P1 d   1      16.511 -22.013  11.807  0.00  0.00    -0.048 A 
ATOM     28  C16 6P1 d   1      16.416 -23.358  12.129  0.00  0.00    -0.073 A 
ATOM     29  C17 6P1 d   1      16.759 -24.315  11.175  0.00  0.00    -0.050 A 
ATOM     30  H9  6P1 d   1      16.078 -23.663  13.113  0.00  0.00     0.084 H 
ATOM     31  C18 6P1 d   1      17.193 -23.926   9.907  0.00  0.00     0.068 A 
ATOM     32  H10 6P1 d   1      16.688 -25.369  11.420  0.00  0.00     0.087 H 
ATOM     33  C19 6P1 d   1      17.287 -22.573   9.594  0.00  0.00    -0.050 A 
ATOM     34  C20 6P1 d   1      16.948 -21.617  10.549  0.00  0.00    -0.073 A 
ATOM     35  H11 6P1 d   1      17.623 -22.264   8.611  0.00  0.00     0.087 H 
ATOM     36  H12 6P1 d   1      17.025 -20.562  10.310  0.00  0.00     0.084 H 
BRANCH  31  37
ATOM     37  O21 6P1 d   1      17.543 -24.889   8.931  0.00  0.00    -0.356 OA
BRANCH  37  38
ATOM     38  C22 6P1 d   1      17.415 -26.226   9.369  0.00  0.00     0.010 C 
ATOM     39  H13 6P1 d   1      17.705 -26.908   8.556  0.00  0.00     0.066 H 
ATOM     40  H14 6P1 d   1      16.371 -26.420   9.655  0.00  0.00     0.066 H 
ATOM     41  H15 6P1 d   1      18.070 -26.392  10.237  0.00  0.00     0.066 H 
ENDBRANCH  37  38
ENDBRANCH  31  37
ENDBRANCH   1  27
TORSDOF 8
