REMARK  8 active torsions:
REMARK  status: ('A' for Active; 'I' for Inactive)
REMARK    1  A    between atoms: C23_18  and  O2_3 
REMARK    2  A    between atoms: N1_6  and  C_27 
REMARK       I    between atoms: C17_12  and  N2_13 
REMARK    3  A    between atoms: C14_20  and  C17_12 
REMARK    4  A    between atoms: N2_13  and  C18_14 
REMARK    5  A    between atoms: C20_17  and  C23_18 
REMARK    6  A    between atoms: C11_21  and  C13_22 
REMARK    7  A    between atoms: C11_21  and  C12_23 
REMARK    8  A    between atoms: C8_28  and  C9_29 
ROOT
ATOM      1  N1  6PW d   1       9.304  14.621  26.114  0.00  0.00    -0.365 N 
ATOM      2  C14 6PW d   1       9.406  14.601  29.019  0.00  0.00     0.033 C 
ATOM      3  C11 6PW d   1      10.564  15.243  28.189  0.00  0.00    -0.019 C 
ATOM      4  C10 6PW d   1      10.592  14.573  26.807  0.00  0.00     0.004 C 
ATOM      5  C15 6PW d   1       8.062  14.606  28.265  0.00  0.00    -0.038 C 
ATOM      6  C16 6PW d   1       8.213  13.991  26.865  0.00  0.00    -0.003 C 
ATOM      7  H18 6PW d   1       9.678  13.547  29.174  0.00  0.00     0.056 H 
ATOM      8  H25 6PW d   1      11.342  15.085  26.186  0.00  0.00     0.065 H 
ATOM      9  H26 6PW d   1      10.880  13.519  26.936  0.00  0.00     0.065 H 
ATOM     10  H27 6PW d   1       7.709  15.643  28.166  0.00  0.00     0.036 H 
ATOM     11  H28 6PW d   1       7.327  14.021  28.837  0.00  0.00     0.036 H 
ATOM     12  H29 6PW d   1       8.424  12.916  26.968  0.00  0.00     0.064 H 
ATOM     13  H30 6PW d   1       7.272  14.128  26.311  0.00  0.00     0.064 H 
ENDROOT
BRANCH   2  14
ATOM     14  C17 6PW d   1       9.273  15.228  30.394  0.00  0.00     0.223 C 
ATOM     15  O   6PW d   1       8.691  16.294  30.563  0.00  0.00    -0.273 OA
ATOM     16  N2  6PW d   1       9.834  14.545  31.398  0.00  0.00    -0.356 N 
ATOM     17  H7  6PW d   1      10.152  13.612  31.228  0.00  0.00     0.162 HD
BRANCH  16  18
ATOM     18  C18 6PW d   1       9.999  15.115  32.739  0.00  0.00     0.016 C 
ATOM     19  C22 6PW d   1      10.025  14.032  33.818  0.00  0.00    -0.026 C 
ATOM     20  C21 6PW d   1      11.364  13.342  33.957  0.00  0.00     0.022 C 
ATOM     21  H9  6PW d   1       9.268  13.274  33.567  0.00  0.00     0.039 H 
ATOM     22  H10 6PW d   1       9.773  14.497  34.782  0.00  0.00     0.039 H 
ATOM     23  O1  6PW d   1      12.434  14.299  34.035  0.00  0.00    -0.384 OA
ATOM     24  H11 6PW d   1      11.360  12.732  34.872  0.00  0.00     0.074 H 
ATOM     25  H12 6PW d   1      11.526  12.693  33.084  0.00  0.00     0.074 H 
ATOM     26  C20 6PW d   1      12.508  15.103  32.858  0.00  0.00     0.060 C 
ATOM     27  C19 6PW d   1      11.267  15.971  32.798  0.00  0.00    -0.020 C 
ATOM     28  H13 6PW d   1      12.528  14.461  31.965  0.00  0.00     0.086 H 
ATOM     29  H16 6PW d   1      11.230  16.607  33.695  0.00  0.00     0.040 H 
ATOM     30  H17 6PW d   1      11.315  16.605  31.900  0.00  0.00     0.040 H 
ATOM     31  H8  6PW d   1       9.136  15.768  32.938  0.00  0.00     0.072 H 
BRANCH  26  32
ATOM     32  C23 6PW d   1      13.803  15.870  32.932  0.00  0.00     0.041 C 
ATOM     33  H14 6PW d   1      14.617  15.167  33.163  0.00  0.00     0.077 H 
ATOM     34  H15 6PW d   1      13.991  16.340  31.956  0.00  0.00     0.077 H 
BRANCH  32  35
ATOM     35  O2  6PW d   1      13.778  16.881  33.927  0.00  0.00    -0.398 OA
ATOM     36  H2  6PW d   1      13.623  16.484  34.776  0.00  0.00     0.209 HD
ENDBRANCH  32  35
ENDBRANCH  26  32
ENDBRANCH  16  18
ENDBRANCH   2  14
BRANCH   3  37
ATOM     37  C13 6PW d   1      10.395  16.759  27.984  0.00  0.00    -0.067 C 
ATOM     38  H19 6PW d   1      11.240  17.146  27.395  0.00  0.00     0.028 H 
ATOM     39  H20 6PW d   1      10.370  17.261  28.962  0.00  0.00     0.028 H 
ATOM     40  H21 6PW d   1       9.454  16.954  27.448  0.00  0.00     0.028 H 
ENDBRANCH   3  37
BRANCH   3  41
ATOM     41  C12 6PW d   1      11.928  15.015  28.852  0.00  0.00    -0.067 C 
ATOM     42  H22 6PW d   1      12.082  13.938  29.014  0.00  0.00     0.028 H 
ATOM     43  H23 6PW d   1      11.958  15.539  29.819  0.00  0.00     0.028 H 
ATOM     44  H24 6PW d   1      12.723  15.405  28.199  0.00  0.00     0.028 H 
ENDBRANCH   3  41
BRANCH   1  45
ATOM     45  C   6PW d   1       9.198  14.973  24.783  0.00  0.00     0.126 A 
ATOM     46  C4  6PW d   1      10.131  15.835  24.175  0.00  0.00    -0.038 A 
ATOM     47  C3  6PW d   1       9.972  16.150  22.863  0.00  0.00    -0.067 A 
ATOM     48  H5  6PW d   1      10.961  16.240  24.743  0.00  0.00     0.089 H 
ATOM     49  C2  6PW d   1       8.893  15.618  22.125  0.00  0.00    -0.007 A 
ATOM     50  H6  6PW d   1      10.679  16.815  22.380  0.00  0.00     0.085 H 
ATOM     51  C1  6PW d   1       7.999  14.753  22.807  0.00  0.00     0.075 A 
ATOM     52  C5  6PW d   1       8.663  15.891  20.755  0.00  0.00    -0.071 A 
ATOM     53  C8  6PW d   1       6.898  14.170  22.112  0.00  0.00    -0.032 A 
ATOM     54  N   6PW d   1       8.166  14.448  24.141  0.00  0.00    -0.230 NA
ATOM     55  C7  6PW d   1       6.737  14.482  20.777  0.00  0.00    -0.075 A 
ATOM     56  C6  6PW d   1       7.599  15.337  20.106  0.00  0.00    -0.082 A 
ATOM     57  H1  6PW d   1       5.908  14.043  20.234  0.00  0.00     0.084 H 
ATOM     58  H3  6PW d   1       7.426  15.566  19.061  0.00  0.00     0.083 H 
ATOM     59  H4  6PW d   1       9.339  16.546  20.217  0.00  0.00     0.084 H 
BRANCH  53  60
ATOM     60  C9  6PW d   1       5.954  13.237  22.829  0.00  0.00    -0.049 C 
ATOM     61  H31 6PW d   1       5.177  12.894  22.131  0.00  0.00     0.033 H 
ATOM     62  H32 6PW d   1       5.483  13.767  23.670  0.00  0.00     0.033 H 
ATOM     63  H33 6PW d   1       6.514  12.370  23.209  0.00  0.00     0.033 H 
ENDBRANCH  53  60
ENDBRANCH   1  45
TORSDOF 8
