REMARK  7 active torsions:
REMARK  status: ('A' for Active; 'I' for Inactive)
REMARK    1  A    between atoms: C02_2  and  C16_8 
REMARK    2  A    between atoms: C14_22  and  C02_2 
REMARK    3  A    between atoms: C11_6  and  C05_3 
REMARK    4  A    between atoms: C06_4  and  C10_5 
REMARK    5  A    between atoms: C19_11  and  O22_23 
REMARK    6  A    between atoms: O22_23  and  C23_14 
REMARK    7  A    between atoms: C08_18  and  C09_19 
ROOT
ATOM      1  C01 6P2 d   1      17.286 -19.810  12.880  0.00  0.00    -0.083 A 
ATOM      2  C02 6P2 d   1      16.213 -20.830  12.641  0.00  0.00     0.068 A 
ATOM      3  C03 6P2 d   1      16.922 -20.769  13.957  0.00  0.00    -0.083 A 
ATOM      4  H1  6P2 d   1      17.890 -18.977  12.525  0.00  0.00     0.079 H 
ATOM      5  H13 6P2 d   1      17.066 -21.149  14.967  0.00  0.00     0.079 H 
ENDROOT
BRANCH   2   6
ATOM      6  C16 6P2 d   1      16.560 -21.983  11.761  0.00  0.00    -0.036 A 
ATOM      7  C17 6P2 d   1      17.058 -21.748  10.486  0.00  0.00    -0.072 A 
ATOM      8  C18 6P2 d   1      17.358 -22.814   9.649  0.00  0.00    -0.050 A 
ATOM      9  H6  6P2 d   1      17.213 -20.731  10.144  0.00  0.00     0.084 H 
ATOM     10  C19 6P2 d   1      17.151 -24.115  10.100  0.00  0.00     0.068 A 
ATOM     11  H7  6P2 d   1      17.750 -22.635   8.654  0.00  0.00     0.087 H 
ATOM     12  C20 6P2 d   1      16.639 -24.352  11.376  0.00  0.00    -0.050 A 
ATOM     13  C21 6P2 d   1      16.337 -23.280  12.211  0.00  0.00    -0.072 A 
ATOM     14  H8  6P2 d   1      16.477 -25.368  11.716  0.00  0.00     0.087 H 
ATOM     15  H9  6P2 d   1      15.932 -23.454  13.201  0.00  0.00     0.084 H 
BRANCH  10  16
ATOM     16  O22 6P2 d   1      17.452 -25.177   9.278  0.00  0.00    -0.356 OA
BRANCH  16  17
ATOM     17  C23 6P2 d   1      17.087 -26.451   9.677  0.00  0.00     0.010 C 
ATOM     18  H10 6P2 d   1      17.399 -27.178   8.913  0.00  0.00     0.066 H 
ATOM     19  H11 6P2 d   1      15.995 -26.497   9.803  0.00  0.00     0.066 H 
ATOM     20  H12 6P2 d   1      17.577 -26.691  10.632  0.00  0.00     0.066 H 
ENDBRANCH  16  17
ENDBRANCH  10  16
ENDBRANCH   2   6
BRANCH   2  21
ATOM     21  C14 6P2 d   1      14.795 -20.385  12.664  0.00  0.00     0.077 A 
ATOM     22  C15 6P2 d   1      13.840 -20.684  11.712  0.00  0.00    -0.027 A 
ATOM     23  C11 6P2 d   1      12.674 -20.069  12.107  0.00  0.00     0.071 A 
ATOM     24  H5  6P2 d   1      13.983 -21.291  10.819  0.00  0.00     0.090 H 
ATOM     25  N12 6P2 d   1      12.912 -19.425  13.285  0.00  0.00    -0.277 N 
ATOM     26  N13 6P2 d   1      14.229 -19.615  13.613  0.00  0.00    -0.177 NA
ATOM     27  H17 6P2 d   1      12.223 -18.890  13.832  0.00  0.00     0.189 HD
BRANCH  23  28
ATOM     28  C05 6P2 d   1      11.366 -20.105  11.393  0.00  0.00     0.055 A 
ATOM     29  C06 6P2 d   1      10.385 -19.038  11.461  0.00  0.00     0.046 A 
ATOM     30  N07 6P2 d   1       9.174 -19.464  10.581  0.00  0.00    -0.268 NA
ATOM     31  C08 6P2 d   1       9.430 -20.742  10.009  0.00  0.00     0.139 A 
ATOM     32  S04 6P2 d   1      10.841 -21.224  10.452  0.00  0.00    -0.089 SA
BRANCH  29  33
ATOM     33  C10 6P2 d   1      10.447 -17.755  12.216  0.00  0.00    -0.035 C 
ATOM     34  H2  6P2 d   1       9.526 -17.181  12.039  0.00  0.00     0.035 H 
ATOM     35  H3  6P2 d   1      11.314 -17.171  11.875  0.00  0.00     0.035 H 
ATOM     36  H4  6P2 d   1      10.547 -17.966  13.291  0.00  0.00     0.035 H 
ENDBRANCH  29  33
BRANCH  31  37
ATOM     37  C09 6P2 d   1       8.469 -21.445   9.103  0.00  0.00    -0.039 C 
ATOM     38  H14 6P2 d   1       7.559 -20.837   8.991  0.00  0.00     0.032 H 
ATOM     39  H15 6P2 d   1       8.207 -22.422   9.534  0.00  0.00     0.032 H 
ATOM     40  H16 6P2 d   1       8.935 -21.592   8.117  0.00  0.00     0.032 H 
ENDBRANCH  31  37
ENDBRANCH  23  28
ENDBRANCH   2  21
TORSDOF 7
