REMARK  8 active torsions:
REMARK  status: ('A' for Active; 'I' for Inactive)
REMARK    1  A    between atoms: CAU_8  and  CAO_9 
REMARK    2  A    between atoms: CAO_9  and  NAP_10 
REMARK    3  A    between atoms: NAP_10  and  CAM_11 
REMARK    4  A    between atoms: CAM_11  and  CAL_12 
REMARK    5  A    between atoms: CAL_12  and  CAN_13 
REMARK    6  A    between atoms: CAN_13  and  NAQ_14 
REMARK    7  A    between atoms: NAQ_14  and  CAV_15 
REMARK    8  A    between atoms: CAW_17  and  OAA_18 
ROOT
ATOM      1  CAL 0OU d   1      30.795   5.975  13.994  0.00  0.00    -0.028 C 
ATOM      2  H10 0OU d   1      30.396   5.739  14.992  0.00  0.00     0.037 H 
ATOM      3  H11 0OU d   1      31.846   6.287  14.083  0.00  0.00     0.037 H 
ENDROOT
BRANCH   1   4
ATOM      4  CAM 0OU d   1      29.952   7.167  13.368  0.00  0.00     0.083 C 
ATOM      5  H8  0OU d   1      29.577   6.853  12.383  0.00  0.00     0.075 H 
ATOM      6  H9  0OU d   1      29.102   7.384  14.032  0.00  0.00     0.075 H 
BRANCH   4   7
ATOM      7  NAP 0OU d   1      30.733   8.378  13.203  0.00  0.00    -0.071 N 
ATOM      8  H6  0OU d   1      31.658   8.237  13.579  0.00  0.00     0.277 HD
ATOM      9  H7  0OU d   1      30.799   8.605  12.223  0.00  0.00     0.277 HD
BRANCH   7  10
ATOM     10  CAO 0OU d   1      30.081   9.467  13.912  0.00  0.00     0.105 C 
ATOM     11  H4  0OU d   1      29.675   9.085  14.860  0.00  0.00     0.083 H 
ATOM     12  H5  0OU d   1      30.822  10.253  14.121  0.00  0.00     0.083 H 
BRANCH  10  13
ATOM     13  CAU 0OU d   1      28.949  10.059  13.091  0.00  0.00    -0.029 A 
ATOM     14  CAI 0OU d   1      28.959   9.964  11.714  0.00  0.00    -0.054 A 
ATOM     15  CAS 0OU d   1      27.906  10.510  10.951  0.00  0.00     0.036 A 
ATOM     16  H1  0OU d   1      29.782   9.466  11.215  0.00  0.00     0.086 H 
ATOM     17 CL1  0OU d   1      27.929  10.383   9.241  0.00  0.00    -0.084 Cl
ATOM     18  CAH 0OU d   1      26.854  11.154  11.585  0.00  0.00    -0.041 A 
ATOM     19  CAT 0OU d   1      26.837  11.253  12.951  0.00  0.00     0.036 A 
ATOM     20  H2  0OU d   1      26.046  11.579  11.000  0.00  0.00     0.088 H 
ATOM     21 CL2  0OU d   1      25.501  12.069  13.755  0.00  0.00    -0.084 Cl
ATOM     22  CAJ 0OU d   1      27.899  10.699  13.723  0.00  0.00    -0.054 A 
ATOM     23  H3  0OU d   1      27.884  10.779  14.804  0.00  0.00     0.086 H 
ENDBRANCH  10  13
ENDBRANCH   7  10
ENDBRANCH   4   7
ENDBRANCH   1   4
BRANCH   1  24
ATOM     24  CAN 0OU d   1      30.718   4.722  13.115  0.00  0.00    -0.004 C 
ATOM     25  H12 0OU d   1      31.348   3.934  13.553  0.00  0.00     0.064 H 
ATOM     26  H13 0OU d   1      31.083   4.965  12.106  0.00  0.00     0.064 H 
BRANCH  24  27
ATOM     27  NAQ 0OU d   1      29.340   4.240  13.024  0.00  0.00    -0.375 N 
ATOM     28  H14 0OU d   1      28.683   4.428  13.794  0.00  0.00     0.161 HD
BRANCH  27  29
ATOM     29  CAV 0OU d   1      28.894   3.508  11.872  0.00  0.00     0.126 A 
ATOM     30  CAK 0OU d   1      29.787   2.764  11.129  0.00  0.00    -0.006 A 
ATOM     31  CAW 0OU d   1      29.352   2.052  10.009  0.00  0.00     0.081 A 
ATOM     32  H15 0OU d   1      30.832   2.732  11.416  0.00  0.00     0.093 H 
ATOM     33  CAY 0OU d   1      27.988   2.097   9.636  0.00  0.00     0.026 A 
ATOM     34  CAG 0OU d   1      27.500   1.339   8.431  0.00  0.00    -0.068 A 
ATOM     35  CAX 0OU d   1      27.131   2.824  10.368  0.00  0.00     0.072 A 
ATOM     36  CAE 0OU d   1      26.161   1.384   8.069  0.00  0.00    -0.082 A 
ATOM     37  H17 0OU d   1      28.198   0.755   7.843  0.00  0.00     0.085 H 
ATOM     38  CAD 0OU d   1      25.258   2.142   8.825  0.00  0.00    -0.081 A 
ATOM     39  H18 0OU d   1      25.814   0.833   7.202  0.00  0.00     0.083 H 
ATOM     40  CAF 0OU d   1      25.731   2.878   9.995  0.00  0.00    -0.054 A 
ATOM     41  H19 0OU d   1      24.212   2.182   8.543  0.00  0.00     0.083 H 
ATOM     42  H20 0OU d   1      25.035   3.464  10.584  0.00  0.00     0.087 H 
ATOM     43  NAR 0OU d   1      27.593   3.551  11.519  0.00  0.00    -0.231 NA
BRANCH  31  44
ATOM     44  OAA 0OU d   1      30.238   1.320   9.281  0.00  0.00    -0.360 OA
ATOM     45  H16 0OU d   1      29.784   0.901   8.559  0.00  0.00     0.217 HD
ENDBRANCH  31  44
ENDBRANCH  27  29
ENDBRANCH  24  27
ENDBRANCH   1  24
TORSDOF 8
