REMARK  9 active torsions:
REMARK  status: ('A' for Active; 'I' for Inactive)
REMARK    1  A    between atoms: CAA_1  and  OAS_2 
REMARK    2  A    between atoms: OAS_2  and  CAX_3 
REMARK    3  A    between atoms: CAV_9  and  CAO_10 
REMARK    4  A    between atoms: CAO_10  and  NAP_11 
REMARK    5  A    between atoms: NAP_11  and  CAM_12 
REMARK    6  A    between atoms: CAM_12  and  CAL_13 
REMARK    7  A    between atoms: CAL_13  and  CAN_14 
REMARK    8  A    between atoms: CAN_14  and  NAQ_15 
REMARK       I    between atoms: NAQ_15  and  CAT_16 
REMARK       I    between atoms: CAT_16  and  NAR_18 
REMARK    9  A    between atoms: NAR_18  and  CAW_19 
ROOT
ATOM      1  CAM 415 d   1      30.675   7.601  14.423  0.00  0.00     0.083 C 
ATOM      2  H11 415 d   1      30.532   6.826  15.191  0.00  0.00     0.075 H 
ATOM      3  H12 415 d   1      31.594   8.166  14.638  0.00  0.00     0.075 H 
ENDROOT
BRANCH   1   4
ATOM      4  NAP 415 d   1      29.578   8.482  14.451  0.00  0.00    -0.071 N 
ATOM      5  H9  415 d   1      28.905   8.166  13.770  0.00  0.00     0.277 HD
ATOM      6  H10 415 d   1      29.169   8.444  15.371  0.00  0.00     0.277 HD
BRANCH   4   7
ATOM      7  CAO 415 d   1      29.900   9.866  14.158  0.00  0.00     0.105 C 
ATOM      8  H7  415 d   1      29.959  10.437  15.096  0.00  0.00     0.083 H 
ATOM      9  H8  415 d   1      30.867   9.917  13.636  0.00  0.00     0.083 H 
BRANCH   7  10
ATOM     10  CAV 415 d   1      28.812  10.451  13.273  0.00  0.00    -0.029 A 
ATOM     11  CAK 415 d   1      29.016  10.476  11.845  0.00  0.00    -0.043 A 
ATOM     12  CAX 415 d   1      28.047  11.002  11.034  0.00  0.00     0.070 A 
ATOM     13  H4  415 d   1      29.930  10.081  11.417  0.00  0.00     0.088 H 
ATOM     14  CAJ 415 d   1      26.830  11.510  11.588  0.00  0.00    -0.030 A 
ATOM     15  CAU 415 d   1      26.637  11.482  12.968  0.00  0.00     0.037 A 
ATOM     16  H5  415 d   1      26.062  11.914  10.938  0.00  0.00     0.090 H 
ATOM     17 CLC  415 d   1      25.175  12.108  13.593  0.00  0.00    -0.084 Cl
ATOM     18  CAI 415 d   1      27.644  10.944  13.815  0.00  0.00    -0.054 A 
ATOM     19  H6  415 d   1      27.493  10.921  14.888  0.00  0.00     0.086 H 
BRANCH  12  20
ATOM     20  OAS 415 d   1      28.229  11.023   9.653  0.00  0.00    -0.356 OA
BRANCH  20  21
ATOM     21  CAA 415 d   1      27.530   9.968   9.010  0.00  0.00     0.010 C 
ATOM     22  H1  415 d   1      27.701  10.023   7.925  0.00  0.00     0.066 H 
ATOM     23  H2  415 d   1      26.454  10.062   9.217  0.00  0.00     0.066 H 
ATOM     24  H3  415 d   1      27.894   9.002   9.390  0.00  0.00     0.066 H 
ENDBRANCH  20  21
ENDBRANCH  12  20
ENDBRANCH   7  10
ENDBRANCH   4   7
ENDBRANCH   1   4
BRANCH   1  25
ATOM     25  CAL 415 d   1      30.817   6.902  13.000  0.00  0.00    -0.028 C 
ATOM     26  H13 415 d   1      31.691   7.329  12.486  0.00  0.00     0.037 H 
ATOM     27  H14 415 d   1      29.909   7.111  12.415  0.00  0.00     0.037 H 
BRANCH  25  28
ATOM     28  CAN 415 d   1      31.003   5.349  13.093  0.00  0.00    -0.002 C 
ATOM     29  H15 415 d   1      31.378   5.092  14.095  0.00  0.00     0.064 H 
ATOM     30  H16 415 d   1      31.733   5.029  12.335  0.00  0.00     0.064 H 
BRANCH  28  31
ATOM     31  NAQ 415 d   1      29.792   4.681  12.873  0.00  0.00    -0.343 N 
ATOM     32  CAT 415 d   1      29.441   4.059  11.641  0.00  0.00     0.320 C 
ATOM     33  OAB 415 d   1      30.233   4.092  10.652  0.00  0.00    -0.247 OA
ATOM     34  NAR 415 d   1      28.142   3.392  11.558  0.00  0.00    -0.309 N 
ATOM     35  H18 415 d   1      27.565   3.390  12.375  0.00  0.00     0.170 HD
ATOM     36  H17 415 d   1      29.135   4.638  13.626  0.00  0.00     0.164 HD
BRANCH  34  37
ATOM     37  CAW 415 d   1      27.642   2.741  10.383  0.00  0.00     0.036 A 
ATOM     38  CAG 415 d   1      26.299   2.871  10.107  0.00  0.00    -0.057 A 
ATOM     39  CAE 415 d   1      25.720   2.251   8.939  0.00  0.00    -0.081 A 
ATOM     40  H19 415 d   1      25.669   3.446  10.775  0.00  0.00     0.086 H 
ATOM     41  CAD 415 d   1      26.528   1.507   8.072  0.00  0.00    -0.083 A 
ATOM     42  H20 415 d   1      24.661   2.362   8.734  0.00  0.00     0.083 H 
ATOM     43  CAF 415 d   1      27.896   1.370   8.343  0.00  0.00    -0.081 A 
ATOM     44  H21 415 d   1      26.098   1.039   7.194  0.00  0.00     0.083 H 
ATOM     45  CAH 415 d   1      28.465   1.977   9.495  0.00  0.00    -0.057 A 
ATOM     46  H22 415 d   1      28.524   0.798   7.670  0.00  0.00     0.083 H 
ATOM     47  H23 415 d   1      29.523   1.861   9.701  0.00  0.00     0.086 H 
ENDBRANCH  34  37
ENDBRANCH  28  31
ENDBRANCH  25  28
ENDBRANCH   1  25
TORSDOF 9
