REMARK  4 active torsions:
REMARK  status: ('A' for Active; 'I' for Inactive)
REMARK    1  A    between atoms: C27_8  and  C28_9 
REMARK    2  A    between atoms: N26_29  and  C27_8 
REMARK    3  A    between atoms: C24_13  and  C23_14 
REMARK       I    between atoms: C24_13  and  N26_29 
REMARK    4  A    between atoms: C02_16  and  N01_15 
ROOT
ATOM      1  C14 K0X d   1       3.241   1.626  22.812  0.00  0.00    -0.064 C 
ATOM      2  C15 K0X d   1       4.772   1.811  22.674  0.00  0.00    -0.064 C 
ATOM      3  C16 K0X d   1       5.332   3.141  23.236  0.00  0.00    -0.050 C 
ATOM      4  C17 K0X d   1       4.365   4.186  23.852  0.00  0.00    -0.005 C 
ATOM      5  C13 K0X d   1       2.527   0.841  21.711  0.00  0.00    -0.042 C 
ATOM      6  C12 K0X d   1       3.389  -0.166  20.934  0.00  0.00     0.086 C 
ATOM      7  C10 K0X d   1       2.437   0.085  18.525  0.00  0.00     0.338 C 
ATOM      8  C19 K0X d   1       5.115   5.985  22.271  0.00  0.00     0.248 C 
ATOM      9  C22 K0X d   1       1.515  -0.020  16.286  0.00  0.00     0.104 C 
ATOM     10  C23 K0X d   1       2.109   1.292  16.267  0.00  0.00     0.103 C 
ATOM     11  C02 K0X d   1       4.861   7.039  21.176  0.00  0.00     0.176 C 
ATOM     12  C03 K0X d   1       3.468   6.775  20.507  0.00  0.00    -0.030 C 
ATOM     13  C04 K0X d   1       3.406   5.743  19.327  0.00  0.00    -0.061 C 
ATOM     14  C05 K0X d   1       3.963   4.286  19.514  0.00  0.00    -0.050 C 
ATOM     15  C06 K0X d   1       4.562   3.625  18.244  0.00  0.00    -0.006 C 
ATOM     16  N07 K0X d   1       3.576   3.132  17.229  0.00  0.00    -0.378 N 
ATOM     17  C08 K0X d   1       3.068   1.735  17.179  0.00  0.00     0.113 C 
ATOM     18  N09 K0X d   1       3.328   0.932  18.148  0.00  0.00    -0.218 NA
ATOM     19  N11 K0X d   1       2.627  -0.683  19.780  0.00  0.00    -0.027 N 
ATOM     20  N18 K0X d   1       4.031   5.198  22.846  0.00  0.00    -0.359 N 
ATOM     21  O20 K0X d   1       6.219   5.737  22.649  0.00  0.00    -0.271 OA
ATOM     22  N21 K0X d   1       2.016  -0.646  17.439  0.00  0.00    -0.026 N 
ATOM     23  H1  K0X d   1       2.789   2.628  22.849  0.00  0.00     0.033 H 
ATOM     24  H2  K0X d   1       3.056   1.105  23.763  0.00  0.00     0.033 H 
ATOM     25  H3  K0X d   1       5.025   1.761  21.605  0.00  0.00     0.033 H 
ATOM     26  H4  K0X d   1       5.263   0.984  23.207  0.00  0.00     0.033 H 
ATOM     27  H5  K0X d   1       5.856   3.641  22.408  0.00  0.00     0.035 H 
ATOM     28  H6  K0X d   1       6.056   2.876  24.021  0.00  0.00     0.035 H 
ATOM     29  H7  K0X d   1       4.849   4.671  24.712  0.00  0.00     0.064 H 
ATOM     30  H8  K0X d   1       3.445   3.683  24.185  0.00  0.00     0.064 H 
ATOM     31  H9  K0X d   1       2.123   1.566  20.989  0.00  0.00     0.035 H 
ATOM     32  H10 K0X d   1       1.699   0.286  22.176  0.00  0.00     0.035 H 
ATOM     33  H11 K0X d   1       3.663  -1.001  21.596  0.00  0.00     0.075 H 
ATOM     34  H12 K0X d   1       4.302   0.333  20.576  0.00  0.00     0.075 H 
ATOM     35  H13 K0X d   1       1.574   0.720  18.772  0.00  0.00     0.169 H 
ATOM     36  H17 K0X d   1       1.803  -0.585  15.387  0.00  0.00     0.077 H 
ATOM     37  H18 K0X d   1       0.419   0.056  16.336  0.00  0.00     0.077 H 
ATOM     38  H19 K0X d   1       1.279   1.769  16.809  0.00  0.00     0.069 H 
ATOM     39  H23 K0X d   1       4.838   8.031  21.651  0.00  0.00     0.099 H 
ATOM     40  H24 K0X d   1       3.102   7.738  20.120  0.00  0.00     0.036 H 
ATOM     41  H25 K0X d   1       2.789   6.414  21.294  0.00  0.00     0.036 H 
ATOM     42  H26 K0X d   1       3.962   6.188  18.489  0.00  0.00     0.033 H 
ATOM     43  H27 K0X d   1       2.346   5.642  19.051  0.00  0.00     0.033 H 
ATOM     44  H28 K0X d   1       3.137   3.651  19.867  0.00  0.00     0.035 H 
ATOM     45  H29 K0X d   1       4.752   4.322  20.280  0.00  0.00     0.035 H 
ATOM     46  H30 K0X d   1       5.169   2.767  18.567  0.00  0.00     0.064 H 
ATOM     47  H31 K0X d   1       5.208   4.367  17.752  0.00  0.00     0.064 H 
ATOM     48  H32 K0X d   1       3.230   3.799  16.525  0.00  0.00     0.160 HD
ATOM     49  H33 K0X d   1       1.701  -0.882  20.126  0.00  0.00     0.281 HD
ATOM     50  H34 K0X d   1       3.079  -1.544  19.513  0.00  0.00     0.281 HD
ATOM     51  H35 K0X d   1       3.084   5.345  22.561  0.00  0.00     0.162 HD
ATOM     52  H36 K0X d   1       1.286  -1.256  17.772  0.00  0.00     0.281 HD
ATOM     53  H37 K0X d   1       2.806  -1.198  17.143  0.00  0.00     0.281 HD
ENDROOT
BRANCH  10  54
ATOM     54  C24 K0X d   1       1.887   2.078  14.940  0.00  0.00     0.231 C 
ATOM     55  O25 K0X d   1       2.580   2.991  14.631  0.00  0.00    -0.273 OA
ATOM     56  N26 K0X d   1       0.795   1.697  14.029  0.00  0.00    -0.356 N 
ATOM     57  H38 K0X d   1       0.177   0.945  14.259  0.00  0.00     0.162 HD
BRANCH  56  58
ATOM     58  C27 K0X d   1       0.630   2.455  12.758  0.00  0.00     0.019 C 
ATOM     59  H14 K0X d   1      -0.413   2.795  12.672  0.00  0.00     0.071 H 
ATOM     60  H15 K0X d   1       1.300   3.327  12.767  0.00  0.00     0.071 H 
BRANCH  58  61
ATOM     61  C28 K0X d   1       0.982   1.544  11.524  0.00  0.00    -0.040 A 
ATOM     62  C29 K0X d   1       2.271   1.009  11.334  0.00  0.00    -0.072 A 
ATOM     63  C30 K0X d   1       2.541   0.195  10.210  0.00  0.00    -0.045 A 
ATOM     64  H16 K0X d   1       3.057   1.222  12.050  0.00  0.00     0.084 H 
ATOM     65  C31 K0X d   1       1.557  -0.083   9.265  0.00  0.00     0.116 A 
ATOM     66  H39 K0X d   1       3.534  -0.221  10.081  0.00  0.00     0.088 H 
ATOM     67  F32 K0X d   1       1.846  -0.877   8.169  0.00  0.00    -0.206 F 
ATOM     68  C33 K0X d   1       0.292   0.445   9.445  0.00  0.00    -0.045 A 
ATOM     69  C34 K0X d   1       0.008   1.252  10.568  0.00  0.00    -0.072 A 
ATOM     70  H40 K0X d   1      -0.486   0.238   8.720  0.00  0.00     0.088 H 
ATOM     71  H41 K0X d   1      -0.991   1.655  10.691  0.00  0.00     0.084 H 
ENDBRANCH  58  61
ENDBRANCH  56  58
ENDBRANCH  10  54
BRANCH  11  72
ATOM     72  N01 K0X d   1       5.927   7.043  20.163  0.00  0.00    -0.067 N 
ATOM     73  H20 K0X d   1       5.726   7.743  19.466  0.00  0.00     0.275 HD
ATOM     74  H21 K0X d   1       5.977   6.137  19.724  0.00  0.00     0.275 HD
ATOM     75  H22 K0X d   1       6.809   7.252  20.604  0.00  0.00     0.275 HD
ENDBRANCH  11  72
TORSDOF 4
