REMARK  10 active torsions:
REMARK  status: ('A' for Active; 'I' for Inactive)
REMARK    1  A    between atoms: C21_11  and  C15_8 
REMARK    2  A    between atoms: C17_9  and  C27_27 
REMARK    3  A    between atoms: C20_10  and  C14_21 
REMARK    4  A    between atoms: C16_22  and  C22_12 
REMARK    5  A    between atoms: C27_27  and  C24_13 
REMARK    6  A    between atoms: S34_34  and  C26_14 
REMARK    7  A    between atoms: C18_23  and  N29_29 
REMARK    8  A    between atoms: C19_24  and  S34_34 
REMARK    9  A    between atoms: C27_27  and  C23_25 
REMARK   10  A    between atoms: C27_27  and  C25_26 
ROOT
ATOM      1  C13 6Q7 d   1      51.706  -8.040  13.808  0.00  0.00    -0.024 A 
ATOM      2  C20 6Q7 d   1      51.791  -8.349  12.428  0.00  0.00     0.090 A 
ATOM      3  C21 6Q7 d   1      52.604  -8.891  14.420  0.00  0.00     0.071 A 
ATOM      4  N28 6Q7 d   1      52.687  -9.322  12.224  0.00  0.00    -0.166 NA
ATOM      5  N29 6Q7 d   1      53.182  -9.636  13.424  0.00  0.00    -0.233 N 
ATOM      6  H7  6Q7 d   1      51.071  -7.294  14.283  0.00  0.00     0.090 H 
ENDROOT
BRANCH   3   7
ATOM      7  C15 6Q7 d   1      52.887  -9.059  15.819  0.00  0.00    -0.007 A 
ATOM      8  C2  6Q7 d   1      53.052  -7.934  16.605  0.00  0.00    -0.071 A 
ATOM      9  C1  6Q7 d   1      53.304  -8.083  17.955  0.00  0.00    -0.082 A 
ATOM     10  H15 6Q7 d   1      52.984  -6.945  16.166  0.00  0.00     0.084 H 
ATOM     11  C7  6Q7 d   1      53.374  -9.354  18.493  0.00  0.00    -0.076 A 
ATOM     12  H14 6Q7 d   1      53.445  -7.213  18.585  0.00  0.00     0.083 H 
ATOM     13  C17 6Q7 d   1      53.204 -10.497  17.729  0.00  0.00    -0.050 A 
ATOM     14  H4  6Q7 d   1      53.569  -9.461  19.554  0.00  0.00     0.084 H 
ATOM     15  C12 6Q7 d   1      52.949 -10.331  16.375  0.00  0.00    -0.064 A 
ATOM     16  H19 6Q7 d   1      52.797 -11.201  15.746  0.00  0.00     0.085 H 
BRANCH  13  17
ATOM     17  C27 6Q7 d   1      53.253 -11.866  18.383  0.00  0.00    -0.024 C 
BRANCH  17  18
ATOM     18  C24 6Q7 d   1      54.668 -12.339  18.570  0.00  0.00    -0.066 C 
ATOM     19  H8  6Q7 d   1      54.663 -13.331  19.045  0.00  0.00     0.028 H 
ATOM     20  H9  6Q7 d   1      55.211 -11.628  19.211  0.00  0.00     0.028 H 
ATOM     21  H10 6Q7 d   1      55.165 -12.404  17.591  0.00  0.00     0.028 H 
ENDBRANCH  17  18
BRANCH  17  22
ATOM     22  C23 6Q7 d   1      52.645 -11.826  19.771  0.00  0.00    -0.066 C 
ATOM     23  H20 6Q7 d   1      51.601 -11.485  19.704  0.00  0.00     0.028 H 
ATOM     24  H21 6Q7 d   1      53.218 -11.131  20.402  0.00  0.00     0.028 H 
ATOM     25  H22 6Q7 d   1      52.674 -12.833  20.213  0.00  0.00     0.028 H 
ENDBRANCH  17  22
BRANCH  17  26
ATOM     26  C25 6Q7 d   1      52.477 -12.919  17.616  0.00  0.00    -0.066 C 
ATOM     27  H23 6Q7 d   1      52.875 -12.995  16.593  0.00  0.00     0.028 H 
ATOM     28  H24 6Q7 d   1      51.415 -12.635  17.576  0.00  0.00     0.028 H 
ATOM     29  H25 6Q7 d   1      52.578 -13.890  18.122  0.00  0.00     0.028 H 
ENDBRANCH  17  26
ENDBRANCH  13  17
ENDBRANCH   3   7
BRANCH   5  30
ATOM     30  C18 6Q7 d   1      54.237 -10.570  13.500  0.00  0.00     0.059 A 
ATOM     31  C8  6Q7 d   1      55.446 -10.196  14.065  0.00  0.00    -0.054 A 
ATOM     32  C10 6Q7 d   1      56.460 -11.140  14.159  0.00  0.00    -0.060 A 
ATOM     33  H5  6Q7 d   1      55.597  -9.185  14.427  0.00  0.00     0.087 H 
ATOM     34  C19 6Q7 d   1      56.239 -12.411  13.665  0.00  0.00     0.059 A 
ATOM     35  H6  6Q7 d   1      57.410 -10.883  14.613  0.00  0.00     0.085 H 
ATOM     36  C11 6Q7 d   1      55.038 -12.791  13.095  0.00  0.00    -0.060 A 
ATOM     37  C9  6Q7 d   1      54.025 -11.854  13.025  0.00  0.00    -0.054 A 
ATOM     38  H18 6Q7 d   1      54.895 -13.796  12.714  0.00  0.00     0.085 H 
ATOM     39  H17 6Q7 d   1      53.065 -12.123  12.599  0.00  0.00     0.087 H 
BRANCH  34  40
ATOM     40  S34 6Q7 d   1      57.563 -13.607  13.770  0.00  0.00     0.171 S 
ATOM     41  O31 6Q7 d   1      57.181 -14.791  13.029  0.00  0.00    -0.223 OA
ATOM     42  O32 6Q7 d   1      58.780 -12.871  13.518  0.00  0.00    -0.223 OA
BRANCH  40  43
ATOM     43  C26 6Q7 d   1      57.453 -14.065  15.471  0.00  0.00     0.020 C 
ATOM     44  H11 6Q7 d   1      58.224 -14.816  15.699  0.00  0.00     0.049 H 
ATOM     45  H12 6Q7 d   1      56.458 -14.488  15.673  0.00  0.00     0.049 H 
ATOM     46  H13 6Q7 d   1      57.609 -13.177  16.101  0.00  0.00     0.049 H 
ENDBRANCH  40  43
ENDBRANCH  34  40
ENDBRANCH   5  30
BRANCH   2  47
ATOM     47  C14 6Q7 d   1      51.037  -7.824  11.320  0.00  0.00    -0.006 A 
ATOM     48  C4  6Q7 d   1      50.890  -8.595  10.176  0.00  0.00    -0.070 A 
ATOM     49  C6  6Q7 d   1      50.157  -8.115   9.107  0.00  0.00    -0.066 A 
ATOM     50  H1  6Q7 d   1      51.350  -9.575  10.120  0.00  0.00     0.084 H 
ATOM     51  C16 6Q7 d   1      49.578  -6.863   9.185  0.00  0.00     0.040 A 
ATOM     52  H3  6Q7 d   1      50.037  -8.717   8.213  0.00  0.00     0.085 H 
ATOM     53  C5  6Q7 d   1      49.741  -6.097  10.326  0.00  0.00    -0.066 A 
ATOM     54  C3  6Q7 d   1      50.474  -6.567  11.404  0.00  0.00    -0.070 A 
ATOM     55  H2  6Q7 d   1      49.288  -5.114  10.377  0.00  0.00     0.085 H 
ATOM     56  H16 6Q7 d   1      50.602  -5.961  12.293  0.00  0.00     0.084 H 
BRANCH  51  57
ATOM     57  C22 6Q7 d   1      48.754  -6.339   8.051  0.00  0.00     0.209 C 
ATOM     58  O30 6Q7 d   1      48.374  -5.140   8.126  0.00  0.00    -0.644 OA
ATOM     59  O33 6Q7 d   1      48.466  -7.143   7.125  0.00  0.00    -0.644 OA
ENDBRANCH  51  57
ENDBRANCH   2  47
TORSDOF 10
