REMARK  8 active torsions:
REMARK  status: ('A' for Active; 'I' for Inactive)
REMARK    1  A    between atoms: C12_6  and  C13_12 
REMARK    2  A    between atoms: C2_21  and  C12_6 
REMARK    3  A    between atoms: C1_23  and  C6_7 
REMARK    4  A    between atoms: C4_26  and  C5_8 
REMARK    5  A    between atoms: C17_17  and  C20_9 
REMARK    6  A    between atoms: C3_10  and  N2_13 
REMARK    7  A    between atoms: N2_13  and  C14_14 
REMARK    8  A    between atoms: N3_25  and  C4_26 
ROOT
ATOM      1  C3  6PT d   1      13.637   3.175  68.759  0.00  0.00     0.119 A 
ATOM      2  C21 6PT d   1      14.067   2.960  70.073  0.00  0.00     0.291 A 
ATOM      3  O4  6PT d   1      15.264   2.725  70.347  0.00  0.00    -0.264 OA
ATOM      4  C2  6PT d   1      12.276   3.462  68.537  0.00  0.00     0.073 A 
ATOM      5  C1  6PT d   1      11.420   3.492  69.641  0.00  0.00     0.103 A 
ATOM      6  N1  6PT d   1      11.892   3.291  70.898  0.00  0.00    -0.168 NA
ATOM      7  N3  6PT d   1      13.246   3.012  71.101  0.00  0.00    -0.233 N 
ENDROOT
BRANCH   1   8
ATOM      8  N2  6PT d   1      14.622   3.051  67.811  0.00  0.00    -0.351 N 
ATOM      9  H12 6PT d   1      15.527   2.725  68.180  0.00  0.00     0.166 HD
BRANCH   8  10
ATOM     10  C14 6PT d   1      14.616   3.288  66.434  0.00  0.00     0.032 A 
ATOM     11  C15 6PT d   1      14.076   4.518  66.059  0.00  0.00    -0.056 A 
ATOM     12  C16 6PT d   1      14.036   4.909  64.732  0.00  0.00    -0.064 A 
ATOM     13  H13 6PT d   1      13.680   5.180  66.821  0.00  0.00     0.086 H 
ATOM     14  C17 6PT d   1      14.602   4.101  63.766  0.00  0.00     0.041 A 
ATOM     15  H5  6PT d   1      13.563   5.844  64.453  0.00  0.00     0.085 H 
ATOM     16  C18 6PT d   1      15.197   2.895  64.128  0.00  0.00    -0.064 A 
ATOM     17  C19 6PT d   1      15.226   2.492  65.465  0.00  0.00    -0.056 A 
ATOM     18  H1  6PT d   1      15.641   2.264  63.366  0.00  0.00     0.085 H 
ATOM     19  H14 6PT d   1      15.719   1.568  65.747  0.00  0.00     0.086 H 
BRANCH  14  20
ATOM     20  C20 6PT d   1      14.587   4.557  62.334  0.00  0.00     0.209 C 
ATOM     21  O2  6PT d   1      15.197   3.852  61.501  0.00  0.00    -0.644 OA
ATOM     22  O3  6PT d   1      14.013   5.631  62.005  0.00  0.00    -0.644 OA
ENDBRANCH  14  20
ENDBRANCH   8  10
ENDBRANCH   1   8
BRANCH   4  23
ATOM     23  C12 6PT d   1      11.649   3.650  67.167  0.00  0.00     0.160 C 
ATOM     24  O1  6PT d   1      11.675   2.687  66.378  0.00  0.00    -0.293 OA
BRANCH  23  25
ATOM     25  C13 6PT d   1      10.922   4.909  66.800  0.00  0.00    -0.016 C 
ATOM     26  H9  6PT d   1      10.551   4.830  65.767  0.00  0.00     0.038 H 
ATOM     27  H10 6PT d   1      11.608   5.765  66.879  0.00  0.00     0.038 H 
ATOM     28  H11 6PT d   1      10.073   5.055  67.484  0.00  0.00     0.038 H 
ENDBRANCH  23  25
ENDBRANCH   4  23
BRANCH   7  29
ATOM     29  C4  6PT d   1      13.815   2.780  72.433  0.00  0.00     0.017 C 
ATOM     30  H15 6PT d   1      13.061   2.282  73.060  0.00  0.00     0.067 H 
ATOM     31  H16 6PT d   1      14.697   2.130  72.335  0.00  0.00     0.067 H 
BRANCH  29  32
ATOM     32  C5  6PT d   1      14.232   4.074  73.103  0.00  0.00    -0.059 C 
ATOM     33  H6  6PT d   1      14.652   3.854  74.096  0.00  0.00     0.029 H 
ATOM     34  H7  6PT d   1      13.355   4.729  73.213  0.00  0.00     0.029 H 
ATOM     35  H8  6PT d   1      14.992   4.578  72.487  0.00  0.00     0.029 H 
ENDBRANCH  29  32
ENDBRANCH   7  29
BRANCH   5  36
ATOM     36  C6  6PT d   1       9.970   3.811  69.508  0.00  0.00    -0.005 A 
ATOM     37  C11 6PT d   1       9.015   2.935  69.042  0.00  0.00    -0.071 A 
ATOM     38  C10 6PT d   1       7.685   3.340  68.983  0.00  0.00    -0.082 A 
ATOM     39  H4  6PT d   1       9.297   1.938  68.724  0.00  0.00     0.084 H 
ATOM     40  C9  6PT d   1       7.317   4.626  69.382  0.00  0.00    -0.083 A 
ATOM     41  H3  6PT d   1       6.929   2.651  68.624  0.00  0.00     0.083 H 
ATOM     42  C8  6PT d   1       8.277   5.517  69.855  0.00  0.00    -0.082 A 
ATOM     43  H2  6PT d   1       6.279   4.933  69.323  0.00  0.00     0.083 H 
ATOM     44  C7  6PT d   1       9.599   5.097  69.907  0.00  0.00    -0.071 A 
ATOM     45  H17 6PT d   1       7.999   6.515  70.175  0.00  0.00     0.083 H 
ATOM     46  H18 6PT d   1      10.360   5.782  70.265  0.00  0.00     0.084 H 
ENDBRANCH   5  36
TORSDOF 8
