REMARK  16 active torsions:
REMARK  status: ('A' for Active; 'I' for Inactive)
REMARK    1  A    between atoms: C2_2  and  C1_1 
REMARK    2  A    between atoms: C1_1  and  N1_11 
REMARK    3  A    between atoms: C1_1  and  C3_13 
REMARK       I    between atoms: N5_19  and  C2_2 
REMARK    4  A    between atoms: C3_13  and  C4_3 
REMARK    5  A    between atoms: C4_3  and  C5_14 
REMARK       I    between atoms: N2_15  and  C6_4 
REMARK       I    between atoms: C6_4  and  N3_16 
REMARK    6  A    between atoms: C8_5  and  N5_19 
REMARK    7  A    between atoms: O5_35  and  C23_10 
REMARK    8  A    between atoms: C5_14  and  N2_15 
REMARK    9  A    between atoms: C7_18  and  C11_23 
REMARK       I    between atoms: N7_25  and  C7_18 
REMARK   10  A    between atoms: C9_21  and  N6_22 
REMARK   11  A    between atoms: C14_26  and  N7_25 
REMARK   12  A    between atoms: C14_26  and  C15_27 
REMARK   13  A    between atoms: C16_29  and  C14_26 
REMARK   14  A    between atoms: C15_27  and  O5_35 
REMARK   15  A    between atoms: C16_29  and  C17_30 
REMARK   16  A    between atoms: C22_33  and  O4_34 
ROOT
ATOM      1  C8  6PX d   1      21.865   2.677   2.235  0.00  0.00     0.062 A 
ATOM      2  C10 6PX d   1      24.464   1.489   2.586  0.00  0.00    -0.065 A 
ATOM      3  C13 6PX d   1      22.073   1.291   2.057  0.00  0.00    -0.040 A 
ATOM      4  C9  6PX d   1      22.951   3.473   2.595  0.00  0.00     0.052 A 
ATOM      5  C11 6PX d   1      23.355   0.716   2.240  0.00  0.00     0.034 A 
ATOM      6  C12 6PX d   1      24.223   2.874   2.754  0.00  0.00    -0.054 A 
ATOM      7  H4  6PX d   1      25.449   1.056   2.718  0.00  0.00     0.085 H 
ATOM      8  H5  6PX d   1      21.239   0.658   1.776  0.00  0.00     0.088 H 
ATOM      9  H26 6PX d   1      25.059   3.511   3.019  0.00  0.00     0.087 H 
ENDROOT
BRANCH   1  10
ATOM     10  N5  6PX d   1      20.539   3.218   2.115  0.00  0.00    -0.323 N 
ATOM     11  C2  6PX d   1      19.983   4.295   1.278  0.00  0.00     0.252 C 
ATOM     12  O1  6PX d   1      20.675   4.963   0.514  0.00  0.00    -0.271 OA
ATOM     13  H23 6PX d   1      19.867   2.781   2.713  0.00  0.00     0.169 HD
BRANCH  11  14
ATOM     14  C1  6PX d   1      18.495   4.574   1.443  0.00  0.00     0.176 C 
ATOM     15  H1  6PX d   1      18.372   5.557   1.921  0.00  0.00     0.099 H 
BRANCH  14  16
ATOM     16  N1  6PX d   1      17.857   4.658   0.185  0.00  0.00    -0.066 N 
ATOM     17  H11 6PX d   1      16.875   4.843   0.318  0.00  0.00     0.275 HD
ATOM     18  H12 6PX d   1      17.971   3.787  -0.308  0.00  0.00     0.275 HD
ATOM     19  H13 6PX d   1      18.270   5.405  -0.352  0.00  0.00     0.275 HD
ENDBRANCH  14  16
BRANCH  14  20
ATOM     20  C3  6PX d   1      17.974   3.522   2.423  0.00  0.00    -0.029 C 
ATOM     21  H14 6PX d   1      18.350   3.810   3.416  0.00  0.00     0.036 H 
ATOM     22  H15 6PX d   1      18.427   2.566   2.122  0.00  0.00     0.036 H 
BRANCH  20  23
ATOM     23  C4  6PX d   1      16.434   3.249   2.593  0.00  0.00    -0.047 C 
ATOM     24  H2  6PX d   1      16.265   2.164   2.659  0.00  0.00     0.035 H 
ATOM     25  H3  6PX d   1      15.898   3.651   1.721  0.00  0.00     0.035 H 
BRANCH  23  26
ATOM     26  C5  6PX d   1      15.894   3.926   3.878  0.00  0.00     0.009 C 
ATOM     27  H16 6PX d   1      15.341   4.834   3.595  0.00  0.00     0.064 H 
ATOM     28  H17 6PX d   1      16.745   4.200   4.519  0.00  0.00     0.064 H 
BRANCH  26  29
ATOM     29  N2  6PX d   1      15.013   3.057   4.621  0.00  0.00    -0.227 N 
ATOM     30  C6  6PX d   1      13.759   3.579   5.216  0.00  0.00     0.665 C 
ATOM     31  N3  6PX d   1      13.410   4.856   5.069  0.00  0.00    -0.235 N 
ATOM     32  N4  6PX d   1      12.983   2.725   5.903  0.00  0.00    -0.235 N 
ATOM     33  H19 6PX d   1      12.536   5.202   5.489  0.00  0.00     0.174 HD
ATOM     34  H20 6PX d   1      14.015   5.497   4.536  0.00  0.00     0.174 HD
ATOM     35  H21 6PX d   1      13.268   1.741   6.007  0.00  0.00     0.174 HD
ATOM     36  H22 6PX d   1      12.103   3.054   6.326  0.00  0.00     0.174 HD
ATOM     37  H18 6PX d   1      15.258   2.064   4.739  0.00  0.00     0.177 HD
ENDBRANCH  26  29
ENDBRANCH  23  26
ENDBRANCH  20  23
ENDBRANCH  14  20
ENDBRANCH  11  14
ENDBRANCH   1  10
BRANCH   4  38
ATOM     38  N6  6PX d   1      22.768   4.848   2.766  0.00  0.00    -0.397 N 
ATOM     39  H24 6PX d   1      23.564   5.444   3.032  0.00  0.00     0.156 HD
ATOM     40  H25 6PX d   1      21.837   5.265   2.626  0.00  0.00     0.156 HD
ENDBRANCH   4  38
BRANCH   5  41
ATOM     41  C7  6PX d   1      23.580  -0.813   2.101  0.00  0.00     0.252 C 
ATOM     42  O2  6PX d   1      24.421  -1.365   1.313  0.00  0.00    -0.268 OA
ATOM     43  N7  6PX d   1      22.867  -1.523   3.167  0.00  0.00    -0.343 N 
ATOM     44  H27 6PX d   1      23.066  -2.499   3.250  0.00  0.00     0.163 HD
BRANCH  43  45
ATOM     45  C14 6PX d   1      21.884  -0.974   4.142  0.00  0.00     0.100 C 
ATOM     46  H28 6PX d   1      21.794   0.099   3.916  0.00  0.00     0.088 H 
BRANCH  45  47
ATOM     47  C15 6PX d   1      22.227  -1.102   5.582  0.00  0.00     0.281 C 
ATOM     48  O3  6PX d   1      23.391  -1.118   6.005  0.00  0.00    -0.263 OA
BRANCH  47  49
ATOM     49  O5  6PX d   1      21.075  -0.983   6.415  0.00  0.00    -0.325 OA
BRANCH  49  50
ATOM     50  C23 6PX d   1      21.309  -1.054   7.855  0.00  0.00     0.013 C 
ATOM     51  H8  6PX d   1      20.352  -0.951   8.387  0.00  0.00     0.067 H 
ATOM     52  H9  6PX d   1      21.986  -0.242   8.157  0.00  0.00     0.067 H 
ATOM     53  H10 6PX d   1      21.765  -2.023   8.105  0.00  0.00     0.067 H 
ENDBRANCH  49  50
ENDBRANCH  47  49
ENDBRANCH  45  47
BRANCH  45  54
ATOM     54  C16 6PX d   1      20.487  -1.624   4.002  0.00  0.00    -0.013 C 
ATOM     55  H29 6PX d   1      19.705  -0.851   4.021  0.00  0.00     0.043 H 
ATOM     56  H30 6PX d   1      20.317  -2.338   4.822  0.00  0.00     0.043 H 
BRANCH  54  57
ATOM     57  C17 6PX d   1      20.477  -2.359   2.645  0.00  0.00    -0.056 A 
ATOM     58  C19 6PX d   1      19.866  -1.800   1.511  0.00  0.00    -0.074 A 
ATOM     59  C21 6PX d   1      19.960  -2.498   0.307  0.00  0.00    -0.051 A 
ATOM     60  H6  6PX d   1      19.338  -0.855   1.569  0.00  0.00     0.084 H 
ATOM     61  C22 6PX d   1      20.654  -3.709   0.283  0.00  0.00     0.065 A 
ATOM     62  H7  6PX d   1      19.502  -2.107  -0.594  0.00  0.00     0.087 H 
ATOM     63  C20 6PX d   1      21.259  -4.284   1.393  0.00  0.00    -0.051 A 
ATOM     64  C18 6PX d   1      21.154  -3.587   2.576  0.00  0.00    -0.074 A 
ATOM     65  H32 6PX d   1      21.785  -5.230   1.331  0.00  0.00     0.087 H 
ATOM     66  H31 6PX d   1      21.604  -3.995   3.474  0.00  0.00     0.084 H 
BRANCH  61  67
ATOM     67  O4  6PX d   1      20.735  -4.408  -0.920  0.00  0.00    -0.361 OA
ATOM     68  H33 6PX d   1      20.288  -3.918  -1.600  0.00  0.00     0.217 HD
ENDBRANCH  61  67
ENDBRANCH  54  57
ENDBRANCH  45  54
ENDBRANCH  43  45
ENDBRANCH   5  41
TORSDOF 16
