REMARK  5 active torsions:
REMARK  status: ('A' for Active; 'I' for Inactive)
REMARK    1  A    between atoms: N17_20  and  C18_1 
REMARK    2  A    between atoms: C9_2  and  C11_3 
REMARK    3  A    between atoms: C20_8  and  O25_22 
REMARK    4  A    between atoms: C7_19  and  N17_20 
REMARK    5  A    between atoms: O25_22  and  C26_23 
ROOT
ATOM      1  C9  6Q2 d   1      15.727  46.126  10.601  0.00  0.00     0.069 A 
ATOM      2  C6  6Q2 d   1      13.104  45.547  10.238  0.00  0.00     0.083 A 
ATOM      3  C5  6Q2 d   1      11.695  45.184   9.933  0.00  0.00     0.255 C 
ATOM      4  C3  6Q2 d   1      11.959  46.319   7.761  0.00  0.00     0.001 C 
ATOM      5  O24 6Q2 d   1      11.147  44.385  10.715  0.00  0.00    -0.268 OA
ATOM      6  C1  6Q2 d   1      13.916  45.754   9.160  0.00  0.00     0.054 A 
ATOM      7  C2  6Q2 d   1      13.332  45.692   7.761  0.00  0.00    -0.009 C 
ATOM      8  N4  6Q2 d   1      11.148  45.646   8.802  0.00  0.00    -0.356 N 
ATOM      9  N10 6Q2 d   1      15.208  46.045   9.336  0.00  0.00    -0.252 NA
ATOM     10  C8  6Q2 d   1      14.937  45.887  11.729  0.00  0.00    -0.028 A 
ATOM     11  C7  6Q2 d   1      13.591  45.591  11.556  0.00  0.00     0.052 A 
ATOM     12  H3  6Q2 d   1      11.488  46.185   6.776  0.00  0.00     0.064 H 
ATOM     13  H4  6Q2 d   1      12.039  47.393   7.986  0.00  0.00     0.064 H 
ATOM     14  H8  6Q2 d   1      13.985  46.240   7.066  0.00  0.00     0.044 H 
ATOM     15  H9  6Q2 d   1      13.256  44.642   7.442  0.00  0.00     0.044 H 
ATOM     16  H10 6Q2 d   1      10.165  45.534   8.656  0.00  0.00     0.162 HD
ATOM     17  H11 6Q2 d   1      15.368  45.932  12.723  0.00  0.00     0.090 H 
ENDROOT
BRANCH  11  18
ATOM     18  N17 6Q2 d   1      12.759  45.367  12.618  0.00  0.00    -0.355 N 
ATOM     19  H12 6Q2 d   1      11.924  44.793  12.432  0.00  0.00     0.166 HD
BRANCH  18  20
ATOM     20  C18 6Q2 d   1      12.915  45.829  13.924  0.00  0.00     0.035 A 
ATOM     21  C19 6Q2 d   1      12.310  45.083  14.947  0.00  0.00    -0.025 A 
ATOM     22  C20 6Q2 d   1      12.396  45.492  16.292  0.00  0.00     0.070 A 
ATOM     23  H13 6Q2 d   1      11.768  44.178  14.698  0.00  0.00     0.091 H 
ATOM     24  C21 6Q2 d   1      13.120  46.657  16.592  0.00  0.00    -0.051 A 
ATOM     25  C22 6Q2 d   1      13.712  47.434  15.592  0.00  0.00    -0.078 A 
ATOM     26  H17 6Q2 d   1      13.223  46.962  17.627  0.00  0.00     0.087 H 
ATOM     27  C23 6Q2 d   1      13.607  47.018  14.253  0.00  0.00    -0.057 A 
ATOM     28  H18 6Q2 d   1      14.244  48.344  15.845  0.00  0.00     0.083 H 
ATOM     29  H19 6Q2 d   1      14.059  47.612  13.467  0.00  0.00     0.086 H 
BRANCH  22  30
ATOM     30  O25 6Q2 d   1      11.807  44.756  17.304  0.00  0.00    -0.356 OA
BRANCH  30  31
ATOM     31  C26 6Q2 d   1      10.772  43.791  17.096  0.00  0.00     0.010 C 
ATOM     32  H14 6Q2 d   1      10.482  43.351  18.061  0.00  0.00     0.066 H 
ATOM     33  H15 6Q2 d   1      11.139  42.998  16.427  0.00  0.00     0.066 H 
ATOM     34  H16 6Q2 d   1       9.900  44.282  16.639  0.00  0.00     0.066 H 
ENDBRANCH  30  31
ENDBRANCH  22  30
ENDBRANCH  18  20
ENDBRANCH  11  18
BRANCH   1  35
ATOM     35  C11 6Q2 d   1      17.170  46.379  10.743  0.00  0.00    -0.007 A 
ATOM     36  C16 6Q2 d   1      17.865  45.784  11.805  0.00  0.00    -0.071 A 
ATOM     37  C15 6Q2 d   1      19.253  45.943  11.959  0.00  0.00    -0.082 A 
ATOM     38  H1  6Q2 d   1      17.318  45.186  12.525  0.00  0.00     0.084 H 
ATOM     39  C14 6Q2 d   1      19.937  46.701  11.026  0.00  0.00    -0.083 A 
ATOM     40  H7  6Q2 d   1      19.775  45.482  12.790  0.00  0.00     0.083 H 
ATOM     41  C13 6Q2 d   1      19.271  47.278   9.956  0.00  0.00    -0.082 A 
ATOM     42  H6  6Q2 d   1      21.006  46.846  11.133  0.00  0.00     0.083 H 
ATOM     43  C12 6Q2 d   1      17.883  47.117   9.790  0.00  0.00    -0.071 A 
ATOM     44  H5  6Q2 d   1      19.829  47.864   9.235  0.00  0.00     0.083 H 
ATOM     45  H2  6Q2 d   1      17.375  47.556   8.939  0.00  0.00     0.084 H 
ENDBRANCH   1  35
TORSDOF 5
