REMARK  4 active torsions:
REMARK  status: ('A' for Active; 'I' for Inactive)
REMARK    1  A    between atoms: C15_3  and  C16_16 
REMARK    2  A    between atoms: C04_7  and  C02_5 
REMARK    3  A    between atoms: C08_11  and  C07_10 
REMARK    4  A    between atoms: C16_16  and  S17_17 
ROOT
ATOM      1  C15 S5Z d   1     -28.037   9.765  58.959  0.00  0.00    -0.031 A 
ATOM      2  C04 S5Z d   1     -29.092  10.218  59.773  0.00  0.00     0.047 A 
ATOM      3  C05 S5Z d   1     -29.644   9.329  60.685  0.00  0.00    -0.065 A 
ATOM      4  C06 S5Z d   1     -29.188   8.021  60.817  0.00  0.00    -0.071 A 
ATOM      5  C07 S5Z d   1     -28.144   7.558  60.027  0.00  0.00    -0.025 A 
ATOM      6  C14 S5Z d   1     -27.585   8.444  59.100  0.00  0.00    -0.064 A 
ATOM      7  H3  S5Z d   1     -30.459   9.665  61.316  0.00  0.00     0.085 H 
ATOM      8  H4  S5Z d   1     -29.650   7.360  61.541  0.00  0.00     0.084 H 
ATOM      9  H8  S5Z d   1     -26.774   8.098  58.469  0.00  0.00     0.085 H 
ENDROOT
BRANCH   5  10
ATOM     10  C08 S5Z d   1     -27.702   6.154  60.194  0.00  0.00    -0.026 A 
ATOM     11  C13 S5Z d   1     -28.606   5.106  60.410  0.00  0.00    -0.072 A 
ATOM     12  C12 S5Z d   1     -28.175   3.788  60.558  0.00  0.00    -0.082 A 
ATOM     13  H2  S5Z d   1     -29.666   5.325  60.463  0.00  0.00     0.084 H 
ATOM     14  C11 S5Z d   1     -26.824   3.477  60.488  0.00  0.00    -0.083 A 
ATOM     15  H7  S5Z d   1     -28.900   3.001  60.729  0.00  0.00     0.083 H 
ATOM     16  C10 S5Z d   1     -25.914   4.502  60.270  0.00  0.00    -0.082 A 
ATOM     17  H6  S5Z d   1     -26.486   2.453  60.601  0.00  0.00     0.083 H 
ATOM     18  C09 S5Z d   1     -26.342   5.818  60.124  0.00  0.00    -0.072 A 
ATOM     19  H1  S5Z d   1     -24.856   4.274  60.213  0.00  0.00     0.083 H 
ATOM     20  H5  S5Z d   1     -25.610   6.599  59.953  0.00  0.00     0.084 H 
ENDBRANCH   5  10
BRANCH   1  21
ATOM     21  C16 S5Z d   1     -27.390  10.650  57.949  0.00  0.00    -0.001 C 
ATOM     22  H9  S5Z d   1     -26.517  11.132  58.413  0.00  0.00     0.055 H 
ATOM     23  H10 S5Z d   1     -28.114  11.420  57.642  0.00  0.00     0.055 H 
BRANCH  21  24
ATOM     24  S17 S5Z d   1     -26.844   9.763  56.486  0.00  0.00    -0.178 SA
ATOM     25  H11 S5Z d   1     -26.417  10.410  55.842  0.00  0.00     0.101 HD
ENDBRANCH  21  24
ENDBRANCH   1  21
BRANCH   2  26
ATOM     26  C02 S5Z d   1     -29.691  11.635  59.718  0.00  0.00     0.209 C 
ATOM     27  O01 S5Z d   1     -28.899  12.593  59.660  0.00  0.00    -0.644 OA
ATOM     28  O03 S5Z d   1     -30.946  11.719  59.733  0.00  0.00    -0.644 OA
ENDBRANCH   2  26
TORSDOF 4
