REMARK  8 active torsions:
REMARK  status: ('A' for Active; 'I' for Inactive)
REMARK    1  A    between atoms: C8_3  and  N7_14 
REMARK    2  A    between atoms: N17_21  and  C21_7 
REMARK    3  A    between atoms: C21_7  and  C23_24 
REMARK    4  A    between atoms: C21_7  and  C25_26 
REMARK    5  A    between atoms: N2_11  and  C1_10 
REMARK    6  A    between atoms: N7_14  and  C3_12 
REMARK    7  A    between atoms: C14_19  and  C12_17 
REMARK    8  A    between atoms: C23_24  and  O24_25 
ROOT
ATOM      1  C15 6QB d   1      13.935  -2.546  15.212  0.00  0.00    -0.077 A 
ATOM      2  C20 6QB d   1      12.804  -1.200  13.539  0.00  0.00     0.035 A 
ATOM      3  C14 6QB d   1      13.984  -1.650  14.130  0.00  0.00    -0.022 A 
ATOM      4  C16 6QB d   1      12.728  -2.951  15.666  0.00  0.00     0.014 A 
ATOM      5  N17 6QB d   1      11.571  -2.505  15.102  0.00  0.00    -0.338 N 
ATOM      6  C18 6QB d   1      11.570  -1.655  14.054  0.00  0.00     0.225 A 
ATOM      7  O19 6QB d   1      10.513  -1.263  13.562  0.00  0.00    -0.273 OA
ATOM      8  H4  6QB d   1      14.852  -2.907  15.676  0.00  0.00     0.080 H 
ATOM      9  H5  6QB d   1      12.840  -1.494  12.479  0.00  0.00     0.054 H 
ATOM     10  H6  6QB d   1      12.802  -0.103  13.616  0.00  0.00     0.054 H 
ATOM     11  H14 6QB d   1      12.685  -2.669  16.728  0.00  0.00     0.070 H 
ATOM     12  H15 6QB d   1      12.714  -4.047  15.577  0.00  0.00     0.070 H 
ENDROOT
BRANCH   3  13
ATOM     13  C12 6QB d   1      15.321  -1.185  13.700  0.00  0.00     0.084 A 
ATOM     14  C11 6QB d   1      15.511  -0.287  12.646  0.00  0.00    -0.036 A 
ATOM     15  C10 6QB d   1      16.806   0.151  12.397  0.00  0.00     0.023 A 
ATOM     16  H13 6QB d   1      14.677   0.056  12.044  0.00  0.00     0.089 H 
ATOM     17  N9  6QB d   1      17.800  -0.277  13.160  0.00  0.00    -0.075 NA
ATOM     18  H3  6QB d   1      17.001   0.839  11.583  0.00  0.00     0.115 H 
ATOM     19  C8  6QB d   1      17.580  -1.111  14.170  0.00  0.00     0.728 A 
ATOM     20  N13 6QB d   1      16.370  -1.545  14.442  0.00  0.00    -0.062 NA
BRANCH  19  21
ATOM     21  N7  6QB d   1      18.668  -1.532  14.915  0.00  0.00    -0.171 N 
ATOM     22  H12 6QB d   1      19.600  -1.325  14.529  0.00  0.00     0.186 HD
BRANCH  21  23
ATOM     23  C3  6QB d   1      18.632  -2.206  16.132  0.00  0.00     0.140 A 
ATOM     24  C4  6QB d   1      17.642  -2.215  17.070  0.00  0.00    -0.020 A 
ATOM     25  C5  6QB d   1      18.075  -3.020  18.132  0.00  0.00     0.025 A 
ATOM     26  H1  6QB d   1      16.689  -1.692  17.005  0.00  0.00     0.091 H 
ATOM     27  N6  6QB d   1      19.280  -3.468  17.854  0.00  0.00    -0.184 NA
ATOM     28  H2  6QB d   1      17.509  -3.238  19.036  0.00  0.00     0.117 H 
ATOM     29  N2  6QB d   1      19.648  -2.973  16.599  0.00  0.00    -0.258 N 
BRANCH  29  30
ATOM     30  C1  6QB d   1      20.911  -3.242  15.900  0.00  0.00     0.004 C 
ATOM     31  H9  6QB d   1      21.542  -3.895  16.521  0.00  0.00     0.059 H 
ATOM     32  H10 6QB d   1      21.436  -2.294  15.714  0.00  0.00     0.059 H 
ATOM     33  H11 6QB d   1      20.701  -3.739  14.941  0.00  0.00     0.059 H 
ENDBRANCH  29  30
ENDBRANCH  21  23
ENDBRANCH  19  21
ENDBRANCH   3  13
BRANCH   5  34
ATOM     34  C21 6QB d   1      10.296  -2.948  15.671  0.00  0.00     0.060 C 
ATOM     35  H7  6QB d   1       9.497  -2.250  15.380  0.00  0.00     0.083 H 
BRANCH  34  36
ATOM     36  C23 6QB d   1      10.462  -2.944  17.190  0.00  0.00     0.040 C 
ATOM     37  H16 6QB d   1      10.947  -2.010  17.511  0.00  0.00     0.077 H 
ATOM     38  H17 6QB d   1      11.076  -3.802  17.502  0.00  0.00     0.077 H 
BRANCH  36  39
ATOM     39  O24 6QB d   1       9.162  -3.040  17.772  0.00  0.00    -0.398 OA
ATOM     40  H18 6QB d   1       8.637  -2.298  17.496  0.00  0.00     0.209 HD
ENDBRANCH  36  39
ENDBRANCH  34  36
BRANCH  34  41
ATOM     41  C25 6QB d   1       9.942  -4.327  15.192  0.00  0.00    -0.030 A 
ATOM     42  C26 6QB d   1       8.809  -4.503  14.426  0.00  0.00    -0.073 A 
ATOM     43  C27 6QB d   1       8.480  -5.768  13.979  0.00  0.00    -0.058 A 
ATOM     44  H8  6QB d   1       8.181  -3.655  14.177  0.00  0.00     0.084 H 
ATOM     45  C28 6QB d   1       9.294  -6.838  14.295  0.00  0.00     0.072 A 
ATOM     46  H19 6QB d   1       7.587  -5.920  13.383  0.00  0.00     0.086 H 
ATOM     47  C29 6QB d   1      10.425  -6.664  15.061  0.00  0.00     0.138 A 
ATOM     48 CL1  6QB d   1       8.885  -8.420  13.746  0.00  0.00    -0.081 Cl
ATOM     49  C30 6QB d   1      10.746  -5.404  15.512  0.00  0.00    -0.036 A 
ATOM     50  F31 6QB d   1      11.207  -7.719  15.368  0.00  0.00    -0.204 F 
ATOM     51  H20 6QB d   1      11.632  -5.256  16.120  0.00  0.00     0.089 H 
ENDBRANCH  34  41
ENDBRANCH   5  34
TORSDOF 8
