REMARK  8 active torsions:
REMARK  status: ('A' for Active; 'I' for Inactive)
REMARK    1  A    between atoms: C8_3  and  N7_14 
REMARK    2  A    between atoms: N17_21  and  C21_7 
REMARK    3  A    between atoms: C21_7  and  C23_24 
REMARK    4  A    between atoms: C21_7  and  C25_26 
REMARK    5  A    between atoms: N2_11  and  C1_10 
REMARK    6  A    between atoms: N7_14  and  C3_12 
REMARK    7  A    between atoms: C14_19  and  C12_17 
REMARK    8  A    between atoms: C23_24  and  O24_25 
ROOT
ATOM      1  C15 6QB d   1       0.164 -27.977  46.068  0.00  0.00    -0.077 A 
ATOM      2  C20 6QB d   1       1.675 -29.794  46.536  0.00  0.00     0.035 A 
ATOM      3  C14 6QB d   1       0.610 -29.301  45.822  0.00  0.00    -0.022 A 
ATOM      4  C16 6QB d   1       0.759 -27.210  47.010  0.00  0.00     0.014 A 
ATOM      5  N17 6QB d   1       1.759 -27.734  47.747  0.00  0.00    -0.338 N 
ATOM      6  C18 6QB d   1       2.244 -28.971  47.529  0.00  0.00     0.225 A 
ATOM      7  O19 6QB d   1       3.152 -29.405  48.233  0.00  0.00    -0.273 OA
ATOM      8  H4  6QB d   1      -0.667 -27.573  45.492  0.00  0.00     0.080 H 
ATOM      9  H5  6QB d   1       2.470 -30.033  45.814  0.00  0.00     0.054 H 
ATOM     10  H6  6QB d   1       1.338 -30.717  47.030  0.00  0.00     0.054 H 
ATOM     11  H14 6QB d   1      -0.027 -26.895  47.712  0.00  0.00     0.070 H 
ATOM     12  H15 6QB d   1       1.167 -26.327  46.496  0.00  0.00     0.070 H 
ENDROOT
BRANCH   3  13
ATOM     13  C12 6QB d   1      -0.136 -30.111  44.820  0.00  0.00     0.084 A 
ATOM     14  C11 6QB d   1       0.186 -31.455  44.496  0.00  0.00    -0.036 A 
ATOM     15  C10 6QB d   1      -0.669 -32.125  43.620  0.00  0.00     0.023 A 
ATOM     16  H13 6QB d   1       1.061 -31.941  44.912  0.00  0.00     0.089 H 
ATOM     17  N9  6QB d   1      -1.727 -31.418  43.066  0.00  0.00    -0.075 NA
ATOM     18  H3  6QB d   1      -0.511 -33.170  43.379  0.00  0.00     0.115 H 
ATOM     19  C8  6QB d   1      -1.979 -30.167  43.433  0.00  0.00     0.728 A 
ATOM     20  N13 6QB d   1      -1.214 -29.509  44.313  0.00  0.00    -0.062 NA
BRANCH  19  21
ATOM     21  N7  6QB d   1      -3.076 -29.540  42.934  0.00  0.00    -0.171 N 
ATOM     22  H12 6QB d   1      -3.516 -29.989  42.118  0.00  0.00     0.186 HD
BRANCH  21  23
ATOM     23  C3  6QB d   1      -3.681 -28.373  43.381  0.00  0.00     0.140 A 
ATOM     24  C4  6QB d   1      -3.639 -27.788  44.621  0.00  0.00    -0.020 A 
ATOM     25  C5  6QB d   1      -4.405 -26.607  44.585  0.00  0.00     0.025 A 
ATOM     26  H1  6QB d   1      -3.103 -28.172  45.488  0.00  0.00     0.091 H 
ATOM     27  N6  6QB d   1      -4.936 -26.487  43.388  0.00  0.00    -0.184 NA
ATOM     28  H2  6QB d   1      -4.536 -25.909  45.411  0.00  0.00     0.117 H 
ATOM     29  N2  6QB d   1      -4.493 -27.581  42.599  0.00  0.00    -0.258 N 
BRANCH  29  30
ATOM     30  C1  6QB d   1      -4.848 -27.767  41.186  0.00  0.00     0.004 C 
ATOM     31  H9  6QB d   1      -5.516 -26.954  40.866  0.00  0.00     0.059 H 
ATOM     32  H10 6QB d   1      -5.359 -28.733  41.060  0.00  0.00     0.059 H 
ATOM     33  H11 6QB d   1      -3.934 -27.753  40.574  0.00  0.00     0.059 H 
ENDBRANCH  29  30
ENDBRANCH  21  23
ENDBRANCH  19  21
ENDBRANCH   3  13
BRANCH   5  34
ATOM     34  C21 6QB d   1       2.298 -26.960  48.873  0.00  0.00     0.060 C 
ATOM     35  H7  6QB d   1       2.485 -27.691  49.673  0.00  0.00     0.083 H 
BRANCH  34  36
ATOM     36  C23 6QB d   1       1.209 -26.004  49.447  0.00  0.00     0.040 C 
ATOM     37  H16 6QB d   1       0.221 -26.484  49.383  0.00  0.00     0.077 H 
ATOM     38  H17 6QB d   1       1.198 -25.066  48.873  0.00  0.00     0.077 H 
BRANCH  36  39
ATOM     39  O24 6QB d   1       1.531 -25.727  50.835  0.00  0.00    -0.398 OA
ATOM     40  H18 6QB d   1       1.542 -26.541  51.325  0.00  0.00     0.209 HD
ENDBRANCH  36  39
ENDBRANCH  34  36
BRANCH  34  41
ATOM     41  C25 6QB d   1       3.649 -26.357  48.593  0.00  0.00    -0.030 A 
ATOM     42  C26 6QB d   1       4.651 -26.694  49.482  0.00  0.00    -0.073 A 
ATOM     43  C27 6QB d   1       5.932 -26.214  49.342  0.00  0.00    -0.058 A 
ATOM     44  H8  6QB d   1       4.422 -27.354  50.311  0.00  0.00     0.084 H 
ATOM     45  C28 6QB d   1       6.221 -25.391  48.275  0.00  0.00     0.072 A 
ATOM     46  H19 6QB d   1       6.701 -26.478  50.059  0.00  0.00     0.086 H 
ATOM     47  C29 6QB d   1       5.215 -25.039  47.381  0.00  0.00     0.138 A 
ATOM     48 CL1  6QB d   1       7.844 -24.802  48.093  0.00  0.00    -0.081 Cl
ATOM     49  C30 6QB d   1       3.914 -25.522  47.535  0.00  0.00    -0.036 A 
ATOM     50  F31 6QB d   1       5.526 -24.232  46.344  0.00  0.00    -0.204 F 
ATOM     51  H20 6QB d   1       3.132 -25.245  46.837  0.00  0.00     0.089 H 
ENDBRANCH  34  41
ENDBRANCH   5  34
TORSDOF 8
