REMARK  4 active torsions:
REMARK  status: ('A' for Active; 'I' for Inactive)
REMARK    1  A    between atoms: C4_1  and  C6_2 
REMARK       I    between atoms: C4_1  and  N3_9 
REMARK    2  A    between atoms: C7_3  and  O18_17 
REMARK    3  A    between atoms: N3_9  and  C2_11 
REMARK    4  A    between atoms: C2_11  and  C1_10 
ROOT
ATOM      1  C6  6QN d   1     189.392   1.740 -17.949  0.00  0.00     0.133 A 
ATOM      2  C7  6QN d   1     189.028   2.417 -16.787  0.00  0.00     0.099 A 
ATOM      3  C8  6QN d   1     188.359   1.729 -15.701  0.00  0.00     0.028 A 
ATOM      4  C9  6QN d   1     187.955   2.362 -14.528  0.00  0.00    -0.051 A 
ATOM      5  C10 6QN d   1     187.305   1.614 -13.561  0.00  0.00     0.003 A 
ATOM      6  C12 6QN d   1     187.453  -0.282 -14.810  0.00  0.00     0.028 A 
ATOM      7  C13 6QN d   1     188.101   0.355 -15.861  0.00  0.00     0.065 A 
ATOM      8  N11 6QN d   1     187.046   0.311 -13.682  0.00  0.00    -0.271 NA
ATOM      9  N14 6QN d   1     188.485  -0.272 -17.043  0.00  0.00    -0.321 N 
ATOM     10  C16 6QN d   1     189.105   0.331 -18.084  0.00  0.00     0.264 A 
ATOM     11  O17 6QN d   1     189.388  -0.329 -19.082  0.00  0.00    -0.267 OA
ATOM     12  H1  6QN d   1     188.145   3.418 -14.375  0.00  0.00     0.087 H 
ATOM     13  H2  6QN d   1     186.988   2.116 -12.654  0.00  0.00     0.114 H 
ATOM     14  H3  6QN d   1     187.262  -1.344 -14.912  0.00  0.00     0.118 H 
ATOM     15  H10 6QN d   1     188.286  -1.248 -17.130  0.00  0.00     0.169 HD
ENDROOT
BRANCH   1  16
ATOM     16  C4  6QN d   1     190.084   2.501 -19.018  0.00  0.00     0.260 C 
ATOM     17  N3  6QN d   1     190.417   1.808 -20.110  0.00  0.00    -0.357 N 
ATOM     18  H4  6QN d   1     190.122   0.855 -20.181  0.00  0.00     0.162 HD
ATOM     19  O5  6QN d   1     190.333   3.699 -18.886  0.00  0.00    -0.267 OA
BRANCH  17  20
ATOM     20  C2  6QN d   1     191.194   2.384 -21.205  0.00  0.00    -0.008 C 
ATOM     21  H8  6QN d   1     191.955   1.656 -21.522  0.00  0.00     0.063 H 
ATOM     22  H9  6QN d   1     191.688   3.299 -20.847  0.00  0.00     0.063 H 
BRANCH  20  23
ATOM     23  C1  6QN d   1     190.336   2.726 -22.378  0.00  0.00    -0.061 C 
ATOM     24  H5  6QN d   1     190.960   3.155 -23.176  0.00  0.00     0.029 H 
ATOM     25  H6  6QN d   1     189.574   3.459 -22.074  0.00  0.00     0.029 H 
ATOM     26  H7  6QN d   1     189.842   1.816 -22.748  0.00  0.00     0.029 H 
ENDBRANCH  20  23
ENDBRANCH  17  20
ENDBRANCH   1  16
BRANCH   2  27
ATOM     27  O18 6QN d   1     189.270   3.713 -16.583  0.00  0.00    -0.358 OA
ATOM     28  H11 6QN d   1     189.708   4.076 -17.344  0.00  0.00     0.217 HD
ENDBRANCH   2  27
TORSDOF 4
