REMARK  5 active torsions:
REMARK  status: ('A' for Active; 'I' for Inactive)
REMARK    1  A    between atoms: S02_5  and  C03_6 
REMARK    2  A    between atoms: N10_13  and  S02_5 
REMARK    3  A    between atoms: C04_7  and  C05_8 
REMARK    4  A    between atoms: C08_11  and  C09_12 
REMARK    5  A    between atoms: C11_14  and  N10_13 
ROOT
ATOM      1  O01 6Q9 d   1     129.474  72.530 -10.233  0.00  0.00    -0.200 OA
ATOM      2  S02 6Q9 d   1     128.613  73.495  -9.628  0.00  0.00     0.267 S 
ATOM      3  O20 6Q9 d   1     128.280  74.351 -10.727  0.00  0.00    -0.200 OA
ENDROOT
BRANCH   2   4
ATOM      4  C03 6Q9 d   1     129.462  74.393  -8.334  0.00  0.00     0.129 A 
ATOM      5  C04 6Q9 d   1     128.894  75.380  -7.557  0.00  0.00     0.076 A 
ATOM      6  N06 6Q9 d   1     129.834  75.804  -6.707  0.00  0.00    -0.178 NA
ATOM      7  N07 6Q9 d   1     131.004  75.130  -6.904  0.00  0.00    -0.281 N 
ATOM      8  C08 6Q9 d   1     130.799  74.240  -7.908  0.00  0.00     0.049 A 
ATOM      9  H6  6Q9 d   1     131.883  75.271  -6.385  0.00  0.00     0.189 HD
BRANCH   5  10
ATOM     10  C05 6Q9 d   1     127.462  75.900  -7.642  0.00  0.00    -0.032 C 
ATOM     11  H3  6Q9 d   1     127.313  76.688  -6.889  0.00  0.00     0.035 H 
ATOM     12  H4  6Q9 d   1     126.760  75.074  -7.453  0.00  0.00     0.035 H 
ATOM     13  H5  6Q9 d   1     127.281  76.313  -8.645  0.00  0.00     0.035 H 
ENDBRANCH   5  10
BRANCH   8  14
ATOM     14  C09 6Q9 d   1     131.851  73.276  -8.443  0.00  0.00    -0.035 C 
ATOM     15  H7  6Q9 d   1     131.416  72.672  -9.253  0.00  0.00     0.035 H 
ATOM     16  H8  6Q9 d   1     132.188  72.614  -7.632  0.00  0.00     0.035 H 
ATOM     17  H9  6Q9 d   1     132.708  73.847  -8.831  0.00  0.00     0.035 H 
ENDBRANCH   8  14
ENDBRANCH   2   4
BRANCH   2  18
ATOM     18  N10 6Q9 d   1     127.257  72.829  -8.982  0.00  0.00    -0.280 N 
ATOM     19  H10 6Q9 d   1     126.368  73.112  -9.341  0.00  0.00     0.179 HD
BRANCH  18  20
ATOM     20  C11 6Q9 d   1     127.294  71.856  -7.923  0.00  0.00     0.045 A 
ATOM     21  C12 6Q9 d   1     128.428  71.093  -7.678  0.00  0.00    -0.026 A 
ATOM     22  C13 6Q9 d   1     128.402  70.134  -6.628  0.00  0.00     0.090 A 
ATOM     23  H11 6Q9 d   1     129.321  71.226  -8.279  0.00  0.00     0.090 H 
ATOM     24  C14 6Q9 d   1     127.251  69.976  -5.865  0.00  0.00     0.011 A 
ATOM     25  N19 6Q9 d   1     129.327  69.245  -6.150  0.00  0.00    -0.175 NA
ATOM     26  C15 6Q9 d   1     126.111  70.761  -6.115  0.00  0.00    -0.067 A 
ATOM     27  C17 6Q9 d   1     127.573  68.940  -4.909  0.00  0.00     0.008 A 
ATOM     28  C16 6Q9 d   1     126.133  71.696  -7.143  0.00  0.00    -0.056 A 
ATOM     29  H1  6Q9 d   1     125.221  70.637  -5.509  0.00  0.00     0.085 H 
ATOM     30  H12 6Q9 d   1     125.257  72.302  -7.344  0.00  0.00     0.087 H 
ATOM     31  N18 6Q9 d   1     128.835  68.538  -5.130  0.00  0.00    -0.288 N 
ATOM     32  H2  6Q9 d   1     126.906  68.552  -4.141  0.00  0.00     0.115 H 
ATOM     33  H13 6Q9 d   1     129.337  67.809  -4.603  0.00  0.00     0.188 HD
ENDBRANCH  18  20
ENDBRANCH   2  18
TORSDOF 5
