REMARK  7 active torsions:
REMARK  status: ('A' for Active; 'I' for Inactive)
REMARK    1  A    between atoms: C05_12  and  C20_3 
REMARK    2  A    between atoms: C04_11  and  C21_4 
REMARK       I    between atoms: C21_4  and  N23_26 
REMARK    3  A    between atoms: N23_26  and  C24_5 
REMARK    4  A    between atoms: C02_9  and  C01_8 
REMARK    5  A    between atoms: S07_14  and  C06_13 
REMARK    6  A    between atoms: N10_17  and  S07_14 
REMARK    7  A    between atoms: C11_18  and  N10_17 
ROOT
ATOM      1  C02 6Q8 d   1      42.601  74.396  -7.267  0.00  0.00     0.030 A 
ATOM      2  N03 6Q8 d   1      42.883  75.194  -6.229  0.00  0.00    -0.354 N 
ATOM      3  C04 6Q8 d   1      41.778  75.872  -5.878  0.00  0.00     0.108 A 
ATOM      4  C05 6Q8 d   1      40.720  75.486  -6.695  0.00  0.00    -0.004 A 
ATOM      5  C06 6Q8 d   1      41.254  74.564  -7.582  0.00  0.00     0.110 A 
ATOM      6  H11 6Q8 d   1      43.803  75.275  -5.772  0.00  0.00     0.166 HD
ENDROOT
BRANCH   5   7
ATOM      7  S07 6Q8 d   1      40.326  73.753  -8.858  0.00  0.00     0.265 S 
ATOM      8  O08 6Q8 d   1      41.127  72.750  -9.511  0.00  0.00    -0.200 OA
ATOM      9  O09 6Q8 d   1      40.004  74.670  -9.924  0.00  0.00    -0.200 OA
BRANCH   7  10
ATOM     10  N10 6Q8 d   1      38.952  73.121  -8.212  0.00  0.00    -0.280 N 
ATOM     11  H12 6Q8 d   1      38.073  73.454  -8.554  0.00  0.00     0.179 HD
BRANCH  10  12
ATOM     12  C11 6Q8 d   1      38.944  72.123  -7.189  0.00  0.00     0.045 A 
ATOM     13  C12 6Q8 d   1      37.785  71.974  -6.419  0.00  0.00    -0.056 A 
ATOM     14  C13 6Q8 d   1      37.717  71.018  -5.409  0.00  0.00    -0.067 A 
ATOM     15  H13 6Q8 d   1      36.929  72.611  -6.611  0.00  0.00     0.087 H 
ATOM     16  C14 6Q8 d   1      38.834  70.180  -5.162  0.00  0.00     0.011 A 
ATOM     17  H1  6Q8 d   1      36.816  70.915  -4.815  0.00  0.00     0.085 H 
ATOM     18  C15 6Q8 d   1      39.082  69.126  -4.229  0.00  0.00     0.008 A 
ATOM     19  C18 6Q8 d   1      39.980  70.322  -5.911  0.00  0.00     0.090 A 
ATOM     20  N16 6Q8 d   1      40.335  68.676  -4.439  0.00  0.00    -0.288 N 
ATOM     21  H2  6Q8 d   1      38.383  68.753  -3.482  0.00  0.00     0.115 H 
ATOM     22  N17 6Q8 d   1      40.892  69.391  -5.453  0.00  0.00    -0.175 NA
ATOM     23  H14 6Q8 d   1      40.795  67.916  -3.918  0.00  0.00     0.188 HD
ATOM     24  C19 6Q8 d   1      40.049  71.309  -6.945  0.00  0.00    -0.026 A 
ATOM     25  H15 6Q8 d   1      40.952  71.423  -7.533  0.00  0.00     0.090 H 
ENDBRANCH  10  12
ENDBRANCH   7  10
ENDBRANCH   5   7
BRANCH   1  26
ATOM     26  C01 6Q8 d   1      43.611  73.493  -7.948  0.00  0.00    -0.036 C 
ATOM     27  H8  6Q8 d   1      43.121  72.948  -8.768  0.00  0.00     0.035 H 
ATOM     28  H9  6Q8 d   1      44.012  72.775  -7.218  0.00  0.00     0.035 H 
ATOM     29  H10 6Q8 d   1      44.433  74.102  -8.352  0.00  0.00     0.035 H 
ENDBRANCH   1  26
BRANCH   4  30
ATOM     30  C20 6Q8 d   1      39.275  75.963  -6.681  0.00  0.00    -0.047 C 
ATOM     31  H3  6Q8 d   1      39.138  76.693  -5.870  0.00  0.00     0.033 H 
ATOM     32  H4  6Q8 d   1      38.607  75.104  -6.518  0.00  0.00     0.033 H 
ATOM     33  H5  6Q8 d   1      39.036  76.436  -7.645  0.00  0.00     0.033 H 
ENDBRANCH   4  30
BRANCH   3  34
ATOM     34  C21 6Q8 d   1      41.747  76.825  -4.717  0.00  0.00     0.273 C 
ATOM     35  O22 6Q8 d   1      40.693  77.248  -4.289  0.00  0.00    -0.266 OA
ATOM     36  N23 6Q8 d   1      42.969  77.173  -4.105  0.00  0.00    -0.322 N 
ATOM     37  H16 6Q8 d   1      43.837  76.833  -4.466  0.00  0.00     0.169 HD
BRANCH  36  38
ATOM     38  C24 6Q8 d   1      42.938  78.010  -2.974  0.00  0.00     0.035 A 
ATOM     39  C25 6Q8 d   1      43.339  79.337  -3.018  0.00  0.00    -0.054 A 
ATOM     40  C26 6Q8 d   1      43.283  80.095  -1.857  0.00  0.00    -0.044 A 
ATOM     41  H17 6Q8 d   1      43.691  79.775  -3.945  0.00  0.00     0.087 H 
ATOM     42  C27 6Q8 d   1      42.837  79.531  -0.668  0.00  0.00     0.116 A 
ATOM     43  H6  6Q8 d   1      43.589  81.135  -1.878  0.00  0.00     0.088 H 
ATOM     44  C28 6Q8 d   1      42.442  78.201  -0.635  0.00  0.00    -0.044 A 
ATOM     45  F   6Q8 d   1      42.786  80.268   0.456  0.00  0.00    -0.206 F 
ATOM     46  C29 6Q8 d   1      42.492  77.439  -1.787  0.00  0.00    -0.054 A 
ATOM     47  H7  6Q8 d   1      42.095  77.761   0.293  0.00  0.00     0.088 H 
ATOM     48  H18 6Q8 d   1      42.185  76.400  -1.765  0.00  0.00     0.087 H 
ENDBRANCH  36  38
ENDBRANCH   3  34
TORSDOF 7
