REMARK  6 active torsions:
REMARK  status: ('A' for Active; 'I' for Inactive)
REMARK    1  A    between atoms: C14_15  and  C15_1 
REMARK    2  A    between atoms: C15_1  and  P16_16 
REMARK    3  A    between atoms: C11_12  and  N10_11 
REMARK    4  A    between atoms: C12_13  and  C11_12 
REMARK    5  A    between atoms: C13_14  and  C12_13 
REMARK    6  A    between atoms: C13_14  and  C14_15 
ROOT
ATOM      1  C11 6QD d   1     -21.009   7.171 -15.153  0.00  0.00     0.002 C 
ATOM      2  H6  6QD d   1     -20.617   7.035 -14.134  0.00  0.00     0.065 H 
ATOM      3  H7  6QD d   1     -20.520   6.457 -15.832  0.00  0.00     0.065 H 
ENDROOT
BRANCH   1   4
ATOM      4  N10 6QD d   1     -20.727   8.507 -15.591  0.00  0.00    -0.326 N 
ATOM      5  C06 6QD d   1     -20.311   9.516 -14.798  0.00  0.00     0.144 A 
ATOM      6  N05 6QD d   1     -20.031   9.628 -13.406  0.00  0.00    -0.335 N 
ATOM      7  C07 6QD d   1     -20.162  10.611 -15.623  0.00  0.00     0.172 A 
ATOM      8  C04 6QD d   1     -19.589  10.893 -12.852  0.00  0.00     0.069 A 
ATOM      9  H4  6QD d   1     -20.143   8.809 -12.792  0.00  0.00     0.168 HD
ATOM     10  N03 6QD d   1     -19.433  12.025 -13.696  0.00  0.00    -0.203 NA
ATOM     11  H3  6QD d   1     -19.376  10.975 -11.787  0.00  0.00     0.143 H 
ATOM     12  C02 6QD d   1     -19.707  11.915 -15.057  0.00  0.00     0.300 A 
ATOM     13  O01 6QD d   1     -19.571  12.913 -15.804  0.00  0.00    -0.263 OA
ATOM     14  N08 6QD d   1     -20.495  10.213 -16.873  0.00  0.00    -0.234 NA
ATOM     15  C09 6QD d   1     -20.830   8.949 -16.833  0.00  0.00     0.068 A 
ATOM     16  H5  6QD d   1     -21.145   8.354 -17.689  0.00  0.00     0.143 H 
ENDBRANCH   1   4
BRANCH   1  17
ATOM     17  C12 6QD d   1     -22.537   6.907 -15.151  0.00  0.00    -0.050 C 
ATOM     18  H8  6QD d   1     -22.902   6.925 -16.188  0.00  0.00     0.035 H 
ATOM     19  H9  6QD d   1     -23.034   7.700 -14.573  0.00  0.00     0.035 H 
BRANCH  17  20
ATOM     20  C13 6QD d   1     -22.878   5.562 -14.533  0.00  0.00    -0.063 C 
ATOM     21  H10 6QD d   1     -23.071   5.709 -13.460  0.00  0.00     0.033 H 
ATOM     22  H11 6QD d   1     -22.017   4.889 -14.662  0.00  0.00     0.033 H 
BRANCH  20  23
ATOM     23  C14 6QD d   1     -24.152   4.881 -15.185  0.00  0.00    -0.053 C 
ATOM     24  H12 6QD d   1     -23.841   3.940 -15.662  0.00  0.00     0.033 H 
ATOM     25  H13 6QD d   1     -24.881   4.666 -14.389  0.00  0.00     0.033 H 
BRANCH  23  26
ATOM     26  C15 6QD d   1     -24.811   5.743 -16.215  0.00  0.00     0.039 C 
ATOM     27  H1  6QD d   1     -24.038   6.314 -16.750  0.00  0.00     0.053 H 
ATOM     28  H2  6QD d   1     -25.498   6.439 -15.711  0.00  0.00     0.053 H 
BRANCH  26  29
ATOM     29  P16 6QD d   1     -25.744   4.759 -17.408  0.00  0.00     0.259 P 
ATOM     30  O17 6QD d   1     -25.414   5.232 -18.808  0.00  0.00    -0.640 OA
ATOM     31  O18 6QD d   1     -25.382   3.321 -17.268  0.00  0.00    -0.640 OA
ATOM     32  O19 6QD d   1     -27.231   4.934 -17.152  0.00  0.00    -0.640 OA
ENDBRANCH  26  29
ENDBRANCH  23  26
ENDBRANCH  20  23
ENDBRANCH  17  20
ENDBRANCH   1  17
TORSDOF 6
