REMARK  8 active torsions:
REMARK  status: ('A' for Active; 'I' for Inactive)
REMARK    1  A    between atoms: C08_8  and  C22_22 
REMARK    2  A    between atoms: C09_9  and  C10_10 
REMARK    3  A    between atoms: C10_10  and  O11_11 
REMARK    4  A    between atoms: O11_11  and  C12_12 
REMARK    5  A    between atoms: C12_12  and  C13_13 
REMARK    6  A    between atoms: C19_19  and  C20_20 
REMARK    7  A    between atoms: N28_28  and  C29_29 
REMARK    8  A    between atoms: C29_29  and  C30_30 
ROOT
ATOM      1  O01 6QS d   1       0.888   7.813  11.468  0.00  0.00    -0.293 OA
ATOM      2  C02 6QS d   1       0.883   7.191  12.491  0.00  0.00     0.158 C 
ATOM      3  C03 6QS d   1      -0.361   6.689  13.111  0.00  0.00    -0.005 C 
ATOM      4  C04 6QS d   1      -0.185   5.196  13.161  0.00  0.00    -0.054 C 
ATOM      5  C05 6QS d   1       0.932   4.811  14.109  0.00  0.00    -0.026 C 
ATOM      6  C06 6QS d   1       2.178   5.610  13.901  0.00  0.00     0.020 A 
ATOM      7  C07 6QS d   1       2.153   6.823  13.096  0.00  0.00     0.023 A 
ATOM      8  C08 6QS d   1       3.303   7.661  12.856  0.00  0.00     0.035 A 
ATOM      9  C09 6QS d   1       4.484   7.098  13.494  0.00  0.00     0.052 A 
ATOM     10  C19 6QS d   1       4.416   5.868  14.290  0.00  0.00     0.018 A 
ATOM     11  N21 6QS d   1       3.293   5.206  14.450  0.00  0.00    -0.362 N 
ATOM     12  H1  6QS d   1      -1.235   6.957  12.499  0.00  0.00     0.044 H 
ATOM     13  H2  6QS d   1      -0.483   7.100  14.124  0.00  0.00     0.044 H 
ATOM     14  H3  6QS d   1       0.057   4.829  12.153  0.00  0.00     0.034 H 
ATOM     15  H4  6QS d   1      -1.123   4.735  13.504  0.00  0.00     0.034 H 
ATOM     16  H5  6QS d   1       1.169   3.748  13.958  0.00  0.00     0.042 H 
ATOM     17  H6  6QS d   1       0.585   4.966  15.141  0.00  0.00     0.042 H 
ATOM     18  H7  6QS d   1       3.468   7.800  11.777  0.00  0.00     0.063 H 
ATOM     19  H20 6QS d   1       3.291   4.349  15.021  0.00  0.00     0.165 HD
ENDROOT
BRANCH   8  20
ATOM     20  C22 6QS d   1       3.039   8.940  13.537  0.00  0.00    -0.044 A 
ATOM     21  C23 6QS d   1       3.264  10.098  12.822  0.00  0.00    -0.074 A 
ATOM     22  C24 6QS d   1       3.073  11.364  13.338  0.00  0.00    -0.056 A 
ATOM     23  H21 6QS d   1       3.610  10.009  11.799  0.00  0.00     0.084 H 
ATOM     24  C27 6QS d   1       2.630  11.488  14.624  0.00  0.00     0.046 A 
ATOM     25  H22 6QS d   1       3.271  12.242  12.734  0.00  0.00     0.087 H 
ATOM     26  C26 6QS d   1       2.400  10.271  15.375  0.00  0.00     0.004 A 
ATOM     27  N28 6QS d   1       2.353  12.539  15.405  0.00  0.00    -0.346 N 
ATOM     28  C25 6QS d   1       2.595   9.011  14.850  0.00  0.00    -0.063 A 
ATOM     29  C32 6QS d   1       1.960  10.727  16.672  0.00  0.00     0.003 A 
ATOM     30  H23 6QS d   1       2.410   8.118  15.435  0.00  0.00     0.085 H 
ATOM     31  C31 6QS d   1       1.952  12.177  16.632  0.00  0.00     0.046 A 
ATOM     32  C33 6QS d   1       1.596  10.023  17.787  0.00  0.00    -0.070 A 
ATOM     33  C36 6QS d   1       1.566  12.846  17.762  0.00  0.00    -0.056 A 
ATOM     34  C35 6QS d   1       1.201  12.124  18.881  0.00  0.00    -0.081 A 
ATOM     35  H32 6QS d   1       1.547  13.930  17.778  0.00  0.00     0.087 H 
ATOM     36  C34 6QS d   1       1.214  10.749  18.897  0.00  0.00    -0.082 A 
ATOM     37  H31 6QS d   1       0.895  12.657  19.774  0.00  0.00     0.083 H 
ATOM     38  H30 6QS d   1       0.918  10.225  19.799  0.00  0.00     0.083 H 
ATOM     39  H29 6QS d   1       1.607   8.939  17.798  0.00  0.00     0.084 H 
BRANCH  27  40
ATOM     40  C29 6QS d   1       2.495  13.884  14.894  0.00  0.00    -0.003 C 
ATOM     41  H24 6QS d   1       1.706  14.065  14.149  0.00  0.00     0.064 H 
ATOM     42  H25 6QS d   1       3.481  13.979  14.415  0.00  0.00     0.064 H 
BRANCH  40  43
ATOM     43  C30 6QS d   1       2.383  14.915  15.974  0.00  0.00    -0.061 C 
ATOM     44  H26 6QS d   1       2.497  15.918  15.537  0.00  0.00     0.029 H 
ATOM     45  H27 6QS d   1       3.172  14.749  16.722  0.00  0.00     0.029 H 
ATOM     46  H28 6QS d   1       1.397  14.835  16.456  0.00  0.00     0.029 H 
ENDBRANCH  40  43
ENDBRANCH  27  40
ENDBRANCH   8  20
BRANCH   9  47
ATOM     47  C10 6QS d   1       5.768   7.816  13.337  0.00  0.00     0.292 C 
ATOM     48  O18 6QS d   1       6.821   7.305  13.557  0.00  0.00    -0.259 OA
BRANCH  47  49
ATOM     49  O11 6QS d   1       5.800   9.160  12.892  0.00  0.00    -0.315 OA
BRANCH  49  50
ATOM     50  C12 6QS d   1       6.779  10.005  13.430  0.00  0.00     0.053 C 
ATOM     51  H8  6QS d   1       7.740   9.873  12.911  0.00  0.00     0.079 H 
ATOM     52  H9  6QS d   1       6.914   9.816  14.505  0.00  0.00     0.079 H 
BRANCH  50  53
ATOM     53  C13 6QS d   1       6.227  11.375  13.193  0.00  0.00     0.059 C 
ATOM     54  O14 6QS d   1       6.991  11.941  12.163  0.00  0.00    -0.384 OA
ATOM     55  C15 6QS d   1       7.517  13.197  12.560  0.00  0.00     0.020 C 
ATOM     56  C16 6QS d   1       7.133  13.448  14.003  0.00  0.00    -0.043 C 
ATOM     57  H11 6QS d   1       7.101  13.991  11.922  0.00  0.00     0.074 H 
ATOM     58  H12 6QS d   1       8.613  13.187  12.465  0.00  0.00     0.074 H 
ATOM     59  C17 6QS d   1       6.412  12.203  14.438  0.00  0.00    -0.037 C 
ATOM     60  H13 6QS d   1       6.472  14.324  14.080  0.00  0.00     0.036 H 
ATOM     61  H14 6QS d   1       8.030  13.610  14.619  0.00  0.00     0.036 H 
ATOM     62  H15 6QS d   1       7.012  11.652  15.178  0.00  0.00     0.036 H 
ATOM     63  H16 6QS d   1       5.436  12.460  14.875  0.00  0.00     0.036 H 
ATOM     64  H10 6QS d   1       5.164  11.328  12.916  0.00  0.00     0.086 H 
ENDBRANCH  50  53
ENDBRANCH  49  50
ENDBRANCH  47  49
ENDBRANCH   9  47
BRANCH  10  65
ATOM     65  C20 6QS d   1       5.634   5.328  14.955  0.00  0.00    -0.037 C 
ATOM     66  H17 6QS d   1       5.377   4.407  15.499  0.00  0.00     0.035 H 
ATOM     67  H18 6QS d   1       6.027   6.074  15.662  0.00  0.00     0.035 H 
ATOM     68  H19 6QS d   1       6.398   5.104  14.196  0.00  0.00     0.035 H 
ENDBRANCH  10  65
TORSDOF 8
