REMARK  8 active torsions:
REMARK  status: ('A' for Active; 'I' for Inactive)
REMARK    1  A    between atoms: C4_1  and  O13_24 
REMARK    2  A    between atoms: C19_7  and  C20_3 
REMARK    3  A    between atoms: C20_3  and  N21_21 
REMARK    4  A    between atoms: C18_5  and  C19_7 
REMARK    5  A    between atoms: N16_22  and  C18_5 
REMARK    6  A    between atoms: C11_14  and  C1_12 
REMARK    7  A    between atoms: C15_16  and  C10_15 
REMARK       I    between atoms: C15_16  and  N16_22 
REMARK    8  A    between atoms: O13_24  and  C14_17 
ROOT
ATOM      1  C8  6QH d   1      -2.660   4.051  29.080  0.00  0.00     0.104 A 
ATOM      2  C11 6QH d   1      -1.623   5.130  27.518  0.00  0.00     0.121 A 
ATOM      3  C10 6QH d   1      -1.942   5.972  28.538  0.00  0.00     0.160 A 
ATOM      4  N9  6QH d   1      -2.591   5.253  29.530  0.00  0.00    -0.228 NA
ATOM      5  O7  6QH d   1      -2.094   3.894  27.856  0.00  0.00    -0.301 OA
ATOM      6  H4  6QH d   1      -3.128   3.235  29.629  0.00  0.00     0.155 H 
ENDROOT
BRANCH   3   7
ATOM      7  C15 6QH d   1      -1.670   7.419  28.749  0.00  0.00     0.273 C 
ATOM      8  O17 6QH d   1      -1.304   8.146  27.825  0.00  0.00    -0.266 OA
ATOM      9  N16 6QH d   1      -1.951   7.873  29.973  0.00  0.00    -0.355 N 
ATOM     10  H16 6QH d   1      -2.353   7.243  30.638  0.00  0.00     0.162 HD
BRANCH   9  11
ATOM     11  C18 6QH d   1      -1.696   9.249  30.380  0.00  0.00    -0.003 C 
ATOM     12  H5  6QH d   1      -1.895   9.915  29.528  0.00  0.00     0.064 H 
ATOM     13  H6  6QH d   1      -2.369   9.505  31.211  0.00  0.00     0.064 H 
BRANCH  11  14
ATOM     14  C19 6QH d   1      -0.258   9.444  30.833  0.00  0.00    -0.034 C 
ATOM     15  H7  6QH d   1      -0.072   8.768  31.680  0.00  0.00     0.037 H 
ATOM     16  H8  6QH d   1       0.403   9.174  29.996  0.00  0.00     0.037 H 
BRANCH  14  17
ATOM     17  C20 6QH d   1       0.092  10.859  31.273  0.00  0.00     0.019 C 
ATOM     18  H2  6QH d   1       1.185  10.930  31.376  0.00  0.00     0.067 H 
ATOM     19  H3  6QH d   1      -0.381  11.046  32.248  0.00  0.00     0.067 H 
BRANCH  17  20
ATOM     20  N21 6QH d   1      -0.352  11.893  30.339  0.00  0.00    -0.262 N 
ATOM     21  C25 6QH d   1       0.155  12.263  29.167  0.00  0.00     0.084 A 
ATOM     22  N24 6QH d   1      -0.542  13.247  28.643  0.00  0.00    -0.234 NA
ATOM     23  H12 6QH d   1       1.031  11.811  28.703  0.00  0.00     0.146 H 
ATOM     24  C23 6QH d   1      -1.496  13.451  29.577  0.00  0.00     0.107 A 
ATOM     25  N22 6QH d   1      -1.435  12.659  30.625  0.00  0.00    -0.165 NA
ATOM     26  H11 6QH d   1      -2.262  14.218  29.470  0.00  0.00     0.149 H 
ENDBRANCH  17  20
ENDBRANCH  14  17
ENDBRANCH  11  14
ENDBRANCH   9  11
ENDBRANCH   3   7
BRANCH   2  27
ATOM     27  C1  6QH d   1      -0.894   5.185  26.244  0.00  0.00     0.002 A 
ATOM     28  C6  6QH d   1      -0.703   4.019  25.507  0.00  0.00    -0.046 A 
ATOM     29  C5  6QH d   1       0.031   4.054  24.338  0.00  0.00     0.068 A 
ATOM     30  H1  6QH d   1      -1.131   3.084  25.851  0.00  0.00     0.087 H 
ATOM     31  C4  6QH d   1       0.576   5.247  23.861  0.00  0.00     0.089 A 
ATOM     32 CL1  6QH d   1       0.333   2.567  23.491  0.00  0.00    -0.081 Cl
ATOM     33  C3  6QH d   1       0.376   6.415  24.594  0.00  0.00    -0.048 A 
ATOM     34  C2  6QH d   1      -0.351   6.380  25.774  0.00  0.00    -0.068 A 
ATOM     35  H10 6QH d   1       0.790   7.353  24.241  0.00  0.00     0.087 H 
ATOM     36  H9  6QH d   1      -0.499   7.293  26.338  0.00  0.00     0.085 H 
BRANCH  31  37
ATOM     37  O13 6QH d   1       1.286   5.176  22.692  0.00  0.00    -0.354 OA
BRANCH  37  38
ATOM     38  C14 6QH d   1       1.887   6.374  22.199  0.00  0.00     0.010 C 
ATOM     39  H13 6QH d   1       2.418   6.158  21.260  0.00  0.00     0.066 H 
ATOM     40  H14 6QH d   1       2.599   6.760  22.943  0.00  0.00     0.066 H 
ATOM     41  H15 6QH d   1       1.106   7.127  22.014  0.00  0.00     0.066 H 
ENDBRANCH  37  38
ENDBRANCH  31  37
ENDBRANCH   2  27
TORSDOF 8
