REMARK  3 active torsions:
REMARK  status: ('A' for Active; 'I' for Inactive)
REMARK    1  A    between atoms: CAC_6  and  OAQ_7 
REMARK    2  A    between atoms: CAJ_12  and  CAM_13 
REMARK    3  A    between atoms: CAO_15  and  OAR_16 
ROOT
ATOM      1  CAI 6QT d   1     -30.276 -16.302  13.613  0.00  0.00     0.023 C 
ATOM      2  CAH 6QT d   1     -28.976 -15.680  13.525  0.00  0.00     0.165 C 
ATOM      3  OAS 6QT d   1     -28.058 -16.285  12.921  0.00  0.00    -0.292 OA
ATOM      4  CAE 6QT d   1     -28.745 -14.362  14.036  0.00  0.00     0.046 A 
ATOM      5  CAD 6QT d   1     -27.498 -13.677  13.861  0.00  0.00    -0.035 A 
ATOM      6  CAC 6QT d   1     -27.332 -12.388  14.426  0.00  0.00     0.066 A 
ATOM      7  CAB 6QT d   1     -28.370 -11.777  15.133  0.00  0.00    -0.048 A 
ATOM      8  CAA 6QT d   1     -29.602 -12.413  15.299  0.00  0.00    -0.047 A 
ATOM      9  CAF 6QT d   1     -29.782 -13.696  14.777  0.00  0.00     0.083 A 
ATOM     10  OAG 6QT d   1     -31.002 -14.311  14.963  0.00  0.00    -0.340 OA
ATOM     11  CAJ 6QT d   1     -31.064 -15.778  14.870  0.00  0.00     0.077 C 
ATOM     12  H1  6QT d   1     -30.149 -17.392  13.696  0.00  0.00     0.049 H 
ATOM     13  H2  6QT d   1     -30.850 -16.067  12.704  0.00  0.00     0.049 H 
ATOM     14  H3  6QT d   1     -26.692 -14.139  13.303  0.00  0.00     0.089 H 
ATOM     15  H5  6QT d   1     -28.217 -10.793  15.560  0.00  0.00     0.087 H 
ATOM     16  H6  6QT d   1     -30.409 -11.917  15.826  0.00  0.00     0.087 H 
ATOM     17  H7  6QT d   1     -30.520 -16.170  15.742  0.00  0.00     0.092 H 
ENDROOT
BRANCH  11  18
ATOM     18  CAM 6QT d   1     -32.406 -16.243  15.018  0.00  0.00    -0.026 A 
ATOM     19  CAN 6QT d   1     -33.512 -15.347  15.038  0.00  0.00    -0.042 A 
ATOM     20  CAO 6QT d   1     -34.828 -15.849  15.225  0.00  0.00     0.066 A 
ATOM     21  H8  6QT d   1     -33.350 -14.283  14.911  0.00  0.00     0.088 H 
ATOM     22  CAP 6QT d   1     -35.033 -17.234  15.385  0.00  0.00    -0.051 A 
ATOM     23  CAK 6QT d   1     -33.950 -18.124  15.368  0.00  0.00    -0.080 A 
ATOM     24  H10 6QT d   1     -36.038 -17.615  15.523  0.00  0.00     0.087 H 
ATOM     25  CAL 6QT d   1     -32.659 -17.619  15.189  0.00  0.00    -0.074 A 
ATOM     26  H11 6QT d   1     -34.111 -19.189  15.492  0.00  0.00     0.083 H 
ATOM     27  H12 6QT d   1     -31.823 -18.309  15.181  0.00  0.00     0.084 H 
BRANCH  20  28
ATOM     28  OAR 6QT d   1     -35.925 -15.012  15.246  0.00  0.00    -0.361 OA
ATOM     29  H9  6QT d   1     -35.985 -14.550  14.418  0.00  0.00     0.217 HD
ENDBRANCH  20  28
ENDBRANCH  11  18
BRANCH   6  30
ATOM     30  OAQ 6QT d   1     -26.190 -11.662  14.306  0.00  0.00    -0.361 OA
ATOM     31  H4  6QT d   1     -26.294 -10.833  14.758  0.00  0.00     0.217 HD
ENDBRANCH   6  30
TORSDOF 3
