REMARK WARNING: 32 MAX_TORS EXCEEDED!!!
REMARK  47 active torsions:
REMARK  status: ('A' for Active; 'I' for Inactive)
REMARK    1  A    between atoms: N_1  and  CA_2 
REMARK    2  A    between atoms: CA_2  and  C_3 
REMARK    3  A    between atoms: CA_2  and  CB_5 
REMARK       I    between atoms: C_3  and  N_6 
REMARK    4  A    between atoms: N_6  and  CA_7 
REMARK    5  A    between atoms: CA_7  and  C_8 
REMARK    6  A    between atoms: CA_7  and  CB_10 
REMARK       I    between atoms: C_8  and  N_12 
REMARK    7  A    between atoms: CB_10  and  CG_11 
REMARK    8  A    between atoms: N_12  and  CA_13 
REMARK    9  A    between atoms: CA_13  and  C_14 
REMARK   10  A    between atoms: CA_13  and  CB_16 
REMARK       I    between atoms: C_14  and  N_20 
REMARK   11  A    between atoms: CB_16  and  CG_17 
REMARK   12  A    between atoms: CG_17  and  CD1_18 
REMARK   13  A    between atoms: CG_17  and  CD2_19 
REMARK   14  A    between atoms: N_20  and  CA_21 
REMARK   15  A    between atoms: CA_21  and  CB_22 
REMARK   16  A    between atoms: CA_21  and  C_24 
REMARK   17  A    between atoms: CB_22  and  OG_23 
REMARK   18  A    between atoms: OG_23  and  P_26 
REMARK       I    between atoms: C_24  and  N_30 
REMARK   19  A    between atoms: CA_31  and  C_32 
REMARK       I    between atoms: C_32  and  N_37 
REMARK   20  A    between atoms: N_37  and  CA_38 
REMARK   21  A    between atoms: CA_38  and  C_39 
REMARK   22  A    between atoms: CA_38  and  CB_41 
REMARK       I    between atoms: C_39  and  N_45 
REMARK   23  A    between atoms: CB_41  and  CG1_42 
REMARK   24  A    between atoms: CB_41  and  CG2_43 
REMARK   25  A    between atoms: CG1_42  and  CD1_44 
REMARK   26  A    between atoms: N_45  and  CA_46 
REMARK   27  A    between atoms: CA_46  and  C_47 
REMARK   28  A    between atoms: CA_46  and  CB_49 
REMARK       I    between atoms: C_47  and  N_53 
REMARK   29  A    between atoms: CB_49  and  CG1_50 
REMARK   30  A    between atoms: CB_49  and  CG2_51 
REMARK   31  A    between atoms: CG1_50  and  CD1_52 
REMARK   32  A    between atoms: N_53  and  CA_54 
REMARK   33  A    between atoms: CA_54  and  C_55 
REMARK   34  A    between atoms: CA_54  and  CB_57 
REMARK       I    between atoms: C_55  and  N_62 
REMARK   35  A    between atoms: CB_57  and  CG_58 
REMARK   36  A    between atoms: CG_58  and  CD_59 
REMARK   37  A    between atoms: N_62  and  CA_63 
REMARK   38  A    between atoms: CA_63  and  C_64 
REMARK   39  A    between atoms: CA_63  and  CB_66 
REMARK       I    between atoms: C_64  and  N_70 
REMARK   40  A    between atoms: CB_66  and  CG_67 
REMARK   41  A    between atoms: N_70  and  CA_71 
REMARK   42  A    between atoms: CA_71  and  C_72 
REMARK   43  A    between atoms: CA_71  and  CB_74 
REMARK       I    between atoms: C_72  and  N_78 
REMARK   44  A    between atoms: CB_74  and  CG_75 
REMARK   45  A    between atoms: N_78  and  CA_79 
REMARK   46  A    between atoms: CA_79  and  C_80 
REMARK   47  A    between atoms: CA_79  and  CB_82 
ROOT
ATOM      1  CA  ILE d   1     -17.867 -16.265  32.884  0.00  0.00     0.092 C 
ATOM      2  H38 ILE d   1     -18.425 -16.377  31.943  0.00  0.00     0.088 H 
ENDROOT
BRANCH   1   3
ATOM      3  N   ILE d   1     -17.334 -14.910  32.942  0.00  0.00    -0.346 N 
ATOM      4  C   PRO d   1     -17.685 -13.978  32.063  0.00  0.00     0.241 C 
ATOM      5  O   PRO d   1     -18.419 -14.199  31.099  0.00  0.00    -0.271 OA
ATOM      6  H37 ILE d   1     -16.685 -14.675  33.665  0.00  0.00     0.163 HD
BRANCH   4   7
ATOM      7  CA  PRO d   1     -17.118 -12.578  32.292  0.00  0.00     0.091 C 
ATOM      8  N   PRO d   1     -16.824 -11.871  31.040  0.00  0.00    -0.337 N 
ATOM      9  C   SEP d   1     -15.952 -12.344  30.136  0.00  0.00     0.245 C 
ATOM     10  CD  PRO d   1     -17.542 -10.588  30.953  0.00  0.00    -0.001 C 
ATOM     11  O   SEP d   1     -15.358 -13.413  30.279  0.00  0.00    -0.271 OA
ATOM     12  CG  PRO d   1     -17.940 -10.332  32.371  0.00  0.00    -0.048 C 
ATOM     13  H35 PRO d   1     -18.425 -10.672  30.303  0.00  0.00     0.064 H 
ATOM     14  H36 PRO d   1     -16.884  -9.791  30.576  0.00  0.00     0.064 H 
ATOM     15  CB  PRO d   1     -18.157 -11.678  32.968  0.00  0.00    -0.036 C 
ATOM     16  H33 PRO d   1     -17.140  -9.798  32.905  0.00  0.00     0.035 H 
ATOM     17  H34 PRO d   1     -18.866  -9.739  32.410  0.00  0.00     0.035 H 
ATOM     18  H31 PRO d   1     -17.996 -11.650  34.056  0.00  0.00     0.036 H 
ATOM     19  H32 PRO d   1     -19.175 -12.036  32.757  0.00  0.00     0.036 H 
ATOM     20  H30 PRO d   1     -16.210 -12.658  32.908  0.00  0.00     0.087 H 
BRANCH   9  21
ATOM     21  CA  SEP d   1     -15.710 -11.488  28.898  0.00  0.00     0.110 C 
ATOM     22  H27 SEP d   1     -15.895 -10.434  29.154  0.00  0.00     0.090 H 
BRANCH  21  23
ATOM     23  N   SEP d   1     -14.327 -11.626  28.458  0.00  0.00    -0.344 N 
ATOM     24  C   LEU d   1     -13.313 -11.146  29.171  0.00  0.00     0.241 C 
ATOM     25  O   LEU d   1     -13.464 -10.547  30.237  0.00  0.00    -0.271 OA
ATOM     26  H26 SEP d   1     -14.136 -12.095  27.596  0.00  0.00     0.163 HD
BRANCH  24  27
ATOM     27  CA  LEU d   1     -11.920 -11.377  28.595  0.00  0.00     0.089 C 
ATOM     28  H16 LEU d   1     -12.028 -11.649  27.535  0.00  0.00     0.087 H 
BRANCH  27  29
ATOM     29  N   LEU d   1     -11.093 -10.174  28.671  0.00  0.00    -0.346 N 
ATOM     30  C   LYS d   1     -11.415  -9.057  28.023  0.00  0.00     0.241 C 
ATOM     31  O   LYS d   1     -12.429  -8.950  27.332  0.00  0.00    -0.271 OA
ATOM     32  H15 LEU d   1     -10.261 -10.191  29.226  0.00  0.00     0.163 HD
BRANCH  30  33
ATOM     33  CA  LYS d   1     -10.451  -7.882  28.170  0.00  0.00     0.089 C 
ATOM     34  H9  LYS d   1      -9.443  -8.281  28.358  0.00  0.00     0.087 H 
BRANCH  33  35
ATOM     35  N   LYS d   1     -10.414  -7.092  26.945  0.00  0.00    -0.346 N 
ATOM     36  C   LYS d   1      -9.793  -7.524  25.851  0.00  0.00     0.248 C 
ATOM     37  O   LYS d   1      -9.209  -8.609  25.792  0.00  0.00    -0.271 OA
ATOM     38  H8  LYS d   1     -10.868  -6.201  26.927  0.00  0.00     0.163 HD
BRANCH  36  39
ATOM     39  CA  LYS d   1      -9.840  -6.593  24.641  0.00  0.00     0.172 C 
ATOM     40  H4  LYS d   1     -10.742  -5.969  24.721  0.00  0.00     0.098 H 
BRANCH  39  41
ATOM     41  N   LYS d   1      -8.678  -5.712  24.607  0.00  0.00    -0.067 N 
ATOM     42  H1  LYS d   1      -8.736  -5.111  23.800  0.00  0.00     0.275 HD
ATOM     43  H2  LYS d   1      -7.838  -6.266  24.553  0.00  0.00     0.275 HD
ATOM     44  H3  LYS d   1      -8.658  -5.150  25.444  0.00  0.00     0.275 HD
ENDBRANCH  39  41
BRANCH  39  45
ATOM     45  CB  LYS d   1      -9.929  -7.410  23.350  0.00  0.00    -0.042 C 
ATOM     46  H5  LYS d   1     -10.809  -8.068  23.392  0.00  0.00     0.030 H 
ATOM     47  H6  LYS d   1      -9.021  -8.020  23.239  0.00  0.00     0.030 H 
ATOM     48  H7  LYS d   1     -10.021  -6.729  22.491  0.00  0.00     0.030 H 
ENDBRANCH  39  45
ENDBRANCH  36  39
ENDBRANCH  33  35
BRANCH  33  49
ATOM     49  CB  LYS d   1     -10.854  -7.003  29.358  0.00  0.00    -0.041 C 
ATOM     50  H10 LYS d   1     -11.910  -6.723  29.233  0.00  0.00     0.036 H 
ATOM     51  H11 LYS d   1     -10.230  -6.098  29.341  0.00  0.00     0.036 H 
BRANCH  49  52
ATOM     52  CG  LYS d   1     -10.696  -7.663  30.725  0.00  0.00    -0.074 C 
ATOM     53  H12 LYS d   1     -11.008  -6.959  31.510  0.00  0.00     0.027 H 
ATOM     54  H13 LYS d   1      -9.643  -7.940  30.879  0.00  0.00     0.027 H 
ATOM     55  H14 LYS d   1     -11.323  -8.565  30.771  0.00  0.00     0.027 H 
ENDBRANCH  49  52
ENDBRANCH  33  49
ENDBRANCH  30  33
ENDBRANCH  27  29
BRANCH  27  56
ATOM     56  CB  LEU d   1     -11.245 -12.540  29.325  0.00  0.00    -0.035 C 
ATOM     57  H17 LEU d   1     -11.973 -13.363  29.383  0.00  0.00     0.037 H 
ATOM     58  H18 LEU d   1     -10.999 -12.196  30.340  0.00  0.00     0.037 H 
BRANCH  56  59
ATOM     59  CG  LEU d   1      -9.965 -13.100  28.705  0.00  0.00    -0.059 C 
ATOM     60  H19 LEU d   1      -9.240 -12.279  28.602  0.00  0.00     0.038 H 
BRANCH  59  61
ATOM     61  CD1 LEU d   1      -9.361 -14.163  29.605  0.00  0.00    -0.073 C 
ATOM     62  H20 LEU d   1      -8.442 -14.555  29.144  0.00  0.00     0.028 H 
ATOM     63  H21 LEU d   1     -10.082 -14.983  29.739  0.00  0.00     0.028 H 
ATOM     64  H22 LEU d   1      -9.121 -13.722  30.584  0.00  0.00     0.028 H 
ENDBRANCH  59  61
BRANCH  59  65
ATOM     65  CD2 LEU d   1     -10.249 -13.664  27.324  0.00  0.00    -0.073 C 
ATOM     66  H23 LEU d   1     -10.685 -12.878  26.690  0.00  0.00     0.028 H 
ATOM     67  H24 LEU d   1     -10.957 -14.502  27.409  0.00  0.00     0.028 H 
ATOM     68  H25 LEU d   1      -9.311 -14.020  26.873  0.00  0.00     0.028 H 
ENDBRANCH  59  65
ENDBRANCH  56  59
ENDBRANCH  27  56
ENDBRANCH  24  27
ENDBRANCH  21  23
BRANCH  21  69
ATOM     69  CB  SEP d   1     -16.670 -11.897  27.780  0.00  0.00     0.059 C 
ATOM     70  H28 SEP d   1     -16.375 -11.391  26.849  0.00  0.00     0.079 H 
ATOM     71  H29 SEP d   1     -17.692 -11.595  28.054  0.00  0.00     0.079 H 
BRANCH  69  72
ATOM     72  OG  SEP d   1     -16.639 -13.298  27.576  0.00  0.00    -0.280 OA
BRANCH  72  73
ATOM     73  P   SEP d   1     -17.223 -13.662  26.123  0.00  0.00     0.422 P 
ATOM     74  O1P SEP d   1     -16.090 -13.395  25.011  0.00  0.00    -0.617 OA
ATOM     75  O2P SEP d   1     -17.645 -15.215  26.101  0.00  0.00    -0.617 OA
ATOM     76  O3P SEP d   1     -18.512 -12.747  25.813  0.00  0.00    -0.617 OA
ENDBRANCH  72  73
ENDBRANCH  69  72
ENDBRANCH  21  69
ENDBRANCH   9  21
ENDBRANCH   4   7
ENDBRANCH   1   3
BRANCH   1  77
ATOM     77  C   ILE d   1     -18.820 -16.505  34.051  0.00  0.00     0.241 C 
ATOM     78  O   ILE d   1     -18.385 -16.700  35.187  0.00  0.00    -0.271 OA
ATOM     79  N   ILE d   1     -20.118 -16.484  33.763  0.00  0.00    -0.346 N 
ATOM     80  H48 ILE d   1     -20.401 -16.339  32.815  0.00  0.00     0.163 HD
BRANCH  79  81
ATOM     81  CA  ILE d   1     -21.144 -16.666  34.786  0.00  0.00     0.092 C 
ATOM     82  H49 ILE d   1     -20.985 -15.901  35.560  0.00  0.00     0.088 H 
BRANCH  81  83
ATOM     83  C   ILE d   1     -21.051 -18.042  35.448  0.00  0.00     0.241 C 
ATOM     84  O   ILE d   1     -21.089 -19.074  34.773  0.00  0.00    -0.271 OA
ATOM     85  N   GLU d   1     -20.920 -18.043  36.773  0.00  0.00    -0.346 N 
ATOM     86  H59 GLU d   1     -20.886 -17.168  37.256  0.00  0.00     0.163 HD
BRANCH  85  87
ATOM     87  CA  GLU d   1     -20.825 -19.276  37.543  0.00  0.00     0.090 C 
ATOM     88  H60 GLU d   1     -20.000 -19.879  37.137  0.00  0.00     0.087 H 
BRANCH  87  89
ATOM     89  C   GLU d   1     -22.116 -20.072  37.412  0.00  0.00     0.241 C 
ATOM     90  O   GLU d   1     -23.208 -19.502  37.353  0.00  0.00    -0.271 OA
ATOM     91  N   ASP d   1     -21.982 -21.391  37.354  0.00  0.00    -0.346 N 
ATOM     92  H65 ASP d   1     -21.072 -21.793  37.452  0.00  0.00     0.163 HD
BRANCH  91  93
ATOM     93  CA  ASP d   1     -23.127 -22.267  37.151  0.00  0.00     0.098 C 
ATOM     94  H66 ASP d   1     -24.039 -21.726  37.445  0.00  0.00     0.088 H 
BRANCH  93  95
ATOM     95  C   ASP d   1     -22.998 -23.509  38.029  0.00  0.00     0.241 C 
ATOM     96  O   ASP d   1     -22.082 -23.609  38.842  0.00  0.00    -0.271 OA
ATOM     97  N   ASP d   1     -23.918 -24.452  37.864  0.00  0.00    -0.345 N 
ATOM     98  H69 ASP d   1     -24.602 -24.344  37.143  0.00  0.00     0.163 HD
BRANCH  97  99
ATOM     99  CA  ASP d   1     -23.956 -25.640  38.707  0.00  0.00     0.098 C 
ATOM    100  H70 ASP d   1     -23.072 -25.626  39.361  0.00  0.00     0.088 H 
BRANCH  99 101
ATOM    101  C   ASP d   1     -23.913 -26.918  37.875  0.00  0.00     0.241 C 
ATOM    102  O   ASP d   1     -24.876 -27.247  37.184  0.00  0.00    -0.271 OA
ATOM    103  N   ARG d   1     -22.789 -27.627  37.936  0.00  0.00    -0.345 N 
ATOM    104  H73 ARG d   1     -22.018 -27.272  38.465  0.00  0.00     0.163 HD
BRANCH 103 105
ATOM    105  CA  ARG d   1     -22.649 -28.911  37.251  0.00  0.00     0.093 C 
ATOM    106  H74 ARG d   1     -23.564 -29.495  37.431  0.00  0.00     0.089 H 
BRANCH 105 107
ATOM    107  C   ARG d   1     -21.459 -29.710  37.793  0.00  0.00     0.196 C 
ATOM    108  O   ARG d   1     -20.522 -29.146  38.370  0.00  0.00    -0.646 OA
ATOM    109  OXT ARG d   1     -21.406 -30.939  37.667  0.00  0.00    -0.646 OA
ENDBRANCH 105 107
BRANCH 105 110
ATOM    110  CB  ARG d   1     -22.500 -28.703  35.740  0.00  0.00    -0.048 C 
ATOM    111  H75 ARG d   1     -22.396 -29.679  35.244  0.00  0.00     0.030 H 
ATOM    112  H76 ARG d   1     -21.607 -28.093  35.540  0.00  0.00     0.030 H 
ATOM    113  H77 ARG d   1     -23.390 -28.187  35.351  0.00  0.00     0.030 H 
ENDBRANCH 105 110
ENDBRANCH 103 105
ENDBRANCH  99 101
BRANCH  99 114
ATOM    114  CB  ASP d   1     -25.211 -25.620  39.586  0.00  0.00     0.043 C 
ATOM    115  H71 ASP d   1     -25.135 -26.429  40.328  0.00  0.00     0.052 H 
ATOM    116  H72 ASP d   1     -26.091 -25.790  38.948  0.00  0.00     0.052 H 
BRANCH 114 117
ATOM    117  CG  ASP d   1     -25.389 -24.302  40.320  0.00  0.00     0.175 C 
ATOM    118  OD1 ASP d   1     -25.981 -23.366  39.740  0.00  0.00    -0.648 OA
ATOM    119  OD2 ASP d   1     -24.932 -24.203  41.478  0.00  0.00    -0.648 OA
ENDBRANCH 114 117
ENDBRANCH  99 114
ENDBRANCH  97  99
ENDBRANCH  93  95
BRANCH  93 120
ATOM    120  CB  ASP d   1     -23.247 -22.650  35.672  0.00  0.00     0.043 C 
ATOM    121  H67 ASP d   1     -22.567 -23.491  35.470  0.00  0.00     0.052 H 
ATOM    122  H68 ASP d   1     -22.952 -21.785  35.060  0.00  0.00     0.052 H 
BRANCH 120 123
ATOM    123  CG  ASP d   1     -24.658 -23.062  35.283  0.00  0.00     0.175 C 
ATOM    124  OD1 ASP d   1     -25.233 -23.950  35.947  0.00  0.00    -0.648 OA
ATOM    125  OD2 ASP d   1     -25.196 -22.493  34.311  0.00  0.00    -0.648 OA
ENDBRANCH 120 123
ENDBRANCH  93 120
ENDBRANCH  91  93
ENDBRANCH  87  89
BRANCH  87 126
ATOM    126  CB  GLU d   1     -20.523 -18.973  39.016  0.00  0.00    -0.029 C 
ATOM    127  H61 GLU d   1     -21.417 -18.511  39.461  0.00  0.00     0.037 H 
ATOM    128  H62 GLU d   1     -19.685 -18.261  39.054  0.00  0.00     0.037 H 
BRANCH 126 129
ATOM    129  CG  GLU d   1     -20.150 -20.191  39.857  0.00  0.00     0.018 C 
ATOM    130  H63 GLU d   1     -19.308 -20.709  39.374  0.00  0.00     0.049 H 
ATOM    131  H64 GLU d   1     -21.017 -20.866  39.904  0.00  0.00     0.049 H 
BRANCH 129 132
ATOM    132  CD  GLU d   1     -19.745 -19.820  41.274  0.00  0.00     0.172 C 
ATOM    133  OE1 GLU d   1     -20.044 -18.686  41.706  0.00  0.00    -0.648 OA
ATOM    134  OE2 GLU d   1     -19.122 -20.662  41.954  0.00  0.00    -0.648 OA
ENDBRANCH 129 132
ENDBRANCH 126 129
ENDBRANCH  87 126
ENDBRANCH  85  87
ENDBRANCH  81  83
BRANCH  81 135
ATOM    135  CB  ILE d   1     -22.562 -16.478  34.203  0.00  0.00    -0.030 C 
ATOM    136  H50 ILE d   1     -22.652 -17.100  33.301  0.00  0.00     0.043 H 
BRANCH 135 137
ATOM    137  CG1 ILE d   1     -22.797 -15.014  33.810  0.00  0.00    -0.063 C 
ATOM    138  H51 ILE d   1     -22.232 -14.377  34.506  0.00  0.00     0.033 H 
ATOM    139  H52 ILE d   1     -23.872 -14.801  33.907  0.00  0.00     0.033 H 
BRANCH 137 140
ATOM    140  CD1 ILE d   1     -22.370 -14.662  32.392  0.00  0.00    -0.076 C 
ATOM    141  H56 ILE d   1     -22.575 -13.598  32.201  0.00  0.00     0.027 H 
ATOM    142  H57 ILE d   1     -22.933 -15.279  31.676  0.00  0.00     0.027 H 
ATOM    143  H58 ILE d   1     -21.293 -14.855  32.275  0.00  0.00     0.027 H 
ENDBRANCH 137 140
ENDBRANCH 135 137
BRANCH 135 144
ATOM    144  CG2 ILE d   1     -23.613 -16.926  35.207  0.00  0.00    -0.071 C 
ATOM    145  H53 ILE d   1     -23.434 -17.976  35.481  0.00  0.00     0.028 H 
ATOM    146  H54 ILE d   1     -24.613 -16.829  34.759  0.00  0.00     0.028 H 
ATOM    147  H55 ILE d   1     -23.552 -16.297  36.107  0.00  0.00     0.028 H 
ENDBRANCH 135 144
ENDBRANCH  81 135
ENDBRANCH  79  81
ENDBRANCH   1  77
BRANCH   1 148
ATOM    148  CB  ILE d   1     -16.744 -17.318  32.913  0.00  0.00    -0.030 C 
ATOM    149  H39 ILE d   1     -16.176 -17.193  33.846  0.00  0.00     0.043 H 
BRANCH 148 150
ATOM    150  CG1 ILE d   1     -15.791 -17.112  31.736  0.00  0.00    -0.063 C 
ATOM    151  H40 ILE d   1     -15.359 -16.103  31.811  0.00  0.00     0.033 H 
ATOM    152  H41 ILE d   1     -16.368 -17.195  30.803  0.00  0.00     0.033 H 
BRANCH 150 153
ATOM    153  CD1 ILE d   1     -14.661 -18.112  31.688  0.00  0.00    -0.076 C 
ATOM    154  H45 ILE d   1     -14.021 -17.901  30.819  0.00  0.00     0.027 H 
ATOM    155  H46 ILE d   1     -15.074 -19.128  31.601  0.00  0.00     0.027 H 
ATOM    156  H47 ILE d   1     -14.065 -18.036  32.609  0.00  0.00     0.027 H 
ENDBRANCH 150 153
ENDBRANCH 148 150
BRANCH 148 157
ATOM    157  CG2 ILE d   1     -17.323 -18.727  32.889  0.00  0.00    -0.071 C 
ATOM    158  H42 ILE d   1     -18.006 -18.858  33.742  0.00  0.00     0.028 H 
ATOM    159  H43 ILE d   1     -16.506 -19.460  32.958  0.00  0.00     0.028 H 
ATOM    160  H44 ILE d   1     -17.876 -18.880  31.950  0.00  0.00     0.028 H 
ENDBRANCH 148 157
ENDBRANCH   1 148
TORSDOF 47
