REMARK  4 active torsions:
REMARK  status: ('A' for Active; 'I' for Inactive)
REMARK    1  A    between atoms: N16_23  and  C7_4 
REMARK    2  A    between atoms: C9_6  and  C10_7 
REMARK    3  A    between atoms: C20_13  and  N23_16 
REMARK    4  A    between atoms: N16_23  and  C17_24 
ROOT
ATOM      1  C19 6R1 d   1     -23.301 -42.843 -11.784  0.00  0.00    -0.036 C 
ATOM      2  C20 6R1 d   1     -23.493 -43.964 -12.816  0.00  0.00     0.104 C 
ATOM      3  C21 6R1 d   1     -22.869 -45.289 -12.376  0.00  0.00    -0.036 C 
ATOM      4  C22 6R1 d   1     -21.398 -45.093 -12.024  0.00  0.00    -0.044 C 
ATOM      5  C17 6R1 d   1     -21.231 -44.039 -10.946  0.00  0.00     0.011 C 
ATOM      6  C18 6R1 d   1     -21.821 -42.706 -11.396  0.00  0.00    -0.044 C 
ATOM      7  H11 6R1 d   1     -23.889 -43.076 -10.884  0.00  0.00     0.036 H 
ATOM      8  H12 6R1 d   1     -23.650 -41.893 -12.214  0.00  0.00     0.036 H 
ATOM      9  H13 6R1 d   1     -22.954 -43.643 -13.720  0.00  0.00     0.084 H 
ATOM     10  H14 6R1 d   1     -22.951 -46.018 -13.195  0.00  0.00     0.036 H 
ATOM     11  H15 6R1 d   1     -23.406 -45.667 -11.493  0.00  0.00     0.036 H 
ATOM     12  H16 6R1 d   1     -20.852 -44.776 -12.925  0.00  0.00     0.036 H 
ATOM     13  H17 6R1 d   1     -20.985 -46.046 -11.662  0.00  0.00     0.036 H 
ATOM     14  H26 6R1 d   1     -21.799 -44.368 -10.063  0.00  0.00     0.072 H 
ATOM     15  H27 6R1 d   1     -21.734 -41.981 -10.573  0.00  0.00     0.036 H 
ATOM     16  H28 6R1 d   1     -21.256 -42.342 -12.267  0.00  0.00     0.036 H 
ENDROOT
BRANCH   5  17
ATOM     17  N16 6R1 d   1     -19.834 -43.927 -10.549  0.00  0.00    -0.369 N 
ATOM     18  H25 6R1 d   1     -19.120 -43.917 -11.291  0.00  0.00     0.161 HD
BRANCH  17  19
ATOM     19  C7  6R1 d   1     -19.420 -43.836  -9.275  0.00  0.00     0.140 A 
ATOM     20  N6  6R1 d   1     -20.374 -43.692  -8.327  0.00  0.00    -0.224 NA
ATOM     21  C5  6R1 d   1     -19.947 -43.443  -7.082  0.00  0.00     0.091 A 
ATOM     22  N4  6R1 d   1     -18.691 -43.318  -6.637  0.00  0.00    -0.223 NA
ATOM     23  H24 6R1 d   1     -20.723 -43.327  -6.334  0.00  0.00     0.146 H 
ATOM     24  C3  6R1 d   1     -17.772 -43.481  -7.603  0.00  0.00     0.143 A 
ATOM     25  C8  6R1 d   1     -18.036 -43.763  -8.957  0.00  0.00     0.064 A 
ATOM     26  N2  6R1 d   1     -16.417 -43.425  -7.447  0.00  0.00    -0.349 N 
ATOM     27  C9  6R1 d   1     -16.760 -43.896  -9.606  0.00  0.00    -0.021 A 
ATOM     28  C1  6R1 d   1     -15.818 -43.674  -8.648  0.00  0.00    -0.014 A 
ATOM     29  H1  6R1 d   1     -14.742 -43.693  -8.816  0.00  0.00     0.112 H 
ATOM     30  H23 6R1 d   1     -15.925 -43.227  -6.564  0.00  0.00     0.166 HD
BRANCH  27  31
ATOM     31  C10 6R1 d   1     -16.523 -44.228 -11.059  0.00  0.00    -0.022 C 
ATOM     32  C11 6R1 d   1     -16.615 -45.732 -11.343  0.00  0.00    -0.038 C 
ATOM     33  C12 6R1 d   1     -16.339 -46.008 -12.802  0.00  0.00     0.020 C 
ATOM     34  H3  6R1 d   1     -17.625 -46.088 -11.091  0.00  0.00     0.037 H 
ATOM     35  H4  6R1 d   1     -15.875 -46.264 -10.727  0.00  0.00     0.037 H 
ATOM     36  O13 6R1 d   1     -15.055 -45.512 -13.188  0.00  0.00    -0.391 OA
ATOM     37  H5  6R1 d   1     -17.111 -45.517 -13.412  0.00  0.00     0.074 H 
ATOM     38  H6  6R1 d   1     -16.371 -47.094 -12.974  0.00  0.00     0.074 H 
ATOM     39  C14 6R1 d   1     -15.000 -44.089 -13.044  0.00  0.00     0.020 C 
ATOM     40  C15 6R1 d   1     -15.194 -43.676 -11.603  0.00  0.00    -0.038 C 
ATOM     41  H7  6R1 d   1     -14.019 -43.731 -13.391  0.00  0.00     0.074 H 
ATOM     42  H8  6R1 d   1     -15.793 -43.636 -13.657  0.00  0.00     0.074 H 
ATOM     43  H9  6R1 d   1     -14.364 -44.070 -10.998  0.00  0.00     0.037 H 
ATOM     44  H10 6R1 d   1     -15.205 -42.578 -11.540  0.00  0.00     0.037 H 
ATOM     45  H2  6R1 d   1     -17.330 -43.741 -11.626  0.00  0.00     0.047 H 
ENDBRANCH  27  31
ENDBRANCH  17  19
ENDBRANCH   5  17
BRANCH   2  46
ATOM     46  N23 6R1 d   1     -24.901 -44.172 -13.215  0.00  0.00    -0.063 N 
ATOM     47  C24 6R1 d   1     -25.329 -43.485 -14.441  0.00  0.00     0.103 C 
ATOM     48  C25 6R1 d   1     -26.709 -43.960 -14.823  0.00  0.00     0.042 C 
ATOM     49  H19 6R1 d   1     -24.624 -43.712 -15.255  0.00  0.00     0.079 H 
ATOM     50  H20 6R1 d   1     -25.350 -42.399 -14.266  0.00  0.00     0.079 H 
ATOM     51  O26 6R1 d   1     -27.648 -43.745 -13.765  0.00  0.00    -0.388 OA
ATOM     52  H29 6R1 d   1     -26.667 -45.035 -15.051  0.00  0.00     0.076 H 
ATOM     53  H30 6R1 d   1     -27.043 -43.409 -15.715  0.00  0.00     0.076 H 
ATOM     54  C27 6R1 d   1     -27.239 -44.422 -12.571  0.00  0.00     0.042 C 
ATOM     55  C28 6R1 d   1     -25.868 -43.977 -12.119  0.00  0.00     0.103 C 
ATOM     56  H21 6R1 d   1     -27.217 -45.505 -12.765  0.00  0.00     0.076 H 
ATOM     57  H22 6R1 d   1     -27.965 -44.207 -11.773  0.00  0.00     0.076 H 
ATOM     58  H31 6R1 d   1     -25.900 -42.913 -11.844  0.00  0.00     0.079 H 
ATOM     59  H32 6R1 d   1     -25.559 -44.572 -11.247  0.00  0.00     0.079 H 
ATOM     60  H18 6R1 d   1     -24.953 -45.153 -13.440  0.00  0.00     0.280 HD
ENDBRANCH   2  46
TORSDOF 4
