REMARK  29 active torsions:
REMARK  status: ('A' for Active; 'I' for Inactive)
REMARK    1  A    between atoms: P1_2  and  O2_5 
REMARK    2  A    between atoms: O2_5  and  C1_6 
REMARK    3  A    between atoms: C2_7  and  O3_8 
REMARK    4  A    between atoms: C4_9  and  N1_10 
REMARK    5  A    between atoms: C12_18  and  N5_19 
REMARK    6  A    between atoms: C3_21  and  C5_22 
REMARK    7  A    between atoms: C5_22  and  O4_23 
REMARK    8  A    between atoms: O4_23  and  P2_24 
REMARK    9  A    between atoms: P2_24  and  O7_27 
REMARK   10  A    between atoms: O7_27  and  P3_28 
REMARK   11  A    between atoms: P3_28  and  O8_31 
REMARK   12  A    between atoms: O8_31  and  C11_32 
REMARK   13  A    between atoms: C11_32  and  C9_33 
REMARK   14  A    between atoms: C9_33  and  C13_34 
REMARK   15  A    between atoms: C9_33  and  C14_35 
REMARK   16  A    between atoms: C9_33  and  C10_36 
REMARK   17  A    between atoms: C10_36  and  O11_37 
REMARK   18  A    between atoms: C10_36  and  C16_38 
REMARK       I    between atoms: C16_38  and  N6_40 
REMARK   19  A    between atoms: N6_40  and  C17_41 
REMARK   20  A    between atoms: C17_41  and  C18_42 
REMARK   21  A    between atoms: C18_42  and  C19_43 
REMARK       I    between atoms: C19_43  and  N7_45 
REMARK   22  A    between atoms: N7_45  and  C20_46 
REMARK   23  A    between atoms: C20_46  and  C21_47 
REMARK   24  A    between atoms: C21_47  and  S1_48 
REMARK   25  A    between atoms: S1_48  and  C22_49 
REMARK   26  A    between atoms: C22_49  and  C23_51 
REMARK   27  A    between atoms: C23_51  and  C24_52 
REMARK   28  A    between atoms: C24_52  and  C25_53 
REMARK   29  A    between atoms: C24_52  and  C26_54 
ROOT
ATOM      1  C9  IVC d   1      40.578 -15.325 -23.399  0.00  0.00     0.009 C 
ENDROOT
BRANCH   1   2
ATOM      2  C11 IVC d   1      41.851 -14.831 -24.137  0.00  0.00     0.041 C 
ATOM      3  H12 IVC d   1      42.339 -15.685 -24.629  0.00  0.00     0.076 H 
ATOM      4  H13 IVC d   1      41.565 -14.086 -24.894  0.00  0.00     0.076 H 
BRANCH   2   5
ATOM      5  O8  IVC d   1      42.746 -14.247 -23.229  0.00  0.00    -0.289 OA
BRANCH   5   6
ATOM      6  P3  IVC d   1      43.437 -12.807 -23.685  0.00  0.00     0.417 P 
ATOM      7  O14 IVC d   1      44.005 -12.930 -25.083  0.00  0.00    -0.624 OA
ATOM      8  O13 IVC d   1      44.533 -12.426 -22.714  0.00  0.00    -0.624 OA
BRANCH   6   9
ATOM      9  O7  IVC d   1      42.288 -11.636 -23.705  0.00  0.00    -0.180 OA
BRANCH   9  10
ATOM     10  P2  IVC d   1      42.496 -10.140 -23.052  0.00  0.00     0.417 P 
ATOM     11  O12 IVC d   1      43.067  -9.215 -24.089  0.00  0.00    -0.624 OA
ATOM     12  O10 IVC d   1      43.432 -10.220 -21.866  0.00  0.00    -0.624 OA
BRANCH  10  13
ATOM     13  O4  IVC d   1      41.036  -9.589 -22.564  0.00  0.00    -0.287 OA
BRANCH  13  14
ATOM     14  C5  IVC d   1      39.941 -10.501 -22.631  0.00  0.00     0.058 C 
ATOM     15  H10 IVC d   1      40.067 -11.173 -23.493  0.00  0.00     0.079 H 
ATOM     16  H11 IVC d   1      39.894 -11.096 -21.707  0.00  0.00     0.079 H 
BRANCH  14  17
ATOM     17  C3  IVC d   1      38.639  -9.676 -22.793  0.00  0.00     0.090 C 
ATOM     18  C1  IVC d   1      38.699  -8.914 -23.867  0.00  0.00     0.107 C 
ATOM     19  C2  IVC d   1      39.111  -7.402 -23.324  0.00  0.00     0.106 C 
ATOM     20  H1  IVC d   1      39.445  -9.294 -24.581  0.00  0.00     0.092 H 
ATOM     21  C4  IVC d   1      38.387  -7.284 -22.231  0.00  0.00     0.140 C 
ATOM     22  H2  IVC d   1      40.187  -7.332 -23.106  0.00  0.00     0.093 H 
ATOM     23  O1  IVC d   1      38.488  -8.697 -21.565  0.00  0.00    -0.353 OA
ATOM     24  H4  IVC d   1      37.344  -7.044 -22.487  0.00  0.00     0.122 H 
ATOM     25  H9  IVC d   1      37.776 -10.355 -22.855  0.00  0.00     0.090 H 
BRANCH  18  26
ATOM     26  O2  IVC d   1      37.409  -8.861 -24.477  0.00  0.00    -0.272 OA
BRANCH  26  27
ATOM     27  P1  IVC d   1      37.283  -8.781 -26.117  0.00  0.00     0.422 P 
ATOM     28  O9  IVC d   1      36.122  -9.649 -26.567  0.00  0.00    -0.617 OA
ATOM     29  O5  IVC d   1      37.032  -7.334 -26.535  0.00  0.00    -0.617 OA
ATOM     30  O6  IVC d   1      38.559  -9.267 -26.756  0.00  0.00    -0.617 OA
ENDBRANCH  26  27
ENDBRANCH  18  26
BRANCH  19  31
ATOM     31  O3  IVC d   1      38.739  -6.399 -24.280  0.00  0.00    -0.388 OA
ATOM     32  H3  IVC d   1      37.800  -6.429 -24.420  0.00  0.00     0.210 HD
ENDBRANCH  19  31
BRANCH  21  33
ATOM     33  N1  IVC d   1      38.893  -6.283 -21.335  0.00  0.00    -0.294 N 
ATOM     34  C7  IVC d   1      40.026  -6.306 -20.665  0.00  0.00     0.071 A 
ATOM     35  N2  IVC d   1      40.128  -5.198 -19.942  0.00  0.00    -0.236 NA
ATOM     36  H5  IVC d   1      40.763  -7.107 -20.699  0.00  0.00     0.144 H 
ATOM     37  C8  IVC d   1      39.017  -4.451 -20.156  0.00  0.00     0.149 A 
ATOM     38  C6  IVC d   1      38.235  -5.137 -21.036  0.00  0.00     0.167 A 
ATOM     39  C12 IVC d   1      38.540  -3.203 -19.693  0.00  0.00     0.155 A 
ATOM     40  N3  IVC d   1      37.043  -4.625 -21.443  0.00  0.00    -0.222 NA
ATOM     41  C15 IVC d   1      36.639  -3.461 -20.984  0.00  0.00     0.091 A 
ATOM     42  N4  IVC d   1      37.369  -2.759 -20.122  0.00  0.00    -0.222 NA
ATOM     43  H6  IVC d   1      35.687  -3.063 -21.317  0.00  0.00     0.146 H 
BRANCH  39  44
ATOM     44  N5  IVC d   1      39.326  -2.409 -18.744  0.00  0.00    -0.382 N 
ATOM     45  H7  IVC d   1      38.970  -1.501 -18.413  0.00  0.00     0.157 HD
ATOM     46  H8  IVC d   1      40.235  -2.759 -18.408  0.00  0.00     0.157 HD
ENDBRANCH  39  44
ENDBRANCH  21  33
ENDBRANCH  14  17
ENDBRANCH  13  14
ENDBRANCH  10  13
ENDBRANCH   9  10
ENDBRANCH   6   9
ENDBRANCH   5   6
ENDBRANCH   2   5
ENDBRANCH   1   2
BRANCH   1  47
ATOM     47  C13 IVC d   1      39.550 -15.716 -24.491  0.00  0.00    -0.065 C 
ATOM     48  H14 IVC d   1      38.626 -16.074 -24.013  0.00  0.00     0.028 H 
ATOM     49  H15 IVC d   1      39.970 -16.514 -25.121  0.00  0.00     0.028 H 
ATOM     50  H16 IVC d   1      39.324 -14.838 -25.113  0.00  0.00     0.028 H 
ENDBRANCH   1  47
BRANCH   1  51
ATOM     51  C14 IVC d   1      40.925 -16.569 -22.582  0.00  0.00    -0.065 C 
ATOM     52  H17 IVC d   1      41.655 -16.304 -21.803  0.00  0.00     0.028 H 
ATOM     53  H18 IVC d   1      41.357 -17.334 -23.244  0.00  0.00     0.028 H 
ATOM     54  H19 IVC d   1      40.013 -16.965 -22.111  0.00  0.00     0.028 H 
ENDBRANCH   1  51
BRANCH   1  55
ATOM     55  C10 IVC d   1      39.970 -14.180 -22.548  0.00  0.00     0.120 C 
ATOM     56  H20 IVC d   1      40.330 -13.220 -22.946  0.00  0.00     0.099 H 
BRANCH  55  57
ATOM     57  O11 IVC d   1      38.601 -14.234 -22.640  0.00  0.00    -0.385 OA
ATOM     58  H21 IVC d   1      38.222 -13.535 -22.120  0.00  0.00     0.210 HD
ENDBRANCH  55  57
BRANCH  55  59
ATOM     59  C16 IVC d   1      40.340 -14.269 -21.051  0.00  0.00     0.247 C 
ATOM     60  O15 IVC d   1      41.477 -14.302 -20.706  0.00  0.00    -0.271 OA
ATOM     61  N6  IVC d   1      39.248 -14.299 -20.036  0.00  0.00    -0.358 N 
ATOM     62  H22 IVC d   1      38.297 -14.264 -20.343  0.00  0.00     0.162 HD
BRANCH  61  63
ATOM     63  C17 IVC d   1      39.534 -14.379 -18.588  0.00  0.00     0.003 C 
ATOM     64  H23 IVC d   1      38.751 -13.843 -18.032  0.00  0.00     0.064 H 
ATOM     65  H24 IVC d   1      40.511 -13.916 -18.384  0.00  0.00     0.064 H 
BRANCH  63  66
ATOM     66  C18 IVC d   1      39.563 -15.861 -18.132  0.00  0.00     0.024 C 
ATOM     67  H25 IVC d   1      39.614 -15.895 -17.034  0.00  0.00     0.049 H 
ATOM     68  H26 IVC d   1      40.455 -16.347 -18.555  0.00  0.00     0.049 H 
BRANCH  66  69
ATOM     69  C19 IVC d   1      38.349 -16.602 -18.583  0.00  0.00     0.219 C 
ATOM     70  O16 IVC d   1      37.306 -16.062 -18.639  0.00  0.00    -0.274 OA
ATOM     71  N7  IVC d   1      38.448 -18.019 -18.958  0.00  0.00    -0.360 N 
ATOM     72  H27 IVC d   1      39.325 -18.496 -18.910  0.00  0.00     0.162 HD
BRANCH  71  73
ATOM     73  C20 IVC d   1      37.222 -18.735 -19.411  0.00  0.00     0.003 C 
ATOM     74  H28 IVC d   1      36.368 -18.428 -18.790  0.00  0.00     0.065 H 
ATOM     75  H29 IVC d   1      37.374 -19.820 -19.314  0.00  0.00     0.065 H 
BRANCH  73  76
ATOM     76  C21 IVC d   1      36.931 -18.380 -20.914  0.00  0.00    -0.002 C 
ATOM     77  H30 IVC d   1      37.850 -18.495 -21.508  0.00  0.00     0.052 H 
ATOM     78  H31 IVC d   1      36.574 -17.342 -20.989  0.00  0.00     0.052 H 
BRANCH  76  79
ATOM     79  S1  IVC d   1      35.648 -19.520 -21.534  0.00  0.00    -0.091 SA
BRANCH  79  80
ATOM     80  C22 IVC d   1      36.358 -21.182 -21.510  0.00  0.00     0.186 C 
ATOM     81  O17 IVC d   1      37.483 -21.334 -21.214  0.00  0.00    -0.286 OA
BRANCH  80  82
ATOM     82  C23 IVC d   1      35.476 -22.402 -21.894  0.00  0.00     0.003 C 
ATOM     83  H32 IVC d   1      36.063 -23.065 -22.546  0.00  0.00     0.046 H 
ATOM     84  H33 IVC d   1      34.595 -22.036 -22.441  0.00  0.00     0.046 H 
BRANCH  82  85
ATOM     85  C24 IVC d   1      34.992 -23.217 -20.677  0.00  0.00    -0.054 C 
ATOM     86  H34 IVC d   1      34.258 -22.607 -20.130  0.00  0.00     0.039 H 
BRANCH  85  87
ATOM     87  C25 IVC d   1      36.134 -23.583 -19.687  0.00  0.00    -0.073 C 
ATOM     88  H35 IVC d   1      35.720 -24.161 -18.847  0.00  0.00     0.028 H 
ATOM     89  H36 IVC d   1      36.597 -22.662 -19.305  0.00  0.00     0.028 H 
ATOM     90  H37 IVC d   1      36.892 -24.186 -20.208  0.00  0.00     0.028 H 
ENDBRANCH  85  87
BRANCH  85  91
ATOM     91  C26 IVC d   1      34.301 -24.476 -21.174  0.00  0.00    -0.073 C 
ATOM     92  H38 IVC d   1      33.497 -24.201 -21.872  0.00  0.00     0.028 H 
ATOM     93  H39 IVC d   1      33.874 -25.022 -20.320  0.00  0.00     0.028 H 
ATOM     94  H40 IVC d   1      35.032 -25.116 -21.690  0.00  0.00     0.028 H 
ENDBRANCH  85  91
ENDBRANCH  82  85
ENDBRANCH  80  82
ENDBRANCH  79  80
ENDBRANCH  76  79
ENDBRANCH  73  76
ENDBRANCH  71  73
ENDBRANCH  66  69
ENDBRANCH  63  66
ENDBRANCH  61  63
ENDBRANCH  55  59
ENDBRANCH   1  55
TORSDOF 29
