REMARK  3 active torsions:
REMARK  status: ('A' for Active; 'I' for Inactive)
REMARK    1  A    between atoms: C03_3  and  N13_13 
REMARK    2  A    between atoms: C04_4  and  C10_10 
REMARK    3  A    between atoms: C06_6  and  N07_7 
ROOT
ATOM      1  C01 6R6 d   1      65.223 100.264 -70.539  0.00  0.00    -0.049 A 
ATOM      2  C02 6R6 d   1      65.138 100.830 -69.281  0.00  0.00    -0.054 A 
ATOM      3  C03 6R6 d   1      66.174 101.608 -68.815  0.00  0.00     0.043 A 
ATOM      4  C04 6R6 d   1      67.298 101.827 -69.603  0.00  0.00     0.069 A 
ATOM      5  C05 6R6 d   1      67.382 101.258 -70.861  0.00  0.00    -0.032 A 
ATOM      6  C06 6R6 d   1      66.338 100.480 -71.321  0.00  0.00     0.104 A 
ATOM      7  H1  6R6 d   1      64.412  99.649 -70.912  0.00  0.00     0.087 H 
ATOM      8  H2  6R6 d   1      64.262 100.662 -68.665  0.00  0.00     0.087 H 
ATOM      9  H3  6R6 d   1      68.258 101.421 -71.479  0.00  0.00     0.089 H 
ENDROOT
BRANCH   3  10
ATOM     10  N13 6R6 d   1      66.057 102.171 -67.490  0.00  0.00    -0.398 N 
ATOM     11  H4  6R6 d   1      65.213 101.993 -66.927  0.00  0.00     0.156 HD
ATOM     12  H5  6R6 d   1      66.818 102.751 -67.108  0.00  0.00     0.156 HD
ENDBRANCH   3  10
BRANCH   4  13
ATOM     13  C10 6R6 d   1      68.454 102.686 -69.097  0.00  0.00     0.211 C 
ATOM     14  O11 6R6 d   1      68.518 102.933 -67.865  0.00  0.00    -0.644 OA
ATOM     15  O12 6R6 d   1      69.328 103.138 -69.897  0.00  0.00    -0.644 OA
ENDBRANCH   4  13
BRANCH   6  16
ATOM     16  N07 6R6 d   1      66.395  99.871 -72.623  0.00  0.00    -0.116 N 
ATOM     17  O08 6R6 d   1      65.963  98.794 -72.730  0.00  0.00    -0.532 OA
ATOM     18  O09 6R6 d   1      66.944 100.523 -73.736  0.00  0.00    -0.532 OA
ENDBRANCH   6  16
TORSDOF 3
