REMARK  3 active torsions:
REMARK  status: ('A' for Active; 'I' for Inactive)
REMARK    1  A    between atoms: CAB_2  and  CAD_4 
REMARK    2  A    between atoms: CAF_6  and  NAK_7 
REMARK    3  A    between atoms: CAI_12  and  OAJ_13 
ROOT
ATOM      1  CAD 6R7 d   1      35.369  78.658 -99.380  0.00  0.00     0.076 A 
ATOM      2  CAE 6R7 d   1      35.522  79.854 -98.709  0.00  0.00    -0.032 A 
ATOM      3  CAF 6R7 d   1      36.547  79.994 -97.794  0.00  0.00     0.104 A 
ATOM      4  CAG 6R7 d   1      37.409  78.930 -97.545  0.00  0.00    -0.048 A 
ATOM      5  CAH 6R7 d   1      37.258  77.720 -98.211  0.00  0.00    -0.048 A 
ATOM      6  CAI 6R7 d   1      36.229  77.599 -99.128  0.00  0.00     0.082 A 
ATOM      7  H1  6R7 d   1      34.843  80.677 -98.899  0.00  0.00     0.089 H 
ATOM      8  H2  6R7 d   1      38.208  79.047 -96.822  0.00  0.00     0.087 H 
ATOM      9  H3  6R7 d   1      37.930  76.891 -98.017  0.00  0.00     0.087 H 
ENDROOT
BRANCH   1  10
ATOM     10  CAB 6R7 d   1      34.354  78.515-100.307  0.00  0.00     0.212 C 
ATOM     11  OAA 6R7 d   1      34.236  77.427-100.910  0.00  0.00    -0.644 OA
ATOM     12  OAC 6R7 d   1      33.575  79.468-100.543  0.00  0.00    -0.644 OA
ENDBRANCH   1  10
BRANCH   6  13
ATOM     13  OAJ 6R7 d   1      36.005  76.453 -99.826  0.00  0.00    -0.360 OA
ATOM     14  H4  6R7 d   1      35.257  76.574-100.399  0.00  0.00     0.217 HD
ENDBRANCH   6  13
BRANCH   3  15
ATOM     15  NAK 6R7 d   1      36.675  81.154 -97.154  0.00  0.00    -0.116 N 
ATOM     16  OAM 6R7 d   1      37.698  81.333 -96.355  0.00  0.00    -0.532 OA
ATOM     17  OAL 6R7 d   1      35.807  82.134 -97.418  0.00  0.00    -0.532 OA
ENDBRANCH   3  15
TORSDOF 3
