REMARK  7 active torsions:
REMARK  status: ('A' for Active; 'I' for Inactive)
REMARK    1  A    between atoms: C6_6  and  N6_7 
REMARK    2  A    between atoms: N9_10  and  C1'_11 
REMARK    3  A    between atoms: C2'_12  and  O2'_13 
REMARK    4  A    between atoms: C3'_14  and  O3'_15 
REMARK    5  A    between atoms: C4'_16  and  C5'_18 
REMARK    6  A    between atoms: C5'_18  and  C6'_19 
REMARK    7  A    between atoms: C6'_19  and  N7'_20 
REMARK       I    between atoms: N7'_20  and  C8'_21 
REMARK       I    between atoms: C8'_21  and  N9'_22 
ROOT
ATOM      1  C1' 6RE d   1      50.139  38.102 129.381  0.00  0.00     0.139 C 
ATOM      2  C2' 6RE d   1      48.861  37.275 129.535  0.00  0.00     0.105 C 
ATOM      3  C3' 6RE d   1      49.229  36.413 130.740  0.00  0.00     0.089 C 
ATOM      4  C4' 6RE d   1      50.695  36.100 130.468  0.00  0.00     0.070 C 
ATOM      5  O4' 6RE d   1      51.209  37.263 129.780  0.00  0.00    -0.355 OA
ATOM      6  H5  6RE d   1      50.078  38.978 130.044  0.00  0.00     0.122 H 
ATOM      7  H6  6RE d   1      48.666  36.659 128.645  0.00  0.00     0.093 H 
ATOM      8  H8  6RE d   1      48.626  35.493 130.763  0.00  0.00     0.091 H 
ATOM      9  H10 6RE d   1      51.214  35.951 131.426  0.00  0.00     0.087 H 
ENDROOT
BRANCH   4  10
ATOM     10  C5' 6RE d   1      50.959  34.902 129.582  0.00  0.00    -0.023 C 
ATOM     11  H11 6RE d   1      51.783  35.139 128.893  0.00  0.00     0.039 H 
ATOM     12  H12 6RE d   1      50.051  34.675 129.004  0.00  0.00     0.039 H 
BRANCH  10  13
ATOM     13  C6' 6RE d   1      51.337  33.690 130.408  0.00  0.00     0.011 C 
ATOM     14  H13 6RE d   1      50.547  33.506 131.150  0.00  0.00     0.065 H 
ATOM     15  H14 6RE d   1      52.286  33.895 130.926  0.00  0.00     0.065 H 
BRANCH  13  16
ATOM     16  N7' 6RE d   1      51.498  32.496 129.586  0.00  0.00    -0.227 N 
ATOM     17  C8' 6RE d   1      52.635  31.860 129.340  0.00  0.00     0.665 C 
ATOM     18  N9' 6RE d   1      52.641  30.796 128.558  0.00  0.00    -0.235 N 
ATOM     19  N10 6RE d   1      53.770  32.289 129.866  0.00  0.00    -0.235 N 
ATOM     20  H16 6RE d   1      53.525  30.302 128.367  0.00  0.00     0.174 HD
ATOM     21  H17 6RE d   1      51.762  30.460 128.139  0.00  0.00     0.174 HD
ATOM     22  H18 6RE d   1      53.773  33.118 130.477  0.00  0.00     0.174 HD
ATOM     23  H19 6RE d   1      54.651  31.794 129.665  0.00  0.00     0.174 HD
ATOM     24  H15 6RE d   1      50.646  32.110 129.155  0.00  0.00     0.177 HD
ENDBRANCH  13  16
ENDBRANCH  10  13
ENDBRANCH   4  10
BRANCH   3  25
ATOM     25  O3' 6RE d   1      49.066  37.107 131.972  0.00  0.00    -0.390 OA
ATOM     26  H9  6RE d   1      49.625  37.875 131.978  0.00  0.00     0.210 HD
ENDBRANCH   3  25
BRANCH   2  27
ATOM     27  O2' 6RE d   1      47.734  38.107 129.789  0.00  0.00    -0.388 OA
ATOM     28  H7  6RE d   1      47.877  38.596 130.591  0.00  0.00     0.210 HD
ENDBRANCH   2  27
BRANCH   1  29
ATOM     29  N9  6RE d   1      50.399  38.568 128.023  0.00  0.00    -0.294 N 
ATOM     30  C4  6RE d   1      50.604  39.865 127.616  0.00  0.00     0.167 A 
ATOM     31  N3  6RE d   1      50.623  40.964 128.378  0.00  0.00    -0.222 NA
ATOM     32  C5  6RE d   1      50.789  39.804 126.244  0.00  0.00     0.149 A 
ATOM     33  C2  6RE d   1      50.843  42.055 127.639  0.00  0.00     0.091 A 
ATOM     34  N1  6RE d   1      51.034  42.150 126.319  0.00  0.00    -0.222 NA
ATOM     35  H1  6RE d   1      50.870  42.992 128.184  0.00  0.00     0.146 H 
ATOM     36  C6  6RE d   1      51.015  41.022 125.577  0.00  0.00     0.155 A 
ATOM     37  N7  6RE d   1      50.706  38.495 125.795  0.00  0.00    -0.236 NA
ATOM     38  C8  6RE d   1      50.476  37.806 126.887  0.00  0.00     0.071 A 
ATOM     39  H4  6RE d   1      50.357  36.724 126.891  0.00  0.00     0.144 H 
BRANCH  36  40
ATOM     40  N6  6RE d   1      51.214  41.124 124.260  0.00  0.00    -0.382 N 
ATOM     41  H2  6RE d   1      51.205  40.279 123.671  0.00  0.00     0.157 HD
ATOM     42  H3  6RE d   1      51.377  42.047 123.834  0.00  0.00     0.157 HD
ENDBRANCH  36  40
ENDBRANCH   1  29
TORSDOF 7
