REMARK  3 active torsions:
REMARK  status: ('A' for Active; 'I' for Inactive)
REMARK    1  A    between atoms: C14_8  and  N19_13 
REMARK    2  A    between atoms: C15_9  and  C16_10 
REMARK       I    between atoms: N19_13  and  C20_14 
REMARK    3  A    between atoms: C20_14  and  C21_15 
ROOT
ATOM      1  N1  OTA d   1     -42.584  10.394   0.058  0.00  0.00    -0.070 N 
ATOM      2  C2  OTA d   1     -42.362  10.830   1.440  0.00  0.00     0.112 C 
ATOM      3  C3  OTA d   1     -42.780  12.250   1.852  0.00  0.00     0.018 A 
ATOM      4  C4  OTA d   1     -43.580  13.019   0.930  0.00  0.00    -0.022 A 
ATOM      5  C5  OTA d   1     -43.997  12.432  -0.387  0.00  0.00    -0.016 C 
ATOM      6  C6  OTA d   1     -43.782  10.965  -0.623  0.00  0.00     0.086 C 
ATOM      7  S13 OTA d   1     -42.505  13.111   3.136  0.00  0.00    -0.073 SA
ATOM      8  C14 OTA d   1     -43.226  14.471   2.882  0.00  0.00     0.095 A 
ATOM      9  C15 OTA d   1     -43.865  14.438   1.592  0.00  0.00     0.082 A 
ATOM     10  H1  OTA d   1     -42.681   9.391   0.063  0.00  0.00     0.277 HD
ATOM     11  H2  OTA d   1     -41.772  10.650  -0.481  0.00  0.00     0.277 HD
ATOM     12  H3  OTA d   1     -41.283  10.743   1.636  0.00  0.00     0.084 H 
ATOM     13  H4  OTA d   1     -42.910  10.132   2.090  0.00  0.00     0.084 H 
ATOM     14  H5  OTA d   1     -43.444  12.970  -1.171  0.00  0.00     0.042 H 
ATOM     15  H6  OTA d   1     -45.074  12.624  -0.500  0.00  0.00     0.042 H 
ATOM     16  H7  OTA d   1     -44.671  10.426  -0.263  0.00  0.00     0.076 H 
ATOM     17  H8  OTA d   1     -43.670  10.805  -1.706  0.00  0.00     0.076 H 
ENDROOT
BRANCH   8  18
ATOM     18  N19 OTA d   1     -43.317  15.644   3.711  0.00  0.00    -0.311 N 
ATOM     19  C20 OTA d   1     -42.829  15.792   5.059  0.00  0.00     0.323 C 
ATOM     20  O24 OTA d   1     -42.289  14.923   5.650  0.00  0.00    -0.260 OA
ATOM     21  H9  OTA d   1     -43.767  16.441   3.309  0.00  0.00     0.170 HD
BRANCH  19  22
ATOM     22  C21 OTA d   1     -43.077  17.155   5.676  0.00  0.00     0.270 C 
ATOM     23  O22 OTA d   1     -42.154  17.762   6.273  0.00  0.00    -0.640 OA
ATOM     24  O23 OTA d   1     -44.227  17.661   5.552  0.00  0.00    -0.640 OA
ENDBRANCH  19  22
ENDBRANCH   8  18
BRANCH   9  25
ATOM     25  C16 OTA d   1     -44.667  15.586   0.987  0.00  0.00     0.212 C 
ATOM     26  O17 OTA d   1     -45.109  16.495   1.735  0.00  0.00    -0.644 OA
ATOM     27  O18 OTA d   1     -44.879  15.629  -0.252  0.00  0.00    -0.644 OA
ENDBRANCH   9  25
TORSDOF 3
