REMARK  6 active torsions:
REMARK  status: ('A' for Active; 'I' for Inactive)
REMARK    1  A    between atoms: P_1  and  O5'_5 
REMARK    2  A    between atoms: O5'_5  and  C5'_6 
REMARK    3  A    between atoms: C5'_6  and  C4'_7 
REMARK    4  A    between atoms: C3'_9  and  O3'_10 
REMARK    5  A    between atoms: C2'_11  and  O2'_12 
REMARK    6  A    between atoms: C1'_13  and  N9_14 
ROOT
ATOM      1  C4' IMP d   1      16.215 105.046  41.552  0.00  0.00     0.089 C 
ATOM      2  O4' IMP d   1      16.427 104.543  42.900  0.00  0.00    -0.353 OA
ATOM      3  C3' IMP d   1      15.719 106.486  41.704  0.00  0.00     0.091 C 
ATOM      4  C2' IMP d   1      16.185 106.857  43.109  0.00  0.00     0.105 C 
ATOM      5  C1' IMP d   1      16.039 105.526  43.836  0.00  0.00     0.139 C 
ATOM      6  H3  IMP d   1      15.424 104.460  41.062  0.00  0.00     0.090 H 
ATOM      7  H4  IMP d   1      16.141 107.153  40.938  0.00  0.00     0.091 H 
ATOM      8  H6  IMP d   1      17.238 107.175  43.087  0.00  0.00     0.093 H 
ATOM      9  H8  IMP d   1      14.990 105.384  44.135  0.00  0.00     0.122 H 
ENDROOT
BRANCH   5  10
ATOM     10  N9  IMP d   1      16.892 105.400  45.020  0.00  0.00    -0.295 N 
ATOM     11  C8  IMP d   1      18.188 105.827  45.155  0.00  0.00     0.071 A 
ATOM     12  N7  IMP d   1      18.614 105.515  46.401  0.00  0.00    -0.234 NA
ATOM     13  H9  IMP d   1      18.775 106.332  44.389  0.00  0.00     0.144 H 
ATOM     14  C5  IMP d   1      17.613 104.887  47.058  0.00  0.00     0.172 A 
ATOM     15  C6  IMP d   1      17.516 104.361  48.340  0.00  0.00     0.300 A 
ATOM     16  C4  IMP d   1      16.526 104.806  46.200  0.00  0.00     0.146 A 
ATOM     17  O6  IMP d   1      18.390 104.605  49.172  0.00  0.00    -0.263 OA
ATOM     18  N1  IMP d   1      16.338 103.764  48.740  0.00  0.00    -0.203 NA
ATOM     19  C2  IMP d   1      15.267 103.693  47.872  0.00  0.00     0.069 A 
ATOM     20  N3  IMP d   1      15.373 104.219  46.601  0.00  0.00    -0.335 N 
ATOM     21  H10 IMP d   1      14.338 103.222  48.191  0.00  0.00     0.143 H 
ATOM     22  H11 IMP d   1      14.573 104.165  45.955  0.00  0.00     0.168 HD
ENDBRANCH   5  10
BRANCH   4  23
ATOM     23  O2' IMP d   1      15.430 107.878  43.727  0.00  0.00    -0.388 OA
ATOM     24  H7  IMP d   1      14.524 107.600  43.800  0.00  0.00     0.210 HD
ENDBRANCH   4  23
BRANCH   1  25
ATOM     25  C5' IMP d   1      17.479 104.873  40.746  0.00  0.00     0.059 C 
ATOM     26  H1  IMP d   1      17.373 105.414  39.794  0.00  0.00     0.079 H 
ATOM     27  H2  IMP d   1      18.325 105.290  41.313  0.00  0.00     0.079 H 
BRANCH  25  28
ATOM     28  O5' IMP d   1      17.738 103.499  40.471  0.00  0.00    -0.280 OA
BRANCH  28  29
ATOM     29  P   IMP d   1      18.034 103.002  38.987  0.00  0.00     0.422 P 
ATOM     30  O1P IMP d   1      17.039 103.702  38.092  0.00  0.00    -0.617 OA
ATOM     31  O2P IMP d   1      18.016 101.492  39.026  0.00  0.00    -0.617 OA
ATOM     32  O3P IMP d   1      19.421 103.451  38.594  0.00  0.00    -0.617 OA
ENDBRANCH  28  29
ENDBRANCH  25  28
ENDBRANCH   1  25
BRANCH   3  33
ATOM     33  O3' IMP d   1      14.293 106.500  41.658  0.00  0.00    -0.390 OA
ATOM     34  H5  IMP d   1      13.983 107.393  41.752  0.00  0.00     0.210 HD
ENDBRANCH   3  33
TORSDOF 6
