REMARK  5 active torsions:
REMARK  status: ('A' for Active; 'I' for Inactive)
REMARK    1  A    between atoms: C11_1  and  C12_4 
REMARK    2  A    between atoms: N10_14  and  C11_1 
REMARK    3  A    between atoms: C13_2  and  C14_3 
REMARK    4  A    between atoms: C12_4  and  C13_2 
REMARK    5  A    between atoms: C14_3  and  P15_15 
ROOT
ATOM      1  C11 6RH d   1     -20.269  63.355   4.117  0.00  0.00     0.002 C 
ATOM      2  H1  6RH d   1     -20.434  62.339   3.730  0.00  0.00     0.065 H 
ATOM      3  H2  6RH d   1     -19.645  63.920   3.409  0.00  0.00     0.065 H 
ENDROOT
BRANCH   1   4
ATOM      4  C12 6RH d   1     -19.561  63.276   5.469  0.00  0.00    -0.049 C 
ATOM      5  H7  6RH d   1     -19.968  62.421   6.029  0.00  0.00     0.035 H 
ATOM      6  H8  6RH d   1     -19.759  64.205   6.024  0.00  0.00     0.035 H 
BRANCH   4   7
ATOM      7  C13 6RH d   1     -18.049  63.099   5.341  0.00  0.00    -0.052 C 
ATOM      8  H3  6RH d   1     -17.666  62.641   6.265  0.00  0.00     0.034 H 
ATOM      9  H4  6RH d   1     -17.841  62.436   4.489  0.00  0.00     0.034 H 
BRANCH   7  10
ATOM     10  C14 6RH d   1     -17.331  64.429   5.117  0.00  0.00     0.039 C 
ATOM     11  H5  6RH d   1     -18.082  65.228   5.027  0.00  0.00     0.053 H 
ATOM     12  H6  6RH d   1     -16.748  64.367   4.186  0.00  0.00     0.053 H 
BRANCH  10  13
ATOM     13  P15 6RH d   1     -16.181  64.839   6.522  0.00  0.00     0.259 P 
ATOM     14  O16 6RH d   1     -15.033  65.674   6.006  0.00  0.00    -0.640 OA
ATOM     15  O17 6RH d   1     -15.645  63.566   7.133  0.00  0.00    -0.640 OA
ATOM     16  O18 6RH d   1     -16.936  65.621   7.570  0.00  0.00    -0.640 OA
ENDBRANCH  10  13
ENDBRANCH   7  10
ENDBRANCH   4   7
ENDBRANCH   1   4
BRANCH   1  17
ATOM     17  N10 6RH d   1     -21.548  64.025   4.276  0.00  0.00    -0.326 N 
ATOM     18  C06 6RH d   1     -22.597  63.551   4.961  0.00  0.00     0.144 A 
ATOM     19  N05 6RH d   1     -22.833  62.303   5.733  0.00  0.00    -0.335 N 
ATOM     20  C07 6RH d   1     -23.598  64.502   4.857  0.00  0.00     0.172 A 
ATOM     21  C04 6RH d   1     -24.127  62.075   6.384  0.00  0.00     0.069 A 
ATOM     22  H10 6RH d   1     -22.087  61.597   5.811  0.00  0.00     0.168 HD
ATOM     23  N03 6RH d   1     -25.180  63.066   6.280  0.00  0.00    -0.203 NA
ATOM     24  H9  6RH d   1     -24.297  61.159   6.947  0.00  0.00     0.143 H 
ATOM     25  C02 6RH d   1     -24.949  64.269   5.535  0.00  0.00     0.300 A 
ATOM     26  O01 6RH d   1     -25.804  65.084   5.445  0.00  0.00    -0.263 OA
ATOM     27  N08 6RH d   1     -23.110  65.503   4.117  0.00  0.00    -0.234 NA
ATOM     28  C09 6RH d   1     -21.868  65.205   3.770  0.00  0.00     0.068 A 
ATOM     29  H11 6RH d   1     -21.214  65.831   3.165  0.00  0.00     0.143 H 
ENDBRANCH   1  17
TORSDOF 5
