REMARK  13 active torsions:
REMARK  status: ('A' for Active; 'I' for Inactive)
REMARK    1  A    between atoms: C4_4  and  C21_23 
REMARK    2  A    between atoms: C5_5  and  N2_26 
REMARK    3  A    between atoms: C9_10  and  C14_16 
REMARK    4  A    between atoms: C11_12  and  N1_15 
REMARK    5  A    between atoms: C12_13  and  C20_22 
REMARK    6  A    between atoms: N1_15  and  C22_24 
REMARK    7  A    between atoms: C19_21  and  C26_29 
REMARK    8  A    between atoms: C22_24  and  C23_25 
REMARK    9  A    between atoms: N2_26  and  C24_27 
REMARK   10  A    between atoms: C24_27  and  C25_28 
REMARK   11  A    between atoms: C26_29  and  O2_31 
REMARK   12  A    between atoms: O2_31  and  C28_32 
REMARK   13  A    between atoms: C28_32  and  C29_33 
ROOT
ATOM      1  C1  RHQ d   1       1.775 -12.168 -18.218  0.00  0.00     0.085 A 
ATOM      2  C2  RHQ d   1       2.841 -11.286 -18.069  0.00  0.00    -0.011 A 
ATOM      3  C3  RHQ d   1       3.964 -11.491 -18.922  0.00  0.00    -0.065 A 
ATOM      4  C4  RHQ d   1       4.005 -12.494 -19.840  0.00  0.00    -0.035 A 
ATOM      5  C5  RHQ d   1       2.889 -13.383 -19.970  0.00  0.00     0.036 A 
ATOM      6  C6  RHQ d   1       1.780 -13.207 -19.132  0.00  0.00    -0.024 A 
ATOM      7  O1  RHQ d   1       0.668 -12.035 -17.447  0.00  0.00    -0.310 OA
ATOM      8  C7  RHQ d   1       0.569 -11.033 -16.521  0.00  0.00     0.085 A 
ATOM      9  C8  RHQ d   1       1.622 -10.128 -16.330  0.00  0.00    -0.011 A 
ATOM     10  C9  RHQ d   1       2.743 -10.252 -17.141  0.00  0.00     0.029 A 
ATOM     11  C10 RHQ d   1      -0.602 -10.983 -15.799  0.00  0.00    -0.024 A 
ATOM     12  C11 RHQ d   1      -0.753  -9.994 -14.821  0.00  0.00     0.036 A 
ATOM     13  C12 RHQ d   1       0.314  -9.054 -14.600  0.00  0.00    -0.035 A 
ATOM     14  C13 RHQ d   1       1.452  -9.124 -15.334  0.00  0.00    -0.065 A 
ATOM     15  H1  RHQ d   1       4.815 -10.825 -18.836  0.00  0.00     0.085 H 
ATOM     16  H2  RHQ d   1       0.932 -13.880 -19.199  0.00  0.00     0.091 H 
ATOM     17  H3  RHQ d   1       2.325  -9.570 -17.896  0.00  0.00     0.062 H 
ATOM     18  H4  RHQ d   1      -1.395 -11.699 -15.985  0.00  0.00     0.091 H 
ATOM     19  H5  RHQ d   1       2.244  -8.405 -15.160  0.00  0.00     0.085 H 
ENDROOT
BRANCH  10  20
ATOM     20  C14 RHQ d   1       3.859  -9.385 -16.894  0.00  0.00    -0.030 A 
ATOM     21  C15 RHQ d   1       4.418  -9.740 -15.674  0.00  0.00    -0.075 A 
ATOM     22  C16 RHQ d   1       5.528  -9.102 -15.189  0.00  0.00    -0.082 A 
ATOM     23  H7  RHQ d   1       3.967 -10.537 -15.094  0.00  0.00     0.084 H 
ATOM     24  C17 RHQ d   1       6.082  -8.136 -15.977  0.00  0.00    -0.082 A 
ATOM     25  H8  RHQ d   1       5.948  -9.353 -14.222  0.00  0.00     0.083 H 
ATOM     26  C18 RHQ d   1       5.543  -7.784 -17.232  0.00  0.00    -0.068 A 
ATOM     27  H9  RHQ d   1       6.968  -7.620 -15.626  0.00  0.00     0.083 H 
ATOM     28  C19 RHQ d   1       4.412  -8.408 -17.745  0.00  0.00     0.032 A 
ATOM     29  H10 RHQ d   1       6.024  -7.005 -17.812  0.00  0.00     0.085 H 
BRANCH  28  30
ATOM     30  C26 RHQ d   1       4.122  -8.360 -19.195  0.00  0.00     0.226 C 
ATOM     31  O27 RHQ d   1       2.879  -8.744 -19.518  0.00  0.00    -0.163 OA
BRANCH  30  32
ATOM     32  O2  RHQ d   1       4.965  -8.547 -20.063  0.00  0.00    -0.328 OA
BRANCH  32  33
ATOM     33  C28 RHQ d   1       4.745  -7.717 -21.175  0.00  0.00     0.025 C 
ATOM     34  H28 RHQ d   1       4.424  -6.721 -20.837  0.00  0.00     0.074 H 
ATOM     35  H29 RHQ d   1       3.967  -8.155 -21.817  0.00  0.00     0.074 H 
BRANCH  33  36
ATOM     36  C29 RHQ d   1       6.042  -7.601 -21.949  0.00  0.00    -0.056 C 
ATOM     37  H30 RHQ d   1       5.889  -6.954 -22.825  0.00  0.00     0.030 H 
ATOM     38  H31 RHQ d   1       6.361  -8.600 -22.282  0.00  0.00     0.030 H 
ATOM     39  H32 RHQ d   1       6.817  -7.165 -21.302  0.00  0.00     0.030 H 
ENDBRANCH  33  36
ENDBRANCH  32  33
ENDBRANCH  30  32
ENDBRANCH  28  30
ENDBRANCH  10  20
BRANCH   4  40
ATOM     40  C21 RHQ d   1       5.196 -12.636 -20.738  0.00  0.00    -0.049 C 
ATOM     41  H14 RHQ d   1       5.940 -11.867 -20.484  0.00  0.00     0.033 H 
ATOM     42  H15 RHQ d   1       4.883 -12.511 -21.785  0.00  0.00     0.033 H 
ATOM     43  H16 RHQ d   1       5.639 -13.634 -20.604  0.00  0.00     0.033 H 
ENDBRANCH   4  40
BRANCH  13  44
ATOM     44  C20 RHQ d   1       0.174  -7.987 -13.578  0.00  0.00    -0.049 C 
ATOM     45  H11 RHQ d   1      -0.804  -8.080 -13.082  0.00  0.00     0.033 H 
ATOM     46  H12 RHQ d   1       0.247  -7.003 -14.063  0.00  0.00     0.033 H 
ATOM     47  H13 RHQ d   1       0.975  -8.088 -12.831  0.00  0.00     0.033 H 
ENDBRANCH  13  44
BRANCH   5  48
ATOM     48  N2  RHQ d   1       2.983 -14.398 -20.882  0.00  0.00    -0.390 N 
ATOM     49  H22 RHQ d   1       3.885 -14.518 -21.364  0.00  0.00     0.159 HD
BRANCH  48  50
ATOM     50  C24 RHQ d   1       1.903 -15.330 -21.230  0.00  0.00    -0.011 C 
ATOM     51  H23 RHQ d   1       1.020 -14.757 -21.549  0.00  0.00     0.063 H 
ATOM     52  H24 RHQ d   1       1.649 -15.934 -20.346  0.00  0.00     0.063 H 
BRANCH  50  53
ATOM     53  C25 RHQ d   1       2.333 -16.255 -22.360  0.00  0.00    -0.061 C 
ATOM     54  H25 RHQ d   1       1.510 -16.943 -22.604  0.00  0.00     0.029 H 
ATOM     55  H26 RHQ d   1       3.214 -16.834 -22.045  0.00  0.00     0.029 H 
ATOM     56  H27 RHQ d   1       2.586 -15.657 -23.248  0.00  0.00     0.029 H 
ENDBRANCH  50  53
ENDBRANCH  48  50
ENDBRANCH   5  48
BRANCH  12  57
ATOM     57  N1  RHQ d   1      -1.881  -9.906 -14.071  0.00  0.00    -0.390 N 
ATOM     58  H6  RHQ d   1      -1.873  -9.267 -13.263  0.00  0.00     0.159 HD
BRANCH  57  59
ATOM     59  C22 RHQ d   1      -3.110 -10.661 -14.336  0.00  0.00    -0.011 C 
ATOM     60  H17 RHQ d   1      -3.780 -10.565 -13.469  0.00  0.00     0.063 H 
ATOM     61  H18 RHQ d   1      -2.852 -11.720 -14.485  0.00  0.00     0.063 H 
BRANCH  59  62
ATOM     62  C23 RHQ d   1      -3.831 -10.151 -15.575  0.00  0.00    -0.061 C 
ATOM     63  H19 RHQ d   1      -4.744 -10.742 -15.737  0.00  0.00     0.029 H 
ATOM     64  H20 RHQ d   1      -3.171 -10.248 -16.450  0.00  0.00     0.029 H 
ATOM     65  H21 RHQ d   1      -4.099  -9.094 -15.434  0.00  0.00     0.029 H 
ENDBRANCH  59  62
ENDBRANCH  57  59
ENDBRANCH  12  57
TORSDOF 13
