REMARK  2 active torsions:
REMARK  status: ('A' for Active; 'I' for Inactive)
REMARK    1  A    between atoms: C2'_10  and  O2'_11 
REMARK    2  A    between atoms: C1'_12  and  N9_13 
ROOT
ATOM      1  P   CMP d   1      85.723  71.494  94.355  0.00  0.00     0.408 P 
ATOM      2  O1P CMP d   1      86.419  72.262  93.254  0.00  0.00    -0.624 OA
ATOM      3  O2P CMP d   1      85.301  70.100  94.067  0.00  0.00    -0.624 OA
ATOM      4  O5' CMP d   1      86.764  71.620  95.544  0.00  0.00    -0.287 OA
ATOM      5  C5' CMP d   1      87.008  72.880  96.162  0.00  0.00     0.058 C 
ATOM      6  C4' CMP d   1      85.668  73.437  96.520  0.00  0.00     0.090 C 
ATOM      7  O4' CMP d   1      85.700  74.763  97.063  0.00  0.00    -0.353 OA
ATOM      8  C3' CMP d   1      84.758  73.588  95.341  0.00  0.00     0.106 C 
ATOM      9  O3' CMP d   1      84.397  72.322  94.836  0.00  0.00    -0.279 OA
ATOM     10  C2' CMP d   1      83.627  74.433  95.914  0.00  0.00     0.106 C 
ATOM     11  C1' CMP d   1      84.392  75.303  96.938  0.00  0.00     0.140 C 
ATOM     12  H1  CMP d   1      87.526  73.553  95.463  0.00  0.00     0.079 H 
ATOM     13  H2  CMP d   1      87.620  72.749  97.067  0.00  0.00     0.079 H 
ATOM     14  H3  CMP d   1      85.214  72.754  97.253  0.00  0.00     0.090 H 
ATOM     15  H4  CMP d   1      85.257  74.144  94.534  0.00  0.00     0.092 H 
ATOM     16  H5  CMP d   1      83.119  75.032  95.144  0.00  0.00     0.093 H 
ATOM     17  H7  CMP d   1      83.876  75.247  97.908  0.00  0.00     0.122 H 
ENDROOT
BRANCH  11  18
ATOM     18  N9  CMP d   1      84.484  76.722  96.538  0.00  0.00    -0.294 N 
ATOM     19  C8  CMP d   1      84.149  77.763  97.325  0.00  0.00     0.071 A 
ATOM     20  N7  CMP d   1      84.354  78.934  96.692  0.00  0.00    -0.236 NA
ATOM     21  H8  CMP d   1      83.763  77.670  98.339  0.00  0.00     0.144 H 
ATOM     22  C5  CMP d   1      84.841  78.638  95.483  0.00  0.00     0.149 A 
ATOM     23  C6  CMP d   1      85.260  79.440  94.322  0.00  0.00     0.155 A 
ATOM     24  C4  CMP d   1      84.946  77.180  95.374  0.00  0.00     0.167 A 
ATOM     25  N6  CMP d   1      85.176  80.794  94.394  0.00  0.00    -0.382 N 
ATOM     26  N1  CMP d   1      85.713  78.760  93.246  0.00  0.00    -0.222 NA
ATOM     27  H9  CMP d   1      85.465  81.371  93.591  0.00  0.00     0.157 HD
ATOM     28  H10 CMP d   1      84.824  81.243  95.251  0.00  0.00     0.157 HD
ATOM     29  C2  CMP d   1      85.788  77.410  93.196  0.00  0.00     0.091 A 
ATOM     30  N3  CMP d   1      85.418  76.621  94.232  0.00  0.00    -0.222 NA
ATOM     31  H11 CMP d   1      86.159  76.942  92.291  0.00  0.00     0.146 H 
ENDBRANCH  11  18
BRANCH  10  32
ATOM     32  O2' CMP d   1      82.701  73.609  96.607  0.00  0.00    -0.388 OA
ATOM     33  H6  CMP d   1      82.338  72.969  96.007  0.00  0.00     0.210 HD
ENDBRANCH  10  32
TORSDOF 2
