REMARK  2 active torsions:
REMARK  status: ('A' for Active; 'I' for Inactive)
REMARK    1  A    between atoms: C13_5  and  OAB_8 
REMARK    2  A    between atoms: C14_6  and  C15_7 
ROOT
ATOM      1  C9  JZ0 d   1      31.284   2.820 -13.068  0.00  0.00    -0.075 A 
ATOM      2  C10 JZ0 d   1      31.203   3.195 -14.399  0.00  0.00    -0.082 A 
ATOM      3  C11 JZ0 d   1      29.975   3.197 -15.038  0.00  0.00    -0.080 A 
ATOM      4  C12 JZ0 d   1      28.800   2.831 -14.377  0.00  0.00    -0.051 A 
ATOM      5  C13 JZ0 d   1      28.841   2.463 -13.047  0.00  0.00     0.071 A 
ATOM      6  C14 JZ0 d   1      30.142   2.472 -12.401  0.00  0.00    -0.029 A 
ATOM      7  H1  JZ0 d   1      32.242   2.803 -12.561  0.00  0.00     0.084 H 
ATOM      8  H2  JZ0 d   1      32.097   3.486 -14.938  0.00  0.00     0.083 H 
ATOM      9  H3  JZ0 d   1      29.924   3.491 -16.080  0.00  0.00     0.083 H 
ATOM     10  H4  JZ0 d   1      27.855   2.836 -14.909  0.00  0.00     0.087 H 
ENDROOT
BRANCH   6  11
ATOM     11  C15 JZ0 d   1      30.214   2.060 -10.979  0.00  0.00    -0.049 C 
ATOM     12  H5  JZ0 d   1      31.256   2.118 -10.633  0.00  0.00     0.033 H 
ATOM     13  H6  JZ0 d   1      29.851   1.026 -10.878  0.00  0.00     0.033 H 
ATOM     14  H7  JZ0 d   1      29.588   2.730 -10.371  0.00  0.00     0.033 H 
ENDBRANCH   6  11
BRANCH   5  15
ATOM     15  OAB JZ0 d   1      27.724   2.098 -12.354  0.00  0.00    -0.360 OA
ATOM     16  H8  JZ0 d   1      27.605   2.684 -11.616  0.00  0.00     0.217 HD
ENDBRANCH   5  15
TORSDOF 2
