REMARK  1 active torsions:
REMARK  status: ('A' for Active; 'I' for Inactive)
REMARK    1  A    between atoms: C1_6  and  OH_7 
ROOT
ATOM      1  C4  3CH d   1      31.350   3.217 -14.674  0.00  0.00    -0.062 A 
ATOM      2  C5  3CH d   1      30.117   3.310 -15.281  0.00  0.00    -0.079 A 
ATOM      3  C3  3CH d   1      31.399   2.795 -13.360  0.00  0.00     0.036 A 
ATOM      4  C6  3CH d   1      28.993   2.973 -14.534  0.00  0.00    -0.051 A 
ATOM      5  C2  3CH d   1      30.322   2.469 -12.611  0.00  0.00    -0.030 A 
ATOM      6  C1  3CH d   1      29.099   2.567 -13.207  0.00  0.00     0.067 A 
ATOM      7 CL   3CH d   1      32.951   2.669 -12.596  0.00  0.00    -0.084 Cl
ATOM      8  H1  3CH d   1      32.257   3.468 -15.213  0.00  0.00     0.086 H 
ATOM      9  H2  3CH d   1      30.025   3.636 -16.311  0.00  0.00     0.083 H 
ATOM     10  H3  3CH d   1      28.014   3.028 -14.995  0.00  0.00     0.087 H 
ATOM     11  H4  3CH d   1      30.426   2.144 -11.582  0.00  0.00     0.090 H 
ENDROOT
BRANCH   6  12
ATOM     12  OH  3CH d   1      27.993   2.243 -12.496  0.00  0.00    -0.361 OA
ATOM     13  H5  3CH d   1      27.932   2.806 -11.733  0.00  0.00     0.217 HD
ENDBRANCH   6  12
TORSDOF 1
