REMARK  2 active torsions:
REMARK  status: ('A' for Active; 'I' for Inactive)
REMARK    1  A    between atoms: C3_3  and  O3_4 
REMARK    2  A    between atoms: C4_5  and  O4_6 
ROOT
ATOM      1  C1  CAQ d   1      31.470   2.764 -13.071  0.00  0.00    -0.080 A 
ATOM      2  C2  CAQ d   1      30.358   2.495 -12.277  0.00  0.00    -0.048 A 
ATOM      3  C3  CAQ d   1      29.092   2.462 -12.867  0.00  0.00     0.098 A 
ATOM      4  C4  CAQ d   1      28.977   2.704 -14.225  0.00  0.00     0.098 A 
ATOM      5  C5  CAQ d   1      30.079   2.994 -15.036  0.00  0.00    -0.048 A 
ATOM      6  C6  CAQ d   1      31.318   3.009 -14.435  0.00  0.00    -0.080 A 
ATOM      7  H1  CAQ d   1      32.458   2.783 -12.626  0.00  0.00     0.083 H 
ATOM      8  H2  CAQ d   1      30.473   2.313 -11.214  0.00  0.00     0.087 H 
ATOM      9  H5  CAQ d   1      29.963   3.199 -16.094  0.00  0.00     0.087 H 
ATOM     10  H6  CAQ d   1      32.196   3.216 -15.037  0.00  0.00     0.083 H 
ENDROOT
BRANCH   3  11
ATOM     11  O3  CAQ d   1      27.925   2.208 -12.192  0.00  0.00    -0.358 OA
ATOM     12  H3  CAQ d   1      27.802   2.864 -11.516  0.00  0.00     0.217 HD
ENDBRANCH   3  11
BRANCH   4  13
ATOM     13  O4  CAQ d   1      27.714   2.634 -14.698  0.00  0.00    -0.358 OA
ATOM     14  H4  CAQ d   1      27.175   3.278 -14.254  0.00  0.00     0.217 HD
ENDBRANCH   4  13
TORSDOF 2
