REMARK  11 active torsions:
REMARK  status: ('A' for Active; 'I' for Inactive)
REMARK    1  A    between atoms: C1_1  and  C_30 
REMARK    2  A    between atoms: N_28  and  C7_4 
REMARK    3  A    between atoms: N_28  and  C8_5 
REMARK    4  A    between atoms: C11_8  and  N3_25 
REMARK    5  A    between atoms: N3_25  and  C12_9 
REMARK    6  A    between atoms: C14_11  and  N4_22 
REMARK    7  A    between atoms: C16_13  and  S_19 
REMARK    8  A    between atoms: S_19  and  C18_21 
REMARK    9  A    between atoms: N_28  and  C6_29 
REMARK   10  A    between atoms: C4_32  and  C23_33 
REMARK   11  A    between atoms: C23_33  and  O3_34 
ROOT
ATOM      1  N3  IPV d   1       6.856 -32.975  14.487  0.00  0.00    -0.188 N 
ATOM      2  H22 IPV d   1       6.949 -33.461  13.583  0.00  0.00     0.184 HD
ENDROOT
BRANCH   1   3
ATOM      3  C11 IPV d   1       5.662 -33.233  15.081  0.00  0.00     0.728 A 
ATOM      4  N1  IPV d   1       4.813 -34.020  14.399  0.00  0.00    -0.075 NA
ATOM      5  C10 IPV d   1       3.614 -34.214  14.972  0.00  0.00     0.025 A 
ATOM      6  C9  IPV d   1       3.252 -33.671  16.188  0.00  0.00    -0.020 A 
ATOM      7  H7  IPV d   1       2.891 -34.831  14.451  0.00  0.00     0.115 H 
ATOM      8  C8  IPV d   1       4.217 -32.887  16.813  0.00  0.00     0.150 A 
ATOM      9  H6  IPV d   1       2.277 -33.844  16.629  0.00  0.00     0.091 H 
ATOM     10  N2  IPV d   1       5.424 -32.664  16.277  0.00  0.00    -0.045 NA
BRANCH   8  11
ATOM     11  N   IPV d   1       3.992 -32.236  18.037  0.00  0.00    -0.335 N 
BRANCH  11  12
ATOM     12  C7  IPV d   1       4.886 -31.175  18.513  0.00  0.00    -0.012 C 
ATOM     13  H3  IPV d   1       5.704 -31.034  17.792  0.00  0.00     0.057 H 
ATOM     14  H4  IPV d   1       5.303 -31.458  19.490  0.00  0.00     0.057 H 
ATOM     15  H5  IPV d   1       4.321 -30.237  18.614  0.00  0.00     0.057 H 
ENDBRANCH  11  12
BRANCH  11  16
ATOM     16  C6  IPV d   1       2.842 -32.545  18.896  0.00  0.00     0.042 A 
ATOM     17  C1  IPV d   1       2.806 -33.725  19.659  0.00  0.00    -0.035 A 
ATOM     18  C2  IPV d   1       1.684 -33.947  20.455  0.00  0.00    -0.074 A 
ATOM     19  C3  IPV d   1       0.657 -33.028  20.537  0.00  0.00    -0.074 A 
ATOM     20  H1  IPV d   1       1.616 -34.866  21.025  0.00  0.00     0.084 H 
ATOM     21  C4  IPV d   1       0.698 -31.852  19.810  0.00  0.00    -0.033 A 
ATOM     22  H2  IPV d   1      -0.192 -33.231  21.179  0.00  0.00     0.084 H 
ATOM     23  C5  IPV d   1       1.786 -31.633  18.969  0.00  0.00    -0.048 A 
ATOM     24  H26 IPV d   1       1.814 -30.737  18.359  0.00  0.00     0.087 H 
BRANCH  17  25
ATOM     25  C   IPV d   1       3.950 -34.708  19.702  0.00  0.00    -0.049 C 
ATOM     26  H23 IPV d   1       3.688 -35.547  20.364  0.00  0.00     0.033 H 
ATOM     27  H24 IPV d   1       4.851 -34.206  20.085  0.00  0.00     0.033 H 
ATOM     28  H25 IPV d   1       4.145 -35.088  18.688  0.00  0.00     0.033 H 
ENDBRANCH  17  25
BRANCH  21  29
ATOM     29  C23 IPV d   1      -0.348 -30.790  20.003  0.00  0.00     0.041 C 
ATOM     30  H27 IPV d   1      -1.174 -31.212  20.594  0.00  0.00     0.081 H 
ATOM     31  H28 IPV d   1      -0.723 -30.481  19.016  0.00  0.00     0.081 H 
BRANCH  29  32
ATOM     32  O3  IPV d   1       0.156 -29.647  20.677  0.00  0.00    -0.396 OA
ATOM     33  H29 IPV d   1      -0.539 -29.007  20.775  0.00  0.00     0.209 HD
ENDBRANCH  29  32
ENDBRANCH  21  29
ENDBRANCH  11  16
ENDBRANCH   8  11
ENDBRANCH   1   3
BRANCH   1  34
ATOM     34  C12 IPV d   1       8.001 -32.210  14.795  0.00  0.00     0.052 A 
ATOM     35  C13 IPV d   1       8.012 -31.414  15.938  0.00  0.00    -0.031 A 
ATOM     36  C14 IPV d   1       9.171 -30.716  16.287  0.00  0.00     0.033 A 
ATOM     37  H8  IPV d   1       7.124 -31.336  16.555  0.00  0.00     0.090 H 
ATOM     38  C15 IPV d   1      10.317 -30.862  15.504  0.00  0.00    -0.036 A 
ATOM     39  C16 IPV d   1      10.299 -31.653  14.368  0.00  0.00     0.063 A 
ATOM     40  H9  IPV d   1      11.230 -30.351  15.788  0.00  0.00     0.089 H 
ATOM     41  C17 IPV d   1       9.139 -32.314  13.997  0.00  0.00    -0.036 A 
ATOM     42  H21 IPV d   1       9.117 -32.909  13.091  0.00  0.00     0.089 H 
BRANCH  36  43
ATOM     43  N4  IPV d   1       9.162 -29.845  17.352  0.00  0.00    -0.377 N 
ATOM     44  C19 IPV d   1       9.606 -30.315  18.666  0.00  0.00     0.015 C 
ATOM     45  C20 IPV d   1      10.014 -29.129  19.514  0.00  0.00     0.034 C 
ATOM     46  H10 IPV d   1       8.784 -30.854  19.160  0.00  0.00     0.067 H 
ATOM     47  H11 IPV d   1      10.465 -30.991  18.543  0.00  0.00     0.067 H 
ATOM     48  O2  IPV d   1       8.957 -28.167  19.625  0.00  0.00    -0.388 OA
ATOM     49  H12 IPV d   1      10.889 -28.646  19.054  0.00  0.00     0.076 H 
ATOM     50  H13 IPV d   1      10.279 -29.485  20.520  0.00  0.00     0.076 H 
ATOM     51  C21 IPV d   1       8.567 -27.693  18.328  0.00  0.00     0.034 C 
ATOM     52  C22 IPV d   1       8.114 -28.822  17.428  0.00  0.00     0.015 C 
ATOM     53  H14 IPV d   1       7.740 -26.977  18.445  0.00  0.00     0.076 H 
ATOM     54  H15 IPV d   1       9.425 -27.188  17.861  0.00  0.00     0.076 H 
ATOM     55  H16 IPV d   1       7.914 -28.428  16.421  0.00  0.00     0.067 H 
ATOM     56  H17 IPV d   1       7.196 -29.269  17.836  0.00  0.00     0.067 H 
ENDBRANCH  36  43
BRANCH  39  57
ATOM     57  S   IPV d   1      11.776 -31.850  13.414  0.00  0.00     0.172 S 
ATOM     58  O1  IPV d   1      12.832 -32.254  14.298  0.00  0.00    -0.223 OA
ATOM     59  O   IPV d   1      11.480 -32.693  12.292  0.00  0.00    -0.223 OA
BRANCH  57  60
ATOM     60  C18 IPV d   1      12.133 -30.241  12.823  0.00  0.00     0.020 C 
ATOM     61  H18 IPV d   1      13.047 -30.269  12.212  0.00  0.00     0.049 H 
ATOM     62  H19 IPV d   1      12.283 -29.562  13.675  0.00  0.00     0.049 H 
ATOM     63  H20 IPV d   1      11.294 -29.881  12.210  0.00  0.00     0.049 H 
ENDBRANCH  57  60
ENDBRANCH  39  57
ENDBRANCH   1  34
TORSDOF 11
