REMARK  4 active torsions:
REMARK  status: ('A' for Active; 'I' for Inactive)
REMARK    1  A    between atoms: C7_4  and  C6_21 
REMARK    2  A    between atoms: C14_11  and  C12_9 
REMARK    3  A    between atoms: C6_21  and  C5_19 
REMARK    4  A    between atoms: N3_25  and  C17_27 
ROOT
ATOM      1  C7  IPW d   1       4.062 -33.214  18.165  0.00  0.00     0.044 A 
ATOM      2  C8  IPW d   1       3.114 -34.114  17.735  0.00  0.00    -0.006 A 
ATOM      3  C9  IPW d   1       4.730 -34.185  16.204  0.00  0.00     0.138 A 
ATOM      4  C10 IPW d   1       5.123 -33.259  17.185  0.00  0.00     0.026 A 
ATOM      5  C11 IPW d   1       6.338 -32.604  16.979  0.00  0.00    -0.056 A 
ATOM      6  C12 IPW d   1       7.108 -32.921  15.860  0.00  0.00    -0.004 A 
ATOM      7  C13 IPW d   1       6.607 -33.858  14.963  0.00  0.00     0.015 A 
ATOM      8  N1  IPW d   1       5.434 -34.489  15.102  0.00  0.00    -0.242 NA
ATOM      9  N   IPW d   1       3.518 -34.699  16.564  0.00  0.00    -0.349 N 
ATOM     10  H3  IPW d   1       2.179 -34.330  18.250  0.00  0.00     0.112 H 
ATOM     11  H4  IPW d   1       6.681 -31.855  17.683  0.00  0.00     0.086 H 
ATOM     12  H5  IPW d   1       7.207 -34.094  14.091  0.00  0.00     0.116 H 
ATOM     13  H16 IPW d   1       2.992 -35.412  16.040  0.00  0.00     0.167 HD
ENDROOT
BRANCH   6  14
ATOM     14  C14 IPW d   1       8.409 -32.258  15.563  0.00  0.00     0.012 A 
ATOM     15  C15 IPW d   1       9.304 -32.481  14.449  0.00  0.00     0.034 A 
ATOM     16  N2  IPW d   1      10.373 -31.717  14.580  0.00  0.00    -0.184 NA
ATOM     17  H6  IPW d   1       9.124 -33.173  13.628  0.00  0.00     0.118 H 
ATOM     18  N3  IPW d   1      10.191 -30.991  15.714  0.00  0.00    -0.276 N 
ATOM     19  C16 IPW d   1       9.024 -31.284  16.310  0.00  0.00     0.011 A 
ATOM     20  H7  IPW d   1       8.636 -30.831  17.221  0.00  0.00     0.115 H 
BRANCH  18  21
ATOM     21  C17 IPW d   1      11.241 -29.974  16.177  0.00  0.00     0.037 C 
ATOM     22  C21 IPW d   1      12.618 -30.609  16.400  0.00  0.00    -0.022 C 
ATOM     23  C20 IPW d   1      13.600 -29.579  16.927  0.00  0.00     0.084 C 
ATOM     24  H12 IPW d   1      12.525 -31.427  17.130  0.00  0.00     0.038 H 
ATOM     25  H13 IPW d   1      12.991 -31.009  15.446  0.00  0.00     0.038 H 
ATOM     26  N4  IPW d   1      13.093 -28.843  18.101  0.00  0.00    -0.075 N 
ATOM     27  H10 IPW d   1      13.813 -28.856  16.126  0.00  0.00     0.075 H 
ATOM     28  H11 IPW d   1      14.529 -30.095  17.212  0.00  0.00     0.075 H 
ATOM     29  C19 IPW d   1      11.813 -28.167  17.794  0.00  0.00     0.084 C 
ATOM     30  H18 IPW d   1      12.949 -29.491  18.859  0.00  0.00     0.277 HD
ATOM     31  H19 IPW d   1      13.773 -28.151  18.375  0.00  0.00     0.277 HD
ATOM     32  C18 IPW d   1      10.764 -29.190  17.402  0.00  0.00    -0.022 C 
ATOM     33  H8  IPW d   1      11.964 -27.463  16.962  0.00  0.00     0.075 H 
ATOM     34  H9  IPW d   1      11.470 -27.616  18.682  0.00  0.00     0.075 H 
ATOM     35  H20 IPW d   1       9.822 -28.675  17.162  0.00  0.00     0.038 H 
ATOM     36  H21 IPW d   1      10.599 -29.884  18.239  0.00  0.00     0.038 H 
ATOM     37  H17 IPW d   1      11.359 -29.247  15.360  0.00  0.00     0.076 H 
ENDBRANCH  18  21
ENDBRANCH   6  14
BRANCH   1  38
ATOM     38  C6  IPW d   1       3.972 -32.343  19.348  0.00  0.00     0.194 C 
ATOM     39  O   IPW d   1       4.795 -31.466  19.601  0.00  0.00    -0.287 OA
BRANCH  38  40
ATOM     40  C5  IPW d   1       2.796 -32.522  20.243  0.00  0.00     0.015 A 
ATOM     41  C4  IPW d   1       1.612 -31.830  19.996  0.00  0.00    -0.068 A 
ATOM     42  C3  IPW d   1       0.522 -31.970  20.836  0.00  0.00    -0.061 A 
ATOM     43  H14 IPW d   1       1.544 -31.174  19.136  0.00  0.00     0.085 H 
ATOM     44  C2  IPW d   1       0.621 -32.801  21.935  0.00  0.00     0.034 A 
ATOM     45  H2  IPW d   1      -0.399 -31.434  20.634  0.00  0.00     0.086 H 
ATOM     46  C1  IPW d   1       1.777 -33.512  22.194  0.00  0.00    -0.061 A 
ATOM     47 CL   IPW d   1      -0.745 -32.972  23.004  0.00  0.00    -0.084 Cl
ATOM     48  C   IPW d   1       2.869 -33.353  21.359  0.00  0.00    -0.068 A 
ATOM     49  H1  IPW d   1       1.828 -34.186  23.041  0.00  0.00     0.086 H 
ATOM     50  H15 IPW d   1       3.791 -33.880  21.575  0.00  0.00     0.085 H 
ENDBRANCH  38  40
ENDBRANCH   1  38
TORSDOF 4
