REMARK  6 active torsions:
REMARK  status: ('A' for Active; 'I' for Inactive)
REMARK    1  A    between atoms: C5_1  and  C1_5 
REMARK    2  A    between atoms: N2_16  and  C8_2 
REMARK    3  A    between atoms: C1_5  and  N1_14 
REMARK    4  A    between atoms: C13_10  and  N3_33 
REMARK    5  A    between atoms: C21_18  and  C22_19 
REMARK    6  A    between atoms: C11_28  and  C12_29 
ROOT
ATOM      1  C17 6S1 d   1      -6.176  -1.600 -17.951  0.00  0.00     0.105 A 
ATOM      2  C18 6S1 d   1      -7.311  -0.921 -18.013  0.00  0.00     0.166 A 
ATOM      3  N2  6S1 d   1      -7.937  -1.030 -16.844  0.00  0.00    -0.278 N 
ATOM      4  N6  6S1 d   1      -7.668  -0.261 -19.118  0.00  0.00    -0.228 NA
ATOM      5  C21 6S1 d   1      -6.869  -0.214 -20.192  0.00  0.00     0.069 A 
ATOM      6  C20 6S1 d   1      -5.651  -0.907 -20.154  0.00  0.00    -0.052 A 
ATOM      7  C19 6S1 d   1      -5.329  -1.602 -18.992  0.00  0.00    -0.049 A 
ATOM      8  N5  6S1 d   1      -6.108  -2.182 -16.748  0.00  0.00    -0.226 NA
ATOM      9  C11 6S1 d   1      -7.190  -1.838 -16.062  0.00  0.00     0.151 A 
ATOM     10  H20 6S1 d   1      -4.979  -0.902 -21.005  0.00  0.00     0.087 H 
ATOM     11  H21 6S1 d   1      -4.393  -2.145 -18.928  0.00  0.00     0.087 H 
ENDROOT
BRANCH   3  12
ATOM     12  C8  6S1 d   1      -9.184  -0.525 -16.676  0.00  0.00     0.043 A 
ATOM     13  C9  6S1 d   1      -9.555   0.758 -17.010  0.00  0.00    -0.056 A 
ATOM     14  C10 6S1 d   1     -10.881   1.159 -16.881  0.00  0.00    -0.072 A 
ATOM     15  H5  6S1 d   1      -8.812   1.458 -17.375  0.00  0.00     0.087 H 
ATOM     16  C5  6S1 d   1     -11.893   0.298 -16.455  0.00  0.00    -0.022 A 
ATOM     17  H14 6S1 d   1     -11.139   2.184 -17.122  0.00  0.00     0.084 H 
ATOM     18  C6  6S1 d   1     -11.500  -0.985 -16.164  0.00  0.00    -0.072 A 
ATOM     19  C7  6S1 d   1     -10.196  -1.387 -16.286  0.00  0.00    -0.056 A 
ATOM     20  H3  6S1 d   1     -12.242  -1.700 -15.828  0.00  0.00     0.084 H 
ATOM     21  H8  6S1 d   1      -9.947  -2.419 -16.069  0.00  0.00     0.087 H 
BRANCH  16  22
ATOM     22  C1  6S1 d   1     -13.272   0.654 -16.271  0.00  0.00     0.150 C 
ATOM     23  C4  6S1 d   1     -14.218   0.051 -17.303  0.00  0.00    -0.030 C 
ATOM     24  C3  6S1 d   1     -14.357   1.418 -17.973  0.00  0.00    -0.060 C 
ATOM     25  H6  6S1 d   1     -13.756  -0.717 -17.941  0.00  0.00     0.037 H 
ATOM     26  H7  6S1 d   1     -15.155  -0.339 -16.879  0.00  0.00     0.037 H 
ATOM     27  C2  6S1 d   1     -13.751   1.998 -16.764  0.00  0.00    -0.030 C 
ATOM     28  H1  6S1 d   1     -15.394   1.733 -18.163  0.00  0.00     0.033 H 
ATOM     29  H2  6S1 d   1     -13.762   1.543 -18.890  0.00  0.00     0.033 H 
ATOM     30  H9  6S1 d   1     -14.481   2.476 -16.094  0.00  0.00     0.037 H 
ATOM     31  H10 6S1 d   1     -12.934   2.703 -16.978  0.00  0.00     0.037 H 
BRANCH  22  32
ATOM     32  N1  6S1 d   1     -13.686   0.455 -14.887  0.00  0.00    -0.066 N 
ATOM     33  H11 6S1 d   1     -13.363  -0.444 -14.566  0.00  0.00     0.275 HD
ATOM     34  H12 6S1 d   1     -14.692   0.491 -14.829  0.00  0.00     0.275 HD
ATOM     35  H13 6S1 d   1     -13.290   1.181 -14.310  0.00  0.00     0.275 HD
ENDBRANCH  22  32
ENDBRANCH  16  22
ENDBRANCH   3  12
BRANCH   9  36
ATOM     36  C12 6S1 d   1      -7.443  -2.241 -14.801  0.00  0.00     0.056 A 
ATOM     37  C13 6S1 d   1      -7.218  -3.543 -14.336  0.00  0.00     0.135 A 
ATOM     38  N4  6S1 d   1      -7.498  -3.895 -13.083  0.00  0.00    -0.243 NA
ATOM     39  C14 6S1 d   1      -7.989  -2.918 -12.190  0.00  0.00     0.004 A 
ATOM     40  C15 6S1 d   1      -8.200  -1.603 -12.593  0.00  0.00    -0.065 A 
ATOM     41  H4  6S1 d   1      -8.207  -3.199 -11.166  0.00  0.00     0.114 H 
ATOM     42  C16 6S1 d   1      -7.936  -1.300 -13.911  0.00  0.00    -0.064 A 
ATOM     43  H23 6S1 d   1      -8.557  -0.850 -11.900  0.00  0.00     0.085 H 
ATOM     44  H22 6S1 d   1      -8.120  -0.292 -14.264  0.00  0.00     0.085 H 
BRANCH  37  45
ATOM     45  N3  6S1 d   1      -6.750  -4.450 -15.185  0.00  0.00    -0.383 N 
ATOM     46  H24 6S1 d   1      -6.577  -5.414 -14.865  0.00  0.00     0.157 HD
ATOM     47  H25 6S1 d   1      -6.560  -4.190 -16.163  0.00  0.00     0.157 HD
ENDBRANCH  37  45
ENDBRANCH   9  36
BRANCH   5  48
ATOM     48  C22 6S1 d   1      -7.274   0.528 -21.299  0.00  0.00    -0.007 A 
ATOM     49  C23 6S1 d   1      -8.092   1.646 -21.084  0.00  0.00    -0.071 A 
ATOM     50  C24 6S1 d   1      -8.513   2.417 -22.158  0.00  0.00    -0.082 A 
ATOM     51  H15 6S1 d   1      -8.396   1.909 -20.077  0.00  0.00     0.084 H 
ATOM     52  C25 6S1 d   1      -8.107   2.113 -23.460  0.00  0.00    -0.083 A 
ATOM     53  H16 6S1 d   1      -9.165   3.266 -21.985  0.00  0.00     0.083 H 
ATOM     54  C26 6S1 d   1      -7.289   1.003 -23.664  0.00  0.00    -0.082 A 
ATOM     55  H17 6S1 d   1      -8.422   2.728 -24.295  0.00  0.00     0.083 H 
ATOM     56  C27 6S1 d   1      -6.867   0.203 -22.601  0.00  0.00    -0.071 A 
ATOM     57  H18 6S1 d   1      -6.973   0.755 -24.671  0.00  0.00     0.083 H 
ATOM     58  H19 6S1 d   1      -6.233  -0.658 -22.779  0.00  0.00     0.084 H 
ENDBRANCH   5  48
TORSDOF 6
