REMARK  5 active torsions:
REMARK  status: ('A' for Active; 'I' for Inactive)
REMARK    1  A    between atoms: NAV_3  and  CAY_4 
REMARK    2  A    between atoms: NAS_7  and  CAP_8 
REMARK    3  A    between atoms: CAM_13  and  CAH_14 
REMARK    4  A    between atoms: CAB_20  and  CAJ_21 
REMARK       I    between atoms: CAJ_21  and  NAZ_23 
REMARK    5  A    between atoms: NAG_26  and  CAL_27 
ROOT
ATOM      1  CAP 6S3 d   1      24.090  41.200  -4.557  0.00  0.00     0.030 A 
ATOM      2  CAO 6S3 d   1      23.685  41.502  -3.262  0.00  0.00    -0.057 A 
ATOM      3  CAN 6S3 d   1      23.481  40.481  -2.341  0.00  0.00    -0.069 A 
ATOM      4  CAQ 6S3 d   1      24.290  39.876  -4.931  0.00  0.00    -0.057 A 
ATOM      5  CAR 6S3 d   1      24.085  38.855  -4.011  0.00  0.00    -0.069 A 
ATOM      6  CAM 6S3 d   1      23.681  39.158  -2.716  0.00  0.00    -0.009 A 
ATOM      7  H13 6S3 d   1      23.528  42.534  -2.970  0.00  0.00     0.086 H 
ATOM      8  H14 6S3 d   1      23.166  40.717  -1.331  0.00  0.00     0.085 H 
ATOM      9  H15 6S3 d   1      24.606  39.640  -5.941  0.00  0.00     0.086 H 
ATOM     10  H16 6S3 d   1      24.240  37.823  -4.303  0.00  0.00     0.085 H 
ENDROOT
BRANCH   6  11
ATOM     11  CAH 6S3 d   1      23.463  38.071  -1.735  0.00  0.00     0.046 A 
ATOM     12  CAI 6S3 d   1      23.746  38.145  -0.441  0.00  0.00    -0.041 A 
ATOM     13  CAE 6S3 d   1      23.408  36.973   0.093  0.00  0.00     0.034 A 
ATOM     14  H17 6S3 d   1      24.172  38.999   0.083  0.00  0.00     0.088 H 
ATOM     15  CAD 6S3 d   1      23.485  36.523   1.343  0.00  0.00     0.050 A 
ATOM     16  CAF 6S3 d   1      22.922  36.194  -0.880  0.00  0.00     0.142 A 
ATOM     17 CLAK 6S3 d   1      24.113  37.538   2.588  0.00  0.00    -0.083 Cl
ATOM     18  CAA 6S3 d   1      23.058  35.237   1.644  0.00  0.00    -0.028 A 
ATOM     19  CAB 6S3 d   1      22.558  34.449   0.618  0.00  0.00     0.128 A 
ATOM     20  H18 6S3 d   1      23.114  34.857   2.658  0.00  0.00     0.090 H 
ATOM     21  NAC 6S3 d   1      22.501  34.945  -0.625  0.00  0.00    -0.225 NA
ATOM     22  NAG 6S3 d   1      22.957  36.879  -2.020  0.00  0.00    -0.335 N 
BRANCH  19  23
ATOM     23  CAJ 6S3 d   1      22.086  33.053   0.897  0.00  0.00     0.268 C 
ATOM     24  OBA 6S3 d   1      21.946  32.651   2.051  0.00  0.00    -0.266 OA
ATOM     25  NAZ 6S3 d   1      21.841  32.316  -0.182  0.00  0.00    -0.365 N 
ATOM     26  H19 6S3 d   1      21.523  31.373  -0.082  0.00  0.00     0.159 HD
ATOM     27  H20 6S3 d   1      21.975  32.704  -1.094  0.00  0.00     0.159 HD
ENDBRANCH  19  23
BRANCH  22  28
ATOM     28  CAL 6S3 d   1      22.515  36.403  -3.350  0.00  0.00    -0.012 C 
ATOM     29  H21 6S3 d   1      22.670  37.198  -4.094  0.00  0.00     0.057 H 
ATOM     30  H22 6S3 d   1      21.447  36.141  -3.310  0.00  0.00     0.057 H 
ATOM     31  H23 6S3 d   1      23.099  35.516  -3.635  0.00  0.00     0.057 H 
ENDBRANCH  22  28
ENDBRANCH   6  11
BRANCH   1  32
ATOM     32  NAS 6S3 d   1      24.287  42.184  -5.445  0.00  0.00    -0.378 N 
ATOM     33  CAT 6S3 d   1      25.254  42.081  -6.561  0.00  0.00     0.018 C 
ATOM     34  CAU 6S3 d   1      24.607  42.471  -7.880  0.00  0.00     0.098 C 
ATOM     35  H1  6S3 d   1      26.103  42.752  -6.364  0.00  0.00     0.066 H 
ATOM     36  H2  6S3 d   1      25.615  41.044  -6.630  0.00  0.00     0.066 H 
ATOM     37  NAV 6S3 d   1      24.004  43.808  -7.796  0.00  0.00    -0.072 N 
ATOM     38  H3  6S3 d   1      23.825  41.739  -8.127  0.00  0.00     0.078 H 
ATOM     39  H4  6S3 d   1      25.372  42.471  -8.670  0.00  0.00     0.078 H 
ATOM     40  CAW 6S3 d   1      22.967  43.814  -6.755  0.00  0.00     0.098 C 
ATOM     41  H5  6S3 d   1      24.716  44.483  -7.564  0.00  0.00     0.279 HD
ATOM     42  CAX 6S3 d   1      23.557  43.471  -5.397  0.00  0.00     0.018 C 
ATOM     43  H9  6S3 d   1      22.197  43.072  -7.010  0.00  0.00     0.078 H 
ATOM     44  H10 6S3 d   1      22.511  44.814  -6.707  0.00  0.00     0.078 H 
ATOM     45  H11 6S3 d   1      22.744  43.396  -4.660  0.00  0.00     0.066 H 
ATOM     46  H12 6S3 d   1      24.253  44.268  -5.095  0.00  0.00     0.066 H 
BRANCH  37  47
ATOM     47  CAY 6S3 d   1      23.401  44.157  -9.091  0.00  0.00     0.066 C 
ATOM     48  H6  6S3 d   1      22.950  45.158  -9.027  0.00  0.00     0.068 H 
ATOM     49  H7  6S3 d   1      22.625  43.420  -9.344  0.00  0.00     0.068 H 
ATOM     50  H8  6S3 d   1      24.178  44.154  -9.870  0.00  0.00     0.068 H 
ENDBRANCH  37  47
ENDBRANCH   1  32
TORSDOF 5
