REMARK  4 active torsions:
REMARK  status: ('A' for Active; 'I' for Inactive)
REMARK    1  A    between atoms: C11_1  and  N2_11 
REMARK    2  A    between atoms: N4_9  and  C14_4 
REMARK    3  A    between atoms: C_12  and  C1_13 
REMARK    4  A    between atoms: N_14  and  C5_18 
ROOT
ATOM      1  C11 6RT d   1      82.993 -70.539 118.768  0.00  0.00     0.742 A 
ATOM      2  C14 6RT d   1      80.709 -71.086 118.760  0.00  0.00     0.742 A 
ATOM      3  N1  6RT d   1      82.706 -69.313 119.283  0.00  0.00    -0.040 NA
ATOM      4  N3  6RT d   1      81.998 -71.429 118.506  0.00  0.00     0.130 NA
ATOM      5  N5  6RT d   1      80.435 -69.867 119.274  0.00  0.00    -0.040 NA
ATOM      6  C   6RT d   1      81.417 -68.970 119.537  0.00  0.00     0.214 A 
ENDROOT
BRANCH   6   7
ATOM      7  C1  6RT d   1      81.079 -67.624 120.106  0.00  0.00     0.088 A 
ATOM      8  N   6RT d   1      79.888 -67.019 120.220  0.00  0.00    -0.319 N 
ATOM      9  C4  6RT d   1      79.925 -65.812 120.778  0.00  0.00    -0.014 A 
ATOM     10  C3  6RT d   1      81.260 -65.594 121.063  0.00  0.00    -0.065 A 
ATOM     11  H9  6RT d   1      79.087 -65.143 120.969  0.00  0.00     0.112 H 
ATOM     12  C2  6RT d   1      81.976 -66.711 120.650  0.00  0.00    -0.051 A 
ATOM     13  H10 6RT d   1      81.677 -64.703 121.529  0.00  0.00     0.085 H 
ATOM     14  H11 6RT d   1      83.053 -66.848 120.737  0.00  0.00     0.087 H 
BRANCH   8  15
ATOM     15  C5  6RT d   1      78.737 -67.566 119.807  0.00  0.00     0.039 A 
ATOM     16  C10 6RT d   1      78.285 -67.429 118.486  0.00  0.00    -0.057 A 
ATOM     17  C9  6RT d   1      77.095 -68.005 118.037  0.00  0.00    -0.081 A 
ATOM     18  H12 6RT d   1      78.882 -66.854 117.787  0.00  0.00     0.086 H 
ATOM     19  C8  6RT d   1      76.315 -68.754 118.913  0.00  0.00    -0.083 A 
ATOM     20  H13 6RT d   1      76.779 -67.869 117.009  0.00  0.00     0.083 H 
ATOM     21  C7  6RT d   1      76.734 -68.914 120.231  0.00  0.00    -0.081 A 
ATOM     22  H14 6RT d   1      75.391 -69.208 118.573  0.00  0.00     0.083 H 
ATOM     23  C6  6RT d   1      77.926 -68.328 120.663  0.00  0.00    -0.057 A 
ATOM     24  H15 6RT d   1      76.134 -69.494 120.923  0.00  0.00     0.083 H 
ATOM     25  H16 6RT d   1      78.235 -68.466 121.693  0.00  0.00     0.086 H 
ENDBRANCH   8  15
ENDBRANCH   6   7
BRANCH   1  26
ATOM     26  N2  6RT d   1      84.324 -70.887 118.510  0.00  0.00    -0.210 N 
ATOM     27  C12 6RT d   1      85.308 -71.230 117.526  0.00  0.00     0.027 A 
ATOM     28  C13 6RT d   1      85.624 -71.137 119.057  0.00  0.00     0.027 A 
ATOM     29  H1  6RT d   1      85.276 -72.207 117.021  0.00  0.00     0.067 H 
ATOM     30  H2  6RT d   1      85.690 -70.469 116.830  0.00  0.00     0.067 H 
ATOM     31  H3  6RT d   1      86.232 -70.310 119.453  0.00  0.00     0.067 H 
ATOM     32  H4  6RT d   1      85.817 -72.047 119.644  0.00  0.00     0.067 H 
ENDBRANCH   1  26
BRANCH   2  33
ATOM     33  N4  6RT d   1      79.643 -71.962 118.516  0.00  0.00    -0.210 N 
ATOM     34  C16 6RT d   1      78.522 -72.291 117.686  0.00  0.00     0.027 A 
ATOM     35  C15 6RT d   1      78.870 -73.071 118.996  0.00  0.00     0.027 A 
ATOM     36  H5  6RT d   1      77.644 -71.630 117.647  0.00  0.00     0.067 H 
ATOM     37  H6  6RT d   1      78.674 -72.757 116.701  0.00  0.00     0.067 H 
ATOM     38  H7  6RT d   1      79.271 -74.094 118.947  0.00  0.00     0.067 H 
ATOM     39  H8  6RT d   1      78.240 -72.967 119.892  0.00  0.00     0.067 H 
ENDBRANCH   2  33
TORSDOF 4
