REMARK  8 active torsions:
REMARK  status: ('A' for Active; 'I' for Inactive)
REMARK    1  A    between atoms: N_18  and  C1_1 
REMARK    2  A    between atoms: C2_2  and  N_18 
REMARK    3  A    between atoms: C3_3  and  C4_4 
REMARK    4  A    between atoms: N2_22  and  C8_8 
REMARK    5  A    between atoms: N4_14  and  C16_13 
REMARK    6  A    between atoms: N4_14  and  C15_15 
REMARK    7  A    between atoms: C14_16  and  N4_14 
REMARK    8  A    between atoms: N_18  and  C_19 
ROOT
ATOM      1  C2  6RU d   1      32.308  15.346  25.806  0.00  0.00     0.741 A 
ATOM      2  C3  6RU d   1      30.576  14.920  24.198  0.00  0.00     0.214 A 
ATOM      3  C14 6RU d   1      30.160  14.641  26.490  0.00  0.00     0.741 A 
ATOM      4  N5  6RU d   1      31.432  15.016  26.792  0.00  0.00     0.130 NA
ATOM      5  N3  6RU d   1      29.740  14.594  25.201  0.00  0.00    -0.040 NA
ATOM      6  N1  6RU d   1      31.855  15.291  24.516  0.00  0.00    -0.040 NA
ENDROOT
BRANCH   2   7
ATOM      7  C4  6RU d   1      30.058  14.847  22.784  0.00  0.00     0.088 A 
ATOM      8  C5  6RU d   1      28.911  14.185  22.346  0.00  0.00    -0.051 A 
ATOM      9  C6  6RU d   1      28.798  14.366  20.971  0.00  0.00    -0.065 A 
ATOM     10  H4  6RU d   1      28.221  13.622  22.973  0.00  0.00     0.087 H 
ATOM     11  C7  6RU d   1      29.871  15.136  20.557  0.00  0.00    -0.014 A 
ATOM     12  H5  6RU d   1      28.007  13.972  20.334  0.00  0.00     0.085 H 
ATOM     13  N2  6RU d   1      30.565  15.383  21.667  0.00  0.00    -0.319 N 
ATOM     14  H6  6RU d   1      30.098  15.467  19.545  0.00  0.00     0.112 H 
BRANCH  13  15
ATOM     15  C8  6RU d   1      31.692  16.106  21.712  0.00  0.00     0.039 A 
ATOM     16  C9  6RU d   1      32.943  15.574  21.360  0.00  0.00    -0.057 A 
ATOM     17  C10 6RU d   1      34.112  16.331  21.447  0.00  0.00    -0.081 A 
ATOM     18  H7  6RU d   1      33.002  14.549  21.012  0.00  0.00     0.086 H 
ATOM     19  C11 6RU d   1      34.067  17.651  21.907  0.00  0.00    -0.083 A 
ATOM     20  H8  6RU d   1      35.060  15.893  21.156  0.00  0.00     0.083 H 
ATOM     21  C12 6RU d   1      32.846  18.205  22.280  0.00  0.00    -0.081 A 
ATOM     22  H9  6RU d   1      34.976  18.238  21.973  0.00  0.00     0.083 H 
ATOM     23  C13 6RU d   1      31.686  17.433  22.185  0.00  0.00    -0.057 A 
ATOM     24  H10 6RU d   1      32.796  19.226  22.641  0.00  0.00     0.083 H 
ATOM     25  H20 6RU d   1      30.743  17.873  22.488  0.00  0.00     0.086 H 
ENDBRANCH  13  15
ENDBRANCH   2   7
BRANCH   3  26
ATOM     26  N4  6RU d   1      29.254  14.278  27.493  0.00  0.00    -0.222 N 
BRANCH  26  27
ATOM     27  C16 6RU d   1      29.723  13.885  28.818  0.00  0.00    -0.003 C 
ATOM     28  H11 6RU d   1      28.860  13.640  29.454  0.00  0.00     0.057 H 
ATOM     29  H12 6RU d   1      30.287  14.715  29.269  0.00  0.00     0.057 H 
ATOM     30  H13 6RU d   1      30.376  13.004  28.730  0.00  0.00     0.057 H 
ENDBRANCH  26  27
BRANCH  26  31
ATOM     31  C15 6RU d   1      27.822  14.265  27.194  0.00  0.00    -0.003 C 
ATOM     32  H14 6RU d   1      27.661  14.589  26.155  0.00  0.00     0.057 H 
ATOM     33  H15 6RU d   1      27.299  14.950  27.877  0.00  0.00     0.057 H 
ATOM     34  H16 6RU d   1      27.429  13.246  27.325  0.00  0.00     0.057 H 
ENDBRANCH  26  31
ENDBRANCH   3  26
BRANCH   1  35
ATOM     35  N   6RU d   1      33.640  15.747  26.112  0.00  0.00    -0.222 N 
BRANCH  35  36
ATOM     36  C1  6RU d   1      34.629  15.993  25.061  0.00  0.00    -0.003 C 
ATOM     37  H1  6RU d   1      35.584  16.290  25.519  0.00  0.00     0.057 H 
ATOM     38  H2  6RU d   1      34.272  16.798  24.402  0.00  0.00     0.057 H 
ATOM     39  H3  6RU d   1      34.774  15.075  24.472  0.00  0.00     0.057 H 
ENDBRANCH  35  36
BRANCH  35  40
ATOM     40  C   6RU d   1      34.101  15.952  27.487  0.00  0.00    -0.003 C 
ATOM     41  H17 6RU d   1      33.278  15.739  28.185  0.00  0.00     0.057 H 
ATOM     42  H18 6RU d   1      34.428  16.995  27.613  0.00  0.00     0.057 H 
ATOM     43  H19 6RU d   1      34.944  15.276  27.696  0.00  0.00     0.057 H 
ENDBRANCH  35  40
ENDBRANCH   1  35
TORSDOF 8
