REMARK  16 active torsions:
REMARK  status: ('A' for Active; 'I' for Inactive)
REMARK    1  A    between atoms: CAI_1  and  CAD_2 
REMARK    2  A    between atoms: CAE_8  and  C_9 
REMARK    3  A    between atoms: C_9  and  CA_11 
REMARK    4  A    between atoms: CA_11  and  CB_12 
REMARK    5  A    between atoms: CA_11  and  N_15 
REMARK    6  A    between atoms: CB_12  and  CG2_13 
REMARK    7  A    between atoms: CB_12  and  CG1_14 
REMARK       I    between atoms: N_15  and  CAQ_16 
REMARK    8  A    between atoms: CAQ_16  and  CAR_18 
REMARK    9  A    between atoms: CAR_18  and  CAT_19 
REMARK   10  A    between atoms: CAT_19  and  CBB_20 
REMARK   11  A    between atoms: CAT_19  and  NAU_26 
REMARK       I    between atoms: NAU_26  and  CAV_27 
REMARK   12  A    between atoms: CAV_27  and  CAW_29 
REMARK   13  A    between atoms: CAW_29  and  CAX_30 
REMARK   14  A    between atoms: CAX_30  and  CAY_31 
REMARK   15  A    between atoms: CAY_31  and  CAZ_32 
REMARK   16  A    between atoms: CAZ_32  and  CBA_33 
ROOT
ATOM      1  CAR YT5 d   1      13.972  -9.953  19.130  0.00  0.00     0.032 C 
ATOM      2  H16 YT5 d   1      14.599  -9.087  18.870  0.00  0.00     0.050 H 
ATOM      3  H17 YT5 d   1      13.608 -10.432  18.209  0.00  0.00     0.050 H 
ENDROOT
BRANCH   1   4
ATOM      4  CAQ YT5 d   1      12.771  -9.482  19.971  0.00  0.00     0.220 C 
ATOM      5  N   YT5 d   1      12.832  -8.222  20.443  0.00  0.00    -0.349 N 
ATOM      6  H15 YT5 d   1      13.617  -7.655  20.195  0.00  0.00     0.163 HD
ATOM      7  OAS YT5 d   1      11.836 -10.251  20.178  0.00  0.00    -0.274 OA
BRANCH   5   8
ATOM      8  CA  YT5 d   1      11.788  -7.643  21.312  0.00  0.00     0.073 C 
ATOM      9  H7  YT5 d   1      11.010  -8.397  21.502  0.00  0.00     0.085 H 
BRANCH   8  10
ATOM     10  C   YT5 d   1      11.132  -6.403  20.673  0.00  0.00     0.163 C 
ATOM     11  O   YT5 d   1      11.770  -5.359  20.577  0.00  0.00    -0.295 OA
BRANCH  10  12
ATOM     12  CAE YT5 d   1       9.845  -6.539  20.076  0.00  0.00     0.095 C 
ATOM     13  CAD YT5 d   1       8.897  -7.602  20.653  0.00  0.00     0.039 C 
ATOM     14  CAC YT5 d   1       7.652  -7.005  20.559  0.00  0.00     0.229 C 
ATOM     15  H4  YT5 d   1       9.152  -7.807  21.703  0.00  0.00     0.056 H 
ATOM     16  OAG YT5 d   1       6.606  -7.587  20.861  0.00  0.00    -0.273 OA
ATOM     17  NAB YT5 d   1       7.740  -5.708  20.258  0.00  0.00    -0.297 N 
ATOM     18  CAA YT5 d   1       9.019  -5.386  20.084  0.00  0.00     0.236 C 
ATOM     19  H5  YT5 d   1       6.968  -5.078  20.176  0.00  0.00     0.171 HD
ATOM     20  OAF YT5 d   1       9.363  -4.251  19.745  0.00  0.00    -0.272 OA
ATOM     21  H6  YT5 d   1      10.047  -6.804  19.028  0.00  0.00     0.068 H 
BRANCH  13  22
ATOM     22  CAI YT5 d   1       8.919  -8.913  19.879  0.00  0.00    -0.064 C 
ATOM     23  H1  YT5 d   1       8.221  -9.625  20.344  0.00  0.00     0.028 H 
ATOM     24  H2  YT5 d   1       9.936  -9.332  19.896  0.00  0.00     0.028 H 
ATOM     25  H3  YT5 d   1       8.616  -8.729  18.838  0.00  0.00     0.028 H 
ENDBRANCH  13  22
ENDBRANCH  10  12
ENDBRANCH   8  10
BRANCH   8  26
ATOM     26  CB  YT5 d   1      12.471  -7.262  22.627  0.00  0.00    -0.035 C 
ATOM     27  H8  YT5 d   1      13.423  -6.758  22.404  0.00  0.00     0.042 H 
BRANCH  26  28
ATOM     28  CG2 YT5 d   1      12.742  -8.547  23.418  0.00  0.00    -0.071 C 
ATOM     29  H9  YT5 d   1      13.234  -8.295  24.369  0.00  0.00     0.028 H 
ATOM     30  H10 YT5 d   1      13.396  -9.208  22.831  0.00  0.00     0.028 H 
ATOM     31  H11 YT5 d   1      11.790  -9.060  23.622  0.00  0.00     0.028 H 
ENDBRANCH  26  28
BRANCH  26  32
ATOM     32  CG1 YT5 d   1      11.600  -6.327  23.473  0.00  0.00    -0.071 C 
ATOM     33  H12 YT5 d   1      11.402  -5.402  22.911  0.00  0.00     0.028 H 
ATOM     34  H13 YT5 d   1      12.126  -6.082  24.408  0.00  0.00     0.028 H 
ATOM     35  H14 YT5 d   1      10.648  -6.825  23.707  0.00  0.00     0.028 H 
ENDBRANCH  26  32
ENDBRANCH   8  26
ENDBRANCH   5   8
ENDBRANCH   1   4
BRANCH   1  36
ATOM     36  CAT YT5 d   1      14.808 -10.968  19.941  0.00  0.00     0.045 C 
ATOM     37  H18 YT5 d   1      14.119 -11.700  20.387  0.00  0.00     0.081 H 
BRANCH  36  38
ATOM     38  CBB YT5 d   1      15.738 -11.644  19.130  0.00  0.00    -0.035 A 
ATOM     39  CBC YT5 d   1      15.644 -13.024  18.926  0.00  0.00    -0.075 A 
ATOM     40  CBD YT5 d   1      16.578 -13.677  18.125  0.00  0.00    -0.082 A 
ATOM     41  H19 YT5 d   1      14.843 -13.587  19.392  0.00  0.00     0.084 H 
ATOM     42  CBE YT5 d   1      17.618 -12.963  17.532  0.00  0.00    -0.083 A 
ATOM     43  H20 YT5 d   1      16.496 -14.745  17.962  0.00  0.00     0.083 H 
ATOM     44  CBF YT5 d   1      17.726 -11.589  17.739  0.00  0.00    -0.082 A 
ATOM     45  H21 YT5 d   1      18.343 -13.476  16.910  0.00  0.00     0.083 H 
ATOM     46  CBG YT5 d   1      16.791 -10.937  18.539  0.00  0.00    -0.075 A 
ATOM     47  H22 YT5 d   1      18.534 -11.031  17.280  0.00  0.00     0.083 H 
ATOM     48  H23 YT5 d   1      16.880  -9.870  18.706  0.00  0.00     0.084 H 
ENDBRANCH  36  38
BRANCH  36  49
ATOM     49  NAU YT5 d   1      15.577 -10.312  21.014  0.00  0.00    -0.352 N 
ATOM     50  CAV YT5 d   1      15.882 -11.000  22.127  0.00  0.00     0.218 C 
ATOM     51  OBH YT5 d   1      15.540 -12.170  22.322  0.00  0.00    -0.274 OA
ATOM     52  H24 YT5 d   1      15.870  -9.361  20.914  0.00  0.00     0.163 HD
BRANCH  50  53
ATOM     53  CAW YT5 d   1      16.738 -10.257  23.118  0.00  0.00     0.009 C 
ATOM     54  H25 YT5 d   1      16.439  -9.199  23.162  0.00  0.00     0.047 H 
ATOM     55  H26 YT5 d   1      17.798 -10.327  22.834  0.00  0.00     0.047 H 
BRANCH  53  56
ATOM     56  CAX YT5 d   1      16.507 -10.927  24.465  0.00  0.00    -0.057 C 
ATOM     57  H27 YT5 d   1      16.353 -12.010  24.346  0.00  0.00     0.033 H 
ATOM     58  H28 YT5 d   1      15.640 -10.488  24.980  0.00  0.00     0.033 H 
BRANCH  56  59
ATOM     59  CAY YT5 d   1      17.793 -10.639  25.220  0.00  0.00    -0.065 C 
ATOM     60  H29 YT5 d   1      17.973  -9.556  25.285  0.00  0.00     0.033 H 
ATOM     61  H30 YT5 d   1      18.650 -11.125  24.731  0.00  0.00     0.033 H 
BRANCH  59  62
ATOM     62  CAZ YT5 d   1      17.554 -11.228  26.595  0.00  0.00    -0.069 C 
ATOM     63  H31 YT5 d   1      17.395 -12.314  26.525  0.00  0.00     0.032 H 
ATOM     64  H32 YT5 d   1      16.678 -10.759  27.066  0.00  0.00     0.032 H 
BRANCH  62  65
ATOM     65  CBA YT5 d   1      18.822 -10.924  27.402  0.00  0.00    -0.077 C 
ATOM     66  H33 YT5 d   1      18.715 -11.328  28.419  0.00  0.00     0.027 H 
ATOM     67  H34 YT5 d   1      18.972  -9.835  27.453  0.00  0.00     0.027 H 
ATOM     68  H35 YT5 d   1      19.689 -11.391  26.912  0.00  0.00     0.027 H 
ENDBRANCH  62  65
ENDBRANCH  59  62
ENDBRANCH  56  59
ENDBRANCH  53  56
ENDBRANCH  50  53
ENDBRANCH  36  49
ENDBRANCH   1  36
TORSDOF 16
