REMARK  5 active torsions:
REMARK  status: ('A' for Active; 'I' for Inactive)
REMARK       I    between atoms: C5_2  and  N2_3 
REMARK       I    between atoms: C5_2  and  N1_11 
REMARK    1  A    between atoms: N2_3  and  C6_4 
REMARK    2  A    between atoms: C6_4  and  C7_5 
REMARK    3  A    between atoms: N1_11  and  C3_12 
REMARK    4  A    between atoms: C13_19  and  C14_21 
REMARK    5  A    between atoms: C17_23  and  C19_24 
ROOT
ATOM      1  C3  6S9 d   1      49.859  13.624   8.601  0.00  0.00     0.133 A 
ATOM      2  N   6S9 d   1      48.763  13.282   9.305  0.00  0.00    -0.242 NA
ATOM      3  C2  6S9 d   1      48.452  11.983   9.402  0.00  0.00     0.019 A 
ATOM      4  C4  6S9 d   1      50.672  12.688   7.951  0.00  0.00    -0.011 A 
ATOM      5  C   6S9 d   1      50.316  11.347   8.088  0.00  0.00     0.068 A 
ATOM      6  N4  6S9 d   1      50.919  10.207   7.655  0.00  0.00    -0.277 N 
ATOM      7  N3  6S9 d   1      50.239   9.076   8.056  0.00  0.00    -0.173 NA
ATOM      8  C13 6S9 d   1      49.201   9.503   8.769  0.00  0.00     0.101 A 
ATOM      9  C1  6S9 d   1      49.186  10.946   8.829  0.00  0.00     0.041 A 
ATOM     10  H10 6S9 d   1      47.565  11.719   9.967  0.00  0.00     0.116 H 
ATOM     11  H11 6S9 d   1      51.536  12.991   7.370  0.00  0.00     0.093 H 
ATOM     12  H12 6S9 d   1      51.782  10.190   7.093  0.00  0.00     0.189 HD
ENDROOT
BRANCH   1  13
ATOM     13  N1  6S9 d   1      50.152  15.001   8.582  0.00  0.00    -0.293 N 
ATOM     14  C5  6S9 d   1      49.572  16.115   9.148  0.00  0.00     0.322 C 
ATOM     15  O   6S9 d   1      50.045  17.243   9.012  0.00  0.00    -0.247 OA
ATOM     16  N2  6S9 d   1      48.481  15.876   9.914  0.00  0.00    -0.339 N 
ATOM     17  H1  6S9 d   1      48.121  14.944   9.958  0.00  0.00     0.164 HD
ATOM     18  H9  6S9 d   1      50.961  15.219   8.036  0.00  0.00     0.172 HD
BRANCH  16  19
ATOM     19  C6  6S9 d   1      47.808  16.922  10.678  0.00  0.00     0.021 C 
ATOM     20  H2  6S9 d   1      48.552  17.696  10.919  0.00  0.00     0.071 H 
ATOM     21  H3  6S9 d   1      47.432  16.472  11.609  0.00  0.00     0.071 H 
BRANCH  19  22
ATOM     22  C7  6S9 d   1      46.648  17.594   9.987  0.00  0.00    -0.040 A 
ATOM     23  C12 6S9 d   1      46.296  18.894  10.328  0.00  0.00    -0.075 A 
ATOM     24  C11 6S9 d   1      45.219  19.519   9.725  0.00  0.00    -0.082 A 
ATOM     25  H4  6S9 d   1      46.873  19.426  11.076  0.00  0.00     0.084 H 
ATOM     26  C10 6S9 d   1      44.467  18.849   8.786  0.00  0.00    -0.083 A 
ATOM     27  H5  6S9 d   1      44.967  20.539   9.992  0.00  0.00     0.083 H 
ATOM     28  C9  6S9 d   1      44.810  17.560   8.428  0.00  0.00    -0.082 A 
ATOM     29  H6  6S9 d   1      43.610  19.331   8.330  0.00  0.00     0.083 H 
ATOM     30  C8  6S9 d   1      45.898  16.939   9.020  0.00  0.00    -0.075 A 
ATOM     31  H7  6S9 d   1      44.227  17.033   7.682  0.00  0.00     0.083 H 
ATOM     32  H8  6S9 d   1      46.166  15.931   8.725  0.00  0.00     0.084 H 
ENDBRANCH  19  22
ENDBRANCH  16  19
ENDBRANCH   1  13
BRANCH   8  33
ATOM     33  C14 6S9 d   1      48.230   8.568   9.406  0.00  0.00    -0.001 A 
ATOM     34  C18 6S9 d   1      47.887   7.370   8.784  0.00  0.00    -0.047 A 
ATOM     35  C17 6S9 d   1      46.884   6.571   9.324  0.00  0.00     0.031 A 
ATOM     36  H13 6S9 d   1      48.401   7.061   7.881  0.00  0.00     0.087 H 
ATOM     37  N5  6S9 d   1      46.254   6.919  10.461  0.00  0.00    -0.266 NA
ATOM     38  C16 6S9 d   1      46.599   8.068  11.065  0.00  0.00     0.003 A 
ATOM     39  C15 6S9 d   1      47.570   8.919  10.577  0.00  0.00    -0.054 A 
ATOM     40  H17 6S9 d   1      46.089   8.341  11.982  0.00  0.00     0.114 H 
ATOM     41  H18 6S9 d   1      47.812   9.840  11.095  0.00  0.00     0.087 H 
BRANCH  35  42
ATOM     42  C19 6S9 d   1      46.414   5.321   8.644  0.00  0.00    -0.035 C 
ATOM     43  H14 6S9 d   1      45.621   4.853   9.245  0.00  0.00     0.035 H 
ATOM     44  H15 6S9 d   1      47.256   4.621   8.540  0.00  0.00     0.035 H 
ATOM     45  H16 6S9 d   1      46.020   5.571   7.648  0.00  0.00     0.035 H 
ENDBRANCH  35  42
ENDBRANCH   8  33
TORSDOF 5
