REMARK  12 active torsions:
REMARK  status: ('A' for Active; 'I' for Inactive)
REMARK    1  A    between atoms: C34_34  and  S01_1 
REMARK    2  A    between atoms: C15_15  and  O02_2 
REMARK    3  A    between atoms: C28_28  and  O03_3 
REMARK       I    between atoms: N08_8  and  C32_32 
REMARK    4  A    between atoms: C33_33  and  N08_8 
REMARK    5  A    between atoms: C09_9  and  C23_23 
REMARK    6  A    between atoms: C13_13  and  C26_26 
REMARK    7  A    between atoms: C24_24  and  C14_14 
REMARK    8  A    between atoms: C29_29  and  C24_24 
REMARK    9  A    between atoms: C24_24  and  C30_30 
REMARK   10  A    between atoms: C31_31  and  C29_29 
REMARK   11  A    between atoms: C32_32  and  C31_31 
REMARK   12  A    between atoms: C33_33  and  C34_34 
ROOT
ATOM      1  C09 6SB d   1      -0.428  14.030  -2.781  0.00  0.00    -0.010 C 
ATOM      2  C10 6SB d   1       1.103  13.577  -2.675  0.00  0.00    -0.041 C 
ATOM      3  C11 6SB d   1       1.654  13.418  -1.234  0.00  0.00    -0.046 C 
ATOM      4  C12 6SB d   1       0.647  12.563  -0.228  0.00  0.00    -0.041 C 
ATOM      5  C13 6SB d   1       1.230  12.460   1.214  0.00  0.00    -0.036 C 
ATOM      6  C14 6SB d   1      -0.628  14.096  -4.381  0.00  0.00    -0.041 C 
ATOM      7  C15 6SB d   1      -1.336  13.241  -1.895  0.00  0.00     0.043 C 
ATOM      8  C16 6SB d   1      -0.752  13.114  -0.274  0.00  0.00    -0.036 C 
ATOM      9  C17 6SB d   1       2.682  11.892   1.202  0.00  0.00    -0.044 C 
ATOM     10  C18 6SB d   1       1.882  14.498  -3.741  0.00  0.00    -0.060 C 
ATOM     11  C19 6SB d   1       3.030  12.829  -1.266  0.00  0.00    -0.061 C 
ATOM     12  C20 6SB d   1       0.902  14.690  -4.938  0.00  0.00    -0.060 C 
ATOM     13  C21 6SB d   1       3.657  12.700   0.199  0.00  0.00    -0.060 C 
ATOM     14  C22 6SB d   1       0.320  11.587   2.118  0.00  0.00    -0.055 C 
ATOM     15  C25 6SB d   1       2.723  10.422   0.804  0.00  0.00    -0.037 C 
ATOM     16  C27 6SB d   1       0.344  10.112   1.717  0.00  0.00    -0.040 C 
ATOM     17  C28 6SB d   1       1.783   9.552   1.684  0.00  0.00     0.036 C 
ATOM     18  H4  6SB d   1       1.152  12.556  -3.081  0.00  0.00     0.042 H 
ATOM     19  H5  6SB d   1       1.740  14.429  -0.810  0.00  0.00     0.041 H 
ATOM     20  H6  6SB d   1       0.595  11.536  -0.619  0.00  0.00     0.042 H 
ATOM     21  H7  6SB d   1      -0.812  13.083  -4.768  0.00  0.00     0.042 H 
ATOM     22  H8  6SB d   1      -2.318  13.736  -1.874  0.00  0.00     0.084 H 
ATOM     23  H9  6SB d   1      -0.757  14.113   0.186  0.00  0.00     0.037 H 
ATOM     24  H10 6SB d   1      -1.417  12.446   0.293  0.00  0.00     0.037 H 
ATOM     25  H11 6SB d   1       3.081  11.986   2.223  0.00  0.00     0.041 H 
ATOM     26  H12 6SB d   1       2.803  13.999  -4.077  0.00  0.00     0.033 H 
ATOM     27  H13 6SB d   1       2.135  15.471  -3.294  0.00  0.00     0.033 H 
ATOM     28  H14 6SB d   1       3.679  13.475  -1.875  0.00  0.00     0.033 H 
ATOM     29  H15 6SB d   1       2.978  11.828  -1.720  0.00  0.00     0.033 H 
ATOM     30  H16 6SB d   1       0.827  15.754  -5.207  0.00  0.00     0.033 H 
ATOM     31  H17 6SB d   1       1.244  14.114  -5.811  0.00  0.00     0.033 H 
ATOM     32  H18 6SB d   1       4.617  12.167   0.130  0.00  0.00     0.033 H 
ATOM     33  H19 6SB d   1       3.826  13.709   0.603  0.00  0.00     0.033 H 
ATOM     34  H20 6SB d   1      -0.713  11.957   2.042  0.00  0.00     0.034 H 
ATOM     35  H21 6SB d   1       0.666  11.676   3.159  0.00  0.00     0.034 H 
ATOM     36  H26 6SB d   1       3.753  10.053   0.914  0.00  0.00     0.037 H 
ATOM     37  H27 6SB d   1       2.411  10.330  -0.247  0.00  0.00     0.037 H 
ATOM     38  H31 6SB d   1      -0.102  10.007   0.717  0.00  0.00     0.036 H 
ATOM     39  H32 6SB d   1      -0.246   9.535   2.444  0.00  0.00     0.036 H 
ATOM     40  H33 6SB d   1       2.179   9.527   2.710  0.00  0.00     0.082 H 
ENDROOT
BRANCH   6  41
ATOM     41  C24 6SB d   1      -1.639  14.903  -4.819  0.00  0.00    -0.053 C 
ATOM     42  H25 6SB d   1      -1.433  15.944  -4.531  0.00  0.00     0.040 H 
BRANCH  41  43
ATOM     43  C29 6SB d   1      -1.739  14.769  -6.439  0.00  0.00    -0.054 C 
ATOM     44  H34 6SB d   1      -2.353  13.889  -6.679  0.00  0.00     0.034 H 
ATOM     45  H35 6SB d   1      -0.725  14.629  -6.841  0.00  0.00     0.034 H 
BRANCH  43  46
ATOM     46  C31 6SB d   1      -2.378  16.025  -7.130  0.00  0.00     0.009 C 
ATOM     47  H39 6SB d   1      -1.947  16.939  -6.697  0.00  0.00     0.047 H 
ATOM     48  H40 6SB d   1      -3.466  16.019  -6.966  0.00  0.00     0.047 H 
BRANCH  46  49
ATOM     49  C32 6SB d   1      -2.084  15.989  -8.668  0.00  0.00     0.217 C 
ATOM     50  O04 6SB d   1      -1.427  16.836  -9.168  0.00  0.00    -0.274 OA
ATOM     51  N08 6SB d   1      -2.618  14.872  -9.483  0.00  0.00    -0.360 N 
ATOM     52  H3  6SB d   1      -3.170  14.159  -9.052  0.00  0.00     0.162 HD
BRANCH  51  53
ATOM     53  C33 6SB d   1      -2.336  14.811 -10.928  0.00  0.00     0.010 C 
ATOM     54  H41 6SB d   1      -2.694  13.848 -11.322  0.00  0.00     0.065 H 
ATOM     55  H42 6SB d   1      -1.250  14.890 -11.085  0.00  0.00     0.065 H 
BRANCH  53  56
ATOM     56  C34 6SB d   1      -3.035  15.952 -11.684  0.00  0.00     0.060 C 
ATOM     57  H43 6SB d   1      -4.072  15.663 -11.912  0.00  0.00     0.062 H 
ATOM     58  H44 6SB d   1      -3.036  16.860 -11.063  0.00  0.00     0.062 H 
BRANCH  56  59
ATOM     59  S01 6SB d   1      -2.134  16.272 -13.234  0.00  0.00     0.103 S 
ATOM     60  O05 6SB d   1      -2.901  17.210 -14.135  0.00  0.00    -0.595 OA
ATOM     61  O06 6SB d   1      -2.061  15.029 -14.090  0.00  0.00    -0.595 OA
ATOM     62  O07 6SB d   1      -0.754  16.809 -12.934  0.00  0.00    -0.595 OA
ENDBRANCH  56  59
ENDBRANCH  53  56
ENDBRANCH  51  53
ENDBRANCH  46  49
ENDBRANCH  43  46
ENDBRANCH  41  43
BRANCH  41  63
ATOM     63  C30 6SB d   1      -3.021  14.449  -4.229  0.00  0.00    -0.072 C 
ATOM     64  H36 6SB d   1      -2.994  14.525  -3.132  0.00  0.00     0.028 H 
ATOM     65  H37 6SB d   1      -3.219  13.407  -4.519  0.00  0.00     0.028 H 
ATOM     66  H38 6SB d   1      -3.818  15.097  -4.622  0.00  0.00     0.028 H 
ENDBRANCH  41  63
ENDBRANCH   6  41
BRANCH   1  67
ATOM     67  C23 6SB d   1      -0.491  15.461  -2.242  0.00  0.00    -0.066 C 
ATOM     68  H22 6SB d   1       0.158  16.110  -2.848  0.00  0.00     0.028 H 
ATOM     69  H23 6SB d   1      -0.149  15.474  -1.196  0.00  0.00     0.028 H 
ATOM     70  H24 6SB d   1      -1.527  15.827  -2.294  0.00  0.00     0.028 H 
ENDBRANCH   1  67
BRANCH   7  71
ATOM     71  O02 6SB d   1      -1.470  12.024  -2.393  0.00  0.00    -0.395 OA
ATOM     72  H1  6SB d   1      -2.047  11.516  -1.834  0.00  0.00     0.210 HD
ENDBRANCH   7  71
BRANCH   5  73
ATOM     73  C26 6SB d   1       1.289  13.856   1.856  0.00  0.00    -0.068 C 
ATOM     74  H28 6SB d   1       1.927  14.513   1.246  0.00  0.00     0.028 H 
ATOM     75  H29 6SB d   1       1.708  13.776   2.870  0.00  0.00     0.028 H 
ATOM     76  H30 6SB d   1       0.275  14.277   1.911  0.00  0.00     0.028 H 
ENDBRANCH   5  73
BRANCH  17  77
ATOM     77  O03 6SB d   1       1.752   8.264   1.168  0.00  0.00    -0.396 OA
ATOM     78  H2  6SB d   1       1.179   7.724   1.700  0.00  0.00     0.210 HD
ENDBRANCH  17  77
TORSDOF 12
