REMARK  28 active torsions:
REMARK  status: ('A' for Active; 'I' for Inactive)
REMARK    1  A    between atoms: CA_5  and  CB_8 
REMARK    2  A    between atoms: CB_8  and  CG_9 
REMARK    3  A    between atoms: CZ_14  and  OH_15 
REMARK    4  A    between atoms: CA_24  and  CB_27 
REMARK    5  A    between atoms: CB_27  and  CG_28 
REMARK    6  A    between atoms: CZ_33  and  OH_34 
REMARK    7  A    between atoms: CA_36  and  CB_39 
REMARK    8  A    between atoms: CB_39  and  OG_40 
REMARK    9  A    between atoms: CA_42  and  C_43 
REMARK       I    between atoms: C_43  and  N_47 
REMARK   10  A    between atoms: N_47  and  CA_48 
REMARK   11  A    between atoms: CA_48  and  C_49 
REMARK   12  A    between atoms: CA_48  and  CB_51 
REMARK       I    between atoms: C_49  and  N_61 
REMARK   13  A    between atoms: CB_51  and  CG_52 
REMARK   14  A    between atoms: N_61  and  CA_62 
REMARK   15  A    between atoms: CA_62  and  C_63 
REMARK   16  A    between atoms: CA_62  and  CB_65 
REMARK       I    between atoms: C_63  and  N_68 
REMARK   17  A    between atoms: CB_65  and  CG1_66 
REMARK   18  A    between atoms: CB_65  and  CG2_67 
REMARK   19  A    between atoms: N_68  and  CA_69 
REMARK   20  A    between atoms: CA_69  and  C_70 
REMARK   21  A    between atoms: CA_69  and  CB_72 
REMARK       I    between atoms: C_70  and  N_79 
REMARK   22  A    between atoms: CB_72  and  CG_73 
REMARK   23  A    between atoms: CG_73  and  CD_74 
REMARK   24  A    between atoms: CD_74  and  NE_75 
REMARK       I    between atoms: NE_75  and  CZ_76 
REMARK       I    between atoms: CZ_76  and  NH1_77 
REMARK   25  A    between atoms: N_79  and  CA_80 
REMARK   26  A    between atoms: CA_80  and  C_81 
REMARK   27  A    between atoms: CA_80  and  CB_83 
REMARK       I    between atoms: C_81  and  N_89 
REMARK   28  A    between atoms: CB_83  and  CG_84 
ROOT
ATOM      1  C   CYS d   1      -6.139   3.674 -26.995  0.00  0.00     0.241 C 
ATOM      2  O   CYS d   1      -5.809   3.100 -28.037  0.00  0.00    -0.271 OA
ATOM      3  N   TRP d   1      -5.291   3.934 -25.990  0.00  0.00    -0.346 N 
ATOM      4  H37 TRP d   1      -5.649   4.335 -25.147  0.00  0.00     0.163 HD
ENDROOT
BRANCH   3   5
ATOM      5  CA  TRP d   1      -3.861   3.651 -26.085  0.00  0.00     0.093 C 
ATOM      6  H38 TRP d   1      -3.457   4.211 -26.941  0.00  0.00     0.088 H 
BRANCH   5   7
ATOM      7  C   TRP d   1      -3.577   2.168 -26.303  0.00  0.00     0.241 C 
ATOM      8  O   TRP d   1      -2.559   1.809 -26.913  0.00  0.00    -0.271 OA
ATOM      9  N   VAL d   1      -4.427   1.289 -25.771  0.00  0.00    -0.346 N 
ATOM     10  H47 VAL d   1      -5.303   1.593 -25.397  0.00  0.00     0.163 HD
BRANCH   9  11
ATOM     11  CA  VAL d   1      -4.062  -0.119 -25.743  0.00  0.00     0.092 C 
ATOM     12  H48 VAL d   1      -3.037  -0.198 -25.352  0.00  0.00     0.088 H 
BRANCH  11  13
ATOM     13  C   VAL d   1      -4.067  -0.725 -27.145  0.00  0.00     0.241 C 
ATOM     14  O   VAL d   1      -3.390  -1.732 -27.382  0.00  0.00    -0.271 OA
ATOM     15  N   ARG d   1      -4.777  -0.109 -28.097  0.00  0.00    -0.346 N 
ATOM     16  H56 ARG d   1      -5.299   0.712 -27.867  0.00  0.00     0.163 HD
BRANCH  15  17
ATOM     17  CA  ARG d   1      -4.803  -0.615 -29.467  0.00  0.00     0.089 C 
ATOM     18  H57 ARG d   1      -5.039  -1.688 -29.424  0.00  0.00     0.087 H 
BRANCH  17  19
ATOM     19  C   ARG d   1      -3.464  -0.461 -30.175  0.00  0.00     0.241 C 
ATOM     20  O   ARG d   1      -3.276  -1.072 -31.230  0.00  0.00    -0.271 OA
ATOM     21  N   HIS d   1      -2.560   0.256 -29.744  0.00  0.00    -0.346 N 
ATOM     22  H69 HIS d   1      -2.823   0.787 -28.938  0.00  0.00     0.163 HD
BRANCH  21  23
ATOM     23  CA  HIS d   1      -1.160   0.493 -30.176  0.00  0.00     0.094 C 
ATOM     24  H70 HIS d   1      -1.112   0.342 -31.265  0.00  0.00     0.088 H 
BRANCH  23  25
ATOM     25  C   HIS d   1      -0.276  -0.524 -29.536  0.00  0.00     0.238 C 
ATOM     26  O   HIS d   1       0.860  -0.374 -29.348  0.00  0.00    -0.271 OA
ATOM     27  N   NH2 d   1      -0.895  -1.690 -29.116  0.00  0.00    -0.368 N 
ATOM     28  H76 NH2 d   1      -0.358  -2.412 -28.679  0.00  0.00     0.159 HD
ATOM     29  H77 NH2 d   1      -1.879  -1.810 -29.250  0.00  0.00     0.159 HD
ENDBRANCH  23  25
BRANCH  23  30
ATOM     30  CB  HIS d   1      -0.717   1.893 -29.907  0.00  0.00     0.004 C 
ATOM     31  H71 HIS d   1       0.337   1.996 -30.205  0.00  0.00     0.046 H 
ATOM     32  H72 HIS d   1      -0.815   2.096 -28.830  0.00  0.00     0.046 H 
BRANCH  30  33
ATOM     33  CG  HIS d   1      -1.534   2.896 -30.665  0.00  0.00     0.053 A 
ATOM     34  ND1 HIS d   1      -1.621   3.024 -31.969  0.00  0.00    -0.247 NA
ATOM     35  CE1 HIS d   1      -2.413   4.034 -32.234  0.00  0.00     0.064 A 
ATOM     36  NE2 HIS d   1      -2.866   4.558 -31.101  0.00  0.00    -0.359 N 
ATOM     37  H74 HIS d   1      -2.662   4.390 -33.233  0.00  0.00     0.143 H 
ATOM     38  CD2 HIS d   1      -2.318   3.867 -30.134  0.00  0.00     0.002 A 
ATOM     39  H75 HIS d   1      -3.518   5.349 -31.003  0.00  0.00     0.166 HD
ATOM     40  H73 HIS d   1      -2.468   4.044 -29.070  0.00  0.00     0.114 H 
ENDBRANCH  30  33
ENDBRANCH  23  30
ENDBRANCH  21  23
ENDBRANCH  17  19
BRANCH  17  41
ATOM     41  CB  ARG d   1      -5.901   0.087 -30.271  0.00  0.00    -0.036 C 
ATOM     42  H58 ARG d   1      -6.757   0.254 -29.601  0.00  0.00     0.036 H 
ATOM     43  H59 ARG d   1      -6.202  -0.583 -31.090  0.00  0.00     0.036 H 
BRANCH  41  44
ATOM     44  CG  ARG d   1      -5.510   1.437 -30.884  0.00  0.00    -0.048 C 
ATOM     45  H60 ARG d   1      -4.864   1.268 -31.758  0.00  0.00     0.035 H 
ATOM     46  H61 ARG d   1      -4.966   2.034 -30.137  0.00  0.00     0.035 H 
BRANCH  44  47
ATOM     47  CD  ARG d   1      -6.769   2.194 -31.321  0.00  0.00     0.009 C 
ATOM     48  H62 ARG d   1      -7.250   2.610 -30.424  0.00  0.00     0.064 H 
ATOM     49  H63 ARG d   1      -7.451   1.479 -31.805  0.00  0.00     0.064 H 
BRANCH  47  50
ATOM     50  NE  ARG d   1      -6.515   3.293 -32.258  0.00  0.00    -0.227 N 
ATOM     51  CZ  ARG d   1      -6.221   4.541 -31.904  0.00  0.00     0.665 C 
ATOM     52  NH1 ARG d   1      -6.124   4.864 -30.619  0.00  0.00    -0.235 N 
ATOM     53  NH2 ARG d   1      -6.025   5.469 -32.838  0.00  0.00    -0.235 N 
ATOM     54  H65 ARG d   1      -5.896   5.831 -30.347  0.00  0.00     0.174 HD
ATOM     55  H66 ARG d   1      -6.277   4.147 -29.895  0.00  0.00     0.174 HD
ATOM     56  H67 ARG d   1      -6.100   5.220 -33.835  0.00  0.00     0.174 HD
ATOM     57  H68 ARG d   1      -5.798   6.436 -32.564  0.00  0.00     0.174 HD
ATOM     58  H64 ARG d   1      -6.568   3.083 -33.265  0.00  0.00     0.177 HD
ENDBRANCH  47  50
ENDBRANCH  44  47
ENDBRANCH  41  44
ENDBRANCH  17  41
ENDBRANCH  15  17
ENDBRANCH  11  13
BRANCH  11  59
ATOM     59  CB  VAL d   1      -4.997  -0.872 -24.777  0.00  0.00    -0.033 C 
ATOM     60  H49 VAL d   1      -5.141  -0.238 -23.890  0.00  0.00     0.042 H 
BRANCH  59  61
ATOM     61  CG1 VAL d   1      -6.362  -1.081 -25.407  0.00  0.00    -0.071 C 
ATOM     62  H50 VAL d   1      -7.013  -1.619 -24.702  0.00  0.00     0.028 H 
ATOM     63  H51 VAL d   1      -6.254  -1.671 -26.329  0.00  0.00     0.028 H 
ATOM     64  H52 VAL d   1      -6.809  -0.105 -25.646  0.00  0.00     0.028 H 
ENDBRANCH  59  61
BRANCH  59  65
ATOM     65  CG2 VAL d   1      -4.350  -2.186 -24.298  0.00  0.00    -0.071 C 
ATOM     66  H53 VAL d   1      -3.368  -1.970 -23.853  0.00  0.00     0.028 H 
ATOM     67  H54 VAL d   1      -4.223  -2.866 -25.154  0.00  0.00     0.028 H 
ATOM     68  H55 VAL d   1      -4.997  -2.660 -23.546  0.00  0.00     0.028 H 
ENDBRANCH  59  65
ENDBRANCH  11  59
ENDBRANCH   9  11
ENDBRANCH   5   7
BRANCH   5  69
ATOM     69  CB  TRP d   1      -3.145   4.115 -24.807  0.00  0.00    -0.012 C 
ATOM     70  H39 TRP d   1      -3.571   5.079 -24.491  0.00  0.00     0.044 H 
ATOM     71  H40 TRP d   1      -2.075   4.242 -25.026  0.00  0.00     0.044 H 
BRANCH  69  72
ATOM     72  CG  TRP d   1      -3.298   3.118 -23.676  0.00  0.00    -0.028 A 
ATOM     73  CD1 TRP d   1      -4.359   3.013 -22.807  0.00  0.00    -0.015 A 
ATOM     74  NE1 TRP d   1      -4.166   1.950 -21.956  0.00  0.00    -0.365 N 
ATOM     75  H41 TRP d   1      -5.224   3.674 -22.795  0.00  0.00     0.112 H 
ATOM     76  CE2 TRP d   1      -2.972   1.342 -22.253  0.00  0.00     0.042 A 
ATOM     77  H42 TRP d   1      -4.816   1.656 -21.212  0.00  0.00     0.165 HD
ATOM     78  CD2 TRP d   1      -2.402   2.036 -23.343  0.00  0.00    -0.002 A 
ATOM     79  CZ2 TRP d   1      -2.359   0.228 -21.667  0.00  0.00    -0.056 A 
ATOM     80  CE3 TRP d   1      -1.172   1.602 -23.853  0.00  0.00    -0.070 A 
ATOM     81  CZ3 TRP d   1      -0.555   0.493 -23.265  0.00  0.00    -0.082 A 
ATOM     82  H43 TRP d   1      -0.707   2.115 -24.687  0.00  0.00     0.084 H 
ATOM     83  CH2 TRP d   1      -1.152  -0.180 -22.179  0.00  0.00    -0.081 A 
ATOM     84  H45 TRP d   1       0.397   0.145 -23.650  0.00  0.00     0.083 H 
ATOM     85  H46 TRP d   1      -0.649  -1.034 -21.741  0.00  0.00     0.083 H 
ATOM     86  H44 TRP d   1      -2.821  -0.295 -20.837  0.00  0.00     0.086 H 
ENDBRANCH  69  72
ENDBRANCH   5  69
ENDBRANCH   3   5
BRANCH   1  87
ATOM     87  CA  CYS d   1      -7.577   4.129 -26.749  0.00  0.00     0.097 C 
ATOM     88  N   CYS d   1      -7.639   5.559 -26.437  0.00  0.00    -0.345 N 
ATOM     89  C   SER d   1      -7.056   6.510 -27.170  0.00  0.00     0.243 C 
ATOM     90  H33 CYS d   1      -8.150   5.840 -25.625  0.00  0.00     0.163 HD
ATOM     91  CA  SER d   1      -7.223   7.924 -26.623  0.00  0.00     0.109 C 
ATOM     92  O   SER d   1      -6.419   6.276 -28.203  0.00  0.00    -0.271 OA
ATOM     93  N   SER d   1      -6.970   7.924 -25.185  0.00  0.00    -0.344 N 
ATOM     94  H29 SER d   1      -8.266   8.233 -26.788  0.00  0.00     0.090 H 
ATOM     95  C   TYR d   1      -5.862   7.428 -24.626  0.00  0.00     0.241 C 
ATOM     96  H28 SER d   1      -7.666   8.318 -24.584  0.00  0.00     0.163 HD
ATOM     97  CA  TYR d   1      -5.800   7.561 -23.101  0.00  0.00     0.093 C 
ATOM     98  O   TYR d   1      -4.932   6.922 -25.278  0.00  0.00    -0.271 OA
ATOM     99  N   TYR d   1      -6.977   6.977 -22.458  0.00  0.00    -0.346 N 
ATOM    100  H20 TYR d   1      -5.790   8.636 -22.866  0.00  0.00     0.088 H 
ATOM    101  C   PRO d   1      -7.383   5.730 -22.681  0.00  0.00     0.241 C 
ATOM    102  H19 TYR d   1      -7.501   7.542 -21.821  0.00  0.00     0.163 HD
ATOM    103  CA  PRO d   1      -8.567   5.236 -21.864  0.00  0.00     0.091 C 
ATOM    104  O   PRO d   1      -6.849   4.973 -23.479  0.00  0.00    -0.271 OA
ATOM    105  N   PRO d   1      -9.270   4.099 -22.482  0.00  0.00    -0.337 N 
ATOM    106  CB  PRO d   1      -8.076   4.660 -20.527  0.00  0.00    -0.036 C 
ATOM    107  H12 PRO d   1      -9.263   6.072 -21.701  0.00  0.00     0.087 H 
ATOM    108  C   DTY d   1     -10.124   4.304 -23.668  0.00  0.00     0.243 C 
ATOM    109  CD  PRO d   1      -9.067   2.847 -21.725  0.00  0.00    -0.001 C 
ATOM    110  CA  DTY d   1     -11.013   3.211 -23.784  0.00  0.00     0.093 C 
ATOM    111  O   DTY d   1      -9.846   5.348 -24.184  0.00  0.00    -0.271 OA
ATOM    112  N   DTY d   1     -10.941   2.858 -25.300  0.00  0.00    -0.347 N 
ATOM    113  H4  DTY d   1     -10.691   2.364 -23.160  0.00  0.00     0.088 H 
ATOM    114  C   ACE d   1     -10.119   1.872 -25.741  0.00  0.00     0.227 C 
ATOM    115  H3  DTY d   1     -11.505   3.362 -25.954  0.00  0.00     0.163 HD
ATOM    116  O   ACE d   1      -9.375   1.181 -25.015  0.00  0.00    -0.273 OA
ATOM    117  CH3 ACE d   1     -10.089   1.573 -27.229  0.00  0.00     0.051 C 
ATOM    118  SG  CYS d   1      -8.593   1.988 -28.168  0.00  0.00    -0.157 SA
ATOM    119  H1  ACE d   1     -10.923   2.124 -27.688  0.00  0.00     0.063 H 
ATOM    120  H2  ACE d   1     -10.256   0.492 -27.346  0.00  0.00     0.063 H 
ATOM    121  CB  CYS d   1      -8.464   3.785 -27.943  0.00  0.00     0.004 C 
ATOM    122  H35 CYS d   1      -8.032   4.230 -28.851  0.00  0.00     0.052 H 
ATOM    123  H36 CYS d   1      -9.469   4.199 -27.774  0.00  0.00     0.052 H 
ATOM    124  CG  PRO d   1      -7.929   3.186 -20.787  0.00  0.00    -0.048 C 
ATOM    125  H17 PRO d   1      -8.791   2.021 -22.397  0.00  0.00     0.064 H 
ATOM    126  H18 PRO d   1      -9.973   2.575 -21.163  0.00  0.00     0.064 H 
ATOM    127  H15 PRO d   1      -8.015   2.616 -19.850  0.00  0.00     0.035 H 
ATOM    128  H16 PRO d   1      -6.959   2.970 -21.259  0.00  0.00     0.035 H 
ATOM    129  H13 PRO d   1      -8.812   4.843 -19.730  0.00  0.00     0.036 H 
ATOM    130  H14 PRO d   1      -7.110   5.104 -20.243  0.00  0.00     0.036 H 
ATOM    131  H34 CYS d   1      -7.959   3.579 -25.876  0.00  0.00     0.088 H 
BRANCH  91 132
ATOM    132  CB  SER d   1      -6.316   8.932 -27.348  0.00  0.00     0.044 C 
ATOM    133  H30 SER d   1      -5.289   8.538 -27.370  0.00  0.00     0.077 H 
ATOM    134  H31 SER d   1      -6.331   9.886 -26.800  0.00  0.00     0.077 H 
BRANCH 132 135
ATOM    135  OG  SER d   1      -6.753   9.157 -28.678  0.00  0.00    -0.398 OA
ATOM    136  H32 SER d   1      -6.738   8.337 -29.158  0.00  0.00     0.209 HD
ENDBRANCH 132 135
ENDBRANCH  91 132
BRANCH  97 137
ATOM    137  CB  TYR d   1      -4.525   6.950 -22.525  0.00  0.00    -0.014 C 
ATOM    138  H21 TYR d   1      -3.663   7.556 -22.840  0.00  0.00     0.043 H 
ATOM    139  H22 TYR d   1      -4.413   5.926 -22.910  0.00  0.00     0.043 H 
BRANCH 137 140
ATOM    140  CG  TYR d   1      -4.572   6.907 -21.015  0.00  0.00    -0.056 A 
ATOM    141  CD1 TYR d   1      -4.725   8.080 -20.268  0.00  0.00    -0.074 A 
ATOM    142  CE1 TYR d   1      -4.777   8.048 -18.882  0.00  0.00    -0.051 A 
ATOM    143  H23 TYR d   1      -4.804   9.031 -20.782  0.00  0.00     0.084 H 
ATOM    144  CZ  TYR d   1      -4.688   6.828 -18.237  0.00  0.00     0.065 A 
ATOM    145  H25 TYR d   1      -4.886   8.965 -18.314  0.00  0.00     0.087 H 
ATOM    146  CE2 TYR d   1      -4.543   5.667 -18.958  0.00  0.00    -0.051 A 
ATOM    147  CD2 TYR d   1      -4.489   5.710 -20.335  0.00  0.00    -0.074 A 
ATOM    148  H26 TYR d   1      -4.471   4.716 -18.443  0.00  0.00     0.087 H 
ATOM    149  H24 TYR d   1      -4.379   4.787 -20.893  0.00  0.00     0.084 H 
BRANCH 144 150
ATOM    150  OH  TYR d   1      -4.741   6.754 -16.864  0.00  0.00    -0.361 OA
ATOM    151  H27 TYR d   1      -4.842   7.628 -16.505  0.00  0.00     0.217 HD
ENDBRANCH 144 150
ENDBRANCH 137 140
ENDBRANCH  97 137
BRANCH 110 152
ATOM    152  CB  DTY d   1     -12.410   3.626 -23.402  0.00  0.00    -0.014 C 
ATOM    153  H5  DTY d   1     -13.102   2.785 -23.555  0.00  0.00     0.043 H 
ATOM    154  H6  DTY d   1     -12.726   4.478 -24.021  0.00  0.00     0.043 H 
BRANCH 152 155
ATOM    155  CG  DTY d   1     -12.408   4.019 -21.973  0.00  0.00    -0.056 A 
ATOM    156  CD1 DTY d   1     -12.418   3.036 -20.979  0.00  0.00    -0.074 A 
ATOM    157  CE1 DTY d   1     -12.394   3.376 -19.622  0.00  0.00    -0.051 A 
ATOM    158  H7  DTY d   1     -12.445   1.991 -21.265  0.00  0.00     0.084 H 
ATOM    159  CZ  DTY d   1     -12.347   4.726 -19.263  0.00  0.00     0.065 A 
ATOM    160  H9  DTY d   1     -12.412   2.604 -18.861  0.00  0.00     0.087 H 
ATOM    161  CE2 DTY d   1     -12.323   5.727 -20.250  0.00  0.00    -0.051 A 
ATOM    162  CD2 DTY d   1     -12.352   5.362 -21.594  0.00  0.00    -0.074 A 
ATOM    163  H10 DTY d   1     -12.282   6.773 -19.968  0.00  0.00     0.087 H 
ATOM    164  H8  DTY d   1     -12.331   6.132 -22.357  0.00  0.00     0.084 H 
BRANCH 159 165
ATOM    165  OH  DTY d   1     -12.323   5.080 -17.924  0.00  0.00    -0.361 OA
ATOM    166  H11 DTY d   1     -12.344   4.295 -17.390  0.00  0.00     0.217 HD
ENDBRANCH 159 165
ENDBRANCH 152 155
ENDBRANCH 110 152
ENDBRANCH   1  87
TORSDOF 28
