REMARK  9 active torsions:
REMARK  status: ('A' for Active; 'I' for Inactive)
REMARK    1  A    between atoms: C04_14  and  C10_1 
REMARK    2  A    between atoms: C13_2  and  C14_22 
REMARK    3  A    between atoms: N02_12  and  C01_11 
REMARK    4  A    between atoms: C03_13  and  C04_14 
REMARK    5  A    between atoms: C04_14  and  O05_15 
REMARK    6  A    between atoms: O05_15  and  C06_16 
REMARK    7  A    between atoms: C06_16  and  C07_17 
REMARK    8  A    between atoms: C06_16  and  C08_18 
REMARK    9  A    between atoms: C06_16  and  C09_19 
ROOT
ATOM      1  C13 7SK d   1     -27.018 -14.942  -4.759  0.00  0.00     0.013 A 
ATOM      2  C24 7SK d   1     -26.296 -16.065  -5.182  0.00  0.00     0.004 A 
ATOM      3  C26 7SK d   1     -25.663 -18.287  -5.882  0.00  0.00    -0.082 A 
ATOM      4  C28 7SK d   1     -23.994 -16.568  -5.664  0.00  0.00    -0.056 A 
ATOM      5  N02 7SK d   1     -24.913 -14.355  -4.925  0.00  0.00    -0.351 N 
ATOM      6  C03 7SK d   1     -26.117 -13.903  -4.617  0.00  0.00     0.063 A 
ATOM      7  C25 7SK d   1     -26.644 -17.387  -5.489  0.00  0.00    -0.070 A 
ATOM      8  C27 7SK d   1     -24.338 -17.875  -5.968  0.00  0.00    -0.081 A 
ATOM      9  C29 7SK d   1     -24.984 -15.654  -5.268  0.00  0.00     0.045 A 
ATOM     10  H6  7SK d   1     -25.930 -19.310  -6.122  0.00  0.00     0.083 H 
ATOM     11  H7  7SK d   1     -22.960 -16.250  -5.732  0.00  0.00     0.087 H 
ATOM     12  H25 7SK d   1     -27.678 -17.706  -5.420  0.00  0.00     0.084 H 
ATOM     13  H26 7SK d   1     -23.572 -18.578  -6.274  0.00  0.00     0.083 H 
ENDROOT
BRANCH   1  14
ATOM     14  C14 7SK d   1     -28.373 -14.808  -4.533  0.00  0.00    -0.022 A 
ATOM     15  C15 7SK d   1     -29.257 -14.798  -5.618  0.00  0.00    -0.070 A 
ATOM     16  C16 7SK d   1     -30.617 -14.627  -5.398  0.00  0.00    -0.049 A 
ATOM     17  H1  7SK d   1     -28.881 -14.923  -6.627  0.00  0.00     0.085 H 
ATOM     18  C17 7SK d   1     -31.095 -14.450  -4.096  0.00  0.00     0.075 A 
ATOM     19  H21 7SK d   1     -31.307 -14.631  -6.234  0.00  0.00     0.087 H 
ATOM     20  C22 7SK d   1     -30.204 -14.445  -3.019  0.00  0.00    -0.024 A 
ATOM     21  O18 7SK d   1     -32.503 -14.271  -3.911  0.00  0.00    -0.351 OA
ATOM     22  C21 7SK d   1     -30.724 -14.248  -1.566  0.00  0.00    -0.036 C 
ATOM     23  C23 7SK d   1     -28.839 -14.614  -3.237  0.00  0.00    -0.063 A 
ATOM     24  C20 7SK d   1     -32.167 -13.817  -1.562  0.00  0.00    -0.041 C 
ATOM     25  H4  7SK d   1     -30.631 -15.198  -1.019  0.00  0.00     0.040 H 
ATOM     26  H5  7SK d   1     -30.117 -13.477  -1.068  0.00  0.00     0.040 H 
ATOM     27  C19 7SK d   1     -32.977 -14.477  -2.631  0.00  0.00     0.026 C 
ATOM     28  H2  7SK d   1     -32.208 -12.728  -1.713  0.00  0.00     0.036 H 
ATOM     29  H3  7SK d   1     -32.605 -14.068  -0.585  0.00  0.00     0.036 H 
ATOM     30  H22 7SK d   1     -34.004 -14.086  -2.577  0.00  0.00     0.075 H 
ATOM     31  H23 7SK d   1     -32.986 -15.560  -2.437  0.00  0.00     0.075 H 
ATOM     32  H24 7SK d   1     -28.146 -14.595  -2.404  0.00  0.00     0.085 H 
ENDBRANCH   1  14
BRANCH   6  33
ATOM     33  C04 7SK d   1     -26.508 -12.485  -4.179  0.00  0.00     0.163 C 
ATOM     34  H11 7SK d   1     -27.605 -12.411  -4.198  0.00  0.00     0.110 H 
BRANCH  33  35
ATOM     35  C10 7SK d   1     -26.016 -12.125  -2.775  0.00  0.00     0.209 C 
ATOM     36  O11 7SK d   1     -26.011 -12.992  -1.860  0.00  0.00    -0.646 OA
ATOM     37  O12 7SK d   1     -25.627 -10.950  -2.533  0.00  0.00    -0.646 OA
ENDBRANCH  33  35
BRANCH  33  38
ATOM     38  O05 7SK d   1     -25.961 -11.539  -5.063  0.00  0.00    -0.359 OA
BRANCH  38  39
ATOM     39  C06 7SK d   1     -26.620 -11.265  -6.280  0.00  0.00     0.051 C 
BRANCH  39  40
ATOM     40  C07 7SK d   1     -26.295 -12.348  -7.305  0.00  0.00    -0.048 C 
ATOM     41  H12 7SK d   1     -26.813 -12.126  -8.250  0.00  0.00     0.031 H 
ATOM     42  H13 7SK d   1     -26.629 -13.325  -6.925  0.00  0.00     0.031 H 
ATOM     43  H14 7SK d   1     -25.209 -12.374  -7.479  0.00  0.00     0.031 H 
ENDBRANCH  39  40
BRANCH  39  44
ATOM     44  C08 7SK d   1     -28.142 -11.155  -6.142  0.00  0.00    -0.048 C 
ATOM     45  H15 7SK d   1     -28.585 -10.941  -7.126  0.00  0.00     0.031 H 
ATOM     46  H16 7SK d   1     -28.389 -10.341  -5.444  0.00  0.00     0.031 H 
ATOM     47  H17 7SK d   1     -28.545 -12.103  -5.757  0.00  0.00     0.031 H 
ENDBRANCH  39  44
BRANCH  39  48
ATOM     48  C09 7SK d   1     -26.096  -9.925  -6.800  0.00  0.00    -0.048 C 
ATOM     49  H18 7SK d   1     -26.592  -9.682  -7.751  0.00  0.00     0.031 H 
ATOM     50  H19 7SK d   1     -25.010  -9.993  -6.960  0.00  0.00     0.031 H 
ATOM     51  H20 7SK d   1     -26.310  -9.137  -6.063  0.00  0.00     0.031 H 
ENDBRANCH  39  48
ENDBRANCH  38  39
ENDBRANCH  33  38
ENDBRANCH   6  33
BRANCH   5  52
ATOM     52  C01 7SK d   1     -23.696 -13.567  -4.893  0.00  0.00    -0.014 C 
ATOM     53  H8  7SK d   1     -23.932 -12.540  -4.578  0.00  0.00     0.057 H 
ATOM     54  H9  7SK d   1     -23.245 -13.548  -5.896  0.00  0.00     0.057 H 
ATOM     55  H10 7SK d   1     -22.988 -14.015  -4.181  0.00  0.00     0.057 H 
ENDBRANCH   5  52
TORSDOF 9
