REMARK  9 active torsions:
REMARK  status: ('A' for Active; 'I' for Inactive)
REMARK    1  A    between atoms: C04_14  and  C10_1 
REMARK    2  A    between atoms: C13_2  and  C14_22 
REMARK    3  A    between atoms: N02_12  and  C01_11 
REMARK    4  A    between atoms: C03_13  and  C04_14 
REMARK    5  A    between atoms: C04_14  and  O05_15 
REMARK    6  A    between atoms: O05_15  and  C06_16 
REMARK    7  A    between atoms: C06_16  and  C07_17 
REMARK    8  A    between atoms: C06_16  and  C08_18 
REMARK    9  A    between atoms: C06_16  and  C09_19 
ROOT
ATOM      1  C13 7SK d   1       9.758 -46.556 -15.853  0.00  0.00     0.013 A 
ATOM      2  C24 7SK d   1       9.154 -47.740 -16.288  0.00  0.00     0.004 A 
ATOM      3  C26 7SK d   1       7.544 -49.377 -17.054  0.00  0.00    -0.082 A 
ATOM      4  C28 7SK d   1       9.856 -49.991 -16.736  0.00  0.00    -0.056 A 
ATOM      5  N02 7SK d   1      11.308 -48.105 -15.940  0.00  0.00    -0.351 N 
ATOM      6  C03 7SK d   1      11.096 -46.830 -15.650  0.00  0.00     0.063 A 
ATOM      7  C25 7SK d   1       7.842 -48.079 -16.654  0.00  0.00    -0.070 A 
ATOM      8  C27 7SK d   1       8.554 -50.331 -17.091  0.00  0.00    -0.081 A 
ATOM      9  C29 7SK d   1      10.157 -48.680 -16.328  0.00  0.00     0.045 A 
ATOM     10  H6  7SK d   1       6.531 -49.643 -17.335  0.00  0.00     0.083 H 
ATOM     11  H7  7SK d   1      10.640 -50.739 -16.774  0.00  0.00     0.087 H 
ATOM     12  H25 7SK d   1       7.061 -47.328 -16.625  0.00  0.00     0.084 H 
ATOM     13  H26 7SK d   1       8.326 -51.345 -17.398  0.00  0.00     0.083 H 
ENDROOT
BRANCH   1  14
ATOM     14  C14 7SK d   1       9.164 -45.327 -15.660  0.00  0.00    -0.022 A 
ATOM     15  C15 7SK d   1       8.710 -44.605 -16.757  0.00  0.00    -0.070 A 
ATOM     16  C16 7SK d   1       8.125 -43.364 -16.567  0.00  0.00    -0.049 A 
ATOM     17  H1  7SK d   1       8.813 -45.011 -17.757  0.00  0.00     0.085 H 
ATOM     18  C17 7SK d   1       7.995 -42.838 -15.280  0.00  0.00     0.075 A 
ATOM     19  H21 7SK d   1       7.767 -42.799 -17.420  0.00  0.00     0.087 H 
ATOM     20  C22 7SK d   1       8.464 -43.560 -14.185  0.00  0.00    -0.024 A 
ATOM     21  O18 7SK d   1       7.391 -41.551 -15.120  0.00  0.00    -0.351 OA
ATOM     22  C21 7SK d   1       8.330 -42.982 -12.746  0.00  0.00    -0.036 C 
ATOM     23  C23 7SK d   1       9.055 -44.806 -14.374  0.00  0.00    -0.063 A 
ATOM     24  C20 7SK d   1       7.567 -41.680 -12.713  0.00  0.00    -0.041 C 
ATOM     25  H4  7SK d   1       7.802 -43.716 -12.119  0.00  0.00     0.040 H 
ATOM     26  H5  7SK d   1       9.338 -42.810 -12.340  0.00  0.00     0.040 H 
ATOM     27  C19 7SK d   1       7.735 -40.874 -13.965  0.00  0.00     0.026 C 
ATOM     28  H2  7SK d   1       7.926 -41.084 -11.861  0.00  0.00     0.036 H 
ATOM     29  H3  7SK d   1       6.498 -41.903 -12.580  0.00  0.00     0.036 H 
ATOM     30  H22 7SK d   1       8.790 -40.571 -14.043  0.00  0.00     0.075 H 
ATOM     31  H23 7SK d   1       7.101 -39.978 -13.887  0.00  0.00     0.075 H 
ATOM     32  H24 7SK d   1       9.428 -45.367 -13.525  0.00  0.00     0.085 H 
ENDBRANCH   1  14
BRANCH   6  33
ATOM     33  C04 7SK d   1      12.116 -45.793 -15.181  0.00  0.00     0.163 C 
ATOM     34  H11 7SK d   1      11.625 -44.809 -15.150  0.00  0.00     0.110 H 
BRANCH  33  35
ATOM     35  C10 7SK d   1      12.694 -46.084 -13.792  0.00  0.00     0.209 C 
ATOM     36  O11 7SK d   1      13.919 -45.907 -13.566  0.00  0.00    -0.646 OA
ATOM     37  O12 7SK d   1      11.945 -46.491 -12.862  0.00  0.00    -0.646 OA
ENDBRANCH  33  35
BRANCH  33  38
ATOM     38  O05 7SK d   1      13.158 -45.765 -16.120  0.00  0.00    -0.359 OA
BRANCH  38  39
ATOM     39  C06 7SK d   1      13.000 -45.186 -17.400  0.00  0.00     0.051 C 
BRANCH  39  40
ATOM     40  C07 7SK d   1      12.104 -43.948 -17.451  0.00  0.00    -0.048 C 
ATOM     41  H12 7SK d   1      12.048 -43.578 -18.485  0.00  0.00     0.031 H 
ATOM     42  H13 7SK d   1      12.524 -43.164 -16.804  0.00  0.00     0.031 H 
ATOM     43  H14 7SK d   1      11.095 -44.211 -17.101  0.00  0.00     0.031 H 
ENDBRANCH  39  40
BRANCH  39  44
ATOM     44  C08 7SK d   1      14.381 -44.719 -17.855  0.00  0.00    -0.048 C 
ATOM     45  H15 7SK d   1      14.303 -44.260 -18.852  0.00  0.00     0.031 H 
ATOM     46  H16 7SK d   1      15.063 -45.581 -17.901  0.00  0.00     0.031 H 
ATOM     47  H17 7SK d   1      14.772 -43.980 -17.140  0.00  0.00     0.031 H 
ENDBRANCH  39  44
BRANCH  39  48
ATOM     48  C09 7SK d   1      12.522 -46.235 -18.406  0.00  0.00    -0.048 C 
ATOM     49  H18 7SK d   1      12.405 -45.768 -19.395  0.00  0.00     0.031 H 
ATOM     50  H19 7SK d   1      11.556 -46.645 -18.077  0.00  0.00     0.031 H 
ATOM     51  H20 7SK d   1      13.262 -47.046 -18.469  0.00  0.00     0.031 H 
ENDBRANCH  39  48
ENDBRANCH  38  39
ENDBRANCH  33  38
ENDBRANCH   6  33
BRANCH   5  52
ATOM     52  C01 7SK d   1      12.591 -48.784 -15.853  0.00  0.00    -0.014 C 
ATOM     53  H8  7SK d   1      13.358 -48.075 -15.509  0.00  0.00     0.057 H 
ATOM     54  H9  7SK d   1      12.868 -49.172 -16.844  0.00  0.00     0.057 H 
ATOM     55  H10 7SK d   1      12.517 -49.618 -15.140  0.00  0.00     0.057 H 
ENDBRANCH   5  52
TORSDOF 9
