REMARK  4 active torsions:
REMARK  status: ('A' for Active; 'I' for Inactive)
REMARK    1  A    between atoms: C2_14  and  C5_2 
REMARK    2  A    between atoms: N2_7  and  C9_8 
REMARK    3  A    between atoms: C9_8  and  C10_9 
REMARK    4  A    between atoms: C10_9  and  C11_10 
ROOT
ATOM      1  C5  6T7 d   1      -0.494   3.795   6.419  0.00  0.00     0.089 A 
ATOM      2  C6  6T7 d   1      -0.581   1.905   8.483  0.00  0.00     0.263 A 
ATOM      3  N1  6T7 d   1       0.661   3.299   6.809  0.00  0.00    -0.169 NA
ATOM      4  C7  6T7 d   1      -1.766   2.499   8.006  0.00  0.00    -0.013 A 
ATOM      5  C8  6T7 d   1      -1.743   3.396   7.015  0.00  0.00    -0.047 A 
ATOM      6  N2  6T7 d   1       0.607   2.355   7.836  0.00  0.00    -0.234 N 
ATOM      7  O   6T7 d   1      -0.513   1.086   9.371  0.00  0.00    -0.267 OA
ATOM      8  H2  6T7 d   1      -2.720   2.222   8.453  0.00  0.00     0.092 H 
ATOM      9  H3  6T7 d   1      -2.676   3.828   6.656  0.00  0.00     0.087 H 
ENDROOT
BRANCH   1  10
ATOM     10  C2  6T7 d   1      -0.437   4.834   5.373  0.00  0.00     0.012 A 
ATOM     11  C1  6T7 d   1       0.604   4.884   4.457  0.00  0.00    -0.068 A 
ATOM     12  C   6T7 d   1       0.604   5.845   3.464  0.00  0.00    -0.065 A 
ATOM     13  H8  6T7 d   1       1.417   4.170   4.520  0.00  0.00     0.085 H 
ATOM     14  C4  6T7 d   1      -0.466   6.704   3.390  0.00  0.00     0.002 A 
ATOM     15  H10 6T7 d   1       1.427   5.919   2.762  0.00  0.00     0.085 H 
ATOM     16  N   6T7 d   1      -1.495   6.672   4.248  0.00  0.00    -0.272 NA
ATOM     17  H1  6T7 d   1      -0.478   7.444   2.598  0.00  0.00     0.114 H 
ATOM     18  C3  6T7 d   1      -1.460   5.763   5.227  0.00  0.00     0.014 A 
ATOM     19  H9  6T7 d   1      -2.272   5.750   5.945  0.00  0.00     0.116 H 
ENDBRANCH   1  10
BRANCH   6  20
ATOM     20  C9  6T7 d   1       1.885   1.847   8.348  0.00  0.00     0.029 C 
ATOM     21  H4  6T7 d   1       1.862   0.748   8.299  0.00  0.00     0.068 H 
ATOM     22  H5  6T7 d   1       1.985   2.165   9.396  0.00  0.00     0.068 H 
BRANCH  20  23
ATOM     23  C10 6T7 d   1       3.102   2.326   7.592  0.00  0.00     0.032 C 
ATOM     24  H6  6T7 d   1       2.856   2.332   6.520  0.00  0.00     0.051 H 
ATOM     25  H7  6T7 d   1       3.919   1.613   7.776  0.00  0.00     0.051 H 
BRANCH  23  26
ATOM     26  C11 6T7 d   1       3.589   3.700   7.966  0.00  0.00     0.174 C 
ATOM     27  O1  6T7 d   1       4.329   4.291   7.236  0.00  0.00    -0.648 OA
ATOM     28  O2  6T7 d   1       3.127   4.201   9.077  0.00  0.00    -0.648 OA
ENDBRANCH  23  26
ENDBRANCH  20  23
ENDBRANCH   6  20
TORSDOF 4
