REMARK  6 active torsions:
REMARK  status: ('A' for Active; 'I' for Inactive)
REMARK    1  A    between atoms: C2'_10  and  O2'_11 
REMARK    2  A    between atoms: C1'_12  and  N9_13 
REMARK    3  A    between atoms: C2_20  and  N2_21 
REMARK    4  A    between atoms: C2A_33  and  O2A_34 
REMARK    5  A    between atoms: C1A_35  and  N91_36 
REMARK    6  A    between atoms: C21_43  and  N21_44 
ROOT
ATOM      1  P1  C2E d   1     -23.248  -5.058   5.829  0.00  0.00     0.408 P 
ATOM      2  O2P C2E d   1     -24.351  -5.204   4.794  0.00  0.00    -0.624 OA
ATOM      3  O1P C2E d   1     -22.231  -4.059   5.395  0.00  0.00    -0.624 OA
ATOM      4  O5' C2E d   1     -22.587  -6.401   6.160  0.00  0.00    -0.287 OA
ATOM      5  C5' C2E d   1     -23.381  -7.482   6.393  0.00  0.00     0.058 C 
ATOM      6  C4' C2E d   1     -22.682  -8.558   7.180  0.00  0.00     0.090 C 
ATOM      7  O4' C2E d   1     -21.548  -9.062   6.490  0.00  0.00    -0.353 OA
ATOM      8  C3' C2E d   1     -22.126  -8.064   8.523  0.00  0.00     0.106 C 
ATOM      9  O3' C2E d   1     -23.124  -8.103   9.534  0.00  0.00    -0.279 OA
ATOM     10  C2' C2E d   1     -21.237  -9.164   8.643  0.00  0.00     0.106 C 
ATOM     11  C1' C2E d   1     -20.549  -9.378   7.411  0.00  0.00     0.140 C 
ATOM     12  P11 C2E d   1     -22.817  -7.285  10.895  0.00  0.00     0.408 P 
ATOM     13  O21 C2E d   1     -23.996  -7.722  11.721  0.00  0.00    -0.624 OA
ATOM     14  O11 C2E d   1     -21.473  -7.662  11.354  0.00  0.00    -0.624 OA
ATOM     15  O5A C2E d   1     -22.899  -5.787  10.562  0.00  0.00    -0.287 OA
ATOM     16  C5A C2E d   1     -24.149  -5.293  10.149  0.00  0.00     0.058 C 
ATOM     17  C4A C2E d   1     -24.067  -3.994   9.391  0.00  0.00     0.090 C 
ATOM     18  O4A C2E d   1     -23.449  -2.963  10.271  0.00  0.00    -0.353 OA
ATOM     19  C3A C2E d   1     -23.206  -4.029   8.174  0.00  0.00     0.106 C 
ATOM     20  O3A C2E d   1     -23.994  -4.476   7.131  0.00  0.00    -0.279 OA
ATOM     21  C2A C2E d   1     -22.755  -2.613   8.063  0.00  0.00     0.106 C 
ATOM     22  C1A C2E d   1     -22.581  -2.198   9.512  0.00  0.00     0.140 C 
ATOM     23  H1  C2E d   1     -23.696  -7.902   5.426  0.00  0.00     0.079 H 
ATOM     24  H2  C2E d   1     -24.267  -7.153   6.957  0.00  0.00     0.079 H 
ATOM     25  H3  C2E d   1     -23.401  -9.371   7.358  0.00  0.00     0.090 H 
ATOM     26  H4  C2E d   1     -21.637  -7.079   8.485  0.00  0.00     0.092 H 
ATOM     27  H5  C2E d   1     -20.482  -8.794   9.352  0.00  0.00     0.093 H 
ATOM     28  H7  C2E d   1     -20.225 -10.428   7.362  0.00  0.00     0.122 H 
ATOM     29  H12 C2E d   1     -24.772  -5.135  11.042  0.00  0.00     0.079 H 
ATOM     30  H13 C2E d   1     -24.622  -6.045   9.500  0.00  0.00     0.079 H 
ATOM     31  H14 C2E d   1     -25.086  -3.694   9.104  0.00  0.00     0.090 H 
ATOM     32  H15 C2E d   1     -22.342  -4.699   8.296  0.00  0.00     0.092 H 
ATOM     33  H16 C2E d   1     -21.820  -2.545   7.488  0.00  0.00     0.093 H 
ATOM     34  H18 C2E d   1     -22.842  -1.134   9.609  0.00  0.00     0.122 H 
ENDROOT
BRANCH  11  35
ATOM     35  N9  C2E d   1     -19.423  -8.502   6.946  0.00  0.00    -0.293 N 
ATOM     36  C8  C2E d   1     -19.405  -7.456   6.116  0.00  0.00     0.071 A 
ATOM     37  N7  C2E d   1     -18.264  -7.025   5.935  0.00  0.00    -0.235 NA
ATOM     38  H8  C2E d   1     -20.295  -7.033   5.653  0.00  0.00     0.144 H 
ATOM     39  C5  C2E d   1     -17.362  -7.739   6.612  0.00  0.00     0.159 A 
ATOM     40  C6  C2E d   1     -15.987  -7.770   6.803  0.00  0.00     0.226 A 
ATOM     41  C4  C2E d   1     -18.104  -8.783   7.310  0.00  0.00     0.185 A 
ATOM     42  O6  C2E d   1     -15.176  -6.879   6.241  0.00  0.00    -0.169 OA
ATOM     43  N1  C2E d   1     -15.450  -8.714   7.619  0.00  0.00    -0.164 N 
ATOM     44  C2  C2E d   1     -16.220  -9.660   8.232  0.00  0.00     0.702 A 
ATOM     45  H9  C2E d   1     -14.462  -8.716   7.775  0.00  0.00     0.186 HD
ATOM     46  N3  C2E d   1     -17.547  -9.692   8.130  0.00  0.00    -0.044 NA
BRANCH  44  47
ATOM     47  N2  C2E d   1     -15.554 -10.643   9.086  0.00  0.00    -0.233 N 
ATOM     48  H10 C2E d   1     -16.107 -11.370   9.563  0.00  0.00     0.174 HD
ATOM     49  H11 C2E d   1     -14.532 -10.608   9.211  0.00  0.00     0.174 HD
ENDBRANCH  44  47
ENDBRANCH  11  35
BRANCH  10  50
ATOM     50  O2' C2E d   1     -21.601 -10.425   9.183  0.00  0.00    -0.388 OA
ATOM     51  H6  C2E d   1     -21.892 -10.312  10.080  0.00  0.00     0.210 HD
ENDBRANCH  10  50
BRANCH  21  52
ATOM     52  O2A C2E d   1     -23.695  -1.762   7.543  0.00  0.00    -0.388 OA
ATOM     53  H17 C2E d   1     -23.931  -2.049   6.669  0.00  0.00     0.210 HD
ENDBRANCH  21  52
BRANCH  22  54
ATOM     54  N91 C2E d   1     -21.234  -2.389  10.012  0.00  0.00    -0.293 N 
ATOM     55  C81 C2E d   1     -20.745  -3.329  10.778  0.00  0.00     0.071 A 
ATOM     56  N71 C2E d   1     -19.514  -3.187  11.013  0.00  0.00    -0.235 NA
ATOM     57  H19 C2E d   1     -21.340  -4.151  11.173  0.00  0.00     0.144 H 
ATOM     58  C51 C2E d   1     -18.990  -2.119  10.430  0.00  0.00     0.159 A 
ATOM     59  C61 C2E d   1     -17.757  -1.431  10.308  0.00  0.00     0.226 A 
ATOM     60  C41 C2E d   1     -20.115  -1.536   9.740  0.00  0.00     0.185 A 
ATOM     61  O61 C2E d   1     -16.643  -1.833  10.878  0.00  0.00    -0.169 OA
ATOM     62  N11 C2E d   1     -17.700  -0.303   9.554  0.00  0.00    -0.164 N 
ATOM     63  C21 C2E d   1     -18.796   0.164   8.954  0.00  0.00     0.702 A 
ATOM     64  H20 C2E d   1     -16.831   0.180   9.448  0.00  0.00     0.186 HD
ATOM     65  N31 C2E d   1     -20.002  -0.413   9.014  0.00  0.00    -0.044 NA
BRANCH  63  66
ATOM     66  N21 C2E d   1     -18.757   1.341   8.158  0.00  0.00    -0.233 N 
ATOM     67  H21 C2E d   1     -19.615   1.684   7.704  0.00  0.00     0.174 HD
ATOM     68  H22 C2E d   1     -17.870   1.851   8.036  0.00  0.00     0.174 HD
ENDBRANCH  63  66
ENDBRANCH  22  54
TORSDOF 6
