REMARK  3 active torsions:
REMARK  status: ('A' for Active; 'I' for Inactive)
REMARK    1  A    between atoms: C4_4  and  N4_5 
REMARK    2  A    between atoms: N1_8  and  C1'_9 
REMARK    3  A    between atoms: C2'_19  and  O2'_20 
ROOT
ATOM      1  C1' CC7 d   1      16.975   3.256  55.676  0.00  0.00     0.137 C 
ATOM      2  O4' CC7 d   1      17.514   4.542  55.897  0.00  0.00    -0.354 OA
ATOM      3  C4' CC7 d   1      18.938   4.425  55.776  0.00  0.00     0.090 C 
ATOM      4  C5' CC7 d   1      19.636   5.751  55.713  0.00  0.00     0.058 C 
ATOM      5  O5' CC7 d   1      20.987   5.533  55.352  0.00  0.00    -0.287 OA
ATOM      6  P   CC7 d   1      21.344   4.405  54.286  0.00  0.00     0.408 P 
ATOM      7  O2P CC7 d   1      22.699   3.955  54.555  0.00  0.00    -0.624 OA
ATOM      8  O1P CC7 d   1      20.998   5.131  52.859  0.00  0.00    -0.624 OA
ATOM      9  O3' CC7 d   1      20.377   3.061  54.368  0.00  0.00    -0.279 OA
ATOM     10  C3' CC7 d   1      19.064   3.524  54.577  0.00  0.00     0.106 C 
ATOM     11  C2' CC7 d   1      18.023   2.447  54.894  0.00  0.00     0.105 C 
ATOM     12  H7  CC7 d   1      16.786   2.768  56.643  0.00  0.00     0.122 H 
ATOM     13  H8  CC7 d   1      19.341   3.901  56.655  0.00  0.00     0.090 H 
ATOM     14  H9  CC7 d   1      19.590   6.241  56.697  0.00  0.00     0.079 H 
ATOM     15  H10 CC7 d   1      19.150   6.390  54.961  0.00  0.00     0.079 H 
ATOM     16  H11 CC7 d   1      18.763   4.066  53.668  0.00  0.00     0.092 H 
ATOM     17  H12 CC7 d   1      17.616   1.986  53.982  0.00  0.00     0.093 H 
ENDROOT
BRANCH   1  18
ATOM     18  N1  CC7 d   1      15.707   3.342  54.936  0.00  0.00    -0.301 N 
ATOM     19  C2  CC7 d   1      14.542   2.676  55.550  0.00  0.00     0.326 A 
ATOM     20  O2  CC7 d   1      14.647   2.144  56.608  0.00  0.00    -0.247 OA
ATOM     21  N3  CC7 d   1      13.243   2.702  54.848  0.00  0.00    -0.295 N 
ATOM     22  C4  CC7 d   1      13.134   3.356  53.567  0.00  0.00     0.100 A 
ATOM     23  H1  CC7 d   1      12.442   2.268  55.259  0.00  0.00     0.172 HD
ATOM     24  C5  CC7 d   1      14.311   4.010  52.936  0.00  0.00    -0.044 A 
ATOM     25  C6  CC7 d   1      15.619   3.990  53.642  0.00  0.00     0.020 A 
ATOM     26  H4  CC7 d   1      14.216   4.498  51.967  0.00  0.00     0.085 H 
ATOM     27  H5  CC7 d   1      15.925   5.037  53.784  0.00  0.00     0.070 H 
ATOM     28  H6  CC7 d   1      16.336   3.485  52.978  0.00  0.00     0.070 H 
BRANCH  22  29
ATOM     29  N4  CC7 d   1      11.837   3.357  52.912  0.00  0.00    -0.386 N 
ATOM     30  H2  CC7 d   1      11.723   3.815  51.996  0.00  0.00     0.157 HD
ATOM     31  H3  CC7 d   1      11.032   2.900  53.363  0.00  0.00     0.157 HD
ENDBRANCH  22  29
ENDBRANCH   1  18
BRANCH  11  32
ATOM     32  O2' CC7 d   1      18.539   1.459  55.771  0.00  0.00    -0.388 OA
ATOM     33  H13 CC7 d   1      19.290   1.040  55.367  0.00  0.00     0.210 HD
ENDBRANCH  11  32
TORSDOF 3
