REMARK  2 active torsions:
REMARK  status: ('A' for Active; 'I' for Inactive)
REMARK    1  A    between atoms: C4_9  and  N_18 
REMARK    2  A    between atoms: C3_14  and  O2_15 
ROOT
ATOM      1  P   6SW d   1     -26.108   4.788 -44.754  0.00  0.00     0.408 P 
ATOM      2  O6  6SW d   1     -24.657   4.311 -44.707  0.00  0.00    -0.624 OA
ATOM      3  C2  6SW d   1     -28.529   3.986 -44.330  0.00  0.00     0.106 C 
ATOM      4  C4  6SW d   1     -30.565   3.750 -43.244  0.00  0.00     0.140 C 
ATOM      5  O4  6SW d   1     -26.395   5.630 -45.945  0.00  0.00    -0.624 OA
ATOM      6  O5  6SW d   1     -26.411   5.700 -43.431  0.00  0.00    -0.287 OA
ATOM      7  C   6SW d   1     -27.751   6.069 -43.216  0.00  0.00     0.058 C 
ATOM      8  O3  6SW d   1     -27.182   3.615 -44.587  0.00  0.00    -0.279 OA
ATOM      9  C3  6SW d   1     -29.545   2.934 -44.021  0.00  0.00     0.106 C 
ATOM     10  O   6SW d   1     -29.941   4.970 -42.928  0.00  0.00    -0.353 OA
ATOM     11  C1  6SW d   1     -28.564   4.816 -43.062  0.00  0.00     0.090 C 
ATOM     12  H3  6SW d   1     -28.879   4.570 -45.194  0.00  0.00     0.092 H 
ATOM     13  H5  6SW d   1     -30.875   3.226 -42.328  0.00  0.00     0.122 H 
ATOM     14  H6  6SW d   1     -28.120   6.649 -44.075  0.00  0.00     0.079 H 
ATOM     15  H7  6SW d   1     -27.828   6.677 -42.303  0.00  0.00     0.079 H 
ATOM     16  H8  6SW d   1     -29.957   2.500 -44.944  0.00  0.00     0.093 H 
ATOM     17  H10 6SW d   1     -28.162   4.255 -42.205  0.00  0.00     0.090 H 
ENDROOT
BRANCH   4  18
ATOM     18  N   6SW d   1     -31.717   3.979 -44.108  0.00  0.00    -0.294 N 
ATOM     19  C5  6SW d   1     -31.756   4.751 -45.206  0.00  0.00     0.071 A 
ATOM     20  N1  6SW d   1     -33.001   4.726 -45.730  0.00  0.00    -0.234 NA
ATOM     21  H2  6SW d   1     -30.914   5.311 -45.611  0.00  0.00     0.144 H 
ATOM     22  C6  6SW d   1     -33.728   3.902 -44.972  0.00  0.00     0.172 A 
ATOM     23  C7  6SW d   1     -32.875   3.415 -43.898  0.00  0.00     0.169 A 
ATOM     24  C9  6SW d   1     -35.115   3.425 -44.966  0.00  0.00     0.279 A 
ATOM     25  N2  6SW d   1     -33.359   2.599 -42.973  0.00  0.00    -0.223 NA
ATOM     26  C8  6SW d   1     -34.637   2.186 -43.015  0.00  0.00     0.069 A 
ATOM     27  N3  6SW d   1     -35.491   2.583 -43.989  0.00  0.00    -0.316 N 
ATOM     28  H1  6SW d   1     -34.998   1.510 -42.241  0.00  0.00     0.143 H 
ATOM     29  H4  6SW d   1     -36.430   2.239 -43.980  0.00  0.00     0.170 HD
ATOM     30  O1  6SW d   1     -35.894   3.784 -45.868  0.00  0.00    -0.265 OA
ENDBRANCH   4  18
BRANCH   9  31
ATOM     31  O2  6SW d   1     -29.106   1.899 -43.154  0.00  0.00    -0.388 OA
ATOM     32  H9  6SW d   1     -28.464   1.362 -43.603  0.00  0.00     0.210 HD
ENDBRANCH   9  31
TORSDOF 2
