REMARK  2 active torsions:
REMARK  status: ('A' for Active; 'I' for Inactive)
REMARK    1  A    between atoms: C2'_14  and  O2'_15 
REMARK    2  A    between atoms: C1'_16  and  N9_18 
ROOT
ATOM      1  P   6SX d   1      21.156   4.312  54.300  0.00  0.00     0.408 P 
ATOM      2  O1P 6SX d   1      22.537   3.765  54.344  0.00  0.00    -0.624 OA
ATOM      3  O2P 6SX d   1      20.625   5.037  53.117  0.00  0.00    -0.624 OA
ATOM      4  O3' 6SX d   1      20.105   3.100  54.520  0.00  0.00    -0.279 OA
ATOM      5  C3' 6SX d   1      18.828   3.568  54.766  0.00  0.00     0.106 C 
ATOM      6  C4' 6SX d   1      18.824   4.459  55.978  0.00  0.00     0.090 C 
ATOM      7  C5' 6SX d   1      19.642   5.719  55.847  0.00  0.00     0.058 C 
ATOM      8  O5' 6SX d   1      20.960   5.273  55.557  0.00  0.00    -0.287 OA
ATOM      9  C2' 6SX d   1      17.831   2.521  55.193  0.00  0.00     0.106 C 
ATOM     10  C1' 6SX d   1      16.820   3.376  55.921  0.00  0.00     0.140 C 
ATOM     11  O4' 6SX d   1      17.429   4.629  56.180  0.00  0.00    -0.353 OA
ATOM     12  H3  6SX d   1      18.470   4.099  53.872  0.00  0.00     0.092 H 
ATOM     13  H4  6SX d   1      19.243   3.909  56.833  0.00  0.00     0.090 H 
ATOM     14  H5  6SX d   1      19.625   6.290  56.787  0.00  0.00     0.079 H 
ATOM     15  H6  6SX d   1      19.258   6.346  55.029  0.00  0.00     0.079 H 
ATOM     16  H7  6SX d   1      17.378   2.016  54.327  0.00  0.00     0.093 H 
ATOM     17  H9  6SX d   1      16.506   2.891  56.857  0.00  0.00     0.122 H 
ENDROOT
BRANCH  10  18
ATOM     18  N9  6SX d   1      15.653   3.616  55.044  0.00  0.00    -0.294 N 
ATOM     19  C4  6SX d   1      14.460   3.074  55.220  0.00  0.00     0.164 A 
ATOM     20  C5  6SX d   1      13.614   3.591  54.124  0.00  0.00     0.121 A 
ATOM     21  N3  6SX d   1      13.935   2.223  56.137  0.00  0.00    -0.222 NA
ATOM     22  C6  6SX d   1      12.284   3.168  54.070  0.00  0.00     0.035 A 
ATOM     23  N7  6SX d   1      14.398   4.400  53.382  0.00  0.00    -0.238 NA
ATOM     24  N1  6SX d   1      11.845   2.329  55.028  0.00  0.00    -0.252 NA
ATOM     25  H2  6SX d   1      11.624   3.505  53.279  0.00  0.00     0.118 H 
ATOM     26  C2  6SX d   1      12.639   1.867  56.032  0.00  0.00     0.088 A 
ATOM     27  H1  6SX d   1      12.217   1.193  56.769  0.00  0.00     0.146 H 
ATOM     28  C8  6SX d   1      15.633   4.405  53.946  0.00  0.00     0.070 A 
ATOM     29  H10 6SX d   1      16.487   4.965  53.568  0.00  0.00     0.144 H 
ENDBRANCH  10  18
BRANCH   9  30
ATOM     30  O2' 6SX d   1      18.435   1.547  56.044  0.00  0.00    -0.388 OA
ATOM     31  H8  6SX d   1      19.144   1.118  55.579  0.00  0.00     0.210 HD
ENDBRANCH   9  30
TORSDOF 2
