REMARK  2 active torsions:
REMARK  status: ('A' for Active; 'I' for Inactive)
REMARK    1  A    between atoms: C3_15  and  N_13 
REMARK    2  A    between atoms: C7_16  and  O6_17 
ROOT
ATOM      1  C4  6SY d   1     -17.289  -1.101 -30.324  0.00  0.00     0.090 C 
ATOM      2  C5  6SY d   1     -17.255  -2.508 -29.726  0.00  0.00     0.058 C 
ATOM      3  C6  6SY d   1     -18.589  -0.353 -30.160  0.00  0.00     0.106 C 
ATOM      4  O2  6SY d   1     -17.736  -2.430 -28.338  0.00  0.00    -0.287 OA
ATOM      5  O4  6SY d   1     -19.227  -1.231 -26.503  0.00  0.00    -0.624 OA
ATOM      6  P   6SY d   1     -19.070  -1.654 -27.953  0.00  0.00     0.408 P 
ATOM      7  C3  6SY d   1     -17.493   0.386 -32.110  0.00  0.00     0.141 C 
ATOM      8  C7  6SY d   1     -18.308   0.921 -30.944  0.00  0.00     0.106 C 
ATOM      9  O1  6SY d   1     -17.014  -0.945 -31.729  0.00  0.00    -0.353 OA
ATOM     10  O5  6SY d   1     -18.861  -0.213 -28.786  0.00  0.00    -0.279 OA
ATOM     11  O3  6SY d   1     -20.204  -2.383 -28.610  0.00  0.00    -0.624 OA
ATOM     12  H3  6SY d   1     -16.512  -0.547 -29.778  0.00  0.00     0.090 H 
ATOM     13  H4  6SY d   1     -16.225  -2.894 -29.742  0.00  0.00     0.079 H 
ATOM     14  H5  6SY d   1     -17.906  -3.176 -30.309  0.00  0.00     0.079 H 
ATOM     15  H6  6SY d   1     -19.426  -0.896 -30.624  0.00  0.00     0.092 H 
ATOM     16  H8  6SY d   1     -16.645   1.062 -32.291  0.00  0.00     0.123 H 
ATOM     17  H9  6SY d   1     -19.247   1.377 -31.291  0.00  0.00     0.093 H 
ENDROOT
BRANCH   7  18
ATOM     18  N   6SY d   1     -18.252   0.223 -33.363  0.00  0.00    -0.280 N 
ATOM     19  C2  6SY d   1     -19.155  -0.764 -33.525  0.00  0.00    -0.008 A 
ATOM     20  C1  6SY d   1     -19.824  -0.959 -34.736  0.00  0.00    -0.002 A 
ATOM     21  H2  6SY d   1     -19.369  -1.428 -32.689  0.00  0.00     0.112 H 
ATOM     22  C   6SY d   1     -19.550  -0.137 -35.799  0.00  0.00     0.250 A 
ATOM     23  H7  6SY d   1     -20.558  -1.758 -34.835  0.00  0.00     0.094 H 
ATOM     24  N1  6SY d   1     -18.661   0.821 -35.635  0.00  0.00    -0.275 N 
ATOM     25  O   6SY d   1     -20.124  -0.258 -36.907  0.00  0.00    -0.268 OA
ATOM     26  C8  6SY d   1     -18.013   1.016 -34.468  0.00  0.00     0.331 A 
ATOM     27  H1  6SY d   1     -18.459   1.427 -36.405  0.00  0.00     0.173 HD
ATOM     28  O7  6SY d   1     -17.190   1.903 -34.371  0.00  0.00    -0.246 OA
ENDBRANCH   7  18
BRANCH   8  29
ATOM     29  O6  6SY d   1     -17.561   1.906 -30.204  0.00  0.00    -0.388 OA
ATOM     30  H10 6SY d   1     -18.089   2.225 -29.482  0.00  0.00     0.210 HD
ENDBRANCH   8  29
TORSDOF 2
