REMARK  3 active torsions:
REMARK  status: ('A' for Active; 'I' for Inactive)
REMARK    1  A    between atoms: C2_4  and  N2_2 
REMARK    2  A    between atoms: N9_10  and  C1'_11 
REMARK    3  A    between atoms: C2'_13  and  O2'_14 
ROOT
ATOM      1  C1' 6SZ d   1      16.908   3.312  55.381  0.00  0.00     0.140 C 
ATOM      2  O4' 6SZ d   1      17.493   4.530  55.773  0.00  0.00    -0.353 OA
ATOM      3  C2' 6SZ d   1      17.937   2.464  54.721  0.00  0.00     0.106 C 
ATOM      4  C3' 6SZ d   1      18.955   3.474  54.354  0.00  0.00     0.106 C 
ATOM      5  O3' 6SZ d   1      20.238   2.981  54.251  0.00  0.00    -0.279 OA
ATOM      6  PA  6SZ d   1      21.209   4.264  54.063  0.00  0.00     0.408 P 
ATOM      7  O2A 6SZ d   1      20.571   4.949  52.900  0.00  0.00    -0.624 OA
ATOM      8  O1A 6SZ d   1      22.627   3.853  54.092  0.00  0.00    -0.624 OA
ATOM      9  C4' 6SZ d   1      18.875   4.361  55.562  0.00  0.00     0.090 C 
ATOM     10  C5' 6SZ d   1      19.638   5.636  55.481  0.00  0.00     0.058 C 
ATOM     11  O5' 6SZ d   1      20.966   5.173  55.342  0.00  0.00    -0.287 OA
ATOM     12  H5  6SZ d   1      16.465   2.791  56.242  0.00  0.00     0.122 H 
ATOM     13  H6  6SZ d   1      17.555   1.927  53.840  0.00  0.00     0.093 H 
ATOM     14  H8  6SZ d   1      18.684   3.998  53.425  0.00  0.00     0.092 H 
ATOM     15  H9  6SZ d   1      19.292   3.809  56.418  0.00  0.00     0.090 H 
ATOM     16  H10 6SZ d   1      19.517   6.234  56.396  0.00  0.00     0.079 H 
ATOM     17  H11 6SZ d   1      19.329   6.232  54.610  0.00  0.00     0.079 H 
ENDROOT
BRANCH   1  18
ATOM     18  N9  6SZ d   1      15.906   3.640  54.388  0.00  0.00    -0.293 N 
ATOM     19  C4  6SZ d   1      14.703   3.209  54.551  0.00  0.00     0.182 A 
ATOM     20  N3  6SZ d   1      14.147   2.463  55.493  0.00  0.00    -0.043 NA
ATOM     21  C5  6SZ d   1      13.944   3.714  53.430  0.00  0.00     0.123 A 
ATOM     22  C2  6SZ d   1      12.844   2.158  55.393  0.00  0.00     0.722 A 
ATOM     23  N1  6SZ d   1      12.042   2.575  54.378  0.00  0.00    -0.073 NA
ATOM     24  C6  6SZ d   1      12.533   3.413  53.272  0.00  0.00     0.052 A 
ATOM     25  H3  6SZ d   1      11.921   3.760  52.447  0.00  0.00     0.119 H 
ATOM     26  N7  6SZ d   1      14.774   4.454  52.681  0.00  0.00    -0.238 NA
ATOM     27  C8  6SZ d   1      15.990   4.398  53.287  0.00  0.00     0.070 A 
ATOM     28  H4  6SZ d   1      16.893   4.893  52.932  0.00  0.00     0.144 H 
BRANCH  22  29
ATOM     29  N2  6SZ d   1      12.352   1.384  56.382  0.00  0.00    -0.231 N 
ATOM     30  H1  6SZ d   1      11.360   1.108  56.374  0.00  0.00     0.174 HD
ATOM     31  H2  6SZ d   1      12.969   1.069  57.145  0.00  0.00     0.174 HD
ENDBRANCH  22  29
ENDBRANCH   1  18
BRANCH   3  32
ATOM     32  O2' 6SZ d   1      18.405   1.556  55.702  0.00  0.00    -0.388 OA
ATOM     33  H7  6SZ d   1      19.068   0.993  55.320  0.00  0.00     0.210 HD
ENDBRANCH   3  32
TORSDOF 3
