REMARK  6 active torsions:
REMARK  status: ('A' for Active; 'I' for Inactive)
REMARK    1  A    between atoms: C4_2  and  N2_3 
REMARK    2  A    between atoms: N2_3  and  S1_14 
REMARK    3  A    between atoms: N1_10  and  C7_4 
REMARK    4  A    between atoms: S1_14  and  C6_5 
REMARK    5  A    between atoms: N1_10  and  C1_9 
REMARK    6  A    between atoms: C2_11  and  N1_10 
ROOT
ATOM      1  C4  6TE d   1       9.945  13.711 -16.403  0.00  0.00     0.023 C 
ATOM      2  C2  6TE d   1      11.028  14.726 -14.811  0.00  0.00     0.017 C 
ATOM      3  C3  6TE d   1      10.266  15.201 -16.076  0.00  0.00    -0.026 C 
ATOM      4  C5  6TE d   1      10.984  13.260 -15.340  0.00  0.00    -0.026 C 
ATOM      5  H1  6TE d   1       8.917  13.421 -16.139  0.00  0.00     0.073 H 
ATOM      6  H11 6TE d   1      10.436  14.858 -13.893  0.00  0.00     0.072 H 
ATOM      7  H12 6TE d   1       9.381  15.820 -15.867  0.00  0.00     0.039 H 
ATOM      8  H13 6TE d   1      10.897  15.704 -16.824  0.00  0.00     0.039 H 
ATOM      9  H14 6TE d   1      11.935  12.900 -15.759  0.00  0.00     0.039 H 
ATOM     10  H15 6TE d   1      10.602  12.527 -14.614  0.00  0.00     0.039 H 
ENDROOT
BRANCH   2  11
ATOM     11  N1  6TE d   1      12.333  15.296 -14.563  0.00  0.00    -0.364 N 
BRANCH  11  12
ATOM     12  C7  6TE d   1      12.745  15.661 -13.290  0.00  0.00     0.141 A 
ATOM     13  N3  6TE d   1      13.957  16.309 -13.234  0.00  0.00    -0.224 NA
ATOM     14  C8  6TE d   1      14.422  16.656 -11.996  0.00  0.00     0.091 A 
ATOM     15  N4  6TE d   1      13.865  16.454 -10.785  0.00  0.00    -0.223 NA
ATOM     16  H6  6TE d   1      15.377  17.168 -11.987  0.00  0.00     0.146 H 
ATOM     17  C9  6TE d   1      12.653  15.810 -10.884  0.00  0.00     0.142 A 
ATOM     18  N5  6TE d   1      11.845  15.440  -9.819  0.00  0.00    -0.350 N 
ATOM     19  C10 6TE d   1      12.025  15.386 -12.098  0.00  0.00     0.057 A 
ATOM     20  C12 6TE d   1      10.720  14.777 -10.338  0.00  0.00    -0.020 A 
ATOM     21  H7  6TE d   1      12.036  15.620  -8.823  0.00  0.00     0.166 HD
ATOM     22  C11 6TE d   1      10.809  14.736 -11.713  0.00  0.00    -0.051 A 
ATOM     23  H17 6TE d   1       9.906  14.361  -9.747  0.00  0.00     0.111 H 
ATOM     24  H16 6TE d   1      10.082  14.288 -12.388  0.00  0.00     0.087 H 
ENDBRANCH  11  12
BRANCH  11  25
ATOM     25  C1  6TE d   1      13.274  15.442 -15.685  0.00  0.00    -0.017 C 
ATOM     26  H8  6TE d   1      14.211  15.889 -15.322  0.00  0.00     0.056 H 
ATOM     27  H9  6TE d   1      12.831  16.093 -16.453  0.00  0.00     0.056 H 
ATOM     28  H10 6TE d   1      13.483  14.453 -16.119  0.00  0.00     0.056 H 
ENDBRANCH  11  25
ENDBRANCH   2  11
BRANCH   1  29
ATOM     29  N2  6TE d   1      10.177  13.321 -17.777  0.00  0.00    -0.315 N 
ATOM     30  H2  6TE d   1      11.107  13.091 -18.063  0.00  0.00     0.172 HD
BRANCH  29  31
ATOM     31  S1  6TE d   1       8.969  13.244 -18.879  0.00  0.00     0.223 S 
ATOM     32  O1  6TE d   1       7.839  12.625 -18.287  0.00  0.00    -0.206 OA
ATOM     33  O2  6TE d   1       9.544  12.705 -20.059  0.00  0.00    -0.206 OA
BRANCH  31  34
ATOM     34  C6  6TE d   1       8.574  14.843 -19.148  0.00  0.00     0.032 C 
ATOM     35  H3  6TE d   1       7.759  14.900 -19.885  0.00  0.00     0.051 H 
ATOM     36  H4  6TE d   1       9.455  15.379 -19.532  0.00  0.00     0.051 H 
ATOM     37  H5  6TE d   1       8.248  15.304 -18.204  0.00  0.00     0.051 H 
ENDBRANCH  31  34
ENDBRANCH  29  31
ENDBRANCH   1  29
TORSDOF 6
