REMARK  7 active torsions:
REMARK  status: ('A' for Active; 'I' for Inactive)
REMARK    1  A    between atoms: C2_12  and  C4_1 
REMARK    2  A    between atoms: C6_2  and  O5_14 
REMARK       I    between atoms: N8_16  and  C6_2 
REMARK    3  A    between atoms: C16_21  and  C15_5 
REMARK    4  A    between atoms: C2_12  and  C1_11 
REMARK    5  A    between atoms: C2_12  and  C3_13 
REMARK    6  A    between atoms: O5_14  and  C2_12 
REMARK    7  A    between atoms: N17_22  and  C16_21 
REMARK       I    between atoms: C18_23  and  N17_22 
REMARK       I    between atoms: C18_23  and  N20_25 
ROOT
ATOM      1  C6  6TA d   1      14.285   2.968  -4.016  0.00  0.00     0.363 C 
ATOM      2  C10 6TA d   1      13.952   5.438  -1.776  0.00  0.00    -0.043 C 
ATOM      3  C13 6TA d   1      14.860   2.633  -1.747  0.00  0.00     0.000 C 
ATOM      4  C15 6TA d   1      15.603   5.769   0.308  0.00  0.00    -0.030 A 
ATOM      5  O7  6TA d   1      13.677   3.510  -4.850  0.00  0.00    -0.238 OA
ATOM      6  N8  6TA d   1      14.043   3.280  -2.741  0.00  0.00    -0.328 N 
ATOM      7  C9  6TA d   1      13.107   4.298  -2.402  0.00  0.00     0.000 C 
ATOM      8  C11 6TA d   1      14.959   4.895  -0.780  0.00  0.00    -0.032 A 
ATOM      9  C12 6TA d   1      15.796   3.706  -1.211  0.00  0.00    -0.043 C 
ATOM     10  C14 6TA d   1      14.421   4.881   0.638  0.00  0.00    -0.052 A 
ATOM     11  H4  6TA d   1      13.280   6.140  -1.260  0.00  0.00     0.036 H 
ATOM     12  H5  6TA d   1      14.490   5.967  -2.577  0.00  0.00     0.036 H 
ATOM     13  H6  6TA d   1      15.437   1.814  -2.201  0.00  0.00     0.064 H 
ATOM     14  H7  6TA d   1      14.232   2.234  -0.937  0.00  0.00     0.064 H 
ATOM     15  H8  6TA d   1      16.606   5.526   0.688  0.00  0.00     0.043 H 
ATOM     16  H19 6TA d   1      12.584   4.655  -3.301  0.00  0.00     0.064 H 
ATOM     17  H20 6TA d   1      12.372   3.920  -1.676  0.00  0.00     0.064 H 
ATOM     18  H21 6TA d   1      16.500   4.013  -1.998  0.00  0.00     0.036 H 
ATOM     19  H22 6TA d   1      16.357   3.314  -0.350  0.00  0.00     0.036 H 
ATOM     20  H23 6TA d   1      13.442   5.332   0.856  0.00  0.00     0.034 H 
ATOM     21  H24 6TA d   1      14.564   3.991   1.269  0.00  0.00     0.034 H 
ENDROOT
BRANCH   4  22
ATOM     22  C16 6TA d   1      15.411   7.288   0.291  0.00  0.00     0.001 C 
ATOM     23  H25 6TA d   1      14.412   7.529  -0.103  0.00  0.00     0.064 H 
ATOM     24  H26 6TA d   1      16.178   7.749  -0.348  0.00  0.00     0.064 H 
BRANCH  22  25
ATOM     25  N17 6TA d   1      15.536   7.801   1.650  0.00  0.00    -0.342 N 
ATOM     26  C18 6TA d   1      14.649   8.632   2.159  0.00  0.00     0.326 C 
ATOM     27  O19 6TA d   1      13.704   9.060   1.585  0.00  0.00    -0.246 OA
ATOM     28  N20 6TA d   1      14.857   9.010   3.440  0.00  0.00    -0.284 N 
ATOM     29  C21 6TA d   1      15.936   8.529   4.294  0.00  0.00    -0.000 C 
ATOM     30  C28 6TA d   1      14.025   9.871   4.229  0.00  0.00     0.001 C 
ATOM     31  C22 6TA d   1      15.449   8.743   5.730  0.00  0.00    -0.006 A 
ATOM     32  H9  6TA d   1      16.888   8.106   3.977  0.00  0.00     0.113 H 
ATOM     33  C23 6TA d   1      15.893   8.323   6.970  0.00  0.00    -0.054 A 
ATOM     34  C27 6TA d   1      14.321   9.539   5.686  0.00  0.00     0.009 A 
ATOM     35  C24 6TA d   1      15.208   8.707   8.095  0.00  0.00     0.003 A 
ATOM     36  H28 6TA d   1      16.774   7.696   7.053  0.00  0.00     0.087 H 
ATOM     37  N25 6TA d   1      14.146   9.437   8.022  0.00  0.00    -0.272 NA
ATOM     38  H10 6TA d   1      15.567   8.390   9.068  0.00  0.00     0.114 H 
ATOM     39  C26 6TA d   1      13.699   9.877   6.875  0.00  0.00     0.014 A 
ATOM     40  H11 6TA d   1      12.825  10.518   6.855  0.00  0.00     0.116 H 
ATOM     41  H12 6TA d   1      13.321  10.615   3.860  0.00  0.00     0.113 H 
ATOM     42  H27 6TA d   1      16.314   7.515   2.210  0.00  0.00     0.164 HD
ENDBRANCH  22  25
ENDBRANCH   4  22
BRANCH   1  43
ATOM     43  O5  6TA d   1      15.188   2.100  -4.263  0.00  0.00    -0.294 OA
BRANCH  43  44
ATOM     44  C2  6TA d   1      15.494   1.831  -5.646  0.00  0.00     0.061 C 
BRANCH  44  45
ATOM     45  C4  6TA d   1      16.452   0.676  -5.658  0.00  0.00    -0.048 C 
ATOM     46  H1  6TA d   1      16.718   0.431  -6.697  0.00  0.00     0.031 H 
ATOM     47  H2  6TA d   1      15.979  -0.197  -5.184  0.00  0.00     0.031 H 
ATOM     48  H3  6TA d   1      17.361   0.948  -5.101  0.00  0.00     0.031 H 
ENDBRANCH  44  45
BRANCH  44  49
ATOM     49  C1  6TA d   1      14.224   1.557  -6.429  0.00  0.00    -0.048 C 
ATOM     50  H13 6TA d   1      13.567   2.438  -6.382  0.00  0.00     0.031 H 
ATOM     51  H14 6TA d   1      13.706   0.689  -5.995  0.00  0.00     0.031 H 
ATOM     52  H15 6TA d   1      14.478   1.345  -7.478  0.00  0.00     0.031 H 
ENDBRANCH  44  49
BRANCH  44  53
ATOM     53  C3  6TA d   1      16.133   3.102  -6.216  0.00  0.00    -0.048 C 
ATOM     54  H16 6TA d   1      17.059   3.325  -5.665  0.00  0.00     0.031 H 
ATOM     55  H17 6TA d   1      15.432   3.943  -6.112  0.00  0.00     0.031 H 
ATOM     56  H18 6TA d   1      16.367   2.949  -7.280  0.00  0.00     0.031 H 
ENDBRANCH  44  53
ENDBRANCH  43  44
ENDBRANCH   1  43
TORSDOF 7
