REMARK  12 active torsions:
REMARK  status: ('A' for Active; 'I' for Inactive)
REMARK    1  A    between atoms: C10_1  and  O11_19 
REMARK    2  A    between atoms: N14_21  and  C13_2 
REMARK    3  A    between atoms: N14_21  and  C15_3 
REMARK    4  A    between atoms: N19_25  and  C20_4 
REMARK    5  A    between atoms: C25_27  and  C26_8 
REMARK    6  A    between atoms: C26_8  and  C27_28 
REMARK    7  A    between atoms: N02_11  and  C01_10 
REMARK    8  A    between atoms: N06_15  and  C05_14 
REMARK       I    between atoms: C07_16  and  N06_15 
REMARK    9  A    between atoms: C08_17  and  C07_16 
REMARK   10  A    between atoms: O11_19  and  C12_20 
REMARK   11  A    between atoms: C16_22  and  N14_21 
REMARK   12  A    between atoms: N29_29  and  C30_30 
ROOT
ATOM      1  N14 6TB d   1       7.840  -7.698  -0.200  0.00  0.00    -0.181 N 
ENDROOT
BRANCH   1   2
ATOM      2  C13 6TB d   1       6.788  -7.579   0.691  0.00  0.00     0.084 A 
ATOM      3  C10 6TB d   1       6.478  -8.640   1.572  0.00  0.00     0.096 A 
ATOM      4  C09 6TB d   1       5.392  -8.507   2.455  0.00  0.00    -0.033 A 
ATOM      5  C08 6TB d   1       4.616  -7.332   2.488  0.00  0.00     0.034 A 
ATOM      6  H23 6TB d   1       5.147  -9.325   3.123  0.00  0.00     0.089 H 
ATOM      7  C36 6TB d   1       4.942  -6.293   1.602  0.00  0.00    -0.065 A 
ATOM      8  C35 6TB d   1       6.010  -6.413   0.714  0.00  0.00    -0.053 A 
ATOM      9  H38 6TB d   1       4.354  -5.383   1.608  0.00  0.00     0.085 H 
ATOM     10  H37 6TB d   1       6.240  -5.599   0.036  0.00  0.00     0.087 H 
BRANCH   3  11
ATOM     11  O11 6TB d   1       7.264  -9.772   1.499  0.00  0.00    -0.354 OA
BRANCH  11  12
ATOM     12  C12 6TB d   1       7.039 -10.895   2.403  0.00  0.00     0.010 C 
ATOM     13  H24 6TB d   1       7.764 -11.693   2.185  0.00  0.00     0.066 H 
ATOM     14  H25 6TB d   1       6.018 -11.280   2.263  0.00  0.00     0.066 H 
ATOM     15  H26 6TB d   1       7.165 -10.559   3.443  0.00  0.00     0.066 H 
ENDBRANCH  11  12
ENDBRANCH   3  11
BRANCH   5  16
ATOM     16  C07 6TB d   1       3.507  -7.193   3.371  0.00  0.00     0.252 C 
ATOM     17  N06 6TB d   1       3.399  -7.964   4.488  0.00  0.00    -0.352 N 
ATOM     18  H22 6TB d   1       4.142  -8.591   4.724  0.00  0.00     0.163 HD
ATOM     19  O37 6TB d   1       2.522  -6.455   3.044  0.00  0.00    -0.268 OA
BRANCH  17  20
ATOM     20  C05 6TB d   1       2.248  -7.896   5.328  0.00  0.00     0.015 C 
ATOM     21  C04 6TB d   1       2.610  -8.316   6.777  0.00  0.00    -0.023 C 
ATOM     22  C03 6TB d   1       1.326  -8.385   7.643  0.00  0.00     0.085 C 
ATOM     23  H19 6TB d   1       3.092  -9.305   6.760  0.00  0.00     0.038 H 
ATOM     24  H20 6TB d   1       3.302  -7.578   7.209  0.00  0.00     0.038 H 
ATOM     25  N02 6TB d   1       0.238  -9.209   7.018  0.00  0.00    -0.075 N 
ATOM     26  H17 6TB d   1       1.584  -8.826   8.617  0.00  0.00     0.076 H 
ATOM     27  H18 6TB d   1       0.949  -7.362   7.792  0.00  0.00     0.076 H 
ATOM     28  C39 6TB d   1      -0.108  -8.817   5.613  0.00  0.00     0.085 C 
ATOM     29  H16 6TB d   1       0.595 -10.150   6.965  0.00  0.00     0.279 HD
ATOM     30  C38 6TB d   1       1.155  -8.821   4.725  0.00  0.00    -0.023 C 
ATOM     31  H41 6TB d   1      -0.545  -7.808   5.616  0.00  0.00     0.076 H 
ATOM     32  H42 6TB d   1      -0.839  -9.532   5.207  0.00  0.00     0.076 H 
ATOM     33  H39 6TB d   1       1.546  -9.847   4.657  0.00  0.00     0.038 H 
ATOM     34  H40 6TB d   1       0.891  -8.462   3.719  0.00  0.00     0.038 H 
ATOM     35  H21 6TB d   1       1.873  -6.862   5.346  0.00  0.00     0.072 H 
BRANCH  25  36
ATOM     36  C01 6TB d   1      -0.974  -9.259   7.890  0.00  0.00     0.066 C 
ATOM     37  H13 6TB d   1      -0.680  -9.549   8.910  0.00  0.00     0.068 H 
ATOM     38  H14 6TB d   1      -1.684  -9.997   7.489  0.00  0.00     0.068 H 
ATOM     39  H15 6TB d   1      -1.450  -8.268   7.914  0.00  0.00     0.068 H 
ENDBRANCH  25  36
ENDBRANCH  17  20
ENDBRANCH   5  16
ENDBRANCH   1   2
BRANCH   1  40
ATOM     40  C15 6TB d   1       7.530  -8.188  -1.514  0.00  0.00     0.003 C 
ATOM     41  H1  6TB d   1       6.587  -8.753  -1.482  0.00  0.00     0.058 H 
ATOM     42  H2  6TB d   1       8.340  -8.846  -1.861  0.00  0.00     0.058 H 
ATOM     43  H3  6TB d   1       7.425  -7.340  -2.206  0.00  0.00     0.058 H 
ENDBRANCH   1  40
BRANCH   1  44
ATOM     44  C16 6TB d   1       8.999  -6.962  -0.060  0.00  0.00     0.730 A 
ATOM     45  N17 6TB d   1       9.980  -6.940  -1.011  0.00  0.00    -0.042 NA
ATOM     46  C18 6TB d   1      11.153  -6.238  -0.898  0.00  0.00     0.174 A 
ATOM     47  N19 6TB d   1      12.168  -6.235  -1.848  0.00  0.00    -0.345 N 
ATOM     48  C32 6TB d   1      11.304  -5.447   0.253  0.00  0.00     0.102 A 
ATOM     49  C25 6TB d   1      13.505  -5.841  -1.388  0.00  0.00     0.091 C 
ATOM     50  C28 6TB d   1      13.479  -4.774  -0.350  0.00  0.00     0.247 C 
ATOM     51  H29 6TB d   1      13.997  -5.416  -2.275  0.00  0.00     0.087 H 
ATOM     52  N29 6TB d   1      12.396  -4.625   0.448  0.00  0.00    -0.316 N 
ATOM     53  O31 6TB d   1      14.481  -4.032  -0.223  0.00  0.00    -0.271 OA
ATOM     54  C33 6TB d   1      10.279  -5.471   1.211  0.00  0.00     0.051 A 
ATOM     55  N34 6TB d   1       9.186  -6.220   1.045  0.00  0.00    -0.072 NA
ATOM     56  H36 6TB d   1      10.377  -4.868   2.106  0.00  0.00     0.119 H 
BRANCH  47  57
ATOM     57  C20 6TB d   1      12.111  -7.008  -3.081  0.00  0.00     0.014 C 
ATOM     58  C21 6TB d   1      10.994  -6.497  -4.029  0.00  0.00    -0.046 C 
ATOM     59  C22 6TB d   1      10.576  -7.705  -4.891  0.00  0.00    -0.063 C 
ATOM     60  H5  6TB d   1      11.377  -5.687  -4.668  0.00  0.00     0.036 H 
ATOM     61  H6  6TB d   1      10.137  -6.130  -3.446  0.00  0.00     0.036 H 
ATOM     62  C23 6TB d   1      11.453  -8.897  -4.429  0.00  0.00    -0.063 C 
ATOM     63  H7  6TB d   1      10.754  -7.492  -5.955  0.00  0.00     0.033 H 
ATOM     64  H8  6TB d   1       9.511  -7.933  -4.735  0.00  0.00     0.033 H 
ATOM     65  C24 6TB d   1      11.914  -8.536  -3.016  0.00  0.00    -0.046 C 
ATOM     66  H27 6TB d   1      12.318  -9.020  -5.097  0.00  0.00     0.033 H 
ATOM     67  H28 6TB d   1      10.864  -9.826  -4.417  0.00  0.00     0.033 H 
ATOM     68  H9  6TB d   1      11.148  -8.803  -2.273  0.00  0.00     0.036 H 
ATOM     69  H10 6TB d   1      12.858  -9.044  -2.769  0.00  0.00     0.036 H 
ATOM     70  H4  6TB d   1      13.080  -6.839  -3.573  0.00  0.00     0.072 H 
ENDBRANCH  47  57
BRANCH  49  71
ATOM     71  C26 6TB d   1      14.452  -6.969  -0.863  0.00  0.00    -0.041 C 
ATOM     72  H11 6TB d   1      15.442  -6.531  -0.669  0.00  0.00     0.036 H 
ATOM     73  H12 6TB d   1      14.539  -7.742  -1.641  0.00  0.00     0.036 H 
BRANCH  71  74
ATOM     74  C27 6TB d   1      13.950  -7.634   0.431  0.00  0.00    -0.074 C 
ATOM     75  H30 6TB d   1      14.661  -8.414   0.742  0.00  0.00     0.027 H 
ATOM     76  H31 6TB d   1      12.964  -8.087   0.252  0.00  0.00     0.027 H 
ATOM     77  H32 6TB d   1      13.867  -6.876   1.224  0.00  0.00     0.027 H 
ENDBRANCH  71  74
ENDBRANCH  49  71
BRANCH  52  78
ATOM     78  C30 6TB d   1      12.351  -3.566   1.456  0.00  0.00    -0.011 C 
ATOM     79  H33 6TB d   1      13.308  -3.024   1.461  0.00  0.00     0.057 H 
ATOM     80  H34 6TB d   1      12.176  -4.010   2.447  0.00  0.00     0.057 H 
ATOM     81  H35 6TB d   1      11.535  -2.868   1.218  0.00  0.00     0.057 H 
ENDBRANCH  52  78
ENDBRANCH   1  44
TORSDOF 12
