REMARK  9 active torsions:
REMARK  status: ('A' for Active; 'I' for Inactive)
REMARK    1  A    between atoms: C22_12  and  C10_6 
REMARK    2  A    between atoms: C23_24  and  C15_8 
REMARK       I    between atoms: C15_8  and  N29_29 
REMARK    3  A    between atoms: C24_13  and  C20_10 
REMARK    4  A    between atoms: N28_28  and  C21_11 
REMARK    5  A    between atoms: N29_29  and  C22_12 
REMARK    6  A    between atoms: C24_13  and  C25_25 
REMARK    7  A    between atoms: N29_29  and  C24_13 
REMARK    8  A    between atoms: C11_18  and  N27_27 
REMARK       I    between atoms: N27_27  and  C16_21 
REMARK       I    between atoms: C16_21  and  N28_28 
REMARK    9  A    between atoms: C23_24  and  N26_26 
ROOT
ATOM      1  C4  MOL d   1      33.615   8.151 181.087  0.00  0.00    -0.056 A 
ATOM      2  C7  MOL d   1      35.408   6.773 180.307  0.00  0.00    -0.050 A 
ATOM      3  C8  MOL d   1      35.817   8.527 181.873  0.00  0.00    -0.007 A 
ATOM      4  C13 MOL d   1      36.709   9.485 184.073  0.00  0.00     0.269 A 
ATOM      5  C17 MOL d   1      37.750   7.305 181.229  0.00  0.00    -0.037 C 
ATOM      6  C1  MOL d   1      34.483   8.876 181.879  0.00  0.00    -0.071 A 
ATOM      7  C9  MOL d   1      36.277   7.502 181.092  0.00  0.00    -0.046 A 
ATOM      8  C11 MOL d   1      34.064   7.107 180.295  0.00  0.00     0.036 A 
ATOM      9  C14 MOL d   1      36.965  11.444 182.944  0.00  0.00     0.371 A 
ATOM     10  C18 MOL d   1      38.135   8.279 182.336  0.00  0.00    -0.019 C 
ATOM     11  C19 MOL d   1      36.933   9.178 182.616  0.00  0.00     0.181 A 
ATOM     12  N26 MOL d   1      36.734  10.848 184.146  0.00  0.00    -0.252 N 
ATOM     13  O30 MOL d   1      36.550   8.680 184.982  0.00  0.00    -0.269 OA
ATOM     14  O31 MOL d   1      37.021  12.634 182.660  0.00  0.00    -0.238 OA
ATOM     15  O34 MOL d   1      37.156  10.455 182.032  0.00  0.00    -0.277 OA
ATOM     16  H1  MOL d   1      32.561   8.404 181.085  0.00  0.00     0.086 H 
ATOM     17  H4  MOL d   1      35.773   5.948 179.706  0.00  0.00     0.087 H 
ATOM     18  H5  MOL d   1      38.269   7.551 180.291  0.00  0.00     0.040 H 
ATOM     19  H6  MOL d   1      37.983   6.269 181.517  0.00  0.00     0.040 H 
ATOM     20  H16 MOL d   1      34.125   9.697 182.489  0.00  0.00     0.084 H 
ATOM     21  H19 MOL d   1      38.991   8.890 182.014  0.00  0.00     0.039 H 
ATOM     22  H20 MOL d   1      38.404   7.722 183.246  0.00  0.00     0.039 H 
ENDROOT
BRANCH  12  23
ATOM     23  C23 MOL d   1      36.445  11.581 185.350  0.00  0.00     0.081 C 
ATOM     24  H21 MOL d   1      36.803  11.022 186.227  0.00  0.00     0.079 H 
ATOM     25  H22 MOL d   1      36.934  12.566 185.318  0.00  0.00     0.079 H 
BRANCH  23  26
ATOM     26  C15 MOL d   1      34.938  11.750 185.420  0.00  0.00     0.239 C 
ATOM     27  N29 MOL d   1      34.489  12.418 186.558  0.00  0.00    -0.334 N 
ATOM     28  O32 MOL d   1      34.199  11.341 184.529  0.00  0.00    -0.271 OA
BRANCH  27  29
ATOM     29  C22 MOL d   1      35.436  13.014 187.496  0.00  0.00     0.022 C 
ATOM     30  H13 MOL d   1      36.325  13.324 186.927  0.00  0.00     0.071 H 
ATOM     31  H14 MOL d   1      34.958  13.899 187.940  0.00  0.00     0.071 H 
BRANCH  29  32
ATOM     32  C10 MOL d   1      35.890  12.135 188.607  0.00  0.00    -0.040 A 
ATOM     33  C2  MOL d   1      36.868  12.619 189.445  0.00  0.00    -0.072 A 
ATOM     34  C5  MOL d   1      37.297  11.866 190.516  0.00  0.00    -0.045 A 
ATOM     35  H17 MOL d   1      37.302  13.595 189.262  0.00  0.00     0.084 H 
ATOM     36  C12 MOL d   1      36.754  10.616 190.710  0.00  0.00     0.116 A 
ATOM     37  H2  MOL d   1      38.050  12.251 191.195  0.00  0.00     0.088 H 
ATOM     38  C6  MOL d   1      35.806  10.101 189.861  0.00  0.00    -0.045 A 
ATOM     39  F35 MOL d   1      37.156   9.893 191.744  0.00  0.00    -0.206 F 
ATOM     40  C3  MOL d   1      35.367  10.871 188.809  0.00  0.00    -0.072 A 
ATOM     41  H3  MOL d   1      35.410   9.104 190.017  0.00  0.00     0.088 H 
ATOM     42  H18 MOL d   1      34.609  10.486 188.137  0.00  0.00     0.084 H 
ENDBRANCH  29  32
ENDBRANCH  27  29
BRANCH  27  43
ATOM     43  C24 MOL d   1      33.057  12.745 186.616  0.00  0.00     0.105 C 
ATOM     44  H15 MOL d   1      32.557  12.047 185.929  0.00  0.00     0.086 H 
BRANCH  43  45
ATOM     45  C20 MOL d   1      32.454  12.490 187.984  0.00  0.00    -0.049 C 
ATOM     46  H7  MOL d   1      32.703  11.469 188.310  0.00  0.00     0.030 H 
ATOM     47  H8  MOL d   1      31.361  12.601 187.929  0.00  0.00     0.030 H 
ATOM     48  H9  MOL d   1      32.861  13.215 188.705  0.00  0.00     0.030 H 
ENDBRANCH  43  45
BRANCH  43  49
ATOM     49  C25 MOL d   1      32.760  14.137 186.089  0.00  0.00     0.407 C 
ATOM     50  F36 MOL d   1      31.425  14.279 185.933  0.00  0.00    -0.169 F 
ATOM     51  F37 MOL d   1      33.317  14.386 184.888  0.00  0.00    -0.169 F 
ATOM     52  F38 MOL d   1      33.186  15.146 186.871  0.00  0.00    -0.169 F 
ENDBRANCH  43  49
ENDBRANCH  27  43
ENDBRANCH  23  26
ENDBRANCH  12  23
BRANCH   8  53
ATOM     53  N27 MOL d   1      33.094   6.417 179.526  0.00  0.00    -0.309 N 
ATOM     54  C16 MOL d   1      33.279   5.724 178.335  0.00  0.00     0.320 C 
ATOM     55  N28 MOL d   1      32.074   5.213 177.899  0.00  0.00    -0.347 N 
ATOM     56  O33 MOL d   1      34.346   5.542 177.755  0.00  0.00    -0.247 OA
ATOM     57  H24 MOL d   1      31.253   5.404 178.437  0.00  0.00     0.163 HD
ATOM     58  H23 MOL d   1      32.161   6.430 179.885  0.00  0.00     0.170 HD
BRANCH  55  59
ATOM     59  C21 MOL d   1      31.941   4.416 176.704  0.00  0.00    -0.017 C 
ATOM     60  H10 MOL d   1      30.888   4.129 176.570  0.00  0.00     0.056 H 
ATOM     61  H11 MOL d   1      32.559   3.511 176.796  0.00  0.00     0.056 H 
ATOM     62  H12 MOL d   1      32.275   5.001 175.834  0.00  0.00     0.056 H 
ENDBRANCH  55  59
ENDBRANCH   8  53
TORSDOF 9
