REMARK  11 active torsions:
REMARK  status: ('A' for Active; 'I' for Inactive)
REMARK    1  A    between atoms: C5_31  and  C7_4 
REMARK    2  A    between atoms: C9_6  and  C12_9 
REMARK       I    between atoms: C12_9  and  N2_35 
REMARK    3  A    between atoms: C13_10  and  C14_11 
REMARK    4  A    between atoms: N2_35  and  C13_10 
REMARK    5  A    between atoms: C14_11  and  C15_12 
REMARK    6  A    between atoms: C15_12  and  N3_36 
REMARK    7  A    between atoms: O2_29  and  C20_15 
REMARK    8  A    between atoms: C24_18  and  C25_26 
REMARK    9  A    between atoms: C23_27  and  C24_18 
REMARK   10  A    between atoms: N4_28  and  C23_27 
REMARK   11  A    between atoms: C4_30  and  O2_29 
ROOT
ATOM      1  C1  6T1 d   1     -12.630 -56.373 -26.377  0.00  0.00    -0.082 A 
ATOM      2  C2  6T1 d   1     -12.224 -57.682 -26.559  0.00  0.00    -0.080 A 
ATOM      3  C3  6T1 d   1     -13.165 -58.696 -26.684  0.00  0.00    -0.050 A 
ATOM      4  C4  6T1 d   1     -14.523 -58.385 -26.602  0.00  0.00     0.082 A 
ATOM      5  C5  6T1 d   1     -14.958 -57.061 -26.421  0.00  0.00     0.026 A 
ATOM      6  C6  6T1 d   1     -13.982 -56.063 -26.312  0.00  0.00    -0.068 A 
ATOM      7  H1  6T1 d   1     -11.890 -55.586 -26.285  0.00  0.00     0.083 H 
ATOM      8  H2  6T1 d   1     -11.167 -57.918 -26.604  0.00  0.00     0.083 H 
ATOM      9  H3  6T1 d   1     -12.847 -59.720 -26.844  0.00  0.00     0.087 H 
ATOM     10  H30 6T1 d   1     -14.287 -55.032 -26.175  0.00  0.00     0.085 H 
ENDROOT
BRANCH   5  11
ATOM     11  C7  6T1 d   1     -16.394 -56.683 -26.333  0.00  0.00     0.070 A 
ATOM     12  C8  6T1 d   1     -16.848 -55.765 -25.385  0.00  0.00    -0.039 A 
ATOM     13  C9  6T1 d   1     -18.201 -55.444 -25.350  0.00  0.00     0.035 A 
ATOM     14  H4  6T1 d   1     -16.156 -55.309 -24.686  0.00  0.00     0.088 H 
ATOM     15  C10 6T1 d   1     -19.066 -56.095 -26.219  0.00  0.00    -0.051 A 
ATOM     16  C11 6T1 d   1     -18.537 -56.994 -27.123  0.00  0.00     0.004 A 
ATOM     17  H5  6T1 d   1     -20.132 -55.902 -26.188  0.00  0.00     0.087 H 
ATOM     18  N1  6T1 d   1     -17.223 -57.278 -27.210  0.00  0.00    -0.260 NA
ATOM     19  H6  6T1 d   1     -19.216 -57.499 -27.800  0.00  0.00     0.114 H 
BRANCH  13  20
ATOM     20  C12 6T1 d   1     -18.662 -54.361 -24.433  0.00  0.00     0.251 C 
ATOM     21  O1  6T1 d   1     -17.945 -53.393 -24.187  0.00  0.00    -0.268 OA
ATOM     22  N2  6T1 d   1     -19.857 -54.535 -23.861  0.00  0.00    -0.357 N 
ATOM     23  H31 6T1 d   1     -20.442 -55.279 -24.184  0.00  0.00     0.162 HD
BRANCH  22  24
ATOM     24  C13 6T1 d   1     -20.338 -53.682 -22.786  0.00  0.00    -0.003 C 
ATOM     25  H7  6T1 d   1     -19.903 -52.678 -22.900  0.00  0.00     0.064 H 
ATOM     26  H8  6T1 d   1     -21.434 -53.615 -22.842  0.00  0.00     0.064 H 
BRANCH  24  27
ATOM     27  C14 6T1 d   1     -19.944 -54.242 -21.441  0.00  0.00    -0.028 C 
ATOM     28  H9  6T1 d   1     -20.498 -55.179 -21.283  0.00  0.00     0.037 H 
ATOM     29  H10 6T1 d   1     -20.228 -53.513 -20.668  0.00  0.00     0.037 H 
BRANCH  27  30
ATOM     30  C15 6T1 d   1     -18.452 -54.538 -21.293  0.00  0.00     0.085 C 
ATOM     31  H11 6T1 d   1     -17.895 -53.634 -21.582  0.00  0.00     0.076 H 
ATOM     32  H12 6T1 d   1     -18.198 -55.360 -21.979  0.00  0.00     0.076 H 
BRANCH  30  33
ATOM     33  N3  6T1 d   1     -18.027 -54.921 -19.952  0.00  0.00    -0.071 N 
ATOM     34  C16 6T1 d   1     -18.473 -56.239 -19.477  0.00  0.00     0.084 C 
ATOM     35  C17 6T1 d   1     -17.568 -56.517 -18.292  0.00  0.00    -0.041 C 
ATOM     36  H13 6T1 d   1     -18.343 -57.002 -20.258  0.00  0.00     0.076 H 
ATOM     37  H14 6T1 d   1     -19.528 -56.208 -19.167  0.00  0.00     0.076 H 
ATOM     38  C18 6T1 d   1     -16.418 -55.560 -18.390  0.00  0.00    -0.041 C 
ATOM     39  H35 6T1 d   1     -17.202 -57.554 -18.330  0.00  0.00     0.035 H 
ATOM     40  H36 6T1 d   1     -18.115 -56.356 -17.352  0.00  0.00     0.035 H 
ATOM     41  C19 6T1 d   1     -16.577 -54.944 -19.757  0.00  0.00     0.084 C 
ATOM     42  H33 6T1 d   1     -16.479 -54.792 -17.605  0.00  0.00     0.035 H 
ATOM     43  H34 6T1 d   1     -15.458 -56.091 -18.309  0.00  0.00     0.035 H 
ATOM     44  H15 6T1 d   1     -16.160 -53.926 -19.781  0.00  0.00     0.076 H 
ATOM     45  H16 6T1 d   1     -16.086 -55.559 -20.525  0.00  0.00     0.076 H 
ATOM     46  H32 6T1 d   1     -18.415 -54.225 -19.334  0.00  0.00     0.279 HD
ENDBRANCH  30  33
ENDBRANCH  27  30
ENDBRANCH  24  27
ENDBRANCH  22  24
ENDBRANCH  13  20
ENDBRANCH   5  11
BRANCH   4  47
ATOM     47  O2  6T1 d   1     -15.522 -59.346 -26.613  0.00  0.00    -0.342 OA
BRANCH  47  48
ATOM     48  C20 6T1 d   1     -15.854 -60.017 -27.873  0.00  0.00     0.091 C 
ATOM     49  C21 6T1 d   1     -17.346 -60.255 -28.093  0.00  0.00     0.109 C 
ATOM     50  N4  6T1 d   1     -17.149 -61.630 -27.550  0.00  0.00    -0.066 N 
ATOM     51  H18 6T1 d   1     -17.665 -60.220 -29.145  0.00  0.00     0.080 H 
ATOM     52  H19 6T1 d   1     -18.005 -59.615 -27.489  0.00  0.00     0.080 H 
ATOM     53  C22 6T1 d   1     -15.719 -61.543 -27.830  0.00  0.00     0.109 C 
ATOM     54  H29 6T1 d   1     -17.379 -62.101 -28.411  0.00  0.00     0.280 HD
ATOM     55  H20 6T1 d   1     -15.075 -61.919 -27.022  0.00  0.00     0.080 H 
ATOM     56  H21 6T1 d   1     -15.415 -61.999 -28.784  0.00  0.00     0.080 H 
ATOM     57  H17 6T1 d   1     -15.332 -59.524 -28.706  0.00  0.00     0.089 H 
BRANCH  50  58
ATOM     58  C23 6T1 d   1     -18.022 -62.606 -26.875  0.00  0.00     0.087 C 
ATOM     59  H27 6T1 d   1     -17.948 -62.440 -25.790  0.00  0.00     0.076 H 
ATOM     60  H28 6T1 d   1     -19.056 -62.426 -27.204  0.00  0.00     0.076 H 
BRANCH  58  61
ATOM     61  C24 6T1 d   1     -17.678 -64.072 -27.158  0.00  0.00    -0.018 C 
ATOM     62  H22 6T1 d   1     -18.589 -64.672 -27.014  0.00  0.00     0.042 H 
ATOM     63  H23 6T1 d   1     -17.349 -64.151 -28.204  0.00  0.00     0.042 H 
BRANCH  61  64
ATOM     64  C25 6T1 d   1     -16.590 -64.646 -26.276  0.00  0.00    -0.055 A 
ATOM     65  C30 6T1 d   1     -15.485 -65.261 -26.857  0.00  0.00    -0.054 A 
ATOM     66  C29 6T1 d   1     -14.536 -65.887 -26.070  0.00  0.00     0.056 A 
ATOM     67  H25 6T1 d   1     -15.367 -65.249 -27.934  0.00  0.00     0.086 H 
ATOM     68  C28 6T1 d   1     -14.657 -65.882 -24.682  0.00  0.00     0.055 A 
ATOM     69 CL1  6T1 d   1     -13.230 -66.724 -26.851  0.00  0.00    -0.083 Cl
ATOM     70  C27 6T1 d   1     -15.756 -65.271 -24.091  0.00  0.00    -0.060 A 
ATOM     71 CL2  6T1 d   1     -13.414 -66.553 -23.673  0.00  0.00    -0.083 Cl
ATOM     72  C26 6T1 d   1     -16.709 -64.656 -24.885  0.00  0.00    -0.075 A 
ATOM     73  H24 6T1 d   1     -15.867 -65.276 -23.013  0.00  0.00     0.086 H 
ATOM     74  H26 6T1 d   1     -17.561 -64.174 -24.419  0.00  0.00     0.084 H 
ENDBRANCH  61  64
ENDBRANCH  58  61
ENDBRANCH  50  58
ENDBRANCH  47  48
ENDBRANCH   4  47
TORSDOF 11
