REMARK  10 active torsions:
REMARK  status: ('A' for Active; 'I' for Inactive)
REMARK    1  A    between atoms: C5_26  and  C7_4 
REMARK    2  A    between atoms: C9_6  and  C16_10 
REMARK       I    between atoms: C16_10  and  N18_12 
REMARK    3  A    between atoms: N18_12  and  C19_13 
REMARK    4  A    between atoms: C19_13  and  C20_14 
REMARK    5  A    between atoms: C20_14  and  C21_15 
REMARK    6  A    between atoms: C21_15  and  N22_39 
REMARK    7  A    between atoms: C33_19  and  C34_20 
REMARK    8  A    between atoms: N30_40  and  C33_19 
REMARK    9  A    between atoms: C34_20  and  C35_21 
REMARK   10  A    between atoms: N27_38  and  C4_27 
ROOT
ATOM      1  C1  6TM d   1     -55.994  12.491  -0.115  0.00  0.00    -0.082 A 
ATOM      2  C2  6TM d   1     -57.253  12.021  -0.399  0.00  0.00    -0.081 A 
ATOM      3  C3  6TM d   1     -58.291  12.897  -0.674  0.00  0.00    -0.061 A 
ATOM      4  C6  6TM d   1     -55.751  13.839  -0.148  0.00  0.00    -0.069 A 
ATOM      5  C5  6TM d   1     -56.757  14.749  -0.405  0.00  0.00     0.014 A 
ATOM      6  C4  6TM d   1     -58.050  14.269  -0.692  0.00  0.00     0.023 A 
ATOM      7  H1  6TM d   1     -55.197  11.799   0.134  0.00  0.00     0.083 H 
ATOM      8  H2  6TM d   1     -57.437  10.953  -0.408  0.00  0.00     0.083 H 
ATOM      9  H3  6TM d   1     -59.286  12.516  -0.874  0.00  0.00     0.086 H 
ATOM     10  H23 6TM d   1     -54.745  14.200   0.032  0.00  0.00     0.085 H 
ENDROOT
BRANCH   5  11
ATOM     11  C7  6TM d   1     -56.392  16.174  -0.402  0.00  0.00     0.072 A 
ATOM     12  C8  6TM d   1     -55.472  16.748   0.587  0.00  0.00    -0.038 A 
ATOM     13  C9  6TM d   1     -55.198  18.123   0.491  0.00  0.00     0.049 A 
ATOM     14  H4  6TM d   1     -55.022  16.136   1.360  0.00  0.00     0.088 H 
ATOM     15  C10 6TM d   1     -55.795  18.866  -0.515  0.00  0.00     0.046 A 
ATOM     16  C11 6TM d   1     -55.767  20.212  -0.917  0.00  0.00     0.011 A 
ATOM     17  C14 6TM d   1     -56.641  18.233  -1.391  0.00  0.00     0.182 A 
ATOM     18  N12 6TM d   1     -56.553  20.392  -1.980  0.00  0.00    -0.286 N 
ATOM     19  H5  6TM d   1     -55.187  20.995  -0.431  0.00  0.00     0.115 H 
ATOM     20  N13 6TM d   1     -57.092  19.148  -2.265  0.00  0.00    -0.154 NA
ATOM     21  H37 6TM d   1     -56.724  21.274  -2.485  0.00  0.00     0.188 HD
ATOM     22  N15 6TM d   1     -56.962  16.944  -1.382  0.00  0.00    -0.226 NA
BRANCH  13  23
ATOM     23  C16 6TM d   1     -54.274  18.689   1.487  0.00  0.00     0.252 C 
ATOM     24  O17 6TM d   1     -53.230  18.084   1.706  0.00  0.00    -0.268 OA
ATOM     25  N18 6TM d   1     -54.677  19.793   2.118  0.00  0.00    -0.357 N 
ATOM     26  H6  6TM d   1     -55.514  20.253   1.823  0.00  0.00     0.162 HD
BRANCH  25  27
ATOM     27  C19 6TM d   1     -53.919  20.331   3.222  0.00  0.00    -0.003 C 
ATOM     28  H7  6TM d   1     -53.888  21.427   3.136  0.00  0.00     0.064 H 
ATOM     29  H8  6TM d   1     -52.895  19.931   3.183  0.00  0.00     0.064 H 
BRANCH  27  30
ATOM     30  C20 6TM d   1     -54.543  19.959   4.545  0.00  0.00    -0.028 C 
ATOM     31  H9  6TM d   1     -55.516  20.465   4.632  0.00  0.00     0.037 H 
ATOM     32  H10 6TM d   1     -53.880  20.297   5.355  0.00  0.00     0.037 H 
BRANCH  30  33
ATOM     33  C21 6TM d   1     -54.758  18.468   4.683  0.00  0.00     0.085 C 
ATOM     34  H11 6TM d   1     -53.843  17.945   4.369  0.00  0.00     0.076 H 
ATOM     35  H12 6TM d   1     -55.594  18.166   4.035  0.00  0.00     0.076 H 
BRANCH  33  36
ATOM     36  N22 6TM d   1     -55.071  18.091   6.073  0.00  0.00    -0.071 N 
ATOM     37  C23 6TM d   1     -55.023  16.631   6.298  0.00  0.00     0.084 C 
ATOM     38  C24 6TM d   1     -55.618  16.483   7.664  0.00  0.00    -0.041 C 
ATOM     39  H29 6TM d   1     -55.620  16.095   5.546  0.00  0.00     0.076 H 
ATOM     40  H30 6TM d   1     -53.987  16.261   6.275  0.00  0.00     0.076 H 
ATOM     41  C25 6TM d   1     -56.584  17.646   7.797  0.00  0.00    -0.041 C 
ATOM     42  H13 6TM d   1     -56.151  15.525   7.752  0.00  0.00     0.035 H 
ATOM     43  H14 6TM d   1     -54.836  16.540   8.435  0.00  0.00     0.035 H 
ATOM     44  C26 6TM d   1     -56.395  18.531   6.585  0.00  0.00     0.084 C 
ATOM     45  H27 6TM d   1     -56.366  18.213   8.714  0.00  0.00     0.035 H 
ATOM     46  H28 6TM d   1     -57.618  17.273   7.833  0.00  0.00     0.035 H 
ATOM     47  H31 6TM d   1     -56.380  19.594   6.867  0.00  0.00     0.076 H 
ATOM     48  H32 6TM d   1     -57.186  18.361   5.840  0.00  0.00     0.076 H 
ATOM     49  H38 6TM d   1     -54.364  18.522   6.647  0.00  0.00     0.279 HD
ENDBRANCH  33  36
ENDBRANCH  30  33
ENDBRANCH  27  30
ENDBRANCH  25  27
ENDBRANCH  13  23
ENDBRANCH   5  11
BRANCH   6  50
ATOM     50  N27 6TM d   1     -59.098  15.202  -0.980  0.00  0.00    -0.280 NA
ATOM     51  C32 6TM d   1     -59.696  15.794   0.202  0.00  0.00     0.006 C 
ATOM     52  C31 6TM d   1     -60.541  16.988  -0.185  0.00  0.00     0.095 C 
ATOM     53  H17 6TM d   1     -60.330  15.047   0.702  0.00  0.00     0.058 H 
ATOM     54  H18 6TM d   1     -58.900  16.119   0.888  0.00  0.00     0.058 H 
ATOM     55  N30 6TM d   1     -61.602  16.617  -1.131  0.00  0.00    -0.069 N 
ATOM     56  H15 6TM d   1     -59.895  17.746  -0.653  0.00  0.00     0.077 H 
ATOM     57  H16 6TM d   1     -61.002  17.408   0.721  0.00  0.00     0.077 H 
ATOM     58  C29 6TM d   1     -61.008  15.961  -2.305  0.00  0.00     0.095 C 
ATOM     59  H39 6TM d   1     -62.228  15.969  -0.680  0.00  0.00     0.280 HD
ATOM     60  C28 6TM d   1     -60.115  14.768  -1.948  0.00  0.00     0.006 C 
ATOM     61  H35 6TM d   1     -61.821  15.606  -2.955  0.00  0.00     0.077 H 
ATOM     62  H36 6TM d   1     -60.401  16.701  -2.848  0.00  0.00     0.077 H 
ATOM     63  H33 6TM d   1     -59.622  14.392  -2.857  0.00  0.00     0.058 H 
ATOM     64  H34 6TM d   1     -60.727  13.969  -1.505  0.00  0.00     0.058 H 
BRANCH  55  65
ATOM     65  C33 6TM d   1     -62.378  17.824  -1.540  0.00  0.00     0.087 C 
ATOM     66  H19 6TM d   1     -62.232  18.591  -0.765  0.00  0.00     0.076 H 
ATOM     67  H20 6TM d   1     -61.959  18.181  -2.493  0.00  0.00     0.076 H 
BRANCH  65  68
ATOM     68  C34 6TM d   1     -63.878  17.648  -1.735  0.00  0.00    -0.018 C 
ATOM     69  H21 6TM d   1     -64.036  17.218  -2.735  0.00  0.00     0.042 H 
ATOM     70  H22 6TM d   1     -64.340  18.645  -1.687  0.00  0.00     0.042 H 
BRANCH  68  71
ATOM     71  C35 6TM d   1     -64.584  16.774  -0.749  0.00  0.00    -0.055 A 
ATOM     72  C36 6TM d   1     -64.579  17.064   0.604  0.00  0.00    -0.075 A 
ATOM     73  C37 6TM d   1     -65.253  16.276   1.516  0.00  0.00    -0.060 A 
ATOM     74  H24 6TM d   1     -64.032  17.931   0.957  0.00  0.00     0.084 H 
ATOM     75  C38 6TM d   1     -66.006  15.216   1.056  0.00  0.00     0.055 A 
ATOM     76  H25 6TM d   1     -65.191  16.487   2.577  0.00  0.00     0.086 H 
ATOM     77  C39 6TM d   1     -66.025  14.926  -0.293  0.00  0.00     0.056 A 
ATOM     78 CL1  6TM d   1     -66.840  14.198   2.177  0.00  0.00    -0.083 Cl
ATOM     79  C40 6TM d   1     -65.334  15.706  -1.190  0.00  0.00    -0.054 A 
ATOM     80 CL2  6TM d   1     -66.916  13.581  -0.898  0.00  0.00    -0.083 Cl
ATOM     81  H26 6TM d   1     -65.380  15.479  -2.249  0.00  0.00     0.086 H 
ENDBRANCH  68  71
ENDBRANCH  65  68
ENDBRANCH  55  65
ENDBRANCH   6  50
TORSDOF 10
