REMARK  10 active torsions:
REMARK  status: ('A' for Active; 'I' for Inactive)
REMARK    1  A    between atoms: C29_29  and  N6_4 
REMARK    2  A    between atoms: C7_5  and  C9_7 
REMARK    3  A    between atoms: C9_7  and  C10_8 
REMARK    4  A    between atoms: C10_8  and  N2_36 
REMARK    5  A    between atoms: N3_35  and  C15_13 
REMARK    6  A    between atoms: C20_16  and  C21_17 
REMARK    7  A    between atoms: N5_27  and  C27_20 
REMARK    8  A    between atoms: C27_20  and  C28_28 
REMARK       I    between atoms: C26_26  and  N5_27 
REMARK    9  A    between atoms: C23_30  and  C26_26 
REMARK   10  A    between atoms: C28_28  and  C29_29 
ROOT
ATOM      1  C15 6TL d   1     -56.278 -12.955 -25.714  0.00  0.00     0.021 A 
ATOM      2  C16 6TL d   1     -56.662 -11.609 -25.641  0.00  0.00    -0.061 A 
ATOM      3  C19 6TL d   1     -53.967 -12.238 -25.728  0.00  0.00    -0.070 A 
ATOM      4  C20 6TL d   1     -54.900 -13.285 -25.752  0.00  0.00    -0.003 A 
ATOM      5  C18 6TL d   1     -54.372 -10.911 -25.680  0.00  0.00    -0.082 A 
ATOM      6  C17 6TL d   1     -55.712 -10.600 -25.637  0.00  0.00    -0.081 A 
ATOM      7  H18 6TL d   1     -57.714 -11.354 -25.587  0.00  0.00     0.086 H 
ATOM      8  H19 6TL d   1     -52.908 -12.470 -25.747  0.00  0.00     0.084 H 
ATOM      9  H36 6TL d   1     -53.632 -10.119 -25.676  0.00  0.00     0.083 H 
ATOM     10  H37 6TL d   1     -56.025  -9.563 -25.600  0.00  0.00     0.083 H 
ENDROOT
BRANCH   1  11
ATOM     11  N3  6TL d   1     -57.307 -14.011 -25.734  0.00  0.00    -0.280 NA
ATOM     12  C12 6TL d   1     -57.565 -14.731 -26.992  0.00  0.00     0.006 C 
ATOM     13  C11 6TL d   1     -58.612 -15.843 -26.815  0.00  0.00     0.095 C 
ATOM     14  H12 6TL d   1     -57.931 -14.015 -27.742  0.00  0.00     0.058 H 
ATOM     15  H13 6TL d   1     -56.625 -15.181 -27.343  0.00  0.00     0.058 H 
ATOM     16  N2  6TL d   1     -59.851 -15.316 -26.197  0.00  0.00    -0.069 N 
ATOM     17  H10 6TL d   1     -58.195 -16.630 -26.169  0.00  0.00     0.077 H 
ATOM     18  H11 6TL d   1     -58.855 -16.268 -27.800  0.00  0.00     0.077 H 
ATOM     19  C14 6TL d   1     -59.513 -14.695 -24.911  0.00  0.00     0.095 C 
ATOM     20  H38 6TL d   1     -60.254 -14.627 -26.812  0.00  0.00     0.280 HD
ATOM     21  C13 6TL d   1     -58.552 -13.555 -25.105  0.00  0.00     0.006 C 
ATOM     22  H16 6TL d   1     -60.432 -14.316 -24.441  0.00  0.00     0.077 H 
ATOM     23  H17 6TL d   1     -59.051 -15.449 -24.257  0.00  0.00     0.077 H 
ATOM     24  H14 6TL d   1     -58.318 -13.113 -24.125  0.00  0.00     0.058 H 
ATOM     25  H15 6TL d   1     -59.021 -12.796 -25.748  0.00  0.00     0.058 H 
BRANCH  16  26
ATOM     26  C10 6TL d   1     -60.848 -16.378 -25.942  0.00  0.00     0.087 C 
ATOM     27  H8  6TL d   1     -60.314 -17.334 -25.842  0.00  0.00     0.076 H 
ATOM     28  H9  6TL d   1     -61.364 -16.146 -24.999  0.00  0.00     0.076 H 
BRANCH  26  29
ATOM     29  C9  6TL d   1     -61.897 -16.531 -27.034  0.00  0.00    -0.016 C 
ATOM     30  H6  6TL d   1     -61.393 -16.955 -27.915  0.00  0.00     0.042 H 
ATOM     31  H7  6TL d   1     -62.652 -17.241 -26.666  0.00  0.00     0.042 H 
BRANCH  29  32
ATOM     32  C7  6TL d   1     -62.628 -15.297 -27.488  0.00  0.00    -0.029 A 
ATOM     33  C8  6TL d   1     -62.728 -14.837 -28.768  0.00  0.00    -0.015 A 
ATOM     34  N1  6TL d   1     -63.575 -13.761 -28.824  0.00  0.00    -0.365 N 
ATOM     35  H5  6TL d   1     -62.208 -15.264 -29.624  0.00  0.00     0.112 H 
ATOM     36  C4  6TL d   1     -64.036 -13.491 -27.558  0.00  0.00     0.042 A 
ATOM     37  H40 6TL d   1     -63.825 -13.240 -29.676  0.00  0.00     0.165 HD
ATOM     38  C3  6TL d   1     -64.900 -12.500 -27.100  0.00  0.00    -0.056 A 
ATOM     39  C5  6TL d   1     -63.468 -14.446 -26.689  0.00  0.00    -0.002 A 
ATOM     40  C2  6TL d   1     -65.225 -12.486 -25.750  0.00  0.00    -0.081 A 
ATOM     41  H3  6TL d   1     -65.308 -11.760 -27.779  0.00  0.00     0.086 H 
ATOM     42  C1  6TL d   1     -64.691 -13.431 -24.877  0.00  0.00    -0.082 A 
ATOM     43  H2  6TL d   1     -65.903 -11.730 -25.371  0.00  0.00     0.083 H 
ATOM     44  C6  6TL d   1     -63.813 -14.407 -25.335  0.00  0.00    -0.070 A 
ATOM     45  H1  6TL d   1     -64.963 -13.405 -23.828  0.00  0.00     0.083 H 
ATOM     46  H39 6TL d   1     -63.398 -15.134 -24.646  0.00  0.00     0.084 H 
ENDBRANCH  29  32
ENDBRANCH  26  29
ENDBRANCH  16  26
ENDBRANCH   1  11
BRANCH   4  47
ATOM     47  C21 6TL d   1     -54.360 -14.676 -25.810  0.00  0.00    -0.006 A 
ATOM     48  C22 6TL d   1     -53.410 -15.027 -26.775  0.00  0.00    -0.054 A 
ATOM     49  C23 6TL d   1     -52.859 -16.301 -26.810  0.00  0.00     0.050 A 
ATOM     50  H20 6TL d   1     -53.099 -14.292 -27.508  0.00  0.00     0.086 H 
ATOM     51  C24 6TL d   1     -53.287 -17.204 -25.848  0.00  0.00     0.017 A 
ATOM     52  N4  6TL d   1     -54.213 -16.917 -24.924  0.00  0.00    -0.271 NA
ATOM     53  H21 6TL d   1     -52.848 -18.195 -25.844  0.00  0.00     0.116 H 
ATOM     54  C25 6TL d   1     -54.721 -15.678 -24.915  0.00  0.00     0.013 A 
ATOM     55  H35 6TL d   1     -55.462 -15.440 -24.161  0.00  0.00     0.116 H 
BRANCH  49  56
ATOM     56  C26 6TL d   1     -51.900 -16.701 -27.888  0.00  0.00     0.253 C 
ATOM     57  O   6TL d   1     -50.954 -15.978 -28.207  0.00  0.00    -0.268 OA
ATOM     58  N5  6TL d   1     -52.158 -17.857 -28.508  0.00  0.00    -0.357 N 
ATOM     59  H30 6TL d   1     -52.916 -18.415 -28.169  0.00  0.00     0.162 HD
BRANCH  58  60
ATOM     60  C27 6TL d   1     -51.398 -18.351 -29.649  0.00  0.00    -0.003 C 
ATOM     61  H22 6TL d   1     -51.786 -19.342 -29.926  0.00  0.00     0.064 H 
ATOM     62  H23 6TL d   1     -50.342 -18.440 -29.355  0.00  0.00     0.064 H 
BRANCH  60  63
ATOM     63  C28 6TL d   1     -51.487 -17.446 -30.853  0.00  0.00    -0.028 C 
ATOM     64  H31 6TL d   1     -51.149 -18.017 -31.730  0.00  0.00     0.037 H 
ATOM     65  H32 6TL d   1     -50.810 -16.595 -30.687  0.00  0.00     0.037 H 
BRANCH  63  66
ATOM     66  C29 6TL d   1     -52.866 -16.892 -31.160  0.00  0.00     0.086 C 
ATOM     67  H33 6TL d   1     -53.587 -17.722 -31.159  0.00  0.00     0.076 H 
ATOM     68  H34 6TL d   1     -53.138 -16.169 -30.377  0.00  0.00     0.076 H 
BRANCH  66  69
ATOM     69  N6  6TL d   1     -52.926 -16.222 -32.455  0.00  0.00    -0.065 N 
ATOM     70  C30 6TL d   1     -54.143 -16.526 -33.212  0.00  0.00     0.099 C 
ATOM     71  C31 6TL d   1     -54.289 -15.342 -34.118  0.00  0.00    -0.080 C 
ATOM     72  H24 6TL d   1     -55.011 -16.619 -32.542  0.00  0.00     0.082 H 
ATOM     73  H25 6TL d   1     -54.026 -17.454 -33.791  0.00  0.00     0.082 H 
ATOM     74  C32 6TL d   1     -53.571 -14.332 -33.639  0.00  0.00    -0.080 C 
ATOM     75  H26 6TL d   1     -54.889 -15.314 -35.026  0.00  0.00     0.079 H 
ATOM     76  C33 6TL d   1     -52.919 -14.760 -32.362  0.00  0.00     0.099 C 
ATOM     77  H27 6TL d   1     -53.473 -13.351 -34.101  0.00  0.00     0.079 H 
ATOM     78  H28 6TL d   1     -51.891 -14.374 -32.295  0.00  0.00     0.082 H 
ATOM     79  H29 6TL d   1     -53.496 -14.418 -31.491  0.00  0.00     0.082 H 
ATOM     80  H4  6TL d   1     -52.123 -16.523 -32.985  0.00  0.00     0.280 HD
ENDBRANCH  66  69
ENDBRANCH  63  66
ENDBRANCH  60  63
ENDBRANCH  58  60
ENDBRANCH  49  56
ENDBRANCH   4  47
TORSDOF 10
