REMARK  8 active torsions:
REMARK  status: ('A' for Active; 'I' for Inactive)
REMARK    1  A    between atoms: O3A_8  and  PB_1 
REMARK    2  A    between atoms: PA_5  and  O3A_8 
REMARK    3  A    between atoms: PA_5  and  O5'_9 
REMARK    4  A    between atoms: O5'_9  and  C5'_10 
REMARK    5  A    between atoms: C5'_10  and  C4'_11 
REMARK    6  A    between atoms: C3'_13  and  O3'_14 
REMARK    7  A    between atoms: C2'_15  and  O2'_16 
REMARK    8  A    between atoms: C1'_17  and  N9_18 
ROOT
ATOM      1  C4' ADP d   1      81.766 104.385  35.825  0.00  0.00     0.089 C 
ATOM      2  O4' ADP d   1      83.138 104.049  35.606  0.00  0.00    -0.353 OA
ATOM      3  C3' ADP d   1      81.729 105.887  36.097  0.00  0.00     0.091 C 
ATOM      4  C2' ADP d   1      83.139 106.189  36.605  0.00  0.00     0.105 C 
ATOM      5  C1' ADP d   1      84.005 105.139  35.935  0.00  0.00     0.139 C 
ATOM      6  H3  ADP d   1      81.360 103.851  36.697  0.00  0.00     0.090 H 
ATOM      7  H4  ADP d   1      81.562 106.422  35.151  0.00  0.00     0.091 H 
ATOM      8  H6  ADP d   1      83.438 107.202  36.298  0.00  0.00     0.093 H 
ATOM      9  H8  ADP d   1      84.800 104.802  36.616  0.00  0.00     0.122 H 
ENDROOT
BRANCH   5  10
ATOM     10  N9  ADP d   1      84.610 105.714  34.700  0.00  0.00    -0.294 N 
ATOM     11  C8  ADP d   1      83.933 106.015  33.561  0.00  0.00     0.071 A 
ATOM     12  N7  ADP d   1      84.772 106.533  32.628  0.00  0.00    -0.236 NA
ATOM     13  H9  ADP d   1      82.865 105.862  33.416  0.00  0.00     0.144 H 
ATOM     14  C5  ADP d   1      86.010 106.572  33.166  0.00  0.00     0.149 A 
ATOM     15  C6  ADP d   1      87.347 107.008  32.711  0.00  0.00     0.155 A 
ATOM     16  C4  ADP d   1      85.906 106.036  34.534  0.00  0.00     0.167 A 
ATOM     17  N6  ADP d   1      87.489 107.508  31.459  0.00  0.00    -0.382 N 
ATOM     18  N1  ADP d   1      88.385 106.886  33.579  0.00  0.00    -0.222 NA
ATOM     19  H10 ADP d   1      88.415 107.816  31.129  0.00  0.00     0.157 HD
ATOM     20  H11 ADP d   1      86.671 107.580  30.837  0.00  0.00     0.157 HD
ATOM     21  C2  ADP d   1      88.231 106.386  34.826  0.00  0.00     0.091 A 
ATOM     22  N3  ADP d   1      87.034 105.967  35.297  0.00  0.00    -0.222 NA
ATOM     23  H12 ADP d   1      89.099 106.318  35.472  0.00  0.00     0.146 H 
ENDBRANCH   5  10
BRANCH   4  24
ATOM     24  O2' ADP d   1      83.289 106.069  38.026  0.00  0.00    -0.388 OA
ATOM     25  H7  ADP d   1      82.700 106.677  38.458  0.00  0.00     0.210 HD
ENDBRANCH   4  24
BRANCH   1  26
ATOM     26  C5' ADP d   1      81.038 103.932  34.576  0.00  0.00     0.058 C 
ATOM     27  H1  ADP d   1      81.552 104.336  33.691  0.00  0.00     0.079 H 
ATOM     28  H2  ADP d   1      81.043 102.833  34.533  0.00  0.00     0.079 H 
BRANCH  26  29
ATOM     29  O5' ADP d   1      79.700 104.390  34.585  0.00  0.00    -0.287 OA
BRANCH  29  30
ATOM     30  PA  ADP d   1      78.971 104.814  33.198  0.00  0.00     0.418 P 
ATOM     31  O1A ADP d   1      79.988 104.984  32.086  0.00  0.00    -0.624 OA
ATOM     32  O2A ADP d   1      77.760 103.915  32.997  0.00  0.00    -0.624 OA
BRANCH  30  33
ATOM     33  O3A ADP d   1      78.430 106.302  33.574  0.00  0.00    -0.173 OA
BRANCH  33  34
ATOM     34  PB  ADP d   1      77.640 106.657  34.949  0.00  0.00     0.431 P 
ATOM     35  O1B ADP d   1      77.403 108.152  34.866  0.00  0.00    -0.616 OA
ATOM     36  O2B ADP d   1      78.574 106.277  36.081  0.00  0.00    -0.616 OA
ATOM     37  O3B ADP d   1      76.391 105.806  34.872  0.00  0.00    -0.616 OA
ENDBRANCH  33  34
ENDBRANCH  30  33
ENDBRANCH  29  30
ENDBRANCH  26  29
ENDBRANCH   1  26
BRANCH   3  38
ATOM     38  O3' ADP d   1      80.685 106.291  37.004  0.00  0.00    -0.390 OA
ATOM     39  H5  ADP d   1      79.841 106.050  36.641  0.00  0.00     0.210 HD
ENDBRANCH   3  38
TORSDOF 8
