REMARK  9 active torsions:
REMARK  status: ('A' for Active; 'I' for Inactive)
REMARK    1  A    between atoms: C4_1  and  NAK_15 
REMARK    2  A    between atoms: OBA_7  and  CBB_6 
REMARK    3  A    between atoms: CAG_8  and  OBA_7 
REMARK    4  A    between atoms: CAH_10  and  OAY_11 
REMARK    5  A    between atoms: OAY_11  and  CAZ_12 
REMARK    6  A    between atoms: NAK_15  and  CAL_16 
REMARK    7  A    between atoms: CAQ_17  and  CBC_18 
REMARK    8  A    between atoms: CAO_22  and  OAR_23 
REMARK    9  A    between atoms: OAR_23  and  CAS_24 
ROOT
ATOM      1  CAL 6U7 d   1     -68.413  54.539  -8.752  0.00  0.00     0.039 A 
ATOM      2  CAQ 6U7 d   1     -68.748  54.892 -10.056  0.00  0.00    -0.033 A 
ATOM      3  CAP 6U7 d   1     -67.774  54.849 -11.044  0.00  0.00    -0.042 A 
ATOM      4  CAM 6U7 d   1     -67.116  54.158  -8.430  0.00  0.00    -0.054 A 
ATOM      5  CAN 6U7 d   1     -66.144  54.121  -9.425  0.00  0.00    -0.048 A 
ATOM      6  CAO 6U7 d   1     -66.477  54.458 -10.736  0.00  0.00     0.076 A 
ATOM      7  H14 6U7 d   1     -68.027  55.122 -12.062  0.00  0.00     0.088 H 
ATOM      8  H15 6U7 d   1     -66.863  53.891  -7.410  0.00  0.00     0.087 H 
ATOM      9  H16 6U7 d   1     -65.129  53.830  -9.181  0.00  0.00     0.087 H 
ENDROOT
BRANCH   1  10
ATOM     10  NAK 6U7 d   1     -69.376  54.605  -7.832  0.00  0.00    -0.340 N 
ATOM     11  H10 6U7 d   1     -69.554  55.484  -7.325  0.00  0.00     0.167 HD
BRANCH  10  12
ATOM     12  C4  6U7 d   1     -70.104  53.520  -7.577  0.00  0.00     0.142 A 
ATOM     13  C5  6U7 d   1     -70.923  53.587  -6.455  0.00  0.00     0.042 A 
ATOM     14  C6  6U7 d   1     -71.723  52.498  -6.118  0.00  0.00     0.075 A 
ATOM     15  CAC 6U7 d   1     -70.937  54.738  -5.671  0.00  0.00    -0.032 A 
ATOM     16  N1  6U7 d   1     -71.701  51.396  -6.881  0.00  0.00    -0.241 NA
ATOM     17  CAF 6U7 d   1     -72.545  52.552  -4.995  0.00  0.00    -0.019 A 
ATOM     18  C2  6U7 d   1     -70.875  51.335  -8.014  0.00  0.00     0.089 A 
ATOM     19  N3  6U7 d   1     -70.070  52.429  -8.352  0.00  0.00    -0.224 NA
ATOM     20  H9  6U7 d   1     -70.861  50.441  -8.627  0.00  0.00     0.146 H 
ATOM     21  CAG 6U7 d   1     -72.557  53.705  -4.216  0.00  0.00     0.103 A 
ATOM     22  H4  6U7 d   1     -73.168  51.705  -4.731  0.00  0.00     0.091 H 
ATOM     23  CAH 6U7 d   1     -71.758  54.787  -4.550  0.00  0.00     0.102 A 
ATOM     24  H8  6U7 d   1     -70.315  55.586  -5.932  0.00  0.00     0.089 H 
BRANCH  21  25
ATOM     25  OBA 6U7 d   1     -73.325  53.850  -3.101  0.00  0.00    -0.353 OA
BRANCH  25  26
ATOM     26  CBB 6U7 d   1     -74.525  53.077  -3.191  0.00  0.00     0.010 C 
ATOM     27  H1  6U7 d   1     -75.121  53.217  -2.277  0.00  0.00     0.066 H 
ATOM     28  H2  6U7 d   1     -74.268  52.013  -3.303  0.00  0.00     0.066 H 
ATOM     29  H3  6U7 d   1     -75.109  53.407  -4.063  0.00  0.00     0.066 H 
ENDBRANCH  25  26
ENDBRANCH  21  25
BRANCH  23  30
ATOM     30  OAY 6U7 d   1     -71.837  55.870  -3.725  0.00  0.00    -0.353 OA
BRANCH  30  31
ATOM     31  CAZ 6U7 d   1     -70.575  56.538  -3.624  0.00  0.00     0.010 C 
ATOM     32  H5  6U7 d   1     -70.671  57.405  -2.954  0.00  0.00     0.066 H 
ATOM     33  H6  6U7 d   1     -70.260  56.879  -4.621  0.00  0.00     0.066 H 
ATOM     34  H7  6U7 d   1     -69.824  55.843  -3.220  0.00  0.00     0.066 H 
ENDBRANCH  30  31
ENDBRANCH  23  30
ENDBRANCH  10  12
ENDBRANCH   1  10
BRANCH   2  35
ATOM     35  CBC 6U7 d   1     -70.039  55.281 -10.390  0.00  0.00    -0.049 C 
ATOM     36  H11 6U7 d   1     -70.085  55.515 -11.464  0.00  0.00     0.033 H 
ATOM     37  H12 6U7 d   1     -70.315  56.173  -9.808  0.00  0.00     0.033 H 
ATOM     38  H13 6U7 d   1     -70.739  54.463 -10.162  0.00  0.00     0.033 H 
ENDBRANCH   2  35
BRANCH   6  39
ATOM     39  OAR 6U7 d   1     -65.543  54.440 -11.728  0.00  0.00    -0.311 OA
BRANCH  39  40
ATOM     40  CAS 6U7 d   1     -65.033  53.215 -12.036  0.00  0.00     0.076 A 
ATOM     41  CAT 6U7 d   1     -63.727  53.139 -12.502  0.00  0.00    -0.050 A 
ATOM     42  CAU 6U7 d   1     -63.172  51.910 -12.832  0.00  0.00    -0.080 A 
ATOM     43  H17 6U7 d   1     -63.139  54.043 -12.608  0.00  0.00     0.087 H 
ATOM     44  CAV 6U7 d   1     -63.930  50.753 -12.700  0.00  0.00    -0.083 A 
ATOM     45  H18 6U7 d   1     -62.151  51.853 -13.191  0.00  0.00     0.083 H 
ATOM     46  CAW 6U7 d   1     -65.240  50.825 -12.239  0.00  0.00    -0.080 A 
ATOM     47  H19 6U7 d   1     -63.499  49.792 -12.957  0.00  0.00     0.083 H 
ATOM     48  CAX 6U7 d   1     -65.794  52.056 -11.910  0.00  0.00    -0.050 A 
ATOM     49  H20 6U7 d   1     -65.829  49.921 -12.136  0.00  0.00     0.083 H 
ATOM     50  H21 6U7 d   1     -66.817  52.114 -11.556  0.00  0.00     0.087 H 
ENDBRANCH  39  40
ENDBRANCH   6  39
TORSDOF 9
