REMARK  7 active torsions:
REMARK  status: ('A' for Active; 'I' for Inactive)
REMARK    1  A    between atoms: S2_12  and  C1_1 
REMARK    2  A    between atoms: C6_2  and  N5_15 
REMARK    3  A    between atoms: C12_6  and  C10_17 
REMARK    4  A    between atoms: C13_18  and  C12_6 
REMARK    5  A    between atoms: C18_7  and  C21_8 
REMARK    6  A    between atoms: N5_15  and  S2_12 
REMARK       I    between atoms: N15_20  and  C13_18 
REMARK    7  A    between atoms: C16_21  and  N15_20 
ROOT
ATOM      1  C13 6U1 d   1      52.000 104.825  31.770  0.00  0.00     0.227 C 
ATOM      2  O14 6U1 d   1      51.855 106.005  31.526  0.00  0.00    -0.273 OA
ATOM      3  N15 6U1 d   1      51.798 103.895  30.818  0.00  0.00    -0.305 N 
ATOM      4  H12 6U1 d   1      51.917 102.939  31.085  0.00  0.00     0.171 HD
ENDROOT
BRANCH   1   5
ATOM      5  C12 6U1 d   1      52.382 104.341  33.153  0.00  0.00     0.033 C 
ATOM      6  H7  6U1 d   1      52.546 103.253  33.137  0.00  0.00     0.054 H 
ATOM      7  H8  6U1 d   1      53.301 104.845  33.485  0.00  0.00     0.054 H 
BRANCH   5   8
ATOM      8  C10 6U1 d   1      51.251 104.674  34.085  0.00  0.00    -0.047 A 
ATOM      9  C9  6U1 d   1      50.307 103.721  34.441  0.00  0.00    -0.076 A 
ATOM     10  C8  6U1 d   1      49.255 104.098  35.264  0.00  0.00    -0.080 A 
ATOM     11  H5  6U1 d   1      50.390 102.701  34.083  0.00  0.00     0.084 H 
ATOM     12  C7  6U1 d   1      49.145 105.411  35.722  0.00  0.00    -0.057 A 
ATOM     13  H4  6U1 d   1      48.511 103.365  35.554  0.00  0.00     0.083 H 
ATOM     14  C6  6U1 d   1      50.093 106.376  35.357  0.00  0.00     0.042 A 
ATOM     15  H11 6U1 d   1      48.318 105.687  36.366  0.00  0.00     0.086 H 
ATOM     16  C11 6U1 d   1      51.147 105.982  34.544  0.00  0.00    -0.050 A 
ATOM     17  H6  6U1 d   1      51.902 106.707  34.262  0.00  0.00     0.087 H 
BRANCH  14  18
ATOM     18  N5  6U1 d   1      50.034 107.719  35.761  0.00  0.00    -0.285 N 
ATOM     19  H10 6U1 d   1      49.840 108.426  35.081  0.00  0.00     0.178 HD
BRANCH  18  20
ATOM     20  S2  6U1 d   1      50.280 108.162  37.345  0.00  0.00     0.227 S 
ATOM     21  O3  6U1 d   1      49.337 107.373  38.065  0.00  0.00    -0.206 OA
ATOM     22  O4  6U1 d   1      50.224 109.589  37.333  0.00  0.00    -0.206 OA
BRANCH  20  23
ATOM     23  C1  6U1 d   1      51.946 107.618  37.835  0.00  0.00     0.033 C 
ATOM     24  H1  6U1 d   1      51.985 106.519  37.843  0.00  0.00     0.051 H 
ATOM     25  H2  6U1 d   1      52.176 108.000  38.840  0.00  0.00     0.051 H 
ATOM     26  H3  6U1 d   1      52.684 108.006  37.118  0.00  0.00     0.051 H 
ENDBRANCH  20  23
ENDBRANCH  18  20
ENDBRANCH  14  18
ENDBRANCH   5   8
ENDBRANCH   1   5
BRANCH   3  27
ATOM     27  C16 6U1 d   1      51.439 104.142  29.495  0.00  0.00     0.173 A 
ATOM     28  N17 6U1 d   1      51.196 103.194  28.657  0.00  0.00    -0.223 NA
ATOM     29  C18 6U1 d   1      50.851 103.542  27.440  0.00  0.00     0.079 A 
ATOM     30  C19 6U1 d   1      50.862 104.865  27.232  0.00  0.00    -0.013 A 
ATOM     31  S20 6U1 d   1      51.292 105.661  28.735  0.00  0.00    -0.061 SA
ATOM     32  H13 6U1 d   1      50.641 105.363  26.289  0.00  0.00     0.098 H 
BRANCH  29  33
ATOM     33  C21 6U1 d   1      50.659 102.560  26.361  0.00  0.00     0.023 A 
ATOM     34  C26 6U1 d   1      50.940 101.130  26.446  0.00  0.00     0.024 A 
ATOM     35  C25 6U1 d   1      50.683 100.610  25.168  0.00  0.00     0.138 A 
ATOM     36  C27 6U1 d   1      51.377 100.286  27.459  0.00  0.00    -0.067 A 
ATOM     37  N23 6U1 d   1      50.282 101.646  24.375  0.00  0.00    -0.349 N 
ATOM     38  N30 6U1 d   1      50.840  99.324  24.936  0.00  0.00    -0.242 NA
ATOM     39  C22 6U1 d   1      50.289 102.814  25.087  0.00  0.00    -0.008 A 
ATOM     40  H15 6U1 d   1      50.013 101.561  23.384  0.00  0.00     0.167 HD
ATOM     41  H14 6U1 d   1      50.036 103.796  24.689  0.00  0.00     0.112 H 
ATOM     42  C29 6U1 d   1      51.282  98.515  25.878  0.00  0.00     0.004 A 
ATOM     43  C28 6U1 d   1      51.556  98.951  27.166  0.00  0.00    -0.065 A 
ATOM     44  H17 6U1 d   1      51.437  97.470  25.637  0.00  0.00     0.114 H 
ATOM     45  H9  6U1 d   1      51.903  98.258  27.924  0.00  0.00     0.085 H 
ATOM     46  H16 6U1 d   1      51.572 100.668  28.455  0.00  0.00     0.085 H 
ENDBRANCH  29  33
ENDBRANCH   3  27
TORSDOF 7
