REMARK  10 active torsions:
REMARK  status: ('A' for Active; 'I' for Inactive)
REMARK    1  A    between atoms: N2_11  and  C1_1 
REMARK    2  A    between atoms: C9_7  and  C8_6 
REMARK    3  A    between atoms: C8_6  and  N5_12 
REMARK    4  A    between atoms: C10_8  and  C9_7 
REMARK    5  A    between atoms: O11_13  and  C10_8 
REMARK    6  A    between atoms: C12_9  and  O11_13 
REMARK    7  A    between atoms: C16_16  and  C18_18 
REMARK    8  A    between atoms: C18_18  and  C19_19 
REMARK       I    between atoms: C19_19  and  N21_21 
REMARK    9  A    between atoms: N21_21  and  C22_22 
REMARK   10  A    between atoms: C24_24  and  C27_27 
ROOT
ATOM      1  C12 6U2 d   1      49.475 106.970  35.398  0.00  0.00     0.069 A 
ATOM      2  C13 6U2 d   1      48.438 106.041  35.495  0.00  0.00    -0.051 A 
ATOM      3  C14 6U2 d   1      48.532 104.807  34.851  0.00  0.00    -0.080 A 
ATOM      4  C15 6U2 d   1      49.661 104.481  34.096  0.00  0.00    -0.076 A 
ATOM      5  C16 6U2 d   1      50.692 105.403  34.001  0.00  0.00    -0.047 A 
ATOM      6  C17 6U2 d   1      50.610 106.639  34.657  0.00  0.00    -0.044 A 
ATOM      7  H18 6U2 d   1      47.554 106.280  36.075  0.00  0.00     0.087 H 
ATOM      8  H21 6U2 d   1      47.720 104.094  34.938  0.00  0.00     0.083 H 
ATOM      9  H22 6U2 d   1      49.730 103.523  33.593  0.00  0.00     0.084 H 
ATOM     10  H23 6U2 d   1      51.433 107.341  34.588  0.00  0.00     0.088 H 
ENDROOT
BRANCH   1  11
ATOM     11  O11 6U2 d   1      49.371 108.092  36.156  0.00  0.00    -0.351 OA
BRANCH  11  12
ATOM     12  C10 6U2 d   1      49.972 109.364  35.886  0.00  0.00     0.028 C 
ATOM     13  H16 6U2 d   1      50.391 109.374  34.869  0.00  0.00     0.075 H 
ATOM     14  H17 6U2 d   1      49.221 110.162  35.981  0.00  0.00     0.075 H 
BRANCH  12  15
ATOM     15  C9  6U2 d   1      51.084 109.568  36.910  0.00  0.00    -0.022 C 
ATOM     16  H14 6U2 d   1      51.126 108.688  37.568  0.00  0.00     0.038 H 
ATOM     17  H15 6U2 d   1      52.041 109.674  36.378  0.00  0.00     0.038 H 
BRANCH  15  18
ATOM     18  C8  6U2 d   1      50.855 110.811  37.765  0.00  0.00     0.086 C 
ATOM     19  H12 6U2 d   1      51.241 110.634  38.780  0.00  0.00     0.076 H 
ATOM     20  H13 6U2 d   1      49.778 111.028  37.815  0.00  0.00     0.076 H 
BRANCH  18  21
ATOM     21  N5  6U2 d   1      51.557 111.955  37.168  0.00  0.00    -0.068 N 
ATOM     22  C4  6U2 d   1      50.627 113.070  36.889  0.00  0.00     0.106 C 
ATOM     23  C3  6U2 d   1      51.382 114.174  36.134  0.00  0.00     0.105 C 
ATOM     24  H6  6U2 d   1      49.791 112.707  36.273  0.00  0.00     0.078 H 
ATOM     25  H7  6U2 d   1      50.237 113.471  37.836  0.00  0.00     0.078 H 
ATOM     26  N2  6U2 d   1      52.593 114.576  36.870  0.00  0.00    -0.072 N 
ATOM     27  H4  6U2 d   1      50.723 115.047  36.019  0.00  0.00     0.078 H 
ATOM     28  H5  6U2 d   1      51.671 113.799  35.141  0.00  0.00     0.078 H 
ATOM     29  C7  6U2 d   1      53.483 113.443  37.189  0.00  0.00     0.105 C 
ATOM     30  H19 6U2 d   1      52.293 114.972  37.747  0.00  0.00     0.279 HD
ATOM     31  C6  6U2 d   1      52.699 112.391  37.984  0.00  0.00     0.106 C 
ATOM     32  H10 6U2 d   1      53.857 112.996  36.256  0.00  0.00     0.078 H 
ATOM     33  H11 6U2 d   1      54.332 113.801  37.790  0.00  0.00     0.078 H 
ATOM     34  H8  6U2 d   1      52.338 112.829  38.926  0.00  0.00     0.078 H 
ATOM     35  H9  6U2 d   1      53.348 111.531  38.205  0.00  0.00     0.078 H 
ATOM     36  H20 6U2 d   1      51.927 111.647  36.282  0.00  0.00     0.280 HD
BRANCH  26  37
ATOM     37  C1  6U2 d   1      53.307 115.627  36.127  0.00  0.00     0.066 C 
ATOM     38  H1  6U2 d   1      52.616 116.454  35.906  0.00  0.00     0.068 H 
ATOM     39  H2  6U2 d   1      53.694 115.212  35.185  0.00  0.00     0.068 H 
ATOM     40  H3  6U2 d   1      54.144 116.001  36.734  0.00  0.00     0.068 H 
ENDBRANCH  26  37
ENDBRANCH  18  21
ENDBRANCH  15  18
ENDBRANCH  12  15
ENDBRANCH  11  12
ENDBRANCH   1  11
BRANCH   5  41
ATOM     41  C18 6U2 d   1      51.922 105.059  33.199  0.00  0.00     0.033 C 
ATOM     42  H24 6U2 d   1      52.113 103.977  33.259  0.00  0.00     0.054 H 
ATOM     43  H25 6U2 d   1      52.789 105.607  33.596  0.00  0.00     0.054 H 
BRANCH  41  44
ATOM     44  C19 6U2 d   1      51.687 105.453  31.766  0.00  0.00     0.227 C 
ATOM     45  O20 6U2 d   1      51.656 106.635  31.457  0.00  0.00    -0.273 OA
ATOM     46  N21 6U2 d   1      51.481 104.438  30.898  0.00  0.00    -0.305 N 
ATOM     47  H26 6U2 d   1      51.502 103.512  31.276  0.00  0.00     0.171 HD
BRANCH  46  48
ATOM     48  C22 6U2 d   1      51.244 104.550  29.536  0.00  0.00     0.173 A 
ATOM     49  N23 6U2 d   1      51.096 103.540  28.739  0.00  0.00    -0.223 NA
ATOM     50  C24 6U2 d   1      50.876 103.811  27.462  0.00  0.00     0.079 A 
ATOM     51  C25 6U2 d   1      50.844 105.125  27.174  0.00  0.00    -0.013 A 
ATOM     52  S26 6U2 d   1      51.134 106.003  28.671  0.00  0.00    -0.061 SA
ATOM     53  H27 6U2 d   1      50.670 105.565  26.193  0.00  0.00     0.098 H 
BRANCH  50  54
ATOM     54  C27 6U2 d   1      50.676 102.756  26.438  0.00  0.00     0.023 A 
ATOM     55  C28 6U2 d   1      50.135 102.913  25.208  0.00  0.00    -0.008 A 
ATOM     56  N29 6U2 d   1      50.116 101.705  24.568  0.00  0.00    -0.349 N 
ATOM     57  H28 6U2 d   1      49.772 103.852  24.794  0.00  0.00     0.112 H 
ATOM     58  C31 6U2 d   1      50.637 100.729  25.359  0.00  0.00     0.138 A 
ATOM     59  H29 6U2 d   1      49.756 101.554  23.615  0.00  0.00     0.167 HD
ATOM     60  C32 6U2 d   1      51.011 101.333  26.575  0.00  0.00     0.024 A 
ATOM     61  N36 6U2 d   1      50.810  99.414  25.171  0.00  0.00    -0.242 NA
ATOM     62  C33 6U2 d   1      51.575 100.549  27.589  0.00  0.00    -0.067 A 
ATOM     63  C34 6U2 d   1      51.725  99.189  27.349  0.00  0.00    -0.065 A 
ATOM     64  H30 6U2 d   1      51.884 100.989  28.530  0.00  0.00     0.085 H 
ATOM     65  C35 6U2 d   1      51.326  98.646  26.122  0.00  0.00     0.004 A 
ATOM     66  H31 6U2 d   1      52.151  98.548  28.112  0.00  0.00     0.085 H 
ATOM     67  H32 6U2 d   1      51.440  97.582  25.946  0.00  0.00     0.114 H 
ENDBRANCH  50  54
ENDBRANCH  46  48
ENDBRANCH  41  44
ENDBRANCH   5  41
TORSDOF 10
