REMARK  12 active torsions:
REMARK  status: ('A' for Active; 'I' for Inactive)
REMARK    1  A    between atoms: C1_1  and  O11_7 
REMARK    2  A    between atoms: C2_2  and  O12_12 
REMARK    3  A    between atoms: C3_3  and  O13_17 
REMARK    4  A    between atoms: C4_4  and  O14_22 
REMARK    5  A    between atoms: C5_5  and  O15_27 
REMARK    6  A    between atoms: C6_6  and  O16_32 
REMARK    7  A    between atoms: O11_7  and  P1_8 
REMARK    8  A    between atoms: O12_12  and  P2_13 
REMARK    9  A    between atoms: O13_17  and  P3_18 
REMARK   10  A    between atoms: O14_22  and  P4_23 
REMARK   11  A    between atoms: O15_27  and  P5_28 
REMARK   12  A    between atoms: O16_32  and  P6_33 
ROOT
ATOM      1  C1  IHP d   1      10.180   7.851 -14.479  0.00  0.00     0.107 C 
ATOM      2  C2  IHP d   1       9.477   6.420 -14.538  0.00  0.00     0.107 C 
ATOM      3  C3  IHP d   1       8.842   5.835 -15.857  0.00  0.00     0.107 C 
ATOM      4  C4  IHP d   1       8.868   6.849 -17.094  0.00  0.00     0.107 C 
ATOM      5  C5  IHP d   1       9.024   8.330 -16.804  0.00  0.00     0.107 C 
ATOM      6  C6  IHP d   1      10.276   8.435 -15.944  0.00  0.00     0.107 C 
ATOM      7  H1  IHP d   1      11.210   7.694 -14.128  0.00  0.00     0.092 H 
ATOM      8  H2  IHP d   1      10.331   5.746 -14.374  0.00  0.00     0.092 H 
ATOM      9  H3  IHP d   1       9.403   4.935 -16.150  0.00  0.00     0.092 H 
ATOM     10  H4  IHP d   1       9.767   6.572 -17.664  0.00  0.00     0.092 H 
ATOM     11  H5  IHP d   1       9.260   8.815 -17.762  0.00  0.00     0.092 H 
ATOM     12  H6  IHP d   1      11.041   7.832 -16.456  0.00  0.00     0.092 H 
ENDROOT
BRANCH   1  13
ATOM     13  O11 IHP d   1       9.618   8.657 -13.615  0.00  0.00    -0.272 OA
BRANCH  13  14
ATOM     14  P1  IHP d   1      10.254   9.451 -12.261  0.00  0.00     0.422 P 
ATOM     15  O21 IHP d   1       9.229   9.447 -11.129  0.00  0.00    -0.617 OA
ATOM     16  O31 IHP d   1      10.572  10.907 -12.617  0.00  0.00    -0.617 OA
ATOM     17  O41 IHP d   1      11.532   8.842 -11.710  0.00  0.00    -0.617 OA
ENDBRANCH  13  14
ENDBRANCH   1  13
BRANCH   2  18
ATOM     18  O12 IHP d   1       8.651   6.181 -13.463  0.00  0.00    -0.272 OA
BRANCH  18  19
ATOM     19  P2  IHP d   1       9.089   4.933 -12.422  0.00  0.00     0.422 P 
ATOM     20  O22 IHP d   1      10.479   5.224 -11.818  0.00  0.00    -0.617 OA
ATOM     21  O32 IHP d   1       8.101   4.684 -11.277  0.00  0.00    -0.617 OA
ATOM     22  O42 IHP d   1       9.266   3.639 -13.253  0.00  0.00    -0.617 OA
ENDBRANCH  18  19
ENDBRANCH   2  18
BRANCH   6  23
ATOM     23  O16 IHP d   1      10.723   9.689 -15.920  0.00  0.00    -0.272 OA
BRANCH  23  24
ATOM     24  P6  IHP d   1      12.300  10.120 -15.873  0.00  0.00     0.422 P 
ATOM     25  O26 IHP d   1      13.138   9.158 -16.713  0.00  0.00    -0.617 OA
ATOM     26  O36 IHP d   1      12.506  11.550 -16.405  0.00  0.00    -0.617 OA
ATOM     27  O46 IHP d   1      12.827  10.097 -14.434  0.00  0.00    -0.617 OA
ENDBRANCH  23  24
ENDBRANCH   6  23
BRANCH   3  28
ATOM     28  O13 IHP d   1       7.649   5.507 -15.554  0.00  0.00    -0.272 OA
BRANCH  28  29
ATOM     29  P3  IHP d   1       6.753   4.080 -15.522  0.00  0.00     0.422 P 
ATOM     30  O23 IHP d   1       7.236   2.935 -14.631  0.00  0.00    -0.617 OA
ATOM     31  O33 IHP d   1       5.541   4.744 -14.872  0.00  0.00    -0.617 OA
ATOM     32  O43 IHP d   1       6.410   3.527 -16.902  0.00  0.00    -0.617 OA
ENDBRANCH  28  29
ENDBRANCH   3  28
BRANCH   5  33
ATOM     33  O15 IHP d   1       7.931   8.974 -16.364  0.00  0.00    -0.272 OA
BRANCH  33  34
ATOM     34  P5  IHP d   1       7.108  10.159 -17.274  0.00  0.00     0.422 P 
ATOM     35  O25 IHP d   1       7.578  10.146 -18.733  0.00  0.00    -0.617 OA
ATOM     36  O35 IHP d   1       5.578   9.890 -17.274  0.00  0.00    -0.617 OA
ATOM     37  O45 IHP d   1       7.335  11.574 -16.732  0.00  0.00    -0.617 OA
ENDBRANCH  33  34
ENDBRANCH   5  33
BRANCH   4  38
ATOM     38  O14 IHP d   1       7.825   6.660 -17.915  0.00  0.00    -0.272 OA
BRANCH  38  39
ATOM     39  P4  IHP d   1       7.918   5.784 -19.276  0.00  0.00     0.422 P 
ATOM     40  O24 IHP d   1       7.864   4.283 -18.985  0.00  0.00    -0.617 OA
ATOM     41  O34 IHP d   1       6.805   6.154 -20.278  0.00  0.00    -0.617 OA
ATOM     42  O44 IHP d   1       9.251   6.050 -20.000  0.00  0.00    -0.617 OA
ENDBRANCH  38  39
ENDBRANCH   4  38
TORSDOF 12
