REMARK WARNING: 32 MAX_TORS EXCEEDED!!!
REMARK  40 active torsions:
REMARK  status: ('A' for Active; 'I' for Inactive)
REMARK    1  A    between atoms: N_1  and  CA_2 
REMARK    2  A    between atoms: CA_2  and  C_3 
REMARK    3  A    between atoms: CA_2  and  CB_5 
REMARK       I    between atoms: C_3  and  N_12 
REMARK    4  A    between atoms: CB_5  and  CG_6 
REMARK    5  A    between atoms: CA_13  and  C_14 
REMARK       I    between atoms: C_14  and  N_19 
REMARK    6  A    between atoms: N_19  and  CA_20 
REMARK    7  A    between atoms: CA_20  and  C_21 
REMARK    8  A    between atoms: CA_20  and  CB_23 
REMARK       I    between atoms: C_21  and  N_24 
REMARK    9  A    between atoms: N_24  and  CA_25 
REMARK   10  A    between atoms: CA_25  and  C_26 
REMARK   11  A    between atoms: CA_25  and  CB_28 
REMARK       I    between atoms: C_26  and  N_33 
REMARK   12  A    between atoms: CB_28  and  CG_29 
REMARK   13  A    between atoms: CG_29  and  CD_30 
REMARK   14  A    between atoms: CD_30  and  CE_31 
REMARK   15  A    between atoms: CE_31  and  NZ_32 
REMARK   16  A    between atoms: N_33  and  CA_34 
REMARK   17  A    between atoms: CA_34  and  C_35 
REMARK   18  A    between atoms: CA_34  and  CB_37 
REMARK       I    between atoms: C_35  and  N_42 
REMARK   19  A    between atoms: CB_37  and  CG_38 
REMARK   20  A    between atoms: CG_38  and  CD_39 
REMARK   21  A    between atoms: CD_39  and  CE_40 
REMARK   22  A    between atoms: CE_40  and  NZ_41 
REMARK   23  A    between atoms: N_42  and  CA_43 
REMARK   24  A    between atoms: CA_43  and  C_44 
REMARK   25  A    between atoms: CA_43  and  CB_46 
REMARK       I    between atoms: C_44  and  N_53 
REMARK   26  A    between atoms: CB_46  and  CG_47 
REMARK   27  A    between atoms: CG_47  and  CD_48 
REMARK   28  A    between atoms: CD_48  and  NE_49 
REMARK       I    between atoms: NE_49  and  CZ_50 
REMARK       I    between atoms: CZ_50  and  NH1_51 
REMARK       I    between atoms: CZ_50  and  NH2_52 
REMARK   29  A    between atoms: N_53  and  CA_54 
REMARK   30  A    between atoms: CA_54  and  C_55 
REMARK   31  A    between atoms: CA_54  and  CB_57 
REMARK       I    between atoms: C_55  and  N_62 
REMARK   32  A    between atoms: CB_57  and  CG_58 
REMARK   33  A    between atoms: CG_58  and  CD_59 
REMARK   34  A    between atoms: CD_59  and  CE_60 
REMARK   35  A    between atoms: CE_60  and  NZ_61 
REMARK   36  A    between atoms: N_62  and  CA_63 
REMARK   37  A    between atoms: CA_63  and  C_64 
REMARK   38  A    between atoms: CA_63  and  CB_66 
REMARK   39  A    between atoms: CB_66  and  CG1_67 
REMARK   40  A    between atoms: CB_66  and  CG2_68 
ROOT
ATOM      1  CA  LYS d   1      -1.187  39.364   8.123  0.00  0.00     0.089 C 
ATOM      2  H38 LYS d   1      -1.811  39.529   7.232  0.00  0.00     0.087 H 
ENDROOT
BRANCH   1   3
ATOM      3  N   LYS d   1       0.054  38.710   7.718  0.00  0.00    -0.346 N 
ATOM      4  C   LYS d   1       0.219  38.088   6.550  0.00  0.00     0.241 C 
ATOM      5  O   LYS d   1      -0.668  38.000   5.697  0.00  0.00    -0.271 OA
ATOM      6  H37 LYS d   1       0.826  38.730   8.354  0.00  0.00     0.163 HD
BRANCH   4   7
ATOM      7  CA  LYS d   1       1.598  37.476   6.326  0.00  0.00     0.089 C 
ATOM      8  H25 LYS d   1       1.969  37.095   7.289  0.00  0.00     0.087 H 
BRANCH   7   9
ATOM      9  N   LYS d   1       1.532  36.366   5.388  0.00  0.00    -0.346 N 
ATOM     10  C   ALA d   1       1.573  35.098   5.782  0.00  0.00     0.240 C 
ATOM     11  O   ALA d   1       1.573  34.778   6.975  0.00  0.00    -0.271 OA
ATOM     12  H24 LYS d   1       1.453  36.565   4.411  0.00  0.00     0.163 HD
BRANCH  10  13
ATOM     13  CA  ALA d   1       1.610  34.007   4.718  0.00  0.00     0.086 C 
ATOM     14  H20 ALA d   1       0.919  33.208   5.027  0.00  0.00     0.086 H 
BRANCH  13  15
ATOM     15  N   ALA d   1       1.195  34.475   3.404  0.00  0.00    -0.346 N 
ATOM     16  C   PRO d   1      -0.090  34.601   3.075  0.00  0.00     0.241 C 
ATOM     17  O   PRO d   1      -1.012  34.336   3.851  0.00  0.00    -0.271 OA
ATOM     18  H19 ALA d   1       1.894  34.709   2.729  0.00  0.00     0.163 HD
BRANCH  16  19
ATOM     19  CA  PRO d   1      -0.339  35.114   1.662  0.00  0.00     0.091 C 
ATOM     20  N   PRO d   1      -1.536  34.529   1.047  0.00  0.00    -0.337 N 
ATOM     21  C   PHE d   1      -1.534  33.248   0.680  0.00  0.00     0.251 C 
ATOM     22  CD  PRO d   1      -2.595  35.532   0.832  0.00  0.00    -0.001 C 
ATOM     23  O   PHE d   1      -0.596  32.491   0.931  0.00  0.00    -0.271 OA
ATOM     24  CG  PRO d   1      -2.121  36.718   1.623  0.00  0.00    -0.048 C 
ATOM     25  H17 PRO d   1      -3.562  35.169   1.209  0.00  0.00     0.064 H 
ATOM     26  H18 PRO d   1      -2.688  35.783  -0.235  0.00  0.00     0.064 H 
ATOM     27  CB  PRO d   1      -0.637  36.620   1.660  0.00  0.00    -0.036 C 
ATOM     28  H15 PRO d   1      -2.430  37.653   1.133  0.00  0.00     0.035 H 
ATOM     29  H16 PRO d   1      -2.532  36.686   2.643  0.00  0.00     0.035 H 
ATOM     30  H13 PRO d   1      -0.196  37.100   0.774  0.00  0.00     0.036 H 
ATOM     31  H14 PRO d   1      -0.241  37.094   2.570  0.00  0.00     0.036 H 
ATOM     32  H12 PRO d   1       0.547  34.897   1.048  0.00  0.00     0.087 H 
BRANCH  21  33
ATOM     33  CA  PHE d   1      -2.759  32.735  -0.081  0.00  0.00     0.179 C 
ATOM     34  H4  PHE d   1      -3.108  33.529  -0.757  0.00  0.00     0.099 H 
BRANCH  33  35
ATOM     35  N   PHE d   1      -2.399  31.568  -0.879  0.00  0.00    -0.066 N 
ATOM     36  H1  PHE d   1      -3.211  31.237  -1.376  0.00  0.00     0.275 HD
ATOM     37  H2  PHE d   1      -2.056  30.839  -0.273  0.00  0.00     0.275 HD
ATOM     38  H3  PHE d   1      -1.681  31.821  -1.539  0.00  0.00     0.275 HD
ENDBRANCH  33  35
BRANCH  33  39
ATOM     39  CB  PHE d   1      -3.895  32.388   0.887  0.00  0.00    -0.006 C 
ATOM     40  H5  PHE d   1      -4.770  32.076   0.298  0.00  0.00     0.043 H 
ATOM     41  H6  PHE d   1      -4.145  33.289   1.466  0.00  0.00     0.043 H 
BRANCH  39  42
ATOM     42  CG  PHE d   1      -3.555  31.288   1.847  0.00  0.00    -0.056 A 
ATOM     43  CD1 PHE d   1      -3.012  31.578   3.090  0.00  0.00    -0.077 A 
ATOM     44  CE1 PHE d   1      -2.695  30.566   3.977  0.00  0.00    -0.082 A 
ATOM     45  H7  PHE d   1      -2.834  32.610   3.369  0.00  0.00     0.084 H 
ATOM     46  CZ  PHE d   1      -2.919  29.247   3.628  0.00  0.00    -0.083 A 
ATOM     47  H9  PHE d   1      -2.271  30.806   4.945  0.00  0.00     0.083 H 
ATOM     48  CE2 PHE d   1      -3.459  28.945   2.390  0.00  0.00    -0.082 A 
ATOM     49  H11 PHE d   1      -2.672  28.452   4.322  0.00  0.00     0.083 H 
ATOM     50  CD2 PHE d   1      -3.774  29.962   1.508  0.00  0.00    -0.077 A 
ATOM     51  H10 PHE d   1      -3.635  27.912   2.112  0.00  0.00     0.083 H 
ATOM     52  H8  PHE d   1      -4.197  29.720   0.540  0.00  0.00     0.084 H 
ENDBRANCH  39  42
ENDBRANCH  33  39
ENDBRANCH  21  33
ENDBRANCH  16  19
ENDBRANCH  13  15
BRANCH  13  53
ATOM     53  CB  ALA d   1       3.022  33.428   4.635  0.00  0.00    -0.049 C 
ATOM     54  H21 ALA d   1       3.333  33.075   5.630  0.00  0.00     0.030 H 
ATOM     55  H22 ALA d   1       3.718  34.206   4.288  0.00  0.00     0.030 H 
ATOM     56  H23 ALA d   1       3.032  32.586   3.928  0.00  0.00     0.030 H 
ENDBRANCH  13  53
ENDBRANCH  10  13
ENDBRANCH   7   9
BRANCH   7  57
ATOM     57  CB  LYS d   1       2.571  38.541   5.817  0.00  0.00    -0.038 C 
ATOM     58  H26 LYS d   1       2.568  39.383   6.526  0.00  0.00     0.036 H 
ATOM     59  H27 LYS d   1       2.223  38.889   4.833  0.00  0.00     0.036 H 
BRANCH  57  60
ATOM     60  CG  LYS d   1       4.002  38.039   5.672  0.00  0.00    -0.061 C 
ATOM     61  H28 LYS d   1       4.002  37.148   5.027  0.00  0.00     0.033 H 
ATOM     62  H29 LYS d   1       4.386  37.771   6.667  0.00  0.00     0.033 H 
BRANCH  60  63
ATOM     63  CD  LYS d   1       4.917  39.087   5.059  0.00  0.00    -0.043 C 
ATOM     64  H30 LYS d   1       5.060  39.904   5.781  0.00  0.00     0.035 H 
ATOM     65  H31 LYS d   1       4.448  39.482   4.146  0.00  0.00     0.035 H 
BRANCH  63  66
ATOM     66  CE  LYS d   1       6.277  38.496   4.703  0.00  0.00     0.080 C 
ATOM     67  H32 LYS d   1       6.121  37.618   4.059  0.00  0.00     0.075 H 
ATOM     68  H33 LYS d   1       6.779  38.185   5.631  0.00  0.00     0.075 H 
BRANCH  66  69
ATOM     69  NZ  LYS d   1       7.159  39.468   3.983  0.00  0.00    -0.079 N 
ATOM     70  H34 LYS d   1       8.041  39.029   3.772  0.00  0.00     0.274 HD
ATOM     71  H35 LYS d   1       7.316  40.275   4.566  0.00  0.00     0.274 HD
ATOM     72  H36 LYS d   1       6.713  39.755   3.126  0.00  0.00     0.274 HD
ENDBRANCH  66  69
ENDBRANCH  63  66
ENDBRANCH  60  63
ENDBRANCH  57  60
ENDBRANCH   7  57
ENDBRANCH   4   7
ENDBRANCH   1   3
BRANCH   1  73
ATOM     73  C   LYS d   1      -0.845  40.700   8.763  0.00  0.00     0.241 C 
ATOM     74  O   LYS d   1      -0.002  40.757   9.664  0.00  0.00    -0.271 OA
ATOM     75  N   ARG d   1      -1.506  41.762   8.316  0.00  0.00    -0.346 N 
ATOM     76  H50 ARG d   1      -2.101  41.666   7.518  0.00  0.00     0.163 HD
BRANCH  75  77
ATOM     77  CA  ARG d   1      -1.385  43.062   8.959  0.00  0.00     0.089 C 
ATOM     78  H51 ARG d   1      -0.416  43.114   9.477  0.00  0.00     0.087 H 
BRANCH  77  79
ATOM     79  C   ARG d   1      -2.503  43.212   9.981  0.00  0.00     0.241 C 
ATOM     80  O   ARG d   1      -3.646  42.822   9.729  0.00  0.00    -0.271 OA
ATOM     81  N   LYS d   1      -2.168  43.761  11.147  0.00  0.00    -0.346 N 
ATOM     82  H63 LYS d   1      -1.221  44.044  11.300  0.00  0.00     0.163 HD
BRANCH  81  83
ATOM     83  CA  LYS d   1      -3.152  43.959  12.206  0.00  0.00     0.089 C 
ATOM     84  H64 LYS d   1      -3.906  43.161  12.140  0.00  0.00     0.087 H 
BRANCH  83  85
ATOM     85  C   LYS d   1      -3.840  45.303  11.988  0.00  0.00     0.241 C 
ATOM     86  O   LYS d   1      -3.225  46.364  12.155  0.00  0.00    -0.271 OA
ATOM     87  N   VAL d   1      -5.113  45.250  11.618  0.00  0.00    -0.344 N 
ATOM     88  H76 VAL d   1      -5.539  44.354  11.493  0.00  0.00     0.163 HD
BRANCH  87  89
ATOM     89  CA  VAL d   1      -5.913  46.440  11.387  0.00  0.00     0.099 C 
ATOM     90  H77 VAL d   1      -5.253  47.319  11.412  0.00  0.00     0.090 H 
BRANCH  89  91
ATOM     91  C   VAL d   1      -6.950  46.580  12.496  0.00  0.00     0.197 C 
ATOM     92  O   VAL d   1      -7.358  47.692  12.834  0.00  0.00    -0.646 OA
ATOM     93  OXT VAL d   1      -7.393  45.583  13.068  0.00  0.00    -0.646 OA
ENDBRANCH  89  91
BRANCH  89  94
ATOM     94  CB  VAL d   1      -6.584  46.377  10.007  0.00  0.00    -0.032 C 
ATOM     95  H78 VAL d   1      -7.267  45.515   9.992  0.00  0.00     0.042 H 
BRANCH  94  96
ATOM     96  CG1 VAL d   1      -7.400  47.635   9.743  0.00  0.00    -0.071 C 
ATOM     97  H79 VAL d   1      -7.870  47.566   8.751  0.00  0.00     0.028 H 
ATOM     98  H80 VAL d   1      -6.740  48.514   9.776  0.00  0.00     0.028 H 
ATOM     99  H81 VAL d   1      -8.180  47.734  10.512  0.00  0.00     0.028 H 
ENDBRANCH  94  96
BRANCH  94 100
ATOM    100  CG2 VAL d   1      -5.531  46.175   8.922  0.00  0.00    -0.071 C 
ATOM    101  H82 VAL d   1      -4.956  45.262   9.135  0.00  0.00     0.028 H 
ATOM    102  H83 VAL d   1      -4.852  47.040   8.904  0.00  0.00     0.028 H 
ATOM    103  H84 VAL d   1      -6.026  46.077   7.944  0.00  0.00     0.028 H 
ENDBRANCH  94 100
ENDBRANCH  89  94
ENDBRANCH  87  89
ENDBRANCH  83  85
BRANCH  83 104
ATOM    104  CB  LYS d   1      -2.506  43.890  13.585  0.00  0.00    -0.038 C 
ATOM    105  H65 LYS d   1      -1.754  44.689  13.663  0.00  0.00     0.036 H 
ATOM    106  H66 LYS d   1      -2.014  42.912  13.696  0.00  0.00     0.036 H 
BRANCH 104 107
ATOM    107  CG  LYS d   1      -3.513  44.058  14.707  0.00  0.00    -0.061 C 
ATOM    108  H67 LYS d   1      -4.322  43.326  14.568  0.00  0.00     0.033 H 
ATOM    109  H68 LYS d   1      -3.928  45.076  14.659  0.00  0.00     0.033 H 
BRANCH 107 110
ATOM    110  CD  LYS d   1      -2.899  43.848  16.072  0.00  0.00    -0.043 C 
ATOM    111  H69 LYS d   1      -2.099  44.587  16.226  0.00  0.00     0.035 H 
ATOM    112  H70 LYS d   1      -2.477  42.834  16.125  0.00  0.00     0.035 H 
BRANCH 110 113
ATOM    113  CE  LYS d   1      -3.945  44.011  17.164  0.00  0.00     0.080 C 
ATOM    114  H71 LYS d   1      -4.757  43.289  16.993  0.00  0.00     0.075 H 
ATOM    115  H72 LYS d   1      -4.349  45.033  17.123  0.00  0.00     0.075 H 
BRANCH 113 116
ATOM    116  NZ  LYS d   1      -3.365  43.775  18.506  0.00  0.00    -0.079 N 
ATOM    117  H73 LYS d   1      -4.081  43.890  19.206  0.00  0.00     0.274 HD
ATOM    118  H74 LYS d   1      -2.623  44.437  18.672  0.00  0.00     0.274 HD
ATOM    119  H75 LYS d   1      -2.997  42.838  18.553  0.00  0.00     0.274 HD
ENDBRANCH 113 116
ENDBRANCH 110 113
ENDBRANCH 107 110
ENDBRANCH 104 107
ENDBRANCH  83 104
ENDBRANCH  81  83
ENDBRANCH  77  79
BRANCH  77 120
ATOM    120  CB  ARG d   1      -1.450  44.193   7.929  0.00  0.00    -0.036 C 
ATOM    121  H52 ARG d   1      -2.465  44.219   7.506  0.00  0.00     0.036 H 
ATOM    122  H53 ARG d   1      -0.725  43.977   7.130  0.00  0.00     0.036 H 
BRANCH 120 123
ATOM    123  CG  ARG d   1      -1.135  45.567   8.503  0.00  0.00    -0.048 C 
ATOM    124  H54 ARG d   1      -0.285  45.478   9.195  0.00  0.00     0.035 H 
ATOM    125  H55 ARG d   1      -2.016  45.936   9.049  0.00  0.00     0.035 H 
BRANCH 123 126
ATOM    126  CD  ARG d   1      -0.779  46.564   7.412  0.00  0.00     0.009 C 
ATOM    127  H56 ARG d   1       0.045  46.151   6.811  0.00  0.00     0.064 H 
ATOM    128  H57 ARG d   1      -0.454  47.503   7.884  0.00  0.00     0.064 H 
BRANCH 126 129
ATOM    129  NE  ARG d   1      -1.907  46.849   6.528  0.00  0.00    -0.227 N 
ATOM    130  CZ  ARG d   1      -2.765  47.853   6.691  0.00  0.00     0.665 C 
ATOM    131  NH1 ARG d   1      -3.756  48.021   5.825  0.00  0.00    -0.235 N 
ATOM    132  NH2 ARG d   1      -2.640  48.693   7.712  0.00  0.00    -0.235 N 
ATOM    133  H59 ARG d   1      -4.422  48.797   5.948  0.00  0.00     0.174 HD
ATOM    134  H60 ARG d   1      -3.860  47.375   5.029  0.00  0.00     0.174 HD
ATOM    135  H61 ARG d   1      -1.874  48.570   8.389  0.00  0.00     0.174 HD
ATOM    136  H62 ARG d   1      -3.309  49.467   7.827  0.00  0.00     0.174 HD
ATOM    137  H58 ARG d   1      -2.048  46.227   5.719  0.00  0.00     0.177 HD
ENDBRANCH 126 129
ENDBRANCH 123 126
ENDBRANCH 120 123
ENDBRANCH  77 120
ENDBRANCH  75  77
ENDBRANCH   1  73
BRANCH   1 138
ATOM    138  CB  LYS d   1      -1.981  38.527   9.142  0.00  0.00    -0.038 C 
ATOM    139  H39 LYS d   1      -2.854  39.120   9.452  0.00  0.00     0.036 H 
ATOM    140  H40 LYS d   1      -1.329  38.353  10.010  0.00  0.00     0.036 H 
BRANCH 138 141
ATOM    141  CG  LYS d   1      -2.486  37.181   8.673  0.00  0.00    -0.061 C 
ATOM    142  H41 LYS d   1      -1.633  36.565   8.351  0.00  0.00     0.033 H 
ATOM    143  H42 LYS d   1      -3.174  37.325   7.827  0.00  0.00     0.033 H 
BRANCH 141 144
ATOM    144  CD  LYS d   1      -3.226  36.468   9.812  0.00  0.00    -0.043 C 
ATOM    145  H43 LYS d   1      -4.016  37.131  10.195  0.00  0.00     0.035 H 
ATOM    146  H44 LYS d   1      -2.511  36.246  10.618  0.00  0.00     0.035 H 
BRANCH 144 147
ATOM    147  CE  LYS d   1      -3.861  35.164   9.342  0.00  0.00     0.080 C 
ATOM    148  H45 LYS d   1      -3.064  34.500   8.976  0.00  0.00     0.075 H 
ATOM    149  H46 LYS d   1      -4.555  35.391   8.520  0.00  0.00     0.075 H 
BRANCH 147 150
ATOM    150  NZ  LYS d   1      -4.616  34.451  10.416  0.00  0.00    -0.079 N 
ATOM    151  H47 LYS d   1      -5.009  33.601  10.043  0.00  0.00     0.274 HD
ATOM    152  H48 LYS d   1      -5.357  35.044  10.756  0.00  0.00     0.274 HD
ATOM    153  H49 LYS d   1      -3.991  34.227  11.174  0.00  0.00     0.274 HD
ENDBRANCH 147 150
ENDBRANCH 144 147
ENDBRANCH 141 144
ENDBRANCH 138 141
ENDBRANCH   1 138
TORSDOF 40
