REMARK  16 active torsions:
REMARK  status: ('A' for Active; 'I' for Inactive)
REMARK    1  A    between atoms: CAA_1  and  CAL_2 
REMARK    2  A    between atoms: CAL_2  and  OAS_3 
REMARK    3  A    between atoms: OAS_3  and  CAV_4 
REMARK    4  A    between atoms: CAV_4  and  CAY_6 
REMARK    5  A    between atoms: CAW_7  and  C24_24 
REMARK    6  A    between atoms: CAT_9  and  CAC_23 
REMARK    7  A    between atoms: CAX_10  and  CAU_19 
REMARK    8  A    between atoms: CBB_11  and  CBA_12 
REMARK    9  A    between atoms: CAU_19  and  OAQ_21 
REMARK   10  A    between atoms: OAQ_21  and  CAB_22 
REMARK   11  A    between atoms: C24_24  and  O25_25 
REMARK   12  A    between atoms: O25_25  and  C26_26 
REMARK   13  A    between atoms: C26_26  and  C27_27 
REMARK   14  A    between atoms: C27_27  and  N28_28 
REMARK   15  A    between atoms: N28_28  and  C21_29 
REMARK   16  A    between atoms: N28_28  and  C22_30 
ROOT
ATOM      1  CAY 6UC d   1     165.028  38.580  14.870  0.00  0.00     0.055 C 
ATOM      2  CAW 6UC d   1     164.383  37.556  15.527  0.00  0.00     0.046 C 
ATOM      3  NAP 6UC d   1     164.854  36.128  15.110  0.00  0.00    -0.360 N 
ATOM      4  CAT 6UC d   1     166.305  36.257  15.291  0.00  0.00     0.018 C 
ATOM      5  CAX 6UC d   1     166.930  37.039  14.426  0.00  0.00     0.052 C 
ATOM      6  CBB 6UC d   1     166.078  38.179  13.821  0.00  0.00     0.039 C 
ATOM      7  H6  6UC d   1     164.300  35.319  14.795  0.00  0.00     0.165 HD
ATOM      8  H7  6UC d   1     166.784  39.009  13.674  0.00  0.00     0.063 H 
ENDROOT
BRANCH   2   9
ATOM      9  C24 6UC d   1     163.655  37.835  16.771  0.00  0.00     0.058 C 
ATOM     10  H18 6UC d   1     163.058  36.960  17.067  0.00  0.00     0.084 H 
ATOM     11  H19 6UC d   1     162.992  38.703  16.637  0.00  0.00     0.084 H 
BRANCH   9  12
ATOM     12  O25 6UC d   1     164.671  38.125  17.792  0.00  0.00    -0.384 OA
BRANCH  12  13
ATOM     13  C26 6UC d   1     164.993  37.055  18.670  0.00  0.00     0.043 C 
ATOM     14  H20 6UC d   1     165.027  36.116  18.098  0.00  0.00     0.076 H 
ATOM     15  H21 6UC d   1     164.221  36.982  19.450  0.00  0.00     0.076 H 
BRANCH  13  16
ATOM     16  C27 6UC d   1     166.370  37.294  19.338  0.00  0.00     0.102 C 
ATOM     17  H22 6UC d   1     166.251  38.072  20.107  0.00  0.00     0.079 H 
ATOM     18  H23 6UC d   1     167.072  37.645  18.567  0.00  0.00     0.079 H 
BRANCH  16  19
ATOM     19  N28 6UC d   1     166.954  36.073  19.988  0.00  0.00    -0.077 N 
ATOM     20  H24 6UC d   1     167.023  36.300  20.968  0.00  0.00     0.279 HD
BRANCH  19  21
ATOM     21  C21 6UC d   1     166.136  34.851  19.925  0.00  0.00     0.066 C 
ATOM     22  H25 6UC d   1     166.664  34.030  20.431  0.00  0.00     0.068 H 
ATOM     23  H26 6UC d   1     165.961  34.581  18.873  0.00  0.00     0.068 H 
ATOM     24  H27 6UC d   1     165.172  35.029  20.424  0.00  0.00     0.068 H 
ENDBRANCH  19  21
BRANCH  19  25
ATOM     25  C22 6UC d   1     168.339  35.808  19.522  0.00  0.00     0.066 C 
ATOM     26  H28 6UC d   1     168.929  36.735  19.579  0.00  0.00     0.068 H 
ATOM     27  H29 6UC d   1     168.314  35.453  18.481  0.00  0.00     0.068 H 
ATOM     28  H30 6UC d   1     168.800  35.040  20.161  0.00  0.00     0.068 H 
ENDBRANCH  19  25
ENDBRANCH  16  19
ENDBRANCH  13  16
ENDBRANCH  12  13
ENDBRANCH   9  12
ENDBRANCH   2   9
BRANCH   1  29
ATOM     29  CAV 6UC d   1     164.863  40.041  15.381  0.00  0.00     0.292 C 
ATOM     30  OAF 6UC d   1     164.035  40.718  14.831  0.00  0.00    -0.259 OA
BRANCH  29  31
ATOM     31  OAS 6UC d   1     165.610  40.566  16.483  0.00  0.00    -0.318 OA
BRANCH  31  32
ATOM     32  CAL 6UC d   1     164.977  41.327  17.521  0.00  0.00     0.026 C 
ATOM     33  H4  6UC d   1     165.277  42.382  17.441  0.00  0.00     0.074 H 
ATOM     34  H5  6UC d   1     163.884  41.248  17.424  0.00  0.00     0.074 H 
BRANCH  32  35
ATOM     35  CAA 6UC d   1     165.429  40.751  18.922  0.00  0.00    -0.056 C 
ATOM     36  H1  6UC d   1     164.950  41.327  19.727  0.00  0.00     0.030 H 
ATOM     37  H2  6UC d   1     166.522  40.830  19.015  0.00  0.00     0.030 H 
ATOM     38  H3  6UC d   1     165.130  39.695  18.998  0.00  0.00     0.030 H 
ENDBRANCH  32  35
ENDBRANCH  31  32
ENDBRANCH  29  31
ENDBRANCH   1  29
BRANCH   6  39
ATOM     39  CBA 6UC d   1     165.182  38.093  12.409  0.00  0.00    -0.027 A 
ATOM     40  CAK 6UC d   1     163.884  38.679  12.485  0.00  0.00    -0.074 A 
ATOM     41  CAI 6UC d   1     162.962  38.746  11.437  0.00  0.00    -0.082 A 
ATOM     42  H8  6UC d   1     163.588  39.108  13.435  0.00  0.00     0.084 H 
ATOM     43  CAH 6UC d   1     163.299  38.237  10.203  0.00  0.00    -0.082 A 
ATOM     44  H9  6UC d   1     161.988  39.196  11.595  0.00  0.00     0.083 H 
ATOM     45  CAJ 6UC d   1     164.552  37.680  10.056  0.00  0.00    -0.066 A 
ATOM     46  H10 6UC d   1     162.602  38.273   9.374  0.00  0.00     0.083 H 
ATOM     47  CAZ 6UC d   1     165.463  37.615  11.109  0.00  0.00     0.018 A 
ATOM     48  H11 6UC d   1     164.838  37.280   9.090  0.00  0.00     0.085 H 
ATOM     49 BRAG 6UC d   1     167.044  36.782  10.464  0.00  0.00    -0.051 Br
ENDBRANCH   6  39
BRANCH   4  50
ATOM     50  CAC 6UC d   1     167.040  35.074  15.962  0.00  0.00    -0.037 C 
ATOM     51  H15 6UC d   1     168.113  35.303  16.034  0.00  0.00     0.035 H 
ATOM     52  H16 6UC d   1     166.899  34.165  15.359  0.00  0.00     0.035 H 
ATOM     53  H17 6UC d   1     166.631  34.913  16.970  0.00  0.00     0.035 H 
ENDBRANCH   4  50
BRANCH   5  54
ATOM     54  CAU 6UC d   1     168.570  37.090  14.807  0.00  0.00     0.291 C 
ATOM     55  OAE 6UC d   1     169.366  37.347  13.991  0.00  0.00    -0.260 OA
BRANCH  54  56
ATOM     56  OAQ 6UC d   1     169.004  36.937  16.169  0.00  0.00    -0.323 OA
BRANCH  56  57
ATOM     57  CAB 6UC d   1     170.170  36.211  16.570  0.00  0.00     0.013 C 
ATOM     58  H12 6UC d   1     170.269  36.252  17.665  0.00  0.00     0.067 H 
ATOM     59  H13 6UC d   1     171.060  36.660  16.104  0.00  0.00     0.067 H 
ATOM     60  H14 6UC d   1     170.078  35.163  16.249  0.00  0.00     0.067 H 
ENDBRANCH  56  57
ENDBRANCH  54  56
ENDBRANCH   5  54
TORSDOF 16
