REMARK WARNING: 32 MAX_TORS EXCEEDED!!!
REMARK  40 active torsions:
REMARK  status: ('A' for Active; 'I' for Inactive)
REMARK    1  A    between atoms: N_1  and  CA_2 
REMARK    2  A    between atoms: CA_2  and  C_3 
REMARK    3  A    between atoms: CA_2  and  CB_5 
REMARK       I    between atoms: C_3  and  N_12 
REMARK    4  A    between atoms: CB_5  and  CG_6 
REMARK    5  A    between atoms: CA_13  and  C_14 
REMARK       I    between atoms: C_14  and  N_19 
REMARK    6  A    between atoms: N_19  and  CA_20 
REMARK    7  A    between atoms: CA_20  and  C_21 
REMARK    8  A    between atoms: CA_20  and  CB_23 
REMARK       I    between atoms: C_21  and  N_24 
REMARK    9  A    between atoms: N_24  and  CA_25 
REMARK   10  A    between atoms: CA_25  and  C_26 
REMARK   11  A    between atoms: CA_25  and  CB_28 
REMARK       I    between atoms: C_26  and  N_33 
REMARK   12  A    between atoms: CB_28  and  CG_29 
REMARK   13  A    between atoms: CG_29  and  CD_30 
REMARK   14  A    between atoms: CD_30  and  CE_31 
REMARK   15  A    between atoms: CE_31  and  NZ_32 
REMARK   16  A    between atoms: N_33  and  CA_34 
REMARK   17  A    between atoms: CA_34  and  C_35 
REMARK   18  A    between atoms: CA_34  and  CB_37 
REMARK       I    between atoms: C_35  and  N_42 
REMARK   19  A    between atoms: CB_37  and  CG_38 
REMARK   20  A    between atoms: CG_38  and  CD_39 
REMARK   21  A    between atoms: CD_39  and  CE_40 
REMARK   22  A    between atoms: CE_40  and  NZ_41 
REMARK   23  A    between atoms: N_42  and  CA_43 
REMARK   24  A    between atoms: CA_43  and  C_44 
REMARK   25  A    between atoms: CA_43  and  CB_46 
REMARK       I    between atoms: C_44  and  N_50 
REMARK   26  A    between atoms: CB_46  and  CG_47 
REMARK   27  A    between atoms: CG_47  and  SD_48 
REMARK   28  A    between atoms: SD_48  and  CE_49 
REMARK   29  A    between atoms: N_50  and  CA_51 
REMARK   30  A    between atoms: CA_51  and  C_52 
REMARK   31  A    between atoms: CA_51  and  CB_54 
REMARK       I    between atoms: C_52  and  N_59 
REMARK   32  A    between atoms: CB_54  and  CG_55 
REMARK   33  A    between atoms: CG_55  and  CD_56 
REMARK   34  A    between atoms: CD_56  and  CE_57 
REMARK   35  A    between atoms: CE_57  and  NZ_58 
REMARK   36  A    between atoms: N_59  and  CA_60 
REMARK   37  A    between atoms: CA_60  and  C_61 
REMARK   38  A    between atoms: CA_60  and  CB_63 
REMARK   39  A    between atoms: CB_63  and  CG1_64 
REMARK   40  A    between atoms: CB_63  and  CG2_65 
ROOT
ATOM      1  CA  LYS d   1       1.151  39.396  91.620  0.00  0.00     0.089 C 
ATOM      2  H38 LYS d   1       1.797  39.494  92.505  0.00  0.00     0.087 H 
ENDROOT
BRANCH   1   3
ATOM      3  N   LYS d   1      -0.093  38.752  92.020  0.00  0.00    -0.346 N 
ATOM      4  C   LYS d   1      -0.276  38.213  93.225  0.00  0.00     0.241 C 
ATOM      5  O   LYS d   1       0.592  38.211  94.101  0.00  0.00    -0.271 OA
ATOM      6  H37 LYS d   1      -0.844  38.713  91.361  0.00  0.00     0.163 HD
BRANCH   4   7
ATOM      7  CA  LYS d   1      -1.640  37.573  93.461  0.00  0.00     0.089 C 
ATOM      8  H25 LYS d   1      -2.008  37.171  92.506  0.00  0.00     0.087 H 
BRANCH   7   9
ATOM      9  N   LYS d   1      -1.526  36.476  94.410  0.00  0.00    -0.346 N 
ATOM     10  C   ALA d   1      -1.538  35.204  94.027  0.00  0.00     0.240 C 
ATOM     11  O   ALA d   1      -1.621  34.873  92.840  0.00  0.00    -0.271 OA
ATOM     12  H24 LYS d   1      -1.436  36.687  95.383  0.00  0.00     0.163 HD
BRANCH  10  13
ATOM     13  CA  ALA d   1      -1.449  34.119  95.091  0.00  0.00     0.086 C 
ATOM     14  H20 ALA d   1      -0.654  33.419  94.796  0.00  0.00     0.086 H 
BRANCH  13  15
ATOM     15  N   ALA d   1      -1.121  34.631  96.413  0.00  0.00    -0.346 N 
ATOM     16  C   PRO d   1       0.130  34.668  96.870  0.00  0.00     0.241 C 
ATOM     17  O   PRO d   1       1.104  34.319  96.198  0.00  0.00    -0.271 OA
ATOM     18  H19 ALA d   1      -1.859  34.966  96.998  0.00  0.00     0.163 HD
BRANCH  16  19
ATOM     19  CA  PRO d   1       0.283  35.183  98.294  0.00  0.00     0.091 C 
ATOM     20  N   PRO d   1       1.385  34.525  99.006  0.00  0.00    -0.337 N 
ATOM     21  C   PHE d   1       1.356  33.206  99.205  0.00  0.00     0.251 C 
ATOM     22  CD  PRO d   1       2.428  35.483  99.411  0.00  0.00    -0.001 C 
ATOM     23  O   PHE d   1       0.482  32.482  98.729  0.00  0.00    -0.271 OA
ATOM     24  CG  PRO d   1       2.148  36.673  98.552  0.00  0.00    -0.048 C 
ATOM     25  H17 PRO d   1       3.432  35.081  99.213  0.00  0.00     0.064 H 
ATOM     26  H18 PRO d   1       2.339  35.736 100.478  0.00  0.00     0.064 H 
ATOM     27  CB  PRO d   1       0.678  36.666  98.315  0.00  0.00    -0.036 C 
ATOM     28  H15 PRO d   1       2.448  37.597  99.068  0.00  0.00     0.035 H 
ATOM     29  H16 PRO d   1       2.690  36.593  97.598  0.00  0.00     0.035 H 
ATOM     30  H13 PRO d   1       0.154  37.194  99.125  0.00  0.00     0.036 H 
ATOM     31  H14 PRO d   1       0.440  37.143  97.353  0.00  0.00     0.036 H 
ATOM     32  H12 PRO d   1      -0.665  35.029  98.830  0.00  0.00     0.087 H 
BRANCH  21  33
ATOM     33  CA  PHE d   1       2.474  32.605 100.059  0.00  0.00     0.179 C 
ATOM     34  H4  PHE d   1       2.766  33.343 100.821  0.00  0.00     0.099 H 
BRANCH  33  35
ATOM     35  N   PHE d   1       2.007  31.401 100.737  0.00  0.00    -0.066 N 
ATOM     36  H1  PHE d   1       2.754  31.018 101.294  0.00  0.00     0.275 HD
ATOM     37  H2  PHE d   1       1.716  30.721 100.052  0.00  0.00     0.275 HD
ATOM     38  H3  PHE d   1       1.228  31.632 101.333  0.00  0.00     0.275 HD
ENDBRANCH  33  35
BRANCH  33  39
ATOM     39  CB  PHE d   1       3.697  32.292  99.193  0.00  0.00    -0.006 C 
ATOM     40  H5  PHE d   1       4.508  31.948  99.851  0.00  0.00     0.043 H 
ATOM     41  H6  PHE d   1       4.006  33.216  98.683  0.00  0.00     0.043 H 
BRANCH  39  42
ATOM     42  CG  PHE d   1       3.453  31.237  98.152  0.00  0.00    -0.056 A 
ATOM     43  CD1 PHE d   1       3.518  29.892  98.482  0.00  0.00    -0.077 A 
ATOM     44  CE1 PHE d   1       3.295  28.918  97.525  0.00  0.00    -0.082 A 
ATOM     45  H7  PHE d   1       3.746  29.600  99.501  0.00  0.00     0.084 H 
ATOM     46  CZ  PHE d   1       3.007  29.283  96.223  0.00  0.00    -0.083 A 
ATOM     47  H9  PHE d   1       3.346  27.870  97.796  0.00  0.00     0.083 H 
ATOM     48  CE2 PHE d   1       2.942  30.621  95.882  0.00  0.00    -0.082 A 
ATOM     49  H11 PHE d   1       2.833  28.522  95.471  0.00  0.00     0.083 H 
ATOM     50  CD2 PHE d   1       3.165  31.589  96.843  0.00  0.00    -0.077 A 
ATOM     51  H10 PHE d   1       2.716  30.911  94.862  0.00  0.00     0.083 H 
ATOM     52  H8  PHE d   1       3.114  32.637  96.569  0.00  0.00     0.084 H 
ENDBRANCH  39  42
ENDBRANCH  33  39
ENDBRANCH  21  33
ENDBRANCH  16  19
ENDBRANCH  13  15
BRANCH  13  53
ATOM     53  CB  ALA d   1      -2.777  33.360  95.140  0.00  0.00    -0.049 C 
ATOM     54  H21 ALA d   1      -3.017  32.977  94.137  0.00  0.00     0.030 H 
ATOM     55  H22 ALA d   1      -3.575  34.039  95.474  0.00  0.00     0.030 H 
ATOM     56  H23 ALA d   1      -2.693  32.519  95.844  0.00  0.00     0.030 H 
ENDBRANCH  13  53
ENDBRANCH  10  13
ENDBRANCH   7   9
BRANCH   7  57
ATOM     57  CB  LYS d   1      -2.637  38.621  93.964  0.00  0.00    -0.038 C 
ATOM     58  H26 LYS d   1      -2.770  39.380  93.179  0.00  0.00     0.036 H 
ATOM     59  H27 LYS d   1      -2.220  39.094  94.865  0.00  0.00     0.036 H 
BRANCH  57  60
ATOM     60  CG  LYS d   1      -4.003  38.044  94.312  0.00  0.00    -0.061 C 
ATOM     61  H28 LYS d   1      -3.878  37.293  95.106  0.00  0.00     0.033 H 
ATOM     62  H29 LYS d   1      -4.423  37.563  93.416  0.00  0.00     0.033 H 
BRANCH  60  63
ATOM     63  CD  LYS d   1      -4.971  39.109  94.794  0.00  0.00    -0.043 C 
ATOM     64  H30 LYS d   1      -5.117  39.851  93.995  0.00  0.00     0.035 H 
ATOM     65  H31 LYS d   1      -4.549  39.604  95.681  0.00  0.00     0.035 H 
BRANCH  63  66
ATOM     66  CE  LYS d   1      -6.318  38.498  95.158  0.00  0.00     0.080 C 
ATOM     67  H32 LYS d   1      -6.163  37.747  95.947  0.00  0.00     0.075 H 
ATOM     68  H33 LYS d   1      -6.736  38.010  94.265  0.00  0.00     0.075 H 
BRANCH  66  69
ATOM     69  NZ  LYS d   1      -7.293  39.511  95.649  0.00  0.00    -0.079 N 
ATOM     70  H34 LYS d   1      -8.164  39.057  95.875  0.00  0.00     0.274 HD
ATOM     71  H35 LYS d   1      -7.450  40.201  94.931  0.00  0.00     0.274 HD
ATOM     72  H36 LYS d   1      -6.925  39.960  96.473  0.00  0.00     0.274 HD
ENDBRANCH  66  69
ENDBRANCH  63  66
ENDBRANCH  60  63
ENDBRANCH  57  60
ENDBRANCH   7  57
ENDBRANCH   4   7
ENDBRANCH   1   3
BRANCH   1  73
ATOM     73  C   LYS d   1       0.848  40.778  91.068  0.00  0.00     0.241 C 
ATOM     74  O   LYS d   1       0.028  40.918  90.155  0.00  0.00    -0.271 OA
ATOM     75  N   MET d   1       1.516  41.790  91.612  0.00  0.00    -0.346 N 
ATOM     76  H50 MET d   1       2.082  41.617  92.418  0.00  0.00     0.163 HD
BRANCH  75  77
ATOM     77  CA  MET d   1       1.452  43.141  91.075  0.00  0.00     0.090 C 
ATOM     78  H51 MET d   1       0.487  43.283  90.566  0.00  0.00     0.087 H 
BRANCH  77  79
ATOM     79  C   MET d   1       2.579  43.311  90.064  0.00  0.00     0.241 C 
ATOM     80  O   MET d   1       3.735  42.992  90.360  0.00  0.00    -0.271 OA
ATOM     81  N   LYS d   1       2.242  43.788  88.868  0.00  0.00    -0.346 N 
ATOM     82  H59 LYS d   1       1.284  44.004  88.678  0.00  0.00     0.163 HD
BRANCH  81  83
ATOM     83  CA  LYS d   1       3.244  44.001  87.829  0.00  0.00     0.089 C 
ATOM     84  H60 LYS d   1       4.005  43.211  87.904  0.00  0.00     0.087 H 
BRANCH  83  85
ATOM     85  C   LYS d   1       3.912  45.351  88.062  0.00  0.00     0.241 C 
ATOM     86  O   LYS d   1       3.292  46.401  87.872  0.00  0.00    -0.271 OA
ATOM     87  N   VAL d   1       5.177  45.320  88.468  0.00  0.00    -0.344 N 
ATOM     88  H72 VAL d   1       5.625  44.433  88.580  0.00  0.00     0.163 HD
BRANCH  87  89
ATOM     89  CA  VAL d   1       5.935  46.528  88.756  0.00  0.00     0.099 C 
ATOM     90  H73 VAL d   1       5.229  47.330  89.018  0.00  0.00     0.090 H 
BRANCH  89  91
ATOM     91  C   VAL d   1       6.713  46.956  87.517  0.00  0.00     0.197 C 
ATOM     92  O   VAL d   1       7.079  48.123  87.376  0.00  0.00    -0.646 OA
ATOM     93  OXT VAL d   1       6.989  46.142  86.635  0.00  0.00    -0.646 OA
ENDBRANCH  89  91
BRANCH  89  94
ATOM     94  CB  VAL d   1       6.878  46.307  89.950  0.00  0.00    -0.032 C 
ATOM     95  H74 VAL d   1       7.592  45.513  89.685  0.00  0.00     0.042 H 
BRANCH  94  96
ATOM     96  CG1 VAL d   1       7.666  47.573  90.264  0.00  0.00    -0.071 C 
ATOM     97  H75 VAL d   1       8.331  47.388  91.120  0.00  0.00     0.028 H 
ATOM     98  H76 VAL d   1       6.969  48.387  90.511  0.00  0.00     0.028 H 
ATOM     99  H77 VAL d   1       8.267  47.858  89.388  0.00  0.00     0.028 H 
ENDBRANCH  94  96
BRANCH  94 100
ATOM    100  CG2 VAL d   1       6.084  45.853  91.171  0.00  0.00    -0.071 C 
ATOM    101  H78 VAL d   1       5.523  44.940  90.925  0.00  0.00     0.028 H 
ATOM    102  H79 VAL d   1       5.381  46.646  91.467  0.00  0.00     0.028 H 
ATOM    103  H80 VAL d   1       6.775  45.646  92.001  0.00  0.00     0.028 H 
ENDBRANCH  94 100
ENDBRANCH  89  94
ENDBRANCH  87  89
ENDBRANCH  83  85
BRANCH  83 104
ATOM    104  CB  LYS d   1       2.619  43.934  86.439  0.00  0.00    -0.038 C 
ATOM    105  H61 LYS d   1       1.918  44.775  86.328  0.00  0.00     0.036 H 
ATOM    106  H62 LYS d   1       2.071  42.985  86.345  0.00  0.00     0.036 H 
BRANCH 104 107
ATOM    107  CG  LYS d   1       3.652  44.011  85.324  0.00  0.00    -0.061 C 
ATOM    108  H63 LYS d   1       4.367  43.184  85.448  0.00  0.00     0.033 H 
ATOM    109  H64 LYS d   1       4.184  44.971  85.402  0.00  0.00     0.033 H 
BRANCH 107 110
ATOM    110  CD  LYS d   1       3.030  43.912  83.945  0.00  0.00    -0.043 C 
ATOM    111  H65 LYS d   1       2.297  44.723  83.820  0.00  0.00     0.035 H 
ATOM    112  H66 LYS d   1       2.523  42.941  83.846  0.00  0.00     0.035 H 
BRANCH 110 113
ATOM    113  CE  LYS d   1       4.096  44.031  82.868  0.00  0.00     0.080 C 
ATOM    114  H67 LYS d   1       4.792  43.185  82.965  0.00  0.00     0.075 H 
ATOM    115  H68 LYS d   1       4.643  44.974  83.014  0.00  0.00     0.075 H 
BRANCH 113 116
ATOM    116  NZ  LYS d   1       3.519  44.021  81.497  0.00  0.00    -0.079 N 
ATOM    117  H69 LYS d   1       4.261  44.102  80.820  0.00  0.00     0.274 HD
ATOM    118  H70 LYS d   1       2.884  44.797  81.394  0.00  0.00     0.274 HD
ATOM    119  H71 LYS d   1       3.021  43.157  81.348  0.00  0.00     0.274 HD
ENDBRANCH 113 116
ENDBRANCH 110 113
ENDBRANCH 107 110
ENDBRANCH 104 107
ENDBRANCH  83 104
ENDBRANCH  81  83
ENDBRANCH  77  79
BRANCH  77 120
ATOM    120  CB  MET d   1       1.569  44.171  92.202  0.00  0.00    -0.030 C 
ATOM    121  H52 MET d   1       2.491  43.957  92.762  0.00  0.00     0.037 H 
ATOM    122  H53 MET d   1       0.700  44.048  92.865  0.00  0.00     0.037 H 
BRANCH 120 123
ATOM    123  CG  MET d   1       1.617  45.631  91.756  0.00  0.00    -0.021 C 
ATOM    124  H54 MET d   1       0.762  45.828  91.092  0.00  0.00     0.049 H 
ATOM    125  H55 MET d   1       2.555  45.804  91.207  0.00  0.00     0.049 H 
BRANCH 123 126
ATOM    126  SD  MET d   1       1.542  46.773  93.162  0.00  0.00    -0.173 SA
BRANCH 126 127
ATOM    127  CE  MET d   1       2.934  47.864  92.852  0.00  0.00    -0.035 C 
ATOM    128  H56 MET d   1       2.996  48.616  93.652  0.00  0.00     0.041 H 
ATOM    129  H57 MET d   1       2.796  48.369  91.885  0.00  0.00     0.041 H 
ATOM    130  H58 MET d   1       3.863  47.276  92.829  0.00  0.00     0.041 H 
ENDBRANCH 126 127
ENDBRANCH 123 126
ENDBRANCH 120 123
ENDBRANCH  77 120
ENDBRANCH  75  77
ENDBRANCH   1  73
BRANCH   1 131
ATOM    131  CB  LYS d   1       1.897  38.585  90.555  0.00  0.00    -0.038 C 
ATOM    132  H39 LYS d   1       2.728  39.201  90.181  0.00  0.00     0.036 H 
ATOM    133  H40 LYS d   1       1.195  38.378  89.734  0.00  0.00     0.036 H 
BRANCH 131 134
ATOM    134  CG  LYS d   1       2.470  37.265  91.021  0.00  0.00    -0.061 C 
ATOM    135  H41 LYS d   1       1.656  36.622  91.388  0.00  0.00     0.033 H 
ATOM    136  H42 LYS d   1       3.190  37.445  91.833  0.00  0.00     0.033 H 
BRANCH 134 137
ATOM    137  CD  LYS d   1       3.177  36.574  89.862  0.00  0.00    -0.043 C 
ATOM    138  H43 LYS d   1       3.980  37.230  89.495  0.00  0.00     0.035 H 
ATOM    139  H44 LYS d   1       2.449  36.399  89.056  0.00  0.00     0.035 H 
BRANCH 137 140
ATOM    140  CE  LYS d   1       3.783  35.242  90.271  0.00  0.00     0.080 C 
ATOM    141  H45 LYS d   1       2.987  34.592  90.663  0.00  0.00     0.075 H 
ATOM    142  H46 LYS d   1       4.534  35.417  91.056  0.00  0.00     0.075 H 
BRANCH 140 143
ATOM    143  NZ  LYS d   1       4.438  34.563  89.117  0.00  0.00    -0.079 N 
ATOM    144  H47 LYS d   1       4.829  33.685  89.421  0.00  0.00     0.274 HD
ATOM    145  H48 LYS d   1       5.173  35.150  88.755  0.00  0.00     0.274 HD
ATOM    146  H49 LYS d   1       3.756  34.395  88.395  0.00  0.00     0.274 HD
ENDBRANCH 140 143
ENDBRANCH 137 140
ENDBRANCH 134 137
ENDBRANCH 131 134
ENDBRANCH   1 131
TORSDOF 40
