REMARK  6 active torsions:
REMARK  status: ('A' for Active; 'I' for Inactive)
REMARK    1  A    between atoms: P_1  and  O5'_5 
REMARK    2  A    between atoms: O5'_5  and  C5'_6 
REMARK    3  A    between atoms: C5'_6  and  C4'_7 
REMARK    4  A    between atoms: C3'_9  and  O3'_10 
REMARK    5  A    between atoms: C2'_11  and  O2'_12 
REMARK    6  A    between atoms: C1'_13  and  N9_14 
ROOT
ATOM      1  C4' AMP d   1      41.231  31.031  53.337  0.00  0.00     0.089 C 
ATOM      2  O4' AMP d   1      40.683  30.534  54.588  0.00  0.00    -0.353 OA
ATOM      3  C3' AMP d   1      42.749  30.837  53.414  0.00  0.00     0.091 C 
ATOM      4  C2' AMP d   1      42.921  29.849  54.573  0.00  0.00     0.105 C 
ATOM      5  C1' AMP d   1      41.730  30.191  55.465  0.00  0.00     0.139 C 
ATOM      6  H3  AMP d   1      41.023  32.107  53.243  0.00  0.00     0.090 H 
ATOM      7  H4  AMP d   1      43.150  30.425  52.476  0.00  0.00     0.091 H 
ATOM      8  H6  AMP d   1      42.829  28.820  54.196  0.00  0.00     0.093 H 
ATOM      9  H8  AMP d   1      41.990  31.044  56.109  0.00  0.00     0.122 H 
ENDROOT
BRANCH   5  10
ATOM     10  N9  AMP d   1      41.274  29.081  56.308  0.00  0.00    -0.294 N 
ATOM     11  C8  AMP d   1      40.960  27.842  55.884  0.00  0.00     0.071 A 
ATOM     12  N7  AMP d   1      40.583  27.055  56.925  0.00  0.00    -0.236 NA
ATOM     13  H9  AMP d   1      41.003  27.515  54.846  0.00  0.00     0.144 H 
ATOM     14  C5  AMP d   1      40.659  27.799  58.048  0.00  0.00     0.149 A 
ATOM     15  C6  AMP d   1      40.399  27.598  59.493  0.00  0.00     0.155 A 
ATOM     16  C4  AMP d   1      41.110  29.135  57.631  0.00  0.00     0.167 A 
ATOM     17  N6  AMP d   1      39.983  26.396  59.954  0.00  0.00    -0.382 N 
ATOM     18  N1  AMP d   1      40.602  28.644  60.325  0.00  0.00    -0.222 NA
ATOM     19  H10 AMP d   1      39.804  26.264  60.960  0.00  0.00     0.157 HD
ATOM     20  H11 AMP d   1      39.845  25.613  59.299  0.00  0.00     0.157 HD
ATOM     21  C2  AMP d   1      41.021  29.843  59.868  0.00  0.00     0.091 A 
ATOM     22  N3  AMP d   1      41.275  30.097  58.568  0.00  0.00    -0.222 NA
ATOM     23  H12 AMP d   1      41.161  30.645  60.584  0.00  0.00     0.146 H 
ENDBRANCH   5  10
BRANCH   4  24
ATOM     24  O2' AMP d   1      44.148  29.943  55.264  0.00  0.00    -0.388 OA
ATOM     25  H7  AMP d   1      44.236  30.814  55.634  0.00  0.00     0.210 HD
ENDBRANCH   4  24
BRANCH   1  26
ATOM     26  C5' AMP d   1      40.549  30.323  52.190  0.00  0.00     0.059 C 
ATOM     27  H1  AMP d   1      40.623  29.237  52.348  0.00  0.00     0.079 H 
ATOM     28  H2  AMP d   1      39.490  30.619  52.170  0.00  0.00     0.079 H 
BRANCH  26  29
ATOM     29  O5' AMP d   1      41.142  30.647  50.933  0.00  0.00    -0.280 OA
BRANCH  29  30
ATOM     30  P   AMP d   1      40.360  31.526  49.857  0.00  0.00     0.422 P 
ATOM     31  O1P AMP d   1      41.267  31.521  48.647  0.00  0.00    -0.617 OA
ATOM     32  O2P AMP d   1      40.216  32.879  50.509  0.00  0.00    -0.617 OA
ATOM     33  O3P AMP d   1      39.057  30.798  49.664  0.00  0.00    -0.617 OA
ENDBRANCH  29  30
ENDBRANCH  26  29
ENDBRANCH   1  26
BRANCH   3  34
ATOM     34  O3' AMP d   1      43.384  32.085  53.711  0.00  0.00    -0.390 OA
ATOM     35  H5  AMP d   1      43.066  32.410  54.545  0.00  0.00     0.210 HD
ENDBRANCH   3  34
TORSDOF 6
