REMARK  6 active torsions:
REMARK  status: ('A' for Active; 'I' for Inactive)
REMARK    1  A    between atoms: P_1  and  O5'_5 
REMARK    2  A    between atoms: O5'_5  and  C5'_6 
REMARK    3  A    between atoms: C5'_6  and  C4'_7 
REMARK    4  A    between atoms: C3'_9  and  O3'_10 
REMARK    5  A    between atoms: C2'_11  and  O2'_12 
REMARK    6  A    between atoms: C1'_13  and  N9_14 
ROOT
ATOM      1  C4' IMP d   1      61.609  31.708  23.893  0.00  0.00     0.089 C 
ATOM      2  O4' IMP d   1      62.892  32.098  24.458  0.00  0.00    -0.353 OA
ATOM      3  C3' IMP d   1      61.797  31.693  22.372  0.00  0.00     0.091 C 
ATOM      4  C2' IMP d   1      63.313  31.567  22.220  0.00  0.00     0.105 C 
ATOM      5  C1' IMP d   1      63.808  32.366  23.417  0.00  0.00     0.139 C 
ATOM      6  H3  IMP d   1      60.840  32.451  24.150  0.00  0.00     0.090 H 
ATOM      7  H4  IMP d   1      61.271  30.847  21.905  0.00  0.00     0.091 H 
ATOM      8  H6  IMP d   1      63.610  30.512  22.310  0.00  0.00     0.093 H 
ATOM      9  H8  IMP d   1      63.806  33.438  23.169  0.00  0.00     0.122 H 
ENDROOT
BRANCH   5  10
ATOM     10  N9  IMP d   1      65.150  31.986  23.859  0.00  0.00    -0.295 N 
ATOM     11  C8  IMP d   1      65.594  30.746  24.134  0.00  0.00     0.071 A 
ATOM     12  N7  IMP d   1      66.905  30.767  24.502  0.00  0.00    -0.234 NA
ATOM     13  H9  IMP d   1      64.986  29.845  24.071  0.00  0.00     0.144 H 
ATOM     14  C5  IMP d   1      67.317  32.046  24.462  0.00  0.00     0.172 A 
ATOM     15  C6  IMP d   1      68.574  32.779  24.725  0.00  0.00     0.300 A 
ATOM     16  C4  IMP d   1      66.150  32.843  24.030  0.00  0.00     0.146 A 
ATOM     17  O6  IMP d   1      69.604  32.164  25.090  0.00  0.00    -0.263 OA
ATOM     18  N1  IMP d   1      68.566  34.112  24.563  0.00  0.00    -0.203 NA
ATOM     19  C2  IMP d   1      67.460  34.776  24.163  0.00  0.00     0.069 A 
ATOM     20  N3  IMP d   1      66.281  34.182  23.894  0.00  0.00    -0.335 N 
ATOM     21  H10 IMP d   1      67.525  35.857  24.051  0.00  0.00     0.143 H 
ATOM     22  H11 IMP d   1      65.478  34.748  23.584  0.00  0.00     0.168 HD
ENDBRANCH   5  10
BRANCH   4  23
ATOM     23  O2' IMP d   1      63.843  32.064  21.010  0.00  0.00    -0.388 OA
ATOM     24  H7  IMP d   1      63.640  32.989  20.933  0.00  0.00     0.210 HD
ENDBRANCH   4  23
BRANCH   1  25
ATOM     25  C5' IMP d   1      61.211  30.382  24.485  0.00  0.00     0.059 C 
ATOM     26  H1  IMP d   1      61.993  29.642  24.261  0.00  0.00     0.079 H 
ATOM     27  H2  IMP d   1      61.112  30.493  25.575  0.00  0.00     0.079 H 
BRANCH  25  28
ATOM     28  O5' IMP d   1      59.974  29.922  23.953  0.00  0.00    -0.280 OA
BRANCH  28  29
ATOM     29  P   IMP d   1      58.629  30.092  24.783  0.00  0.00     0.422 P 
ATOM     30  O1P IMP d   1      57.560  29.488  23.904  0.00  0.00    -0.617 OA
ATOM     31  O2P IMP d   1      58.887  29.316  26.057  0.00  0.00    -0.617 OA
ATOM     32  O3P IMP d   1      58.521  31.579  25.000  0.00  0.00    -0.617 OA
ENDBRANCH  28  29
ENDBRANCH  25  28
ENDBRANCH   1  25
BRANCH   3  33
ATOM     33  O3' IMP d   1      61.344  32.928  21.810  0.00  0.00    -0.390 OA
ATOM     34  H5  IMP d   1      61.845  33.645  22.180  0.00  0.00     0.210 HD
ENDBRANCH   3  33
TORSDOF 6
