REMARK  7 active torsions:
REMARK  status: ('A' for Active; 'I' for Inactive)
REMARK    1  A    between atoms: P_1  and  O5'_5 
REMARK    2  A    between atoms: O5'_5  and  C5'_6 
REMARK    3  A    between atoms: C5'_6  and  C4'_7 
REMARK    4  A    between atoms: C3'_9  and  O3'_10 
REMARK    5  A    between atoms: C2'_11  and  O2'_12 
REMARK    6  A    between atoms: C1'_13  and  N9_14 
REMARK    7  A    between atoms: C2_21  and  N2_22 
ROOT
ATOM      1  C4' 5GP d   1     -29.833   5.021 -27.009  0.00  0.00     0.089 C 
ATOM      2  O4' 5GP d   1     -29.675   4.584 -28.374  0.00  0.00    -0.353 OA
ATOM      3  C3' 5GP d   1     -30.187   6.513 -27.051  0.00  0.00     0.091 C 
ATOM      4  C2' 5GP d   1     -30.289   6.829 -28.555  0.00  0.00     0.105 C 
ATOM      5  C1' 5GP d   1     -29.476   5.706 -29.191  0.00  0.00     0.139 C 
ATOM      6  H3  5GP d   1     -28.887   4.896 -26.461  0.00  0.00     0.090 H 
ATOM      7  H4  5GP d   1     -31.140   6.711 -26.538  0.00  0.00     0.091 H 
ATOM      8  H6  5GP d   1     -31.340   6.755 -28.870  0.00  0.00     0.093 H 
ATOM      9  H8  5GP d   1     -28.413   5.986 -29.211  0.00  0.00     0.122 H 
ENDROOT
BRANCH   5  10
ATOM     10  N9  5GP d   1     -29.906   5.375 -30.546  0.00  0.00    -0.295 N 
ATOM     11  C8  5GP d   1     -31.176   5.216 -30.962  0.00  0.00     0.071 A 
ATOM     12  N7  5GP d   1     -31.169   4.945 -32.283  0.00  0.00    -0.234 NA
ATOM     13  H9  5GP d   1     -32.063   5.293 -30.335  0.00  0.00     0.144 H 
ATOM     14  C5  5GP d   1     -29.876   4.934 -32.687  0.00  0.00     0.171 A 
ATOM     15  C6  5GP d   1     -29.265   4.706 -33.912  0.00  0.00     0.292 A 
ATOM     16  C4  5GP d   1     -29.090   5.205 -31.582  0.00  0.00     0.161 A 
ATOM     17  O6  5GP d   1     -29.953   4.461 -34.943  0.00  0.00    -0.265 OA
ATOM     18  N1  5GP d   1     -27.924   4.768 -33.973  0.00  0.00    -0.154 N 
ATOM     19  C2  5GP d   1     -27.170   5.025 -32.892  0.00  0.00     0.680 A 
ATOM     20  H10 5GP d   1     -27.473   4.618 -34.853  0.00  0.00     0.187 HD
ATOM     21  N3  5GP d   1     -27.740   5.253 -31.688  0.00  0.00    -0.174 N 
ATOM     22  H13 5GP d   1     -27.157   5.460 -30.864  0.00  0.00     0.186 HD
BRANCH  19  23
ATOM     23  N2  5GP d   1     -25.819   5.074 -33.005  0.00  0.00    -0.234 N 
ATOM     24  H11 5GP d   1     -25.240   5.271 -32.176  0.00  0.00     0.174 HD
ATOM     25  H12 5GP d   1     -25.372   4.914 -33.919  0.00  0.00     0.174 HD
ENDBRANCH  19  23
ENDBRANCH   5  10
BRANCH   4  26
ATOM     26  O2' 5GP d   1     -29.819   8.109 -28.939  0.00  0.00    -0.388 OA
ATOM     27  H7  5GP d   1     -28.901   8.191 -28.708  0.00  0.00     0.210 HD
ENDBRANCH   4  26
BRANCH   1  28
ATOM     28  C5' 5GP d   1     -30.877   4.160 -26.363  0.00  0.00     0.059 C 
ATOM     29  H1  5GP d   1     -31.874   4.572 -26.577  0.00  0.00     0.079 H 
ATOM     30  H2  5GP d   1     -30.808   3.138 -26.765  0.00  0.00     0.079 H 
BRANCH  28  31
ATOM     31  O5' 5GP d   1     -30.670   4.130 -24.957  0.00  0.00    -0.280 OA
BRANCH  31  32
ATOM     32  P   5GP d   1     -31.898   4.093 -23.954  0.00  0.00     0.422 P 
ATOM     33  O1P 5GP d   1     -32.665   2.822 -24.255  0.00  0.00    -0.617 OA
ATOM     34  O2P 5GP d   1     -32.655   5.374 -24.201  0.00  0.00    -0.617 OA
ATOM     35  O3P 5GP d   1     -31.144   4.038 -22.645  0.00  0.00    -0.617 OA
ENDBRANCH  31  32
ENDBRANCH  28  31
ENDBRANCH   1  28
BRANCH   3  36
ATOM     36  O3' 5GP d   1     -29.138   7.282 -26.448  0.00  0.00    -0.390 OA
ATOM     37  H5  5GP d   1     -28.328   7.138 -26.924  0.00  0.00     0.210 HD
ENDBRANCH   3  36
TORSDOF 7
