REMARK  7 active torsions:
REMARK  status: ('A' for Active; 'I' for Inactive)
REMARK    1  A    between atoms: P_2  and  O5'_5 
REMARK    2  A    between atoms: O5'_5  and  C5'_6 
REMARK    3  A    between atoms: C5'_6  and  C4'_7 
REMARK    4  A    between atoms: C3'_9  and  O3'_10 
REMARK    5  A    between atoms: C2'_11  and  O2'_12 
REMARK    6  A    between atoms: C1'_13  and  N1_14 
REMARK    7  A    between atoms: C4_17  and  N4_21 
ROOT
ATOM      1  C4' C5P d   1     -29.759   5.093 -27.151  0.00  0.00     0.089 C 
ATOM      2  O4' C5P d   1     -29.591   4.657 -28.521  0.00  0.00    -0.353 OA
ATOM      3  C3' C5P d   1     -30.088   6.593 -27.212  0.00  0.00     0.091 C 
ATOM      4  C2' C5P d   1     -30.172   6.885 -28.721  0.00  0.00     0.105 C 
ATOM      5  C1' C5P d   1     -29.297   5.782 -29.301  0.00  0.00     0.141 C 
ATOM      6  H3  C5P d   1     -28.808   4.971 -26.612  0.00  0.00     0.090 H 
ATOM      7  H4  C5P d   1     -31.043   6.814 -26.712  0.00  0.00     0.091 H 
ATOM      8  H6  C5P d   1     -31.211   6.771 -29.064  0.00  0.00     0.093 H 
ATOM      9  H8  C5P d   1     -28.238   6.061 -29.200  0.00  0.00     0.123 H 
ENDROOT
BRANCH   5  10
ATOM     10  N1  C5P d   1     -29.568   5.464 -30.708  0.00  0.00    -0.280 N 
ATOM     11  C2  C5P d   1     -28.493   5.407 -31.616  0.00  0.00     0.330 A 
ATOM     12  N3  C5P d   1     -28.714   5.121 -32.916  0.00  0.00    -0.295 N 
ATOM     13  O2  C5P d   1     -27.330   5.631 -31.222  0.00  0.00    -0.246 OA
ATOM     14  C4  C5P d   1     -29.967   4.886 -33.356  0.00  0.00     0.103 A 
ATOM     15  H9  C5P d   1     -27.946   5.083 -33.555  0.00  0.00     0.172 HD
ATOM     16  C5  C5P d   1     -31.037   4.936 -32.469  0.00  0.00    -0.026 A 
ATOM     17  C6  C5P d   1     -30.816   5.229 -31.129  0.00  0.00    -0.010 A 
ATOM     18  H10 C5P d   1     -32.048   4.745 -32.825  0.00  0.00     0.091 H 
ATOM     19  H11 C5P d   1     -31.649   5.267 -30.429  0.00  0.00     0.112 H 
BRANCH  14  20
ATOM     20  N4  C5P d   1     -30.172   4.597 -34.664  0.00  0.00    -0.385 N 
ATOM     21  H12 C5P d   1     -31.126   4.416 -35.008  0.00  0.00     0.157 HD
ATOM     22  H13 C5P d   1     -29.374   4.558 -35.314  0.00  0.00     0.157 HD
ENDBRANCH  14  20
ENDBRANCH   5  10
BRANCH   4  23
ATOM     23  O2' C5P d   1     -29.727   8.167 -29.109  0.00  0.00    -0.388 OA
ATOM     24  H7  C5P d   1     -28.816   8.273 -28.862  0.00  0.00     0.210 HD
ENDBRANCH   4  23
BRANCH   1  25
ATOM     25  C5' C5P d   1     -30.785   4.238 -26.459  0.00  0.00     0.059 C 
ATOM     26  H1  C5P d   1     -31.791   4.536 -26.790  0.00  0.00     0.079 H 
ATOM     27  H2  C5P d   1     -30.612   3.182 -26.715  0.00  0.00     0.079 H 
BRANCH  25  28
ATOM     28  O5' C5P d   1     -30.684   4.404 -25.051  0.00  0.00    -0.280 OA
BRANCH  28  29
ATOM     29  P   C5P d   1     -31.942   4.225 -24.086  0.00  0.00     0.422 P 
ATOM     30  O3P C5P d   1     -31.295   4.217 -22.720  0.00  0.00    -0.617 OA
ATOM     31  O1P C5P d   1     -32.550   2.892 -24.453  0.00  0.00    -0.617 OA
ATOM     32  O2P C5P d   1     -32.812   5.417 -24.397  0.00  0.00    -0.617 OA
ENDBRANCH  28  29
ENDBRANCH  25  28
ENDBRANCH   1  25
BRANCH   3  33
ATOM     33  O3' C5P d   1     -29.035   7.348 -26.605  0.00  0.00    -0.390 OA
ATOM     34  H5  C5P d   1     -28.222   7.186 -27.069  0.00  0.00     0.210 HD
ENDBRANCH   3  33
TORSDOF 7
