REMARK  6 active torsions:
REMARK  status: ('A' for Active; 'I' for Inactive)
REMARK    1  A    between atoms: N1_1  and  C1'_9 
REMARK    2  A    between atoms: C2'_10  and  O2'_11 
REMARK    3  A    between atoms: C3'_12  and  O3'_14 
REMARK    4  A    between atoms: C4'_13  and  C5'_16 
REMARK    5  A    between atoms: C5'_16  and  O5'_17 
REMARK    6  A    between atoms: O5'_17  and  P_18 
ROOT
ATOM      1  C1' U5P d   1     -29.217   5.864 -29.083  0.00  0.00     0.141 C 
ATOM      2  C2' U5P d   1     -30.130   6.911 -28.464  0.00  0.00     0.105 C 
ATOM      3  C3' U5P d   1     -29.935   6.649 -26.966  0.00  0.00     0.091 C 
ATOM      4  C4' U5P d   1     -29.593   5.154 -26.905  0.00  0.00     0.089 C 
ATOM      5  O4' U5P d   1     -29.355   4.727 -28.272  0.00  0.00    -0.353 OA
ATOM      6  H4  U5P d   1     -28.179   6.228 -29.061  0.00  0.00     0.123 H 
ATOM      7  H5  U5P d   1     -31.178   6.728 -28.745  0.00  0.00     0.093 H 
ATOM      8  H7  U5P d   1     -30.852   6.872 -26.401  0.00  0.00     0.091 H 
ATOM      9  H8  U5P d   1     -28.670   5.031 -26.320  0.00  0.00     0.090 H 
ENDROOT
BRANCH   1  10
ATOM     10  N1  U5P d   1     -29.557   5.503 -30.465  0.00  0.00    -0.280 N 
ATOM     11  C2  U5P d   1     -28.524   5.377 -31.410  0.00  0.00     0.331 A 
ATOM     12  N3  U5P d   1     -28.813   5.056 -32.674  0.00  0.00    -0.275 N 
ATOM     13  O2  U5P d   1     -27.339   5.574 -31.064  0.00  0.00    -0.246 OA
ATOM     14  C4  U5P d   1     -30.081   4.847 -33.049  0.00  0.00     0.250 A 
ATOM     15  H1  U5P d   1     -28.077   4.971 -33.345  0.00  0.00     0.173 HD
ATOM     16  C5  U5P d   1     -31.118   4.963 -32.134  0.00  0.00    -0.002 A 
ATOM     17  O4  U5P d   1     -30.334   4.548 -34.235  0.00  0.00    -0.268 OA
ATOM     18  C6  U5P d   1     -30.828   5.297 -30.819  0.00  0.00    -0.008 A 
ATOM     19  H2  U5P d   1     -32.148   4.794 -32.445  0.00  0.00     0.094 H 
ATOM     20  H3  U5P d   1     -31.627   5.390 -30.085  0.00  0.00     0.112 H 
ENDBRANCH   1  10
BRANCH   2  21
ATOM     21  O2' U5P d   1     -29.783   8.212 -28.882  0.00  0.00    -0.388 OA
ATOM     22  H6  U5P d   1     -28.889   8.400 -28.620  0.00  0.00     0.210 HD
ENDBRANCH   2  21
BRANCH   3  23
ATOM     23  O3' U5P d   1     -28.848   7.423 -26.452  0.00  0.00    -0.390 OA
ATOM     24  H9  U5P d   1     -28.070   7.259 -26.972  0.00  0.00     0.210 HD
ENDBRANCH   3  23
BRANCH   4  25
ATOM     25  C5' U5P d   1     -30.655   4.301 -26.270  0.00  0.00     0.059 C 
ATOM     26  H10 U5P d   1     -30.511   3.253 -26.570  0.00  0.00     0.079 H 
ATOM     27  H11 U5P d   1     -31.646   4.644 -26.601  0.00  0.00     0.079 H 
BRANCH  25  28
ATOM     28  O5' U5P d   1     -30.567   4.404 -24.855  0.00  0.00    -0.280 OA
BRANCH  28  29
ATOM     29  P   U5P d   1     -31.858   4.327 -23.926  0.00  0.00     0.422 P 
ATOM     30  O1P U5P d   1     -32.718   5.485 -24.371  0.00  0.00    -0.617 OA
ATOM     31  O2P U5P d   1     -32.451   2.965 -24.197  0.00  0.00    -0.617 OA
ATOM     32  O3P U5P d   1     -31.268   4.438 -22.541  0.00  0.00    -0.617 OA
ENDBRANCH  28  29
ENDBRANCH  25  28
ENDBRANCH   4  25
TORSDOF 6
