REMARK  8 active torsions:
REMARK  status: ('A' for Active; 'I' for Inactive)
REMARK    1  A    between atoms: PB_2  and  O5'_5 
REMARK    2  A    between atoms: O5'_5  and  C5'_6 
REMARK    3  A    between atoms: C5'_6  and  C4'_7 
REMARK    4  A    between atoms: C3'_9  and  O3'_10 
REMARK    5  A    between atoms: C2'_11  and  O2'_12 
REMARK    6  A    between atoms: C1'_13  and  N9_14 
REMARK    7  A    between atoms: N61_23  and  C62_24 
REMARK    8  A    between atoms: C72_26  and  N73_27 
ROOT
ATOM      1  N9  TR5 d   1      -9.706  -5.042   4.022  0.00  0.00    -0.310 N 
ATOM      2  C8  TR5 d   1      -9.857  -4.522   5.287  0.00  0.00    -0.001 A 
ATOM      3  C7  TR5 d   1      -8.931  -5.249   6.128  0.00  0.00     0.042 A 
ATOM      4  C5  TR5 d   1      -8.309  -6.130   5.318  0.00  0.00     0.073 A 
ATOM      5  C4  TR5 d   1      -8.773  -6.022   4.058  0.00  0.00     0.148 A 
ATOM      6  N3  TR5 d   1      -8.218  -6.876   3.163  0.00  0.00    -0.223 NA
ATOM      7  C2  TR5 d   1      -7.265  -7.768   3.519  0.00  0.00     0.091 A 
ATOM      8  N1  TR5 d   1      -6.791  -7.895   4.772  0.00  0.00    -0.222 NA
ATOM      9  C6  TR5 d   1      -7.296  -7.088   5.732  0.00  0.00     0.160 A 
ATOM     10  N61 TR5 d   1      -6.941  -7.070   7.087  0.00  0.00    -0.277 N 
ATOM     11  N71 TR5 d   1      -7.574  -6.158   7.956  0.00  0.00    -0.282 N 
ATOM     12  C72 TR5 d   1      -8.514  -5.272   7.559  0.00  0.00     0.126 A 
ATOM     13  H9  TR5 d   1     -10.535  -3.726   5.593  0.00  0.00     0.113 H 
ATOM     14  H10 TR5 d   1      -6.860  -8.417   2.751  0.00  0.00     0.146 H 
ATOM     15  H14 TR5 d   1      -7.305  -6.168   8.950  0.00  0.00     0.189 HD
ENDROOT
BRANCH   1  16
ATOM     16  C1' TR5 d   1     -10.436  -4.645   2.813  0.00  0.00     0.138 C 
ATOM     17  O4' TR5 d   1      -9.893  -3.461   2.298  0.00  0.00    -0.353 OA
ATOM     18  C4' TR5 d   1     -10.861  -2.896   1.381  0.00  0.00     0.089 C 
ATOM     19  C3' TR5 d   1     -12.225  -3.499   1.762  0.00  0.00     0.091 C 
ATOM     20  H3  TR5 d   1     -10.615  -3.213   0.357  0.00  0.00     0.090 H 
ATOM     21  C2' TR5 d   1     -11.914  -4.332   3.015  0.00  0.00     0.105 C 
ATOM     22  H4  TR5 d   1     -12.968  -2.716   1.975  0.00  0.00     0.091 H 
ATOM     23  H6  TR5 d   1     -12.063  -3.726   3.921  0.00  0.00     0.093 H 
ATOM     24  H8  TR5 d   1     -10.340  -5.457   2.077  0.00  0.00     0.122 H 
BRANCH  18  25
ATOM     25  C5' TR5 d   1     -10.815  -1.395   1.414  0.00  0.00     0.059 C 
ATOM     26  H1  TR5 d   1     -11.341  -1.032   2.309  0.00  0.00     0.079 H 
ATOM     27  H2  TR5 d   1      -9.767  -1.061   1.443  0.00  0.00     0.079 H 
BRANCH  25  28
ATOM     28  O5' TR5 d   1     -11.446  -0.874   0.250  0.00  0.00    -0.280 OA
BRANCH  28  29
ATOM     29  PB  TR5 d   1     -12.021   0.602   0.221  0.00  0.00     0.422 P 
ATOM     30  O2  TR5 d   1     -12.263   0.822  -1.255  0.00  0.00    -0.617 OA
ATOM     31  O3  TR5 d   1     -13.236   0.472   1.100  0.00  0.00    -0.617 OA
ATOM     32  O1  TR5 d   1     -10.895   1.406   0.819  0.00  0.00    -0.617 OA
ENDBRANCH  28  29
ENDBRANCH  25  28
ENDBRANCH  18  25
BRANCH  19  33
ATOM     33  O3' TR5 d   1     -12.687  -4.345   0.700  0.00  0.00    -0.390 OA
ATOM     34  H5  TR5 d   1     -13.529  -4.717   0.936  0.00  0.00     0.210 HD
ENDBRANCH  19  33
BRANCH  21  35
ATOM     35  O2' TR5 d   1     -12.686  -5.504   3.138  0.00  0.00    -0.388 OA
ATOM     36  H7  TR5 d   1     -12.532  -6.064   2.386  0.00  0.00     0.210 HD
ENDBRANCH  21  35
ENDBRANCH   1  16
BRANCH  12  37
ATOM     37  N73 TR5 d   1      -9.122  -4.353   8.554  0.00  0.00    -0.384 N 
ATOM     38  H15 TR5 d   1      -9.839  -3.675   8.258  0.00  0.00     0.157 HD
ATOM     39  H16 TR5 d   1      -8.827  -4.393   9.540  0.00  0.00     0.157 HD
ENDBRANCH  12  37
BRANCH  10  40
ATOM     40  C62 TR5 d   1      -5.924  -7.988   7.610  0.00  0.00     0.002 C 
ATOM     41  H11 TR5 d   1      -5.793  -7.814   8.688  0.00  0.00     0.059 H 
ATOM     42  H12 TR5 d   1      -4.970  -7.812   7.092  0.00  0.00     0.059 H 
ATOM     43  H13 TR5 d   1      -6.246  -9.026   7.442  0.00  0.00     0.059 H 
ENDBRANCH  10  40
TORSDOF 8
