REMARK  14 active torsions:
REMARK  status: ('A' for Active; 'I' for Inactive)
REMARK    1  A    between atoms: C12_2  and  C13_1 
REMARK    2  A    between atoms: O02_5  and  C01_4 
REMARK    3  A    between atoms: C03_6  and  O02_5 
REMARK    4  A    between atoms: C04_7  and  C03_6 
REMARK    5  A    between atoms: O05_8  and  C04_7 
REMARK    6  A    between atoms: C06_9  and  O05_8 
REMARK    7  A    between atoms: C08_11  and  C06_9 
REMARK    8  A    between atoms: C14_14  and  C25_25 
REMARK    9  A    between atoms: C15_15  and  C16_16 
REMARK   10  A    between atoms: C18_18  and  N22_22 
REMARK   11  A    between atoms: C25_25  and  O27_27 
REMARK   12  A    between atoms: O27_27  and  C28_28 
REMARK   13  A    between atoms: C28_28  and  C29_29 
REMARK   14  A    between atoms: C28_28  and  C30_30 
ROOT
ATOM      1  C12 6U9 d   1      -5.308 134.287  17.073  0.00  0.00     0.019 C 
ATOM      2  C10 6U9 d   1      -7.701 131.352  16.625  0.00  0.00    -0.100 C 
ATOM      3  C08 6U9 d   1      -7.233 133.248  15.078  0.00  0.00     0.077 C 
ATOM      4  C09 6U9 d   1      -7.060 132.600  16.358  0.00  0.00     0.010 C 
ATOM      5  N11 6U9 d   1      -5.861 132.928  17.128  0.00  0.00    -0.388 N 
ATOM      6  C14 6U9 d   1      -5.478 135.096  15.889  0.00  0.00     0.058 C 
ATOM      7  C15 6U9 d   1      -6.506 134.588  14.786  0.00  0.00     0.003 C 
ATOM      8  H4  6U9 d   1      -6.175 134.763  17.554  0.00  0.00     0.073 H 
ATOM      9  H5  6U9 d   1      -7.568 130.867  17.591  0.00  0.00     0.069 H 
ATOM     10  H6  6U9 d   1      -8.323 130.885  15.863  0.00  0.00     0.069 H 
ATOM     11  H14 6U9 d   1      -6.542 132.611  14.506  0.00  0.00     0.066 H 
ATOM     12  H15 6U9 d   1      -5.406 132.208  17.707  0.00  0.00     0.159 HD
ATOM     13  H16 6U9 d   1      -4.570 134.726  15.391  0.00  0.00     0.059 H 
ATOM     14  H17 6U9 d   1      -7.296 135.352  14.746  0.00  0.00     0.050 H 
ENDROOT
BRANCH   3  15
ATOM     15  C06 6U9 d   1      -8.519 132.868  14.314  0.00  0.00     0.269 C 
ATOM     16  O07 6U9 d   1      -9.619 133.145  14.833  0.00  0.00    -0.264 OA
BRANCH  15  17
ATOM     17  O05 6U9 d   1      -8.491 132.106  13.166  0.00  0.00    -0.319 OA
BRANCH  17  18
ATOM     18  C04 6U9 d   1      -9.812 131.857  12.666  0.00  0.00     0.048 C 
ATOM     19  H12 6U9 d   1     -10.178 130.903  13.073  0.00  0.00     0.078 H 
ATOM     20  H13 6U9 d   1     -10.478 132.672  12.985  0.00  0.00     0.078 H 
BRANCH  18  21
ATOM     21  C03 6U9 d   1      -9.807 131.781  11.118  0.00  0.00     0.039 C 
ATOM     22  H10 6U9 d   1      -9.874 132.803  10.716  0.00  0.00     0.077 H 
ATOM     23  H11 6U9 d   1      -8.863 131.320  10.792  0.00  0.00     0.077 H 
BRANCH  21  24
ATOM     24  O02 6U9 d   1     -10.897 131.011  10.594  0.00  0.00    -0.394 OA
BRANCH  24  25
ATOM     25  C01 6U9 d   1     -12.165 131.624  10.535  0.00  0.00     0.004 C 
ATOM     26  H7  6U9 d   1     -12.895 130.917  10.114  0.00  0.00     0.066 H 
ATOM     27  H8  6U9 d   1     -12.111 132.518   9.897  0.00  0.00     0.066 H 
ATOM     28  H9  6U9 d   1     -12.479 131.915  11.548  0.00  0.00     0.066 H 
ENDBRANCH  24  25
ENDBRANCH  21  24
ENDBRANCH  18  21
ENDBRANCH  17  18
ENDBRANCH  15  17
ENDBRANCH   3  15
BRANCH   7  29
ATOM     29  C16 6U9 d   1      -5.792 134.546  13.260  0.00  0.00    -0.050 A 
ATOM     30  C17 6U9 d   1      -5.559 135.687  12.558  0.00  0.00    -0.044 A 
ATOM     31  C18 6U9 d   1      -4.864 135.663  11.292  0.00  0.00     0.103 A 
ATOM     32  H18 6U9 d   1      -5.902 136.635  12.957  0.00  0.00     0.088 H 
ATOM     33  C19 6U9 d   1      -4.472 134.425  10.799  0.00  0.00    -0.051 A 
ATOM     34  C20 6U9 d   1      -4.732 133.255  11.540  0.00  0.00    -0.080 A 
ATOM     35  H19 6U9 d   1      -3.965 134.359   9.843  0.00  0.00     0.087 H 
ATOM     36  C21 6U9 d   1      -5.365 133.352  12.779  0.00  0.00    -0.076 A 
ATOM     37  H20 6U9 d   1      -4.442 132.286  11.150  0.00  0.00     0.083 H 
ATOM     38  H21 6U9 d   1      -5.519 132.456  13.369  0.00  0.00     0.084 H 
BRANCH  31  39
ATOM     39  N22 6U9 d   1      -4.554 136.883  10.446  0.00  0.00    -0.116 N 
ATOM     40  O23 6U9 d   1      -5.215 138.117  10.807  0.00  0.00    -0.532 OA
ATOM     41  O24 6U9 d   1      -3.783 136.920   9.463  0.00  0.00    -0.532 OA
ENDBRANCH  31  39
ENDBRANCH   7  29
BRANCH   6  42
ATOM     42  C25 6U9 d   1      -5.069 136.659  15.801  0.00  0.00     0.266 C 
ATOM     43  O26 6U9 d   1      -5.559 137.269  14.908  0.00  0.00    -0.265 OA
BRANCH  42  44
ATOM     44  O27 6U9 d   1      -4.369 137.440  16.775  0.00  0.00    -0.316 OA
BRANCH  44  45
ATOM     45  C28 6U9 d   1      -3.972 138.864  16.642  0.00  0.00     0.041 C 
ATOM     46  H22 6U9 d   1      -4.292 139.240  15.659  0.00  0.00     0.083 H 
BRANCH  45  47
ATOM     47  C29 6U9 d   1      -4.501 139.805  17.767  0.00  0.00    -0.052 C 
ATOM     48  H23 6U9 d   1      -4.155 140.832  17.579  0.00  0.00     0.030 H 
ATOM     49  H24 6U9 d   1      -4.121 139.462  18.741  0.00  0.00     0.030 H 
ATOM     50  H25 6U9 d   1      -5.601 139.785  17.775  0.00  0.00     0.030 H 
ENDBRANCH  45  47
BRANCH  45  51
ATOM     51  C30 6U9 d   1      -2.451 138.920  16.798  0.00  0.00    -0.052 C 
ATOM     52  H26 6U9 d   1      -2.111 139.962  16.706  0.00  0.00     0.030 H 
ATOM     53  H27 6U9 d   1      -1.979 138.310  16.014  0.00  0.00     0.030 H 
ATOM     54  H28 6U9 d   1      -2.169 138.528  17.787  0.00  0.00     0.030 H 
ENDBRANCH  45  51
ENDBRANCH  44  45
ENDBRANCH  42  44
ENDBRANCH   6  42
BRANCH   1  55
ATOM     55  C13 6U9 d   1      -4.411 134.527  18.258  0.00  0.00    -0.057 C 
ATOM     56  H1  6U9 d   1      -4.002 135.547  18.208  0.00  0.00     0.030 H 
ATOM     57  H2  6U9 d   1      -3.586 133.800  18.246  0.00  0.00     0.030 H 
ATOM     58  H3  6U9 d   1      -4.990 134.410  19.186  0.00  0.00     0.030 H 
ENDBRANCH   1  55
TORSDOF 14
