REMARK  17 active torsions:
REMARK  status: ('A' for Active; 'I' for Inactive)
REMARK    1  A    between atoms: C01_1  and  O02_2 
REMARK    2  A    between atoms: O02_2  and  C03_3 
REMARK    3  A    between atoms: C04_4  and  O05_5 
REMARK    4  A    between atoms: O05_5  and  C06_6 
REMARK    5  A    between atoms: C08_8  and  C09_9 
REMARK    6  A    between atoms: C09_9  and  C10_10 
REMARK    7  A    between atoms: C10_10  and  N11_11 
REMARK    8  A    between atoms: N11_11  and  C12_12 
REMARK    9  A    between atoms: N11_11  and  C13_13 
REMARK   10  A    between atoms: C13_13  and  C14_14 
REMARK   11  A    between atoms: C14_14  and  C15_15 
REMARK   12  A    between atoms: C15_15  and  C16_16 
REMARK   13  A    between atoms: C16_16  and  C17_17 
REMARK   14  A    between atoms: C16_16  and  C19_19 
REMARK   15  A    between atoms: C16_16  and  C22_22 
REMARK   16  A    between atoms: C19_19  and  C20_20 
REMARK   17  A    between atoms: C19_19  and  C21_21 
ROOT
ATOM      1  C13 6U8 d   1      -1.058  31.797  22.287  0.00  0.00     0.083 C 
ATOM      2  H16 6U8 d   1      -1.292  32.081  21.250  0.00  0.00     0.075 H 
ATOM      3  H17 6U8 d   1      -0.548  30.823  22.294  0.00  0.00     0.075 H 
ENDROOT
BRANCH   1   4
ATOM      4  N11 6U8 d   1      -2.333  31.671  23.044  0.00  0.00    -0.075 N 
ATOM      5  H12 6U8 d   1      -2.154  32.011  23.976  0.00  0.00     0.279 HD
BRANCH   4   6
ATOM      6  C10 6U8 d   1      -2.774  30.259  23.164  0.00  0.00     0.087 C 
ATOM      7  H10 6U8 d   1      -3.088  29.926  22.163  0.00  0.00     0.076 H 
ATOM      8  H11 6U8 d   1      -1.905  29.670  23.490  0.00  0.00     0.076 H 
BRANCH   6   9
ATOM      9  C09 6U8 d   1      -3.956  29.944  24.157  0.00  0.00    -0.018 C 
ATOM     10  H8  6U8 d   1      -3.715  30.327  25.160  0.00  0.00     0.042 H 
ATOM     11  H9  6U8 d   1      -4.882  30.416  23.797  0.00  0.00     0.042 H 
BRANCH   9  12
ATOM     12  C08 6U8 d   1      -4.133  28.413  24.209  0.00  0.00    -0.054 A 
ATOM     13  C07 6U8 d   1      -3.173  27.656  24.863  0.00  0.00    -0.042 A 
ATOM     14  C04 6U8 d   1      -3.178  26.248  24.927  0.00  0.00     0.102 A 
ATOM     15  H7  6U8 d   1      -2.365  28.182  25.358  0.00  0.00     0.088 H 
ATOM     16  C03 6U8 d   1      -4.220  25.531  24.318  0.00  0.00     0.101 A 
ATOM     17  C33 6U8 d   1      -5.197  26.308  23.656  0.00  0.00    -0.048 A 
ATOM     18  C32 6U8 d   1      -5.159  27.731  23.586  0.00  0.00    -0.074 A 
ATOM     19  H36 6U8 d   1      -6.021  25.793  23.175  0.00  0.00     0.087 H 
ATOM     20  H35 6U8 d   1      -5.929  28.273  23.049  0.00  0.00     0.084 H 
BRANCH  14  21
ATOM     21  O05 6U8 d   1      -2.118  25.661  25.634  0.00  0.00    -0.353 OA
BRANCH  21  22
ATOM     22  C06 6U8 d   1      -1.344  26.621  26.329  0.00  0.00     0.010 C 
ATOM     23  H4  6U8 d   1      -0.528  26.115  26.866  0.00  0.00     0.066 H 
ATOM     24  H5  6U8 d   1      -1.982  27.154  27.049  0.00  0.00     0.066 H 
ATOM     25  H6  6U8 d   1      -0.920  27.340  25.612  0.00  0.00     0.066 H 
ENDBRANCH  21  22
ENDBRANCH  14  21
BRANCH  16  26
ATOM     26  O02 6U8 d   1      -4.336  24.104  24.339  0.00  0.00    -0.353 OA
BRANCH  26  27
ATOM     27  C01 6U8 d   1      -3.167  23.266  24.275  0.00  0.00     0.010 C 
ATOM     28  H1  6U8 d   1      -3.471  22.209  24.304  0.00  0.00     0.066 H 
ATOM     29  H2  6U8 d   1      -2.513  23.483  25.132  0.00  0.00     0.066 H 
ATOM     30  H3  6U8 d   1      -2.624  23.465  23.340  0.00  0.00     0.066 H 
ENDBRANCH  26  27
ENDBRANCH  16  26
ENDBRANCH   9  12
ENDBRANCH   6   9
ENDBRANCH   4   6
BRANCH   4  31
ATOM     31  C12 6U8 d   1      -3.423  32.496  22.479  0.00  0.00     0.066 C 
ATOM     32  H13 6U8 d   1      -3.087  33.540  22.394  0.00  0.00     0.068 H 
ATOM     33  H14 6U8 d   1      -4.301  32.446  23.140  0.00  0.00     0.068 H 
ATOM     34  H15 6U8 d   1      -3.692  32.115  21.483  0.00  0.00     0.068 H 
ENDBRANCH   4  31
ENDBRANCH   1   4
BRANCH   1  35
ATOM     35  C14 6U8 d   1      -0.100  32.862  22.888  0.00  0.00    -0.041 C 
ATOM     36  H18 6U8 d   1       0.392  33.388  22.056  0.00  0.00     0.035 H 
ATOM     37  H19 6U8 d   1       0.658  32.340  23.490  0.00  0.00     0.035 H 
BRANCH  35  38
ATOM     38  C15 6U8 d   1      -0.789  33.923  23.792  0.00  0.00    -0.048 C 
ATOM     39  H20 6U8 d   1      -1.796  33.528  23.990  0.00  0.00     0.035 H 
ATOM     40  H21 6U8 d   1      -0.866  34.829  23.173  0.00  0.00     0.035 H 
BRANCH  38  41
ATOM     41  C16 6U8 d   1      -0.254  34.409  25.175  0.00  0.00     0.025 C 
BRANCH  41  42
ATOM     42  C17 6U8 d   1      -1.146  35.607  25.578  0.00  0.00    -0.013 C 
ATOM     43  N18 6U8 d   1      -1.845  36.186  24.833  0.00  0.00    -0.315 NA
ATOM     44  H23 6U8 d   1      -2.401  36.959  25.162  0.00  0.00     0.185 HD
ATOM     45  H22 6U8 d   1      -1.124  35.934  26.617  0.00  0.00     0.108 H 
ENDBRANCH  41  42
BRANCH  41  46
ATOM     46  C19 6U8 d   1      -0.449  33.402  26.364  0.00  0.00    -0.045 C 
ATOM     47  H24 6U8 d   1       0.498  33.525  26.910  0.00  0.00     0.041 H 
BRANCH  46  48
ATOM     48  C20 6U8 d   1      -0.495  31.883  26.119  0.00  0.00    -0.072 C 
ATOM     49  H25 6U8 d   1      -0.638  31.361  27.077  0.00  0.00     0.028 H 
ATOM     50  H26 6U8 d   1       0.450  31.557  25.661  0.00  0.00     0.028 H 
ATOM     51  H27 6U8 d   1      -1.331  31.645  25.444  0.00  0.00     0.028 H 
ENDBRANCH  46  48
BRANCH  46  52
ATOM     52  C21 6U8 d   1      -1.519  33.801  27.401  0.00  0.00    -0.072 C 
ATOM     53  H28 6U8 d   1      -1.479  34.887  27.570  0.00  0.00     0.028 H 
ATOM     54  H29 6U8 d   1      -1.326  33.276  28.348  0.00  0.00     0.028 H 
ATOM     55  H30 6U8 d   1      -2.515  33.525  27.025  0.00  0.00     0.028 H 
ENDBRANCH  46  52
ENDBRANCH  41  46
BRANCH  41  56
ATOM     56  C22 6U8 d   1       1.251  34.793  25.041  0.00  0.00    -0.027 A 
ATOM     57  C23 6U8 d   1       2.151  33.738  25.243  0.00  0.00    -0.074 A 
ATOM     58  C24 6U8 d   1       3.518  33.919  25.168  0.00  0.00    -0.082 A 
ATOM     59  H31 6U8 d   1       1.763  32.751  25.465  0.00  0.00     0.084 H 
ATOM     60  C27 6U8 d   1       4.046  35.169  24.890  0.00  0.00    -0.082 A 
ATOM     61  H32 6U8 d   1       4.182  33.077  25.328  0.00  0.00     0.083 H 
ATOM     62  C30 6U8 d   1       3.176  36.245  24.684  0.00  0.00    -0.066 A 
ATOM     63  H33 6U8 d   1       5.119  35.312  24.833  0.00  0.00     0.083 H 
ATOM     64  C31 6U8 d   1       1.785  36.089  24.745  0.00  0.00     0.018 A 
ATOM     65  H34 6U8 d   1       3.589  37.225  24.472  0.00  0.00     0.085 H 
ATOM     66 BR32 6U8 d   1       0.778  37.748  24.420  0.00  0.00    -0.051 Br
ENDBRANCH  41  56
ENDBRANCH  38  41
ENDBRANCH  35  38
ENDBRANCH   1  35
TORSDOF 17
