REMARK  13 active torsions:
REMARK  status: ('A' for Active; 'I' for Inactive)
REMARK    1  A    between atoms: PBB_2  and  CAP_5 
REMARK    2  A    between atoms: CAP_5  and  CAK_6 
REMARK    3  A    between atoms: CAK_6  and  OAU_7 
REMARK    4  A    between atoms: OAU_7  and  CAJ_8 
REMARK    5  A    between atoms: CAJ_8  and  CAL_9 
REMARK    6  A    between atoms: CAL_9  and  NAZ_10 
REMARK    7  A    between atoms: NAZ_10  and  CAN_11 
REMARK    8  A    between atoms: NAZ_10  and  CAM_17 
REMARK    9  A    between atoms: CAN_11  and  CAQ_12 
REMARK   10  A    between atoms: CAQ_12  and  PBC_13 
REMARK   11  A    between atoms: CAM_17  and  CAO_18 
REMARK   12  A    between atoms: CAO_18  and  N9_19 
REMARK   13  A    between atoms: C2_22  and  N2_23 
ROOT
ATOM      1  NAZ 3L5 d   1      -6.033  29.134 -42.813  0.00  0.00     0.092 N 
ENDROOT
BRANCH   1   2
ATOM      2  CAL 3L5 d   1      -6.447  29.660 -41.515  0.00  0.00     0.133 C 
ATOM      3  H7  3L5 d   1      -6.547  28.827 -40.803  0.00  0.00     0.083 H 
ATOM      4  H8  3L5 d   1      -5.684  30.364 -41.151  0.00  0.00     0.083 H 
BRANCH   2   5
ATOM      5  CAJ 3L5 d   1      -7.806  30.397 -41.630  0.00  0.00     0.044 C 
ATOM      6  H5  3L5 d   1      -8.317  30.384 -40.656  0.00  0.00     0.077 H 
ATOM      7  H6  3L5 d   1      -7.636  31.438 -41.941  0.00  0.00     0.077 H 
BRANCH   5   8
ATOM      8  OAU 3L5 d   1      -8.609  29.733 -42.600  0.00  0.00    -0.389 OA
BRANCH   8   9
ATOM      9  CAK 3L5 d   1      -9.661  28.944 -42.033  0.00  0.00     0.031 C 
ATOM     10  H3  3L5 d   1      -9.337  27.896 -41.954  0.00  0.00     0.075 H 
ATOM     11  H4  3L5 d   1      -9.914  29.326 -41.033  0.00  0.00     0.075 H 
BRANCH   9  12
ATOM     12  CAP 3L5 d   1     -10.900  29.039 -42.957  0.00  0.00     0.059 C 
ATOM     13  H1  3L5 d   1     -10.659  29.686 -43.813  0.00  0.00     0.057 H 
ATOM     14  H2  3L5 d   1     -11.154  28.032 -43.319  0.00  0.00     0.057 H 
BRANCH  12  15
ATOM     15  PBB 3L5 d   1     -12.335  29.730 -42.080  0.00  0.00     0.261 P 
ATOM     16  OAE 3L5 d   1     -13.567  29.563 -42.924  0.00  0.00    -0.640 OA
ATOM     17  OAF 3L5 d   1     -12.519  29.002 -40.770  0.00  0.00    -0.640 OA
ATOM     18  OAC 3L5 d   1     -12.104  31.206 -41.810  0.00  0.00    -0.640 OA
ENDBRANCH  12  15
ENDBRANCH   9  12
ENDBRANCH   8   9
ENDBRANCH   5   8
ENDBRANCH   2   5
ENDBRANCH   1   2
BRANCH   1  19
ATOM     19  CAN 3L5 d   1      -5.008  30.007 -43.386  0.00  0.00     0.125 C 
ATOM     20  H9  3L5 d   1      -4.758  29.651 -44.396  0.00  0.00     0.080 H 
ATOM     21  H10 3L5 d   1      -4.110  29.971 -42.752  0.00  0.00     0.080 H 
BRANCH  19  22
ATOM     22  CAQ 3L5 d   1      -5.498  31.450 -43.473  0.00  0.00     0.064 C 
ATOM     23  H11 3L5 d   1      -6.343  31.585 -42.781  0.00  0.00     0.056 H 
ATOM     24  H12 3L5 d   1      -5.830  31.655 -44.502  0.00  0.00     0.056 H 
BRANCH  22  25
ATOM     25  PBC 3L5 d   1      -4.191  32.606 -43.036  0.00  0.00     0.261 P 
ATOM     26  OAG 3L5 d   1      -3.137  32.580 -44.103  0.00  0.00    -0.640 OA
ATOM     27  OAH 3L5 d   1      -4.762  34.001 -42.928  0.00  0.00    -0.640 OA
ATOM     28  OAD 3L5 d   1      -3.573  32.209 -41.706  0.00  0.00    -0.640 OA
ENDBRANCH  22  25
ENDBRANCH  19  22
ENDBRANCH   1  19
BRANCH   1  29
ATOM     29  CAM 3L5 d   1      -5.451  27.750 -42.630  0.00  0.00     0.128 C 
ATOM     30  H13 3L5 d   1      -4.599  27.806 -41.936  0.00  0.00     0.082 H 
ATOM     31  H14 3L5 d   1      -5.106  27.372 -43.604  0.00  0.00     0.082 H 
BRANCH  29  32
ATOM     32  CAO 3L5 d   1      -6.526  26.764 -42.047  0.00  0.00     0.027 C 
ATOM     33  H15 3L5 d   1      -6.635  25.905 -42.726  0.00  0.00     0.067 H 
ATOM     34  H16 3L5 d   1      -7.489  27.289 -41.962  0.00  0.00     0.067 H 
BRANCH  32  35
ATOM     35  N9  3L5 d   1      -6.124  26.284 -40.728  0.00  0.00    -0.322 N 
ATOM     36  C4  3L5 d   1      -6.841  25.425 -39.938  0.00  0.00     0.183 A 
ATOM     37  N3  3L5 d   1      -8.031  24.794 -40.083  0.00  0.00    -0.044 NA
ATOM     38  C5  3L5 d   1      -6.090  25.235 -38.760  0.00  0.00     0.159 A 
ATOM     39  C2  3L5 d   1      -8.503  23.999 -39.140  0.00  0.00     0.702 A 
ATOM     40  N1  3L5 d   1      -7.837  23.779 -38.002  0.00  0.00    -0.164 N 
ATOM     41  C6  3L5 d   1      -6.650  24.365 -37.773  0.00  0.00     0.226 A 
ATOM     42  H19 3L5 d   1      -8.228  23.170 -37.312  0.00  0.00     0.186 HD
ATOM     43  O6  3L5 d   1      -5.972  24.123 -36.582  0.00  0.00    -0.169 OA
ATOM     44  N7  3L5 d   1      -4.958  25.984 -38.892  0.00  0.00    -0.235 NA
ATOM     45  C8  3L5 d   1      -5.005  26.605 -40.084  0.00  0.00     0.068 A 
ATOM     46  H20 3L5 d   1      -4.237  27.275 -40.467  0.00  0.00     0.143 H 
BRANCH  39  47
ATOM     47  N2  3L5 d   1      -9.719  23.385 -39.345  0.00  0.00    -0.233 N 
ATOM     48  H17 3L5 d   1     -10.238  23.550 -40.219  0.00  0.00     0.174 HD
ATOM     49  H18 3L5 d   1     -10.109  22.761 -38.624  0.00  0.00     0.174 HD
ENDBRANCH  39  47
ENDBRANCH  32  35
ENDBRANCH  29  32
ENDBRANCH   1  29
TORSDOF 13
