REMARK  12 active torsions:
REMARK  status: ('A' for Active; 'I' for Inactive)
REMARK    1  A    between atoms: PBA_2  and  CAP_5 
REMARK    2  A    between atoms: CAP_5  and  CAK_6 
REMARK    3  A    between atoms: CAK_6  and  OAU_7 
REMARK    4  A    between atoms: OAU_7  and  CAJ_8 
REMARK    5  A    between atoms: CAJ_8  and  CAL_9 
REMARK    6  A    between atoms: CAL_9  and  NAY_10 
REMARK    7  A    between atoms: NAY_10  and  CAN_11 
REMARK    8  A    between atoms: NAY_10  and  CAM_17 
REMARK    9  A    between atoms: CAN_11  and  CAQ_12 
REMARK   10  A    between atoms: CAQ_12  and  PBB_13 
REMARK   11  A    between atoms: CAM_17  and  CAO_18 
REMARK   12  A    between atoms: CAO_18  and  N9_19 
ROOT
ATOM      1  NAY 3L7 d   1     -36.188  42.125 -43.784  0.00  0.00     0.092 N 
ENDROOT
BRANCH   1   2
ATOM      2  CAL 3L7 d   1     -35.002  41.698 -43.095  0.00  0.00     0.133 C 
ATOM      3  H7  3L7 d   1     -34.418  42.582 -42.800  0.00  0.00     0.083 H 
ATOM      4  H8  3L7 d   1     -35.290  41.132 -42.197  0.00  0.00     0.083 H 
BRANCH   2   5
ATOM      5  CAJ 3L7 d   1     -34.150  40.812 -43.992  0.00  0.00     0.044 C 
ATOM      6  H5  3L7 d   1     -34.701  39.891 -44.235  0.00  0.00     0.077 H 
ATOM      7  H6  3L7 d   1     -33.906  41.349 -44.920  0.00  0.00     0.077 H 
BRANCH   5   8
ATOM      8  OAU 3L7 d   1     -32.965  40.489 -43.304  0.00  0.00    -0.389 OA
BRANCH   8   9
ATOM      9  CAK 3L7 d   1     -31.788  40.678 -44.077  0.00  0.00     0.031 C 
ATOM     10  H3  3L7 d   1     -31.464  39.716 -44.500  0.00  0.00     0.075 H 
ATOM     11  H4  3L7 d   1     -31.990  41.388 -44.893  0.00  0.00     0.075 H 
BRANCH   9  12
ATOM     12  CAP 3L7 d   1     -30.710  41.228 -43.182  0.00  0.00     0.059 C 
ATOM     13  H1  3L7 d   1     -31.178  41.647 -42.279  0.00  0.00     0.057 H 
ATOM     14  H2  3L7 d   1     -30.032  40.409 -42.898  0.00  0.00     0.057 H 
BRANCH  12  15
ATOM     15  PBA 3L7 d   1     -29.748  42.527 -43.998  0.00  0.00     0.261 P 
ATOM     16  OAD 3L7 d   1     -28.748  41.905 -44.923  0.00  0.00    -0.640 OA
ATOM     17  OAE 3L7 d   1     -30.669  43.417 -44.781  0.00  0.00    -0.640 OA
ATOM     18  OAB 3L7 d   1     -29.028  43.346 -42.957  0.00  0.00    -0.640 OA
ENDBRANCH  12  15
ENDBRANCH   9  12
ENDBRANCH   8   9
ENDBRANCH   5   8
ENDBRANCH   2   5
ENDBRANCH   1   2
BRANCH   1  19
ATOM     19  CAN 3L7 d   1     -36.809  40.997 -44.403  0.00  0.00     0.125 C 
ATOM     20  H9  3L7 d   1     -36.658  40.109 -43.771  0.00  0.00     0.080 H 
ATOM     21  H10 3L7 d   1     -36.351  40.828 -45.389  0.00  0.00     0.080 H 
BRANCH  19  22
ATOM     22  CAQ 3L7 d   1     -38.302  41.236 -44.580  0.00  0.00     0.064 C 
ATOM     23  H11 3L7 d   1     -38.450  42.035 -45.322  0.00  0.00     0.056 H 
ATOM     24  H12 3L7 d   1     -38.731  41.547 -43.616  0.00  0.00     0.056 H 
BRANCH  22  25
ATOM     25  PBB 3L7 d   1     -39.167  39.718 -45.156  0.00  0.00     0.261 P 
ATOM     26  OAF 3L7 d   1     -39.295  39.746 -46.655  0.00  0.00    -0.640 OA
ATOM     27  OAG 3L7 d   1     -38.371  38.504 -44.736  0.00  0.00    -0.640 OA
ATOM     28  OAC 3L7 d   1     -40.549  39.630 -44.549  0.00  0.00    -0.640 OA
ENDBRANCH  22  25
ENDBRANCH  19  22
ENDBRANCH   1  19
BRANCH   1  29
ATOM     29  CAM 3L7 d   1     -37.097  42.720 -42.862  0.00  0.00     0.128 C 
ATOM     30  H13 3L7 d   1     -37.300  42.012 -42.045  0.00  0.00     0.082 H 
ATOM     31  H14 3L7 d   1     -38.036  42.958 -43.382  0.00  0.00     0.082 H 
BRANCH  29  32
ATOM     32  CAO 3L7 d   1     -36.508  43.998 -42.282  0.00  0.00     0.027 C 
ATOM     33  H15 3L7 d   1     -36.440  44.757 -43.075  0.00  0.00     0.067 H 
ATOM     34  H16 3L7 d   1     -35.503  43.787 -41.889  0.00  0.00     0.067 H 
BRANCH  32  35
ATOM     35  N9  3L7 d   1     -37.324  44.494 -41.232  0.00  0.00    -0.322 N 
ATOM     36  C4  3L7 d   1     -36.860  45.255 -40.308  0.00  0.00     0.165 A 
ATOM     37  N3  3L7 d   1     -35.645  45.752 -40.064  0.00  0.00    -0.224 NA
ATOM     38  C5  3L7 d   1     -37.918  45.518 -39.503  0.00  0.00     0.158 A 
ATOM     39  C2  3L7 d   1     -35.419  46.547 -38.993  0.00  0.00     0.068 A 
ATOM     40  N1  3L7 d   1     -36.478  46.827 -38.163  0.00  0.00    -0.327 N 
ATOM     41  H17 3L7 d   1     -34.428  46.953 -38.795  0.00  0.00     0.143 H 
ATOM     42  C6  3L7 d   1     -37.731  46.304 -38.429  0.00  0.00     0.212 A 
ATOM     43  H18 3L7 d   1     -36.342  47.411 -37.363  0.00  0.00     0.168 HD
ATOM     44  O6  3L7 d   1     -38.787  46.592 -37.591  0.00  0.00    -0.169 OA
ATOM     45  N7  3L7 d   1     -39.009  44.842 -40.059  0.00  0.00    -0.235 NA
ATOM     46  C8  3L7 d   1     -38.558  44.221 -41.144  0.00  0.00     0.068 A 
ATOM     47  H19 3L7 d   1     -39.137  43.599 -41.825  0.00  0.00     0.143 H 
ENDBRANCH  32  35
ENDBRANCH  29  32
ENDBRANCH   1  29
TORSDOF 12
