REMARK  11 active torsions:
REMARK  status: ('A' for Active; 'I' for Inactive)
REMARK    1  A    between atoms: N9_10  and  CAL_11 
REMARK    2  A    between atoms: CAL_11  and  CAJ_12 
REMARK    3  A    between atoms: CAJ_12  and  NAV_13 
REMARK    4  A    between atoms: NAV_13  and  CAK_14 
REMARK    5  A    between atoms: NAV_13  and  CAN_20 
REMARK    6  A    between atoms: CAK_14  and  CAM_15 
REMARK    7  A    between atoms: CAM_15  and  PAX_16 
REMARK    8  A    between atoms: CAN_20  and  CAU_21 
REMARK    9  A    between atoms: CAU_21  and  OAD_22 
REMARK   10  A    between atoms: CAU_21  and  CAI_23 
REMARK   11  A    between atoms: CAI_23  and  OAC_24 
ROOT
ATOM      1  NAV 6WB d   1      30.001 -10.783 -15.744  0.00  0.00    -0.066 N 
ATOM      2  H8  6WB d   1      29.727  -9.950 -16.240  0.00  0.00     0.280 HD
ENDROOT
BRANCH   1   3
ATOM      3  CAJ 6WB d   1      29.320 -10.818 -14.496  0.00  0.00     0.099 C 
ATOM      4  H6  6WB d   1      29.422 -11.825 -14.064  0.00  0.00     0.078 H 
ATOM      5  H7  6WB d   1      29.779 -10.081 -13.820  0.00  0.00     0.078 H 
BRANCH   3   6
ATOM      6  CAL 6WB d   1      27.797 -10.485 -14.648  0.00  0.00     0.025 C 
ATOM      7  H4  6WB d   1      27.699  -9.456 -15.025  0.00  0.00     0.067 H 
ATOM      8  H5  6WB d   1      27.356 -11.184 -15.374  0.00  0.00     0.067 H 
BRANCH   6   9
ATOM      9  N9  6WB d   1      27.076 -10.590 -13.419  0.00  0.00    -0.322 N 
ATOM     10  C4  6WB d   1      26.932  -9.628 -12.436  0.00  0.00     0.166 A 
ATOM     11  C5  6WB d   1      26.120 -10.181 -11.397  0.00  0.00     0.172 A 
ATOM     12  N3  6WB d   1      27.411  -8.336 -12.312  0.00  0.00    -0.224 NA
ATOM     13  C6  6WB d   1      25.838  -9.357 -10.250  0.00  0.00     0.279 A 
ATOM     14  N7  6WB d   1      25.808 -11.464 -11.810  0.00  0.00    -0.234 NA
ATOM     15  N1  6WB d   1      26.352  -8.101 -10.218  0.00  0.00    -0.316 N 
ATOM     16  O6  6WB d   1      25.162  -9.770  -9.349  0.00  0.00    -0.265 OA
ATOM     17  C2  6WB d   1      27.115  -7.618 -11.227  0.00  0.00     0.069 A 
ATOM     18  H2  6WB d   1      26.162  -7.517  -9.429  0.00  0.00     0.170 HD
ATOM     19  H3  6WB d   1      27.503  -6.603 -11.150  0.00  0.00     0.143 H 
ATOM     20  C8  6WB d   1      26.379 -11.675 -13.002  0.00  0.00     0.068 A 
ATOM     21  H1  6WB d   1      26.294 -12.602 -13.566  0.00  0.00     0.143 H 
ENDBRANCH   6   9
ENDBRANCH   3   6
ENDBRANCH   1   3
BRANCH   1  22
ATOM     22  CAK 6WB d   1      29.668 -11.960 -16.556  0.00  0.00     0.095 C 
ATOM     23  H9  6WB d   1      29.991 -11.787 -17.593  0.00  0.00     0.077 H 
ATOM     24  H10 6WB d   1      28.580 -12.120 -16.533  0.00  0.00     0.077 H 
BRANCH  22  25
ATOM     25  CAM 6WB d   1      30.370 -13.202 -16.011  0.00  0.00     0.061 C 
ATOM     26  H11 6WB d   1      30.036 -13.377 -14.978  0.00  0.00     0.056 H 
ATOM     27  H12 6WB d   1      31.457 -13.032 -16.022  0.00  0.00     0.056 H 
BRANCH  25  28
ATOM     28  PAX 6WB d   1      29.988 -14.684 -17.020  0.00  0.00     0.261 P 
ATOM     29  OAE 6WB d   1      30.580 -14.522 -18.400  0.00  0.00    -0.640 OA
ATOM     30  OAF 6WB d   1      30.564 -15.865 -16.396  0.00  0.00    -0.640 OA
ATOM     31  OAB 6WB d   1      28.474 -14.856 -17.104  0.00  0.00    -0.640 OA
ENDBRANCH  25  28
ENDBRANCH  22  25
ENDBRANCH   1  22
BRANCH   1  32
ATOM     32  CAN 6WB d   1      31.445 -10.767 -15.535  0.00  0.00     0.109 C 
ATOM     33  H13 6WB d   1      31.883 -11.688 -15.947  0.00  0.00     0.080 H 
ATOM     34  H14 6WB d   1      31.656 -10.711 -14.457  0.00  0.00     0.080 H 
BRANCH  32  35
ATOM     35  CAU 6WB d   1      32.071  -9.543 -16.242  0.00  0.00     0.079 C 
ATOM     36  H15 6WB d   1      31.808  -9.546 -17.310  0.00  0.00     0.088 H 
BRANCH  35  37
ATOM     37  OAD 6WB d   1      33.505  -9.583 -16.084  0.00  0.00    -0.392 OA
ATOM     38  H16 6WB d   1      33.721  -9.562 -15.159  0.00  0.00     0.210 HD
ENDBRANCH  35  37
BRANCH  35  39
ATOM     39  CAI 6WB d   1      31.573  -8.346 -15.607  0.00  0.00     0.042 C 
ATOM     40  H17 6WB d   1      30.479  -8.399 -15.501  0.00  0.00     0.077 H 
ATOM     41  H18 6WB d   1      31.841  -7.460 -16.202  0.00  0.00     0.077 H 
BRANCH  39  42
ATOM     42  OAC 6WB d   1      32.192  -8.282 -14.318  0.00  0.00    -0.398 OA
ATOM     43  H19 6WB d   1      33.136  -8.244 -14.423  0.00  0.00     0.209 HD
ENDBRANCH  39  42
ENDBRANCH  35  39
ENDBRANCH  32  35
ENDBRANCH   1  32
TORSDOF 11
