REMARK  10 active torsions:
REMARK  status: ('A' for Active; 'I' for Inactive)
REMARK    1  A    between atoms: PAY_2  and  CAN_5 
REMARK    2  A    between atoms: CAN_5  and  CAJ_6 
REMARK    3  A    between atoms: CAJ_6  and  CAL_7 
REMARK    4  A    between atoms: CAL_7  and  NAX_8 
REMARK    5  A    between atoms: NAX_8  and  CAM_9 
REMARK    6  A    between atoms: NAX_8  and  CAP_16 
REMARK    7  A    between atoms: CAM_9  and  CAK_10 
REMARK    8  A    between atoms: CAK_10  and  CAO_11 
REMARK    9  A    between atoms: CAO_11  and  PAZ_12 
REMARK   10  A    between atoms: CAP_16  and  CAT_17 
ROOT
ATOM      1  NAX 6WA d   1      -8.032  27.293 -42.375  0.00  0.00     0.092 N 
ENDROOT
BRANCH   1   2
ATOM      2  CAL 6WA d   1      -7.409  28.520 -41.873  0.00  0.00     0.114 C 
ATOM      3  H5  6WA d   1      -8.167  29.316 -41.844  0.00  0.00     0.079 H 
ATOM      4  H6  6WA d   1      -7.031  28.336 -40.856  0.00  0.00     0.079 H 
BRANCH   2   5
ATOM      5  CAJ 6WA d   1      -6.233  28.983 -42.766  0.00  0.00    -0.028 C 
ATOM      6  H3  6WA d   1      -5.476  28.185 -42.800  0.00  0.00     0.036 H 
ATOM      7  H4  6WA d   1      -6.611  29.174 -43.781  0.00  0.00     0.036 H 
BRANCH   5   8
ATOM      8  CAN 6WA d   1      -5.579  30.268 -42.227  0.00  0.00     0.041 C 
ATOM      9  H1  6WA d   1      -6.258  31.114 -42.412  0.00  0.00     0.053 H 
ATOM     10  H2  6WA d   1      -5.420  30.156 -41.144  0.00  0.00     0.053 H 
BRANCH   8  11
ATOM     11  PAY 6WA d   1      -3.969  30.621 -43.024  0.00  0.00     0.259 P 
ATOM     12  OAD 6WA d   1      -3.080  29.400 -42.933  0.00  0.00    -0.640 OA
ATOM     13  OAE 6WA d   1      -4.191  30.990 -44.475  0.00  0.00    -0.640 OA
ATOM     14  OAB 6WA d   1      -3.290  31.774 -42.317  0.00  0.00    -0.640 OA
ENDBRANCH   8  11
ENDBRANCH   5   8
ENDBRANCH   2   5
ENDBRANCH   1   2
BRANCH   1  15
ATOM     15  CAM 6WA d   1      -8.484  27.558 -43.748  0.00  0.00     0.114 C 
ATOM     16  H7  6WA d   1      -7.814  27.050 -44.457  0.00  0.00     0.079 H 
ATOM     17  H8  6WA d   1      -8.464  28.642 -43.936  0.00  0.00     0.079 H 
BRANCH  15  18
ATOM     18  CAK 6WA d   1      -9.925  27.031 -43.936  0.00  0.00    -0.028 C 
ATOM     19  H9  6WA d   1     -10.399  26.930 -42.948  0.00  0.00     0.036 H 
ATOM     20  H10 6WA d   1      -9.883  26.046 -44.425  0.00  0.00     0.036 H 
BRANCH  18  21
ATOM     21  CAO 6WA d   1     -10.773  27.979 -44.800  0.00  0.00     0.041 C 
ATOM     22  H11 6WA d   1     -10.175  28.310 -45.662  0.00  0.00     0.053 H 
ATOM     23  H12 6WA d   1     -11.062  28.852 -44.197  0.00  0.00     0.053 H 
BRANCH  21  24
ATOM     24  PAZ 6WA d   1     -12.285  27.147 -45.407  0.00  0.00     0.259 P 
ATOM     25  OAF 6WA d   1     -11.930  26.280 -46.596  0.00  0.00    -0.640 OA
ATOM     26  OAG 6WA d   1     -12.865  26.283 -44.306  0.00  0.00    -0.640 OA
ATOM     27  OAC 6WA d   1     -13.297  28.195 -45.815  0.00  0.00    -0.640 OA
ENDBRANCH  21  24
ENDBRANCH  18  21
ENDBRANCH  15  18
ENDBRANCH   1  15
BRANCH   1  28
ATOM     28  CAP 6WA d   1      -7.093  26.175 -42.436  0.00  0.00     0.140 C 
ATOM     29  H13 6WA d   1      -6.270  26.427 -43.120  0.00  0.00     0.087 H 
ATOM     30  H14 6WA d   1      -7.615  25.280 -42.805  0.00  0.00     0.087 H 
BRANCH  28  31
ATOM     31  CAT 6WA d   1      -6.521  25.890 -41.031  0.00  0.00     0.017 A 
ATOM     32  CAV 6WA d   1      -7.207  25.274 -39.932  0.00  0.00     0.098 A 
ATOM     33  NAQ 6WA d   1      -8.462  24.775 -39.742  0.00  0.00    -0.241 NA
ATOM     34  CAW 6WA d   1      -6.276  25.239 -38.883  0.00  0.00     0.116 A 
ATOM     35  CAH 6WA d   1      -8.810  24.253 -38.572  0.00  0.00     0.066 A 
ATOM     36  NAR 6WA d   1      -7.970  24.192 -37.542  0.00  0.00    -0.327 N 
ATOM     37  H15 6WA d   1      -9.819  23.861 -38.451  0.00  0.00     0.143 H 
ATOM     38  CAU 6WA d   1      -6.712  24.666 -37.650  0.00  0.00     0.209 A 
ATOM     39  H16 6WA d   1      -8.275  23.790 -36.678  0.00  0.00     0.168 HD
ATOM     40  OAA 6WA d   1      -5.821  24.598 -36.555  0.00  0.00    -0.170 OA
ATOM     41  NAS 6WA d   1      -5.120  25.780 -39.295  0.00  0.00    -0.360 N 
ATOM     42  CAI 6WA d   1      -5.225  26.178 -40.563  0.00  0.00    -0.012 A 
ATOM     43  H17 6WA d   1      -4.274  25.874 -38.716  0.00  0.00     0.165 HD
ATOM     44  H18 6WA d   1      -4.434  26.651 -41.144  0.00  0.00     0.112 H 
ENDBRANCH  28  31
ENDBRANCH   1  28
TORSDOF 10
