REMARK  11 active torsions:
REMARK  status: ('A' for Active; 'I' for Inactive)
REMARK    1  A    between atoms: CAP_11  and  PAZ_8 
REMARK    2  A    between atoms: CAK_12  and  CAP_11 
REMARK    3  A    between atoms: CAJ_13  and  CAK_12 
REMARK    4  A    between atoms: CAL_14  and  CAJ_13 
REMARK    5  A    between atoms: NAX_15  and  CAL_14 
REMARK    6  A    between atoms: NAX_15  and  CAN_16 
REMARK    7  A    between atoms: CAM_22  and  NAX_15 
REMARK    8  A    between atoms: CAN_16  and  CAQ_17 
REMARK    9  A    between atoms: CAQ_17  and  PBA_18 
REMARK   10  A    between atoms: CAO_23  and  CAM_22 
REMARK   11  A    between atoms: CAO_23  and  N9_24 
ROOT
ATOM      1  NAX 6W9 d   1     -36.126  41.988 -43.521  0.00  0.00     0.090 N 
ENDROOT
BRANCH   1   2
ATOM      2  CAL 6W9 d   1     -34.721  41.593 -43.624  0.00  0.00     0.114 C 
ATOM      3  H9  6W9 d   1     -34.254  41.634 -42.629  0.00  0.00     0.079 H 
ATOM      4  H10 6W9 d   1     -34.656  40.568 -44.017  0.00  0.00     0.079 H 
BRANCH   2   5
ATOM      5  CAJ 6W9 d   1     -33.970  42.580 -44.599  0.00  0.00    -0.039 C 
ATOM      6  H7  6W9 d   1     -33.267  42.012 -45.226  0.00  0.00     0.035 H 
ATOM      7  H8  6W9 d   1     -34.703  43.091 -45.240  0.00  0.00     0.035 H 
BRANCH   5   8
ATOM      8  CAK 6W9 d   1     -33.186  43.634 -43.766  0.00  0.00    -0.052 C 
ATOM      9  H5  6W9 d   1     -33.753  43.871 -42.854  0.00  0.00     0.034 H 
ATOM     10  H6  6W9 d   1     -32.204  43.222 -43.490  0.00  0.00     0.034 H 
BRANCH   8  11
ATOM     11  CAP 6W9 d   1     -32.986  44.915 -44.586  0.00  0.00     0.039 C 
ATOM     12  H3  6W9 d   1     -33.801  45.009 -45.319  0.00  0.00     0.053 H 
ATOM     13  H4  6W9 d   1     -32.996  45.784 -43.912  0.00  0.00     0.053 H 
BRANCH  11  14
ATOM     14  PAZ 6W9 d   1     -31.341  44.848 -45.490  0.00  0.00     0.259 P 
ATOM     15  OAD 6W9 d   1     -31.434  43.868 -46.642  0.00  0.00    -0.640 OA
ATOM     16  OAE 6W9 d   1     -30.997  46.244 -46.029  0.00  0.00    -0.640 OA
ATOM     17  OAB 6W9 d   1     -30.240  44.392 -44.520  0.00  0.00    -0.640 OA
ENDBRANCH  11  14
ENDBRANCH   8  11
ENDBRANCH   5   8
ENDBRANCH   2   5
ENDBRANCH   1   2
BRANCH   1  18
ATOM     18  CAN 6W9 d   1     -36.935  40.839 -43.615  0.00  0.00     0.125 C 
ATOM     19  H11 6W9 d   1     -37.522  40.730 -42.691  0.00  0.00     0.080 H 
ATOM     20  H12 6W9 d   1     -36.297  39.953 -43.751  0.00  0.00     0.080 H 
BRANCH  18  21
ATOM     21  CAQ 6W9 d   1     -37.894  40.969 -44.820  0.00  0.00     0.064 C 
ATOM     22  H13 6W9 d   1     -37.347  41.373 -45.685  0.00  0.00     0.056 H 
ATOM     23  H14 6W9 d   1     -38.722  41.646 -44.561  0.00  0.00     0.056 H 
BRANCH  21  24
ATOM     24  PBA 6W9 d   1     -38.567  39.297 -45.237  0.00  0.00     0.261 P 
ATOM     25  OAF 6W9 d   1     -37.492  38.275 -45.048  0.00  0.00    -0.640 OA
ATOM     26  OAG 6W9 d   1     -39.723  38.943 -44.339  0.00  0.00    -0.640 OA
ATOM     27  OAC 6W9 d   1     -39.031  39.288 -46.680  0.00  0.00    -0.640 OA
ENDBRANCH  21  24
ENDBRANCH  18  21
ENDBRANCH   1  18
BRANCH   1  28
ATOM     28  CAM 6W9 d   1     -36.363  42.639 -42.260  0.00  0.00     0.128 C 
ATOM     29  H15 6W9 d   1     -35.482  42.512 -41.614  0.00  0.00     0.082 H 
ATOM     30  H16 6W9 d   1     -37.241  42.186 -41.776  0.00  0.00     0.082 H 
BRANCH  28  31
ATOM     31  CAO 6W9 d   1     -36.623  44.149 -42.479  0.00  0.00     0.027 C 
ATOM     32  H17 6W9 d   1     -37.280  44.284 -43.351  0.00  0.00     0.067 H 
ATOM     33  H18 6W9 d   1     -35.667  44.663 -42.657  0.00  0.00     0.067 H 
BRANCH  31  34
ATOM     34  N9  6W9 d   1     -37.253  44.705 -41.318  0.00  0.00    -0.322 N 
ATOM     35  C4  6W9 d   1     -36.622  45.432 -40.460  0.00  0.00     0.165 A 
ATOM     36  C5  6W9 d   1     -37.557  45.778 -39.490  0.00  0.00     0.158 A 
ATOM     37  N3  6W9 d   1     -35.363  45.849 -40.379  0.00  0.00    -0.224 NA
ATOM     38  C6  6W9 d   1     -37.185  46.561 -38.428  0.00  0.00     0.212 A 
ATOM     39  N7  6W9 d   1     -38.770  45.173 -39.889  0.00  0.00    -0.235 NA
ATOM     40  N1  6W9 d   1     -35.891  47.003 -38.324  0.00  0.00    -0.327 N 
ATOM     41  O6  6W9 d   1     -38.165  46.924 -37.411  0.00  0.00    -0.169 OA
ATOM     42  C2  6W9 d   1     -34.940  46.649 -39.317  0.00  0.00     0.068 A 
ATOM     43  H2  6W9 d   1     -35.618  47.574 -37.550  0.00  0.00     0.168 HD
ATOM     44  H19 6W9 d   1     -33.909  46.992 -39.252  0.00  0.00     0.143 H 
ATOM     45  C8  6W9 d   1     -38.496  44.506 -41.063  0.00  0.00     0.068 A 
ATOM     46  H1  6W9 d   1     -39.197  43.923 -41.659  0.00  0.00     0.143 H 
ENDBRANCH  31  34
ENDBRANCH  28  31
ENDBRANCH   1  28
TORSDOF 11
