REMARK  10 active torsions:
REMARK  status: ('A' for Active; 'I' for Inactive)
REMARK    1  A    between atoms: CAL_11  and  PAY_8 
REMARK    2  A    between atoms: OAR_12  and  CAL_11 
REMARK    3  A    between atoms: CAJ_13  and  OAR_12 
REMARK    4  A    between atoms: CAW_14  and  CAJ_13 
REMARK    5  A    between atoms: CAW_14  and  CAK_15 
REMARK    6  A    between atoms: CAN_22  and  CAW_14 
REMARK    7  A    between atoms: CAK_15  and  OAS_16 
REMARK    8  A    between atoms: OAS_16  and  CAM_17 
REMARK    9  A    between atoms: CAM_17  and  PAZ_18 
REMARK   10  A    between atoms: CAN_22  and  N9_23 
ROOT
ATOM      1  CAW 6WC d   1      19.766  53.167  12.559  0.00  0.00     0.003 C 
ATOM      2  H7  6WC d   1      19.649  53.238  11.468  0.00  0.00     0.049 H 
ENDROOT
BRANCH   1   3
ATOM      3  CAJ 6WC d   1      20.302  51.738  12.825  0.00  0.00     0.027 C 
ATOM      4  H5  6WC d   1      21.111  51.770  13.569  0.00  0.00     0.075 H 
ATOM      5  H6  6WC d   1      19.491  51.093  13.193  0.00  0.00     0.075 H 
BRANCH   3   6
ATOM      6  OAR 6WC d   1      20.795  51.245  11.589  0.00  0.00    -0.377 OA
BRANCH   6   7
ATOM      7  CAL 6WC d   1      20.392  49.897  11.292  0.00  0.00     0.122 C 
ATOM      8  H3  6WC d   1      20.048  49.401  12.211  0.00  0.00     0.095 H 
ATOM      9  H4  6WC d   1      19.577  49.907  10.554  0.00  0.00     0.095 H 
BRANCH   7  10
ATOM     10  PAY 6WC d   1      21.842  48.997  10.605  0.00  0.00     0.283 P 
ATOM     11  OAD 6WC d   1      22.753  48.558  11.739  0.00  0.00    -0.638 OA
ATOM     12  OAE 6WC d   1      21.356  47.779   9.837  0.00  0.00    -0.638 OA
ATOM     13  OAB 6WC d   1      22.607  49.930   9.681  0.00  0.00    -0.638 OA
ENDBRANCH   7  10
ENDBRANCH   6   7
ENDBRANCH   3   6
ENDBRANCH   1   3
BRANCH   1  14
ATOM     14  CAK 6WC d   1      18.338  53.347  13.117  0.00  0.00     0.027 C 
ATOM     15  H8  6WC d   1      18.198  54.381  13.466  0.00  0.00     0.075 H 
ATOM     16  H9  6WC d   1      18.170  52.652  13.953  0.00  0.00     0.075 H 
BRANCH  14  17
ATOM     17  OAS 6WC d   1      17.415  53.059  12.042  0.00  0.00    -0.377 OA
BRANCH  17  18
ATOM     18  CAM 6WC d   1      16.623  54.165  11.634  0.00  0.00     0.122 C 
ATOM     19  H10 6WC d   1      17.006  54.572  10.687  0.00  0.00     0.095 H 
ATOM     20  H11 6WC d   1      16.645  54.949  12.406  0.00  0.00     0.095 H 
BRANCH  18  21
ATOM     21  PAZ 6WC d   1      14.905  53.557  11.407  0.00  0.00     0.283 P 
ATOM     22  OAF 6WC d   1      13.930  54.551  11.990  0.00  0.00    -0.638 OA
ATOM     23  OAG 6WC d   1      14.727  52.222  12.107  0.00  0.00    -0.638 OA
ATOM     24  OAC 6WC d   1      14.619  53.376   9.927  0.00  0.00    -0.638 OA
ENDBRANCH  18  21
ENDBRANCH  17  18
ENDBRANCH  14  17
ENDBRANCH   1  14
BRANCH   1  25
ATOM     25  CAN 6WC d   1      20.778  54.243  12.900  0.00  0.00     0.009 C 
ATOM     26  H12 6WC d   1      20.662  55.052  12.164  0.00  0.00     0.065 H 
ATOM     27  H13 6WC d   1      21.779  53.799  12.801  0.00  0.00     0.065 H 
BRANCH  25  28
ATOM     28  N9  6WC d   1      20.692  54.844  14.233  0.00  0.00    -0.324 N 
ATOM     29  C4  6WC d   1      21.517  54.516  15.217  0.00  0.00     0.165 A 
ATOM     30  C5  6WC d   1      21.151  55.299  16.302  0.00  0.00     0.158 A 
ATOM     31  N3  6WC d   1      22.527  53.640  15.315  0.00  0.00    -0.224 NA
ATOM     32  C6  6WC d   1      21.834  55.171  17.488  0.00  0.00     0.212 A 
ATOM     33  N7  6WC d   1      20.052  56.110  15.851  0.00  0.00    -0.235 NA
ATOM     34  N1  6WC d   1      22.871  54.279  17.603  0.00  0.00    -0.327 N 
ATOM     35  O6  6WC d   1      21.462  55.973  18.596  0.00  0.00    -0.169 OA
ATOM     36  C2  6WC d   1      23.244  53.484  16.496  0.00  0.00     0.068 A 
ATOM     37  H2  6WC d   1      23.362  54.192  18.470  0.00  0.00     0.168 HD
ATOM     38  H14 6WC d   1      24.066  52.773  16.566  0.00  0.00     0.143 H 
ATOM     39  C8  6WC d   1      19.829  55.780  14.535  0.00  0.00     0.068 A 
ATOM     40  H1  6WC d   1      19.080  56.213  13.873  0.00  0.00     0.143 H 
ENDBRANCH  25  28
ENDBRANCH   1  25
TORSDOF 10
