REMARK  13 active torsions:
REMARK  status: ('A' for Active; 'I' for Inactive)
REMARK    1  A    between atoms: C4_1  and  C2_12 
REMARK    2  A    between atoms: N5_14  and  C4_1 
REMARK    3  A    between atoms: N5_14  and  C6_2 
REMARK    4  A    between atoms: C17_6  and  C27_28 
REMARK    5  A    between atoms: C21_7  and  C22_8 
REMARK    6  A    between atoms: N20_24  and  C21_7 
REMARK    7  A    between atoms: C27_28  and  C28_10 
REMARK    8  A    between atoms: C2_12  and  C1_11 
REMARK    9  A    between atoms: C2_12  and  C3_13 
REMARK       I    between atoms: C12_18  and  N5_14 
REMARK   10  A    between atoms: C14_20  and  C12_18 
REMARK   11  A    between atoms: C19_23  and  N20_24 
REMARK   12  A    between atoms: C27_28  and  C29_29 
REMARK   13  A    between atoms: C27_28  and  C30_30 
ROOT
ATOM      1  C15 6VR d   1     -46.834  -1.932   9.284  0.00  0.00     0.023 A 
ATOM      2  C17 6VR d   1     -47.513  -2.571  11.389  0.00  0.00     0.135 A 
ATOM      3  C14 6VR d   1     -45.741  -1.231   9.813  0.00  0.00     0.095 A 
ATOM      4  N16 6VR d   1     -47.682  -2.558  10.077  0.00  0.00    -0.244 NA
ATOM      5  N18 6VR d   1     -46.484  -1.935  11.944  0.00  0.00    -0.214 NA
ATOM      6  C19 6VR d   1     -45.573  -1.259  11.225  0.00  0.00     0.143 A 
ATOM      7  H8  6VR d   1     -46.984  -1.960   8.211  0.00  0.00     0.116 H 
ENDROOT
BRANCH   3   8
ATOM      8  C12 6VR d   1     -44.825  -0.553   8.865  0.00  0.00     0.259 C 
ATOM      9  N5  6VR d   1     -45.207   0.485   8.052  0.00  0.00    -0.341 N 
ATOM     10  O13 6VR d   1     -43.680  -0.976   8.819  0.00  0.00    -0.267 OA
BRANCH   9  11
ATOM     11  C4  6VR d   1     -46.602   1.015   8.046  0.00  0.00     0.001 C 
ATOM     12  H1  6VR d   1     -46.822   1.314   7.011  0.00  0.00     0.065 H 
ATOM     13  H2  6VR d   1     -47.258   0.180   8.334  0.00  0.00     0.065 H 
BRANCH  11  14
ATOM     14  C2  6VR d   1     -46.985   2.210   8.943  0.00  0.00    -0.045 C 
ATOM     15  H18 6VR d   1     -46.817   3.128   8.361  0.00  0.00     0.041 H 
BRANCH  14  16
ATOM     16  C1  6VR d   1     -46.198   2.349  10.252  0.00  0.00    -0.072 C 
ATOM     17  H15 6VR d   1     -46.557   3.231  10.804  0.00  0.00     0.028 H 
ATOM     18  H16 6VR d   1     -45.128   2.468  10.026  0.00  0.00     0.028 H 
ATOM     19  H17 6VR d   1     -46.345   1.448  10.866  0.00  0.00     0.028 H 
ENDBRANCH  14  16
BRANCH  14  20
ATOM     20  C3  6VR d   1     -48.476   2.092   9.267  0.00  0.00    -0.072 C 
ATOM     21  H19 6VR d   1     -49.047   1.992   8.332  0.00  0.00     0.028 H 
ATOM     22  H20 6VR d   1     -48.807   2.993   9.804  0.00  0.00     0.028 H 
ATOM     23  H21 6VR d   1     -48.645   1.206   9.897  0.00  0.00     0.028 H 
ENDBRANCH  14  20
ENDBRANCH  11  14
ENDBRANCH   9  11
BRANCH   9  24
ATOM     24  C6  6VR d   1     -44.181   1.022   7.122  0.00  0.00     0.038 C 
ATOM     25  C7  6VR d   1     -44.716   1.158   5.676  0.00  0.00    -0.043 C 
ATOM     26  C8  6VR d   1     -43.647   1.742   4.738  0.00  0.00    -0.041 C 
ATOM     27  H4  6VR d   1     -45.592   1.823   5.679  0.00  0.00     0.036 H 
ATOM     28  H5  6VR d   1     -45.011   0.164   5.308  0.00  0.00     0.036 H 
ATOM     29  C9  6VR d   1     -43.209   3.110   5.274  0.00  0.00     0.082 C 
ATOM     30  H6  6VR d   1     -44.066   1.858   3.728  0.00  0.00     0.035 H 
ATOM     31  H7  6VR d   1     -42.780   1.066   4.700  0.00  0.00     0.035 H 
ATOM     32  N10 6VR d   1     -42.649   2.943   6.632  0.00  0.00    -0.073 N 
ATOM     33  H22 6VR d   1     -44.077   3.784   5.314  0.00  0.00     0.075 H 
ATOM     34  H23 6VR d   1     -42.443   3.537   4.610  0.00  0.00     0.075 H 
ATOM     35  C11 6VR d   1     -43.571   2.344   7.620  0.00  0.00     0.100 C 
ATOM     36  H24 6VR d   1     -42.375   3.852   6.971  0.00  0.00     0.277 HD
ATOM     37  H25 6VR d   1     -41.836   2.351   6.564  0.00  0.00     0.277 HD
ATOM     38  H26 6VR d   1     -43.016   2.150   8.550  0.00  0.00     0.078 H 
ATOM     39  H27 6VR d   1     -44.385   3.056   7.821  0.00  0.00     0.078 H 
ATOM     40  H3  6VR d   1     -43.365   0.285   7.093  0.00  0.00     0.075 H 
ENDBRANCH   9  24
ENDBRANCH   3   8
BRANCH   6  41
ATOM     41  N20 6VR d   1     -44.512  -0.614  11.845  0.00  0.00    -0.368 N 
ATOM     42  H28 6VR d   1     -43.746  -0.241  11.266  0.00  0.00     0.161 HD
BRANCH  41  43
ATOM     43  C21 6VR d   1     -44.451  -0.448  13.307  0.00  0.00     0.038 C 
ATOM     44  H9  6VR d   1     -45.346   0.097  13.642  0.00  0.00     0.074 H 
ATOM     45  H10 6VR d   1     -44.429  -1.442  13.778  0.00  0.00     0.074 H 
BRANCH  43  46
ATOM     46  C22 6VR d   1     -43.224   0.320  13.728  0.00  0.00     0.070 A 
ATOM     47  C23 6VR d   1     -43.208   1.424  14.497  0.00  0.00    -0.051 A 
ATOM     48  C24 6VR d   1     -41.851   1.800  14.638  0.00  0.00    -0.059 A 
ATOM     49  H29 6VR d   1     -44.071   1.930  14.927  0.00  0.00     0.087 H 
ATOM     50  C25 6VR d   1     -41.117   0.906  13.951  0.00  0.00     0.019 A 
ATOM     51  H11 6VR d   1     -41.472   2.654  15.198  0.00  0.00     0.086 H 
ATOM     52  O26 6VR d   1     -41.954   0.013  13.403  0.00  0.00    -0.325 OA
ATOM     53  H30 6VR d   1     -40.032   0.907  13.856  0.00  0.00     0.123 H 
ENDBRANCH  43  46
ENDBRANCH  41  43
ENDBRANCH   6  41
BRANCH   2  54
ATOM     54  C27 6VR d   1     -48.532  -3.313  12.234  0.00  0.00     0.011 C 
BRANCH  54  55
ATOM     55  C28 6VR d   1     -49.894  -2.625  12.088  0.00  0.00    -0.063 C 
ATOM     56  H12 6VR d   1     -50.640  -3.156  12.697  0.00  0.00     0.029 H 
ATOM     57  H13 6VR d   1     -50.203  -2.643  11.032  0.00  0.00     0.029 H 
ATOM     58  H14 6VR d   1     -49.817  -1.582  12.430  0.00  0.00     0.029 H 
ENDBRANCH  54  55
BRANCH  54  59
ATOM     59  C29 6VR d   1     -48.645  -4.775  11.785  0.00  0.00    -0.063 C 
ATOM     60  H31 6VR d   1     -47.667  -5.268  11.890  0.00  0.00     0.029 H 
ATOM     61  H32 6VR d   1     -48.963  -4.812  10.732  0.00  0.00     0.029 H 
ATOM     62  H33 6VR d   1     -49.386  -5.294  12.410  0.00  0.00     0.029 H 
ENDBRANCH  54  59
BRANCH  54  63
ATOM     63  C30 6VR d   1     -48.179  -3.303  13.722  0.00  0.00    -0.063 C 
ATOM     64  H34 6VR d   1     -48.092  -2.264  14.071  0.00  0.00     0.029 H 
ATOM     65  H35 6VR d   1     -47.222  -3.823  13.875  0.00  0.00     0.029 H 
ATOM     66  H36 6VR d   1     -48.970  -3.815  14.290  0.00  0.00     0.029 H 
ENDBRANCH  54  63
ENDBRANCH   2  54
TORSDOF 13
