REMARK  17 active torsions:
REMARK  status: ('A' for Active; 'I' for Inactive)
REMARK    1  A    between atoms: C5_2  and  C4_1 
REMARK    2  A    between atoms: C4_1  and  C3_12 
REMARK    3  A    between atoms: N6_13  and  C5_2 
REMARK    4  A    between atoms: C7_3  and  N6_13 
REMARK    5  A    between atoms: C13_4  and  C12_18 
REMARK       I    between atoms: N15_20  and  C13_4 
REMARK    6  A    between atoms: C16_21  and  C17_5 
REMARK    7  A    between atoms: C17_5  and  C18_22 
REMARK    8  A    between atoms: C17_5  and  C19_23 
REMARK    9  A    between atoms: N15_20  and  C20_6 
REMARK   10  A    between atoms: C25_25  and  C28_9 
REMARK       I    between atoms: C28_9  and  N30_28 
REMARK   11  A    between atoms: O2_11  and  C1_10 
REMARK   12  A    between atoms: C3_12  and  O2_11 
REMARK   13  A    between atoms: C9_15  and  C36_34 
REMARK   14  A    between atoms: N15_20  and  C16_21 
REMARK   15  A    between atoms: C36_34  and  C37_35 
REMARK   16  A    between atoms: C36_34  and  C38_36 
REMARK   17  A    between atoms: C36_34  and  C39_37 
ROOT
ATOM      1  C13 6VS d   1       8.028 -44.117  -0.391  0.00  0.00     0.259 C 
ATOM      2  O14 6VS d   1       7.970 -43.026  -0.904  0.00  0.00    -0.267 OA
ATOM      3  N15 6VS d   1       7.250 -44.402   0.700  0.00  0.00    -0.341 N 
ENDROOT
BRANCH   3   4
ATOM      4  C20 6VS d   1       6.339 -43.335   1.199  0.00  0.00     0.039 C 
ATOM      5  C22 6VS d   1       6.661 -42.977   2.649  0.00  0.00     0.100 C 
ATOM      6  N23 6VS d   1       5.653 -42.082   3.247  0.00  0.00    -0.072 N 
ATOM      7  H7  6VS d   1       7.640 -42.476   2.680  0.00  0.00     0.078 H 
ATOM      8  H8  6VS d   1       6.705 -43.904   3.240  0.00  0.00     0.078 H 
ATOM      9  C24 6VS d   1       4.299 -42.647   3.207  0.00  0.00     0.093 C 
ATOM     10  H26 6VS d   1       5.654 -41.211   2.740  0.00  0.00     0.277 HD
ATOM     11  H27 6VS d   1       5.903 -41.911   4.208  0.00  0.00     0.277 HD
ATOM     12  C25 6VS d   1       3.894 -42.818   1.739  0.00  0.00     0.049 C 
ATOM     13  H9  6VS d   1       3.596 -41.966   3.710  0.00  0.00     0.076 H 
ATOM     14  H10 6VS d   1       4.288 -43.624   3.712  0.00  0.00     0.076 H 
ATOM     15  C27 6VS d   1       4.872 -43.789   1.045  0.00  0.00    -0.032 C 
ATOM     16  H28 6VS d   1       3.936 -41.843   1.231  0.00  0.00     0.057 H 
ATOM     17  H29 6VS d   1       4.760 -44.787   1.493  0.00  0.00     0.037 H 
ATOM     18  H30 6VS d   1       4.625 -43.837  -0.026  0.00  0.00     0.037 H 
ATOM     19  H6  6VS d   1       6.489 -42.435   0.584  0.00  0.00     0.075 H 
BRANCH  12  20
ATOM     20  C28 6VS d   1       2.473 -43.346   1.687  0.00  0.00     0.225 C 
ATOM     21  O29 6VS d   1       2.337 -44.548   1.594  0.00  0.00    -0.273 OA
ATOM     22  N30 6VS d   1       1.349 -42.564   1.748  0.00  0.00    -0.348 N 
ATOM     23  C31 6VS d   1      -0.005 -43.182   1.697  0.00  0.00     0.017 C 
ATOM     24  C35 6VS d   1       1.362 -41.086   1.884  0.00  0.00     0.017 C 
ATOM     25  C32 6VS d   1      -0.755 -42.794   2.985  0.00  0.00     0.034 C 
ATOM     26  H31 6VS d   1       0.086 -44.276   1.634  0.00  0.00     0.067 H 
ATOM     27  H32 6VS d   1      -0.553 -42.809   0.819  0.00  0.00     0.067 H 
ATOM     28  O33 6VS d   1      -0.678 -41.367   3.176  0.00  0.00    -0.388 OA
ATOM     29  H33 6VS d   1      -0.295 -43.304   3.844  0.00  0.00     0.076 H 
ATOM     30  H34 6VS d   1      -1.809 -43.096   2.900  0.00  0.00     0.076 H 
ATOM     31  C34 6VS d   1       0.641 -40.796   3.219  0.00  0.00     0.034 C 
ATOM     32  H35 6VS d   1       1.209 -41.243   4.049  0.00  0.00     0.076 H 
ATOM     33  H36 6VS d   1       0.567 -39.709   3.369  0.00  0.00     0.076 H 
ATOM     34  H37 6VS d   1       0.826 -40.617   1.046  0.00  0.00     0.067 H 
ATOM     35  H38 6VS d   1       2.395 -40.710   1.914  0.00  0.00     0.067 H 
ENDBRANCH  12  20
ENDBRANCH   3   4
BRANCH   3  36
ATOM     36  C16 6VS d   1       7.229 -45.734   1.379  0.00  0.00     0.001 C 
ATOM     37  H18 6VS d   1       6.543 -45.648   2.235  0.00  0.00     0.065 H 
ATOM     38  H19 6VS d   1       6.824 -46.457   0.656  0.00  0.00     0.065 H 
BRANCH  36  39
ATOM     39  C17 6VS d   1       8.547 -46.323   1.915  0.00  0.00    -0.045 C 
ATOM     40  H5  6VS d   1       9.250 -46.427   1.075  0.00  0.00     0.041 H 
BRANCH  39  41
ATOM     41  C18 6VS d   1       9.219 -45.466   2.994  0.00  0.00    -0.072 C 
ATOM     42  H20 6VS d   1      10.149 -45.953   3.322  0.00  0.00     0.028 H 
ATOM     43  H21 6VS d   1       8.539 -45.357   3.852  0.00  0.00     0.028 H 
ATOM     44  H22 6VS d   1       9.451 -44.473   2.582  0.00  0.00     0.028 H 
ENDBRANCH  39  41
BRANCH  39  45
ATOM     45  C19 6VS d   1       8.228 -47.705   2.484  0.00  0.00    -0.072 C 
ATOM     46  H23 6VS d   1       7.746 -48.318   1.708  0.00  0.00     0.028 H 
ATOM     47  H24 6VS d   1       7.549 -47.600   3.343  0.00  0.00     0.028 H 
ATOM     48  H25 6VS d   1       9.159 -48.191   2.810  0.00  0.00     0.028 H 
ENDBRANCH  39  45
ENDBRANCH  36  39
ENDBRANCH   3  36
BRANCH   1  49
ATOM     49  C12 6VS d   1       8.937 -45.079  -1.034  0.00  0.00     0.095 A 
ATOM     50  C7  6VS d   1      10.363 -45.051  -0.964  0.00  0.00     0.142 A 
ATOM     51  N8  6VS d   1      11.046 -46.001  -1.606  0.00  0.00    -0.214 NA
ATOM     52  C9  6VS d   1      10.445 -46.936  -2.300  0.00  0.00     0.135 A 
ATOM     53  N10 6VS d   1       9.116 -46.984  -2.377  0.00  0.00    -0.244 NA
ATOM     54  C11 6VS d   1       8.345 -46.092  -1.787  0.00  0.00     0.023 A 
ATOM     55  H17 6VS d   1       7.267 -46.145  -1.886  0.00  0.00     0.116 H 
BRANCH  50  56
ATOM     56  N6  6VS d   1      11.065 -44.097  -0.260  0.00  0.00    -0.374 N 
ATOM     57  H16 6VS d   1      10.569 -43.427   0.345  0.00  0.00     0.161 HD
BRANCH  56  58
ATOM     58  C5  6VS d   1      12.533 -44.045  -0.381  0.00  0.00    -0.004 C 
ATOM     59  H3  6VS d   1      12.925 -45.068  -0.483  0.00  0.00     0.064 H 
ATOM     60  H4  6VS d   1      12.803 -43.458  -1.272  0.00  0.00     0.064 H 
BRANCH  58  61
ATOM     61  C4  6VS d   1      13.143 -43.394   0.853  0.00  0.00    -0.030 C 
ATOM     62  H1  6VS d   1      14.155 -43.785   1.036  0.00  0.00     0.038 H 
ATOM     63  H2  6VS d   1      12.514 -43.577   1.737  0.00  0.00     0.038 H 
BRANCH  61  64
ATOM     64  C3  6VS d   1      13.195 -41.907   0.533  0.00  0.00     0.020 C 
ATOM     65  H14 6VS d   1      12.175 -41.495   0.542  0.00  0.00     0.074 H 
ATOM     66  H15 6VS d   1      13.641 -41.762  -0.462  0.00  0.00     0.074 H 
BRANCH  64  67
ATOM     67  O2  6VS d   1      13.983 -41.238   1.505  0.00  0.00    -0.396 OA
BRANCH  67  68
ATOM     68  C1  6VS d   1      13.632 -39.860   1.559  0.00  0.00     0.004 C 
ATOM     69  H11 6VS d   1      14.250 -39.354   2.316  0.00  0.00     0.066 H 
ATOM     70  H12 6VS d   1      12.570 -39.762   1.828  0.00  0.00     0.066 H 
ATOM     71  H13 6VS d   1      13.805 -39.399   0.576  0.00  0.00     0.066 H 
ENDBRANCH  67  68
ENDBRANCH  64  67
ENDBRANCH  61  64
ENDBRANCH  58  61
ENDBRANCH  56  58
ENDBRANCH  50  56
BRANCH  52  72
ATOM     72  C36 6VS d   1      11.270 -47.991  -2.997  0.00  0.00     0.011 C 
BRANCH  72  73
ATOM     73  C37 6VS d   1      12.776 -47.686  -2.967  0.00  0.00    -0.063 C 
ATOM     74  H39 6VS d   1      13.322 -48.486  -3.488  0.00  0.00     0.029 H 
ATOM     75  H40 6VS d   1      13.118 -47.628  -1.923  0.00  0.00     0.029 H 
ATOM     76  H41 6VS d   1      12.966 -46.726  -3.469  0.00  0.00     0.029 H 
ENDBRANCH  72  73
BRANCH  72  77
ATOM     77  C38 6VS d   1      11.037 -49.304  -2.236  0.00  0.00    -0.063 C 
ATOM     78  H42 6VS d   1       9.964 -49.546  -2.242  0.00  0.00     0.029 H 
ATOM     79  H43 6VS d   1      11.381 -49.192  -1.197  0.00  0.00     0.029 H 
ATOM     80  H44 6VS d   1      11.599 -50.115  -2.723  0.00  0.00     0.029 H 
ENDBRANCH  72  77
BRANCH  72  81
ATOM     81  C39 6VS d   1      10.828 -48.113  -4.464  0.00  0.00    -0.063 C 
ATOM     82  H45 6VS d   1      11.007 -47.159  -4.981  0.00  0.00     0.029 H 
ATOM     83  H46 6VS d   1       9.756 -48.357  -4.505  0.00  0.00     0.029 H 
ATOM     84  H47 6VS d   1      11.405 -48.910  -4.956  0.00  0.00     0.029 H 
ENDBRANCH  72  81
ENDBRANCH  52  72
ENDBRANCH   1  49
TORSDOF 17
