REMARK  5 active torsions:
REMARK  status: ('A' for Active; 'I' for Inactive)
REMARK    1  A    between atoms: C1_6  and  C2_7 
REMARK    2  A    between atoms: C1_6  and  C_8 
REMARK    3  A    between atoms: C14_10  and  C15_11 
REMARK    4  A    between atoms: C14_10  and  C16_12 
REMARK    5  A    between atoms: C9_19  and  C10_20 
ROOT
ATOM      1  O   6VK d   1      15.628  -2.007   0.496  0.00  0.00    -0.293 OA
ATOM      2  C4  6VK d   1      15.540  -2.301  -0.688  0.00  0.00     0.159 C 
ATOM      3  C5  6VK d   1      14.634  -3.389  -1.130  0.00  0.00     0.028 A 
ATOM      4  C6  6VK d   1      14.657  -3.768  -2.439  0.00  0.00     0.023 A 
ATOM      5  C7  6VK d   1      15.522  -3.049  -3.448  0.00  0.00    -0.019 C 
ATOM      6  C1  6VK d   1      15.839  -1.590  -3.097  0.00  0.00    -0.036 C 
ATOM      7  C3  6VK d   1      16.448  -1.607  -1.696  0.00  0.00     0.001 C 
ATOM      8  C14 6VK d   1      13.777  -4.063  -0.080  0.00  0.00     0.049 A 
ATOM      9  C13 6VK d   1      13.017  -5.129  -0.761  0.00  0.00     0.032 A 
ATOM     10  C9  6VK d   1      12.045  -6.109  -0.254  0.00  0.00     0.070 A 
ATOM     11  N2  6VK d   1      11.625  -6.933  -1.358  0.00  0.00    -0.177 NA
ATOM     12  N1  6VK d   1      12.315  -6.528  -2.532  0.00  0.00    -0.262 N 
ATOM     13  C8  6VK d   1      13.103  -5.519  -2.152  0.00  0.00     0.131 A 
ATOM     14  N   6VK d   1      13.972  -4.809  -3.022  0.00  0.00    -0.344 N 
ATOM     15  H1  6VK d   1      15.002  -3.063  -4.417  0.00  0.00     0.043 H 
ATOM     16  H2  6VK d   1      16.473  -3.595  -3.535  0.00  0.00     0.043 H 
ATOM     17  H9  6VK d   1      17.410  -2.139  -1.733  0.00  0.00     0.046 H 
ATOM     18  H10 6VK d   1      16.615  -0.570  -1.369  0.00  0.00     0.046 H 
ATOM     19  H24 6VK d   1      12.226  -6.928  -3.477  0.00  0.00     0.191 HD
ATOM     20  H25 6VK d   1      14.082  -5.055  -4.016  0.00  0.00     0.167 HD
ENDROOT
BRANCH   8  21
ATOM     21  C15 6VK d   1      14.607  -4.830   0.939  0.00  0.00    -0.057 C 
ATOM     22  H11 6VK d   1      15.224  -4.125   1.515  0.00  0.00     0.029 H 
ATOM     23  H12 6VK d   1      15.259  -5.546   0.417  0.00  0.00     0.029 H 
ATOM     24  H13 6VK d   1      13.938  -5.374   1.622  0.00  0.00     0.029 H 
ENDBRANCH   8  21
BRANCH   8  25
ATOM     25  C16 6VK d   1      12.781  -3.120   0.560  0.00  0.00    -0.040 A 
ATOM     26  C17 6VK d   1      12.640  -2.939   1.959  0.00  0.00    -0.075 A 
ATOM     27  C18 6VK d   1      11.638  -2.096   2.448  0.00  0.00    -0.082 A 
ATOM     28  H14 6VK d   1      13.305  -3.451   2.645  0.00  0.00     0.084 H 
ATOM     29  C19 6VK d   1      10.792  -1.425   1.598  0.00  0.00    -0.083 A 
ATOM     30  H15 6VK d   1      11.526  -1.969   3.519  0.00  0.00     0.083 H 
ATOM     31  C20 6VK d   1      10.922  -1.613   0.207  0.00  0.00    -0.082 A 
ATOM     32  H16 6VK d   1      10.033  -0.759   1.993  0.00  0.00     0.083 H 
ATOM     33  C21 6VK d   1      11.904  -2.451  -0.302  0.00  0.00    -0.075 A 
ATOM     34  H17 6VK d   1      10.250  -1.099  -0.470  0.00  0.00     0.083 H 
ATOM     35  H18 6VK d   1      11.992  -2.588  -1.374  0.00  0.00     0.084 H 
ENDBRANCH   8  25
BRANCH  10  36
ATOM     36  C10 6VK d   1      11.468  -6.220   1.103  0.00  0.00    -0.009 A 
ATOM     37  C11 6VK d   1      11.623  -7.408   2.010  0.00  0.00    -0.056 A 
ATOM     38  C12 6VK d   1      10.307  -7.178   1.255  0.00  0.00    -0.056 A 
ATOM     39  H20 6VK d   1      11.664  -7.267   3.100  0.00  0.00     0.034 H 
ATOM     40  H21 6VK d   1      12.285  -8.238   1.722  0.00  0.00     0.034 H 
ATOM     41  H22 6VK d   1      10.024  -7.840   0.423  0.00  0.00     0.034 H 
ATOM     42  H23 6VK d   1       9.403  -6.869   1.801  0.00  0.00     0.034 H 
ATOM     43  H19 6VK d   1      11.437  -5.220   1.561  0.00  0.00     0.049 H 
ENDBRANCH  10  36
BRANCH   6  44
ATOM     44  C2  6VK d   1      14.597  -0.725  -3.083  0.00  0.00    -0.069 C 
ATOM     45  H3  6VK d   1      14.873   0.309  -2.827  0.00  0.00     0.028 H 
ATOM     46  H4  6VK d   1      13.889  -1.111  -2.335  0.00  0.00     0.028 H 
ATOM     47  H5  6VK d   1      14.126  -0.744  -4.077  0.00  0.00     0.028 H 
ENDBRANCH   6  44
BRANCH   6  48
ATOM     48  C   6VK d   1      16.833  -1.071  -4.143  0.00  0.00    -0.069 C 
ATOM     49  H6  6VK d   1      17.730  -1.707  -4.144  0.00  0.00     0.028 H 
ATOM     50  H7  6VK d   1      17.117  -0.037  -3.898  0.00  0.00     0.028 H 
ATOM     51  H8  6VK d   1      16.365  -1.097  -5.138  0.00  0.00     0.028 H 
ENDBRANCH   6  48
TORSDOF 5
