REMARK  5 active torsions:
REMARK  status: ('A' for Active; 'I' for Inactive)
REMARK    1  A    between atoms: C29_1  and  C31_8 
REMARK    2  A    between atoms: C15_9  and  C29_1 
REMARK    3  A    between atoms: C15_9  and  C30_24 
REMARK    4  A    between atoms: C11_13  and  C12_14 
REMARK    5  A    between atoms: C11_13  and  C13_17 
ROOT
ATOM      1  C23 6VL d   1      34.069  -0.410  -2.953  0.00  0.00     0.020 A 
ATOM      2  C15 6VL d   1      35.428  -0.108  -3.535  0.00  0.00     0.031 A 
ATOM      3  C14 6VL d   1      34.209   3.657  -4.432  0.00  0.00    -0.039 C 
ATOM      4  C6  6VL d   1      33.069   0.533  -2.829  0.00  0.00     0.126 A 
ATOM      5  C9  6VL d   1      36.546   1.852  -4.802  0.00  0.00     0.135 C 
ATOM      6  C11 6VL d   1      35.570   4.190  -4.882  0.00  0.00    -0.039 C 
ATOM      7  O   6VL d   1      37.563   1.207  -4.718  0.00  0.00    -0.297 OA
ATOM      8  C10 6VL d   1      36.435   3.148  -5.597  0.00  0.00    -0.003 C 
ATOM      9  C7  6VL d   1      34.227   2.245  -3.864  0.00  0.00     0.023 A 
ATOM     10  N2  6VL d   1      33.151   1.817  -3.194  0.00  0.00    -0.369 N 
ATOM     11  N1  6VL d   1      31.996  -0.077  -2.281  0.00  0.00    -0.263 N 
ATOM     12  N   6VL d   1      32.330  -1.445  -2.069  0.00  0.00    -0.185 NA
ATOM     13  C5  6VL d   1      33.603  -1.658  -2.471  0.00  0.00     0.032 A 
ATOM     14  C8  6VL d   1      35.382   1.320  -4.068  0.00  0.00     0.039 A 
ATOM     15  H11 6VL d   1      33.535   3.667  -5.301  0.00  0.00     0.037 H 
ATOM     16  H12 6VL d   1      33.818   4.332  -3.656  0.00  0.00     0.037 H 
ATOM     17  H16 6VL d   1      35.986   2.926  -6.576  0.00  0.00     0.045 H 
ATOM     18  H17 6VL d   1      37.443   3.563  -5.742  0.00  0.00     0.045 H 
ATOM     19  H21 6VL d   1      34.683   2.615  -2.934  0.00  0.00     0.073 H 
ATOM     20  H22 6VL d   1      32.391   2.472  -2.961  0.00  0.00     0.161 HD
ATOM     21  H23 6VL d   1      31.095   0.369  -2.056  0.00  0.00     0.190 HD
ATOM     22  H24 6VL d   1      34.156  -2.595  -2.432  0.00  0.00     0.118 H 
ATOM     23  H25 6VL d   1      34.931   0.954  -5.002  0.00  0.00     0.057 H 
ENDROOT
BRANCH   2  24
ATOM     24  C29 6VL d   1      35.647  -1.065  -4.730  0.00  0.00    -0.052 C 
ATOM     25  H1  6VL d   1      36.704  -1.003  -5.027  0.00  0.00     0.034 H 
ATOM     26  H2  6VL d   1      35.420  -2.087  -4.394  0.00  0.00     0.034 H 
BRANCH  24  27
ATOM     27  C31 6VL d   1      34.793  -0.771  -5.959  0.00  0.00    -0.075 C 
ATOM     28  H8  6VL d   1      35.022  -1.503  -6.748  0.00  0.00     0.027 H 
ATOM     29  H9  6VL d   1      35.013   0.243  -6.324  0.00  0.00     0.027 H 
ATOM     30  H10 6VL d   1      33.728  -0.842  -5.691  0.00  0.00     0.027 H 
ENDBRANCH  24  27
ENDBRANCH   2  24
BRANCH   2  31
ATOM     31  C30 6VL d   1      36.517  -0.234  -2.470  0.00  0.00    -0.044 A 
ATOM     32  C28 6VL d   1      37.493  -1.236  -2.475  0.00  0.00    -0.076 A 
ATOM     33  C27 6VL d   1      38.462  -1.298  -1.463  0.00  0.00    -0.082 A 
ATOM     34  H5  6VL d   1      37.501  -1.973  -3.270  0.00  0.00     0.084 H 
ATOM     35  C26 6VL d   1      38.501  -0.335  -0.467  0.00  0.00    -0.083 A 
ATOM     36  H6  6VL d   1      39.186  -2.105  -1.460  0.00  0.00     0.083 H 
ATOM     37  C25 6VL d   1      37.552   0.685  -0.459  0.00  0.00    -0.082 A 
ATOM     38  H3  6VL d   1      39.265  -0.375   0.301  0.00  0.00     0.083 H 
ATOM     39  C24 6VL d   1      36.577   0.722  -1.442  0.00  0.00    -0.076 A 
ATOM     40  H4  6VL d   1      37.577   1.446   0.313  0.00  0.00     0.083 H 
ATOM     41  H7  6VL d   1      35.837   1.514  -1.417  0.00  0.00     0.084 H 
ENDBRANCH   2  31
BRANCH   6  42
ATOM     42  C12 6VL d   1      36.321   4.687  -3.643  0.00  0.00    -0.069 C 
ATOM     43  H13 6VL d   1      37.305   5.076  -3.942  0.00  0.00     0.028 H 
ATOM     44  H14 6VL d   1      36.455   3.854  -2.937  0.00  0.00     0.028 H 
ATOM     45  H15 6VL d   1      35.742   5.488  -3.160  0.00  0.00     0.028 H 
ENDBRANCH   6  42
BRANCH   6  46
ATOM     46  C13 6VL d   1      35.310   5.364  -5.818  0.00  0.00    -0.069 C 
ATOM     47  H18 6VL d   1      34.689   6.112  -5.304  0.00  0.00     0.028 H 
ATOM     48  H19 6VL d   1      34.786   5.007  -6.717  0.00  0.00     0.028 H 
ATOM     49  H20 6VL d   1      36.268   5.820  -6.109  0.00  0.00     0.028 H 
ENDBRANCH   6  46
TORSDOF 5
