REMARK  9 active torsions:
REMARK  status: ('A' for Active; 'I' for Inactive)
REMARK    1  A    between atoms: C1_1  and  C2_2 
REMARK    2  A    between atoms: C1_1  and  C3_3 
REMARK    3  A    between atoms: C4_4  and  C1_1 
REMARK    4  A    between atoms: C1_1  and  C_25 
REMARK    5  A    between atoms: C5_5  and  C4_4 
REMARK    6  A    between atoms: C11_18  and  C12_7 
REMARK    7  A    between atoms: C11_18  and  C13_8 
REMARK    8  A    between atoms: C15_20  and  C29_21 
REMARK    9  A    between atoms: C15_20  and  C30_22 
ROOT
ATOM      1  C5  6VM d   1      12.800  -4.241  -4.732  0.00  0.00     0.066 A 
ATOM      2  C6  6VM d   1      12.338  -3.170  -6.751  0.00  0.00     0.127 A 
ATOM      3  C14 6VM d   1      12.758  -0.023  -8.590  0.00  0.00    -0.039 C 
ATOM      4  O   6VM d   1      14.440   1.093  -4.944  0.00  0.00    -0.297 OA
ATOM      5  C9  6VM d   1      14.072   0.725  -6.053  0.00  0.00     0.135 C 
ATOM      6  C8  6VM d   1      13.547  -0.682  -6.195  0.00  0.00     0.039 A 
ATOM      7  C7  6VM d   1      12.851  -1.036  -7.471  0.00  0.00     0.023 A 
ATOM      8  C11 6VM d   1      13.986   0.895  -8.583  0.00  0.00    -0.039 C 
ATOM      9  C10 6VM d   1      14.038   1.666  -7.258  0.00  0.00    -0.003 C 
ATOM     10  C15 6VM d   1      13.635  -1.650  -5.053  0.00  0.00     0.028 A 
ATOM     11  C23 6VM d   1      12.989  -2.959  -5.457  0.00  0.00     0.027 A 
ATOM     12  N   6VM d   1      12.142  -5.018  -5.608  0.00  0.00    -0.177 NA
ATOM     13  N1  6VM d   1      11.842  -4.411  -6.850  0.00  0.00    -0.262 N 
ATOM     14  N2  6VM d   1      12.300  -2.226  -7.673  0.00  0.00    -0.369 N 
ATOM     15  H15 6VM d   1      11.851   0.584  -8.455  0.00  0.00     0.037 H 
ATOM     16  H16 6VM d   1      12.706  -0.551  -9.554  0.00  0.00     0.037 H 
ATOM     17  H21 6VM d   1      14.511  -1.036  -6.590  0.00  0.00     0.057 H 
ATOM     18  H22 6VM d   1      11.905  -0.669  -7.046  0.00  0.00     0.073 H 
ATOM     19  H23 6VM d   1      14.942   2.292  -7.246  0.00  0.00     0.045 H 
ATOM     20  H24 6VM d   1      13.147   2.307  -7.184  0.00  0.00     0.045 H 
ATOM     21  H32 6VM d   1      11.351  -4.830  -7.653  0.00  0.00     0.191 HD
ATOM     22  H33 6VM d   1      11.832  -2.418  -8.570  0.00  0.00     0.161 HD
ENDROOT
BRANCH   1  23
ATOM     23  C4  6VM d   1      13.262  -4.578  -3.352  0.00  0.00    -0.017 C 
ATOM     24  H7  6VM d   1      13.908  -5.466  -3.413  0.00  0.00     0.043 H 
ATOM     25  H8  6VM d   1      13.844  -3.728  -2.967  0.00  0.00     0.043 H 
BRANCH  23  26
ATOM     26  C1  6VM d   1      12.133  -4.874  -2.360  0.00  0.00    -0.046 C 
BRANCH  26  27
ATOM     27  C2  6VM d   1      11.202  -3.689  -2.143  0.00  0.00    -0.069 C 
ATOM     28  H1  6VM d   1      10.417  -3.966  -1.424  0.00  0.00     0.028 H 
ATOM     29  H2  6VM d   1      10.739  -3.406  -3.100  0.00  0.00     0.028 H 
ATOM     30  H3  6VM d   1      11.777  -2.838  -1.749  0.00  0.00     0.028 H 
ENDBRANCH  26  27
BRANCH  26  31
ATOM     31  C3  6VM d   1      11.279  -6.050  -2.824  0.00  0.00    -0.069 C 
ATOM     32  H4  6VM d   1      11.922  -6.927  -2.991  0.00  0.00     0.028 H 
ATOM     33  H5  6VM d   1      10.769  -5.785  -3.762  0.00  0.00     0.028 H 
ATOM     34  H6  6VM d   1      10.530  -6.286  -2.054  0.00  0.00     0.028 H 
ENDBRANCH  26  31
BRANCH  26  35
ATOM     35  C   6VM d   1      12.780  -5.201  -1.011  0.00  0.00    -0.069 C 
ATOM     36  H29 6VM d   1      11.995  -5.420  -0.272  0.00  0.00     0.028 H 
ATOM     37  H30 6VM d   1      13.374  -4.340  -0.671  0.00  0.00     0.028 H 
ATOM     38  H31 6VM d   1      13.435  -6.078  -1.121  0.00  0.00     0.028 H 
ENDBRANCH  26  35
ENDBRANCH  23  26
ENDBRANCH   1  23
BRANCH  10  39
ATOM     39  C29 6VM d   1      15.131  -1.882  -4.818  0.00  0.00    -0.060 C 
ATOM     40  H25 6VM d   1      15.266  -2.589  -3.986  0.00  0.00     0.029 H 
ATOM     41  H26 6VM d   1      15.616  -0.926  -4.570  0.00  0.00     0.029 H 
ATOM     42  H27 6VM d   1      15.585  -2.297  -5.730  0.00  0.00     0.029 H 
ENDBRANCH  10  39
BRANCH  10  43
ATOM     43  C30 6VM d   1      12.793  -1.073  -3.922  0.00  0.00    -0.044 A 
ATOM     44  C24 6VM d   1      13.274  -0.853  -2.630  0.00  0.00    -0.076 A 
ATOM     45  C25 6VM d   1      12.462  -0.336  -1.600  0.00  0.00    -0.082 A 
ATOM     46  H17 6VM d   1      14.309  -1.088  -2.411  0.00  0.00     0.084 H 
ATOM     47  C26 6VM d   1      11.123  -0.014  -1.848  0.00  0.00    -0.083 A 
ATOM     48  H18 6VM d   1      12.877  -0.187  -0.610  0.00  0.00     0.083 H 
ATOM     49  C27 6VM d   1      10.639  -0.219  -3.142  0.00  0.00    -0.082 A 
ATOM     50  H19 6VM d   1      10.485   0.380  -1.065  0.00  0.00     0.083 H 
ATOM     51  C28 6VM d   1      11.456  -0.727  -4.170  0.00  0.00    -0.076 A 
ATOM     52  H20 6VM d   1       9.605   0.020  -3.361  0.00  0.00     0.083 H 
ATOM     53  H28 6VM d   1      11.047  -0.852  -5.166  0.00  0.00     0.084 H 
ENDBRANCH  10  43
BRANCH   8  54
ATOM     54  C12 6VM d   1      13.788   1.788  -9.781  0.00  0.00    -0.069 C 
ATOM     55  H9  6VM d   1      13.760   1.175 -10.694  0.00  0.00     0.028 H 
ATOM     56  H10 6VM d   1      14.620   2.505  -9.846  0.00  0.00     0.028 H 
ATOM     57  H11 6VM d   1      12.840   2.336  -9.678  0.00  0.00     0.028 H 
ENDBRANCH   8  54
BRANCH   8  58
ATOM     58  C13 6VM d   1      15.299   0.152  -8.842  0.00  0.00    -0.069 C 
ATOM     59  H12 6VM d   1      15.510  -0.524  -8.001  0.00  0.00     0.028 H 
ATOM     60  H13 6VM d   1      16.118   0.879  -8.942  0.00  0.00     0.028 H 
ATOM     61  H14 6VM d   1      15.213  -0.433  -9.770  0.00  0.00     0.028 H 
ENDBRANCH   8  58
TORSDOF 9
