REMARK  7 active torsions:
REMARK  status: ('A' for Active; 'I' for Inactive)
REMARK    1  A    between atoms: C25_2  and  N3_31 
REMARK    2  A    between atoms: C23_4  and  N4_34 
REMARK    3  A    between atoms: C22_5  and  O6_32 
REMARK    4  A    between atoms: C21_6  and  C26_7 
REMARK    5  A    between atoms: C21_6  and  N2_8 
REMARK    6  A    between atoms: O6_32  and  C27_33 
REMARK    7  A    between atoms: N4_34  and  C28_35 
ROOT
ATOM      1  O4  STU d   1      42.475 -86.529 -26.593  0.00  0.00    -0.333 OA
ATOM      2  C25 STU d   1      43.026 -87.525 -25.719  0.00  0.00     0.115 C 
ATOM      3  C24 STU d   1      42.043 -88.086 -24.690  0.00  0.00     0.005 C 
ATOM      4  C23 STU d   1      40.624 -87.617 -24.952  0.00  0.00     0.134 C 
ATOM      5  C22 STU d   1      40.632 -86.099 -24.983  0.00  0.00     0.113 C 
ATOM      6  C21 STU d   1      41.577 -85.551 -26.056  0.00  0.00     0.168 C 
ATOM      7  H1  STU d   1      43.344 -88.368 -26.350  0.00  0.00     0.118 H 
ATOM      8  H2  STU d   1      42.349 -87.753 -23.687  0.00  0.00     0.042 H 
ATOM      9  H3  STU d   1      42.069 -89.185 -24.735  0.00  0.00     0.042 H 
ATOM     10  H4  STU d   1      40.282 -88.003 -25.924  0.00  0.00     0.088 H 
ATOM     11  H5  STU d   1      39.615 -85.750 -25.218  0.00  0.00     0.094 H 
ENDROOT
BRANCH   4  12
ATOM     12  N4  STU d   1      39.735 -88.097 -23.913  0.00  0.00    -0.072 N 
ATOM     13  H23 STU d   1      39.979 -87.603 -23.069  0.00  0.00     0.277 HD
ATOM     14  H24 STU d   1      39.928 -89.079 -23.795  0.00  0.00     0.277 HD
BRANCH  12  15
ATOM     15  C28 STU d   1      38.299 -87.969 -24.073  0.00  0.00     0.065 C 
ATOM     16  H25 STU d   1      37.793 -88.386 -23.190  0.00  0.00     0.067 H 
ATOM     17  H26 STU d   1      37.980 -88.518 -24.971  0.00  0.00     0.067 H 
ATOM     18  H27 STU d   1      38.035 -86.906 -24.179  0.00  0.00     0.067 H 
ENDBRANCH  12  15
ENDBRANCH   4  12
BRANCH   5  19
ATOM     19  O6  STU d   1      40.989 -85.622 -23.684  0.00  0.00    -0.384 OA
BRANCH  19  20
ATOM     20  C27 STU d   1      39.968 -84.798 -23.125  0.00  0.00     0.005 C 
ATOM     21  H20 STU d   1      40.280 -84.452 -22.128  0.00  0.00     0.066 H 
ATOM     22  H21 STU d   1      39.037 -85.377 -23.037  0.00  0.00     0.066 H 
ATOM     23  H22 STU d   1      39.799 -83.929 -23.778  0.00  0.00     0.066 H 
ENDBRANCH  19  20
ENDBRANCH   5  19
BRANCH   2  24
ATOM     24  N3  STU d   1      44.229 -86.982 -25.042  0.00  0.00    -0.316 N 
ATOM     25  C19 STU d   1      44.445 -85.683 -24.715  0.00  0.00     0.077 A 
ATOM     26  C18 STU d   1      43.566 -84.495 -24.923  0.00  0.00     0.077 A 
ATOM     27  C6  STU d   1      45.743 -85.511 -24.063  0.00  0.00     0.022 A 
ATOM     28  N2  STU d   1      42.342 -84.391 -25.499  0.00  0.00    -0.308 N 
ATOM     29  C11 STU d   1      43.981 -83.148 -24.489  0.00  0.00     0.015 A 
ATOM     30  C17 STU d   1      41.837 -83.118 -25.505  0.00  0.00     0.049 A 
ATOM     31  C12 STU d   1      42.872 -82.268 -24.863  0.00  0.00     0.004 A 
ATOM     32  C16 STU d   1      40.679 -82.501 -25.951  0.00  0.00    -0.056 A 
ATOM     33  C13 STU d   1      42.720 -80.904 -24.695  0.00  0.00    -0.070 A 
ATOM     34  C14 STU d   1      41.534 -80.342 -25.163  0.00  0.00    -0.082 A 
ATOM     35  H12 STU d   1      43.487 -80.301 -24.222  0.00  0.00     0.084 H 
ATOM     36  C15 STU d   1      40.544 -81.122 -25.773  0.00  0.00    -0.081 A 
ATOM     37  H11 STU d   1      41.374 -79.276 -25.052  0.00  0.00     0.083 H 
ATOM     38  H10 STU d   1      39.639 -80.638 -26.120  0.00  0.00     0.083 H 
ATOM     39  H9  STU d   1      39.894 -83.077 -26.428  0.00  0.00     0.087 H 
ATOM     40  C10 STU d   1      45.303 -82.950 -23.822  0.00  0.00    -0.010 A 
ATOM     41  C7  STU d   1      46.128 -84.140 -23.638  0.00  0.00     0.054 A 
ATOM     42  C9  STU d   1      45.979 -81.775 -23.293  0.00  0.00     0.021 A 
ATOM     43  C8  STU d   1      47.338 -83.629 -22.970  0.00  0.00     0.253 A 
ATOM     44  N1  STU d   1      47.276 -82.287 -22.764  0.00  0.00    -0.353 N 
ATOM     45  O5  STU d   1      48.334 -84.364 -22.624  0.00  0.00    -0.268 OA
ATOM     46  H15 STU d   1      47.985 -81.733 -22.328  0.00  0.00     0.163 HD
ATOM     47  H13 STU d   1      45.386 -81.317 -22.488  0.00  0.00     0.071 H 
ATOM     48  H14 STU d   1      46.150 -81.035 -24.089  0.00  0.00     0.071 H 
ATOM     49  C5  STU d   1      46.316 -86.846 -24.026  0.00  0.00     0.004 A 
ATOM     50  C20 STU d   1      45.314 -87.737 -24.661  0.00  0.00     0.048 A 
ATOM     51  C4  STU d   1      47.527 -87.290 -23.525  0.00  0.00    -0.070 A 
ATOM     52  C1  STU d   1      45.638 -89.084 -24.744  0.00  0.00    -0.056 A 
ATOM     53  C2  STU d   1      46.863 -89.521 -24.235  0.00  0.00    -0.081 A 
ATOM     54  H16 STU d   1      44.949 -89.787 -25.198  0.00  0.00     0.087 H 
ATOM     55  C3  STU d   1      47.786 -88.653 -23.642  0.00  0.00    -0.082 A 
ATOM     56  H17 STU d   1      47.108 -90.575 -24.302  0.00  0.00     0.083 H 
ATOM     57  H18 STU d   1      48.722 -89.050 -23.266  0.00  0.00     0.083 H 
ATOM     58  H19 STU d   1      48.237 -86.612 -23.065  0.00  0.00     0.084 H 
ENDBRANCH   2  24
BRANCH   6  59
ATOM     59  C26 STU d   1      40.732 -85.091 -27.241  0.00  0.00    -0.028 C 
ATOM     60  H6  STU d   1      40.011 -84.332 -26.904  0.00  0.00     0.034 H 
ATOM     61  H7  STU d   1      40.190 -85.951 -27.660  0.00  0.00     0.034 H 
ATOM     62  H8  STU d   1      41.386 -84.659 -28.012  0.00  0.00     0.034 H 
ENDBRANCH   6  59
TORSDOF 7
