REMARK WARNING: 32 MAX_TORS EXCEEDED!!!
REMARK  35 active torsions:
REMARK  status: ('A' for Active; 'I' for Inactive)
REMARK    1  A    between atoms: C2_57  and  C3_1 
REMARK    2  A    between atoms: C3_1  and  C4_58 
REMARK    3  A    between atoms: S1P_55  and  C1_2 
REMARK    4  A    between atoms: C1_2  and  C2_57 
REMARK    5  A    between atoms: C10_3  and  C11_7 
REMARK    6  A    between atoms: C9_60  and  C10_3 
REMARK    7  A    between atoms: C7_5  and  C8_4 
REMARK    8  A    between atoms: C8_4  and  C9_60 
REMARK    9  A    between atoms: C6_59  and  C7_5 
REMARK   10  A    between atoms: C4_58  and  C5_6 
REMARK   11  A    between atoms: C5_6  and  C6_59 
REMARK   12  A    between atoms: C11_7  and  C12_61 
REMARK   13  A    between atoms: C1B_18  and  N9A_17 
REMARK   14  A    between atoms: C2B_19  and  O2B_20 
REMARK   15  A    between atoms: C3B_21  and  O3B_22 
REMARK   16  A    between atoms: O3B_22  and  P3B_23 
REMARK   17  A    between atoms: C5B_29  and  C4B_27 
REMARK   18  A    between atoms: O5B_30  and  C5B_29 
REMARK   19  A    between atoms: P1A_31  and  O5B_30 
REMARK   20  A    between atoms: O3A_34  and  P1A_31 
REMARK   21  A    between atoms: P2A_35  and  O3A_34 
REMARK   22  A    between atoms: O6A_38  and  P2A_35 
REMARK   23  A    between atoms: CCP_40  and  O6A_38 
REMARK   24  A    between atoms: CBP_39  and  CCP_40 
REMARK   25  A    between atoms: CBP_39  and  CDP_41 
REMARK   26  A    between atoms: CBP_39  and  CEP_42 
REMARK   27  A    between atoms: CAP_43  and  CBP_39 
REMARK   28  A    between atoms: CAP_43  and  OAP_44 
REMARK   29  A    between atoms: C9P_45  and  CAP_43 
REMARK       I    between atoms: N8P_47  and  C9P_45 
REMARK   30  A    between atoms: C7P_48  and  N8P_47 
REMARK   31  A    between atoms: C6P_49  and  C7P_48 
REMARK   32  A    between atoms: C5P_50  and  C6P_49 
REMARK       I    between atoms: N4P_52  and  C5P_50 
REMARK   33  A    between atoms: C3P_53  and  N4P_52 
REMARK   34  A    between atoms: C2P_54  and  C3P_53 
REMARK   35  A    between atoms: C2P_54  and  S1P_55 
ROOT
ATOM      1  CAP PKZ d   1      11.932  82.825 114.166  0.00  0.00     0.120 C 
ATOM      2  H32 PKZ d   1      12.578  82.319 114.898  0.00  0.00     0.099 H 
ENDROOT
BRANCH   1   3
ATOM      3  CBP PKZ d   1      12.627  82.820 112.818  0.00  0.00     0.009 C 
BRANCH   3   4
ATOM      4  CCP PKZ d   1      13.591  83.974 112.830  0.00  0.00     0.041 C 
ATOM      5  H24 PKZ d   1      14.025  84.109 111.829  0.00  0.00     0.076 H 
ATOM      6  H25 PKZ d   1      13.069  84.894 113.130  0.00  0.00     0.076 H 
BRANCH   4   7
ATOM      7  O6A PKZ d   1      14.611  83.675 113.760  0.00  0.00    -0.289 OA
BRANCH   7   8
ATOM      8  P2A PKZ d   1      14.830  84.781 114.887  0.00  0.00     0.417 P 
ATOM      9  O4A PKZ d   1      15.413  84.070 116.087  0.00  0.00    -0.624 OA
ATOM     10  O5A PKZ d   1      13.513  85.486 114.995  0.00  0.00    -0.624 OA
BRANCH   8  11
ATOM     11  O3A PKZ d   1      15.903  85.749 114.166  0.00  0.00    -0.180 OA
BRANCH  11  12
ATOM     12  P1A PKZ d   1      15.965  87.350 114.381  0.00  0.00     0.417 P 
ATOM     13  O1A PKZ d   1      15.380  87.656 115.728  0.00  0.00    -0.624 OA
ATOM     14  O2A PKZ d   1      15.478  88.093 113.173  0.00  0.00    -0.624 OA
BRANCH  12  15
ATOM     15  O5B PKZ d   1      17.540  87.596 114.461  0.00  0.00    -0.287 OA
BRANCH  15  16
ATOM     16  C5B PKZ d   1      18.419  87.053 113.485  0.00  0.00     0.058 C 
ATOM     17  H22 PKZ d   1      18.571  85.979 113.669  0.00  0.00     0.079 H 
ATOM     18  H23 PKZ d   1      18.000  87.197 112.478  0.00  0.00     0.079 H 
BRANCH  16  19
ATOM     19  C4B PKZ d   1      19.734  87.792 113.610  0.00  0.00     0.090 C 
ATOM     20  C3B PKZ d   1      19.545  89.049 114.450  0.00  0.00     0.107 C 
ATOM     21  C2B PKZ d   1      19.148  90.057 113.410  0.00  0.00     0.106 C 
ATOM     22  H20 PKZ d   1      18.764  88.912 115.213  0.00  0.00     0.092 H 
ATOM     23  C1B PKZ d   1      19.889  89.576 112.176  0.00  0.00     0.140 C 
ATOM     24  H18 PKZ d   1      18.061  90.069 113.241  0.00  0.00     0.093 H 
ATOM     25  O4B PKZ d   1      20.056  88.173 112.284  0.00  0.00    -0.353 OA
ATOM     26  H17 PKZ d   1      20.871  90.068 112.115  0.00  0.00     0.122 H 
ATOM     27  H21 PKZ d   1      20.514  87.150 114.047  0.00  0.00     0.090 H 
BRANCH  20  28
ATOM     28  O3B PKZ d   1      20.771  89.466 115.069  0.00  0.00    -0.272 OA
BRANCH  28  29
ATOM     29  P3B PKZ d   1      20.920  90.301 116.452  0.00  0.00     0.422 P 
ATOM     30  O7A PKZ d   1      22.393  90.606 116.630  0.00  0.00    -0.617 OA
ATOM     31  O8A PKZ d   1      20.413  89.328 117.481  0.00  0.00    -0.617 OA
ATOM     32  O9A PKZ d   1      20.048  91.509 116.204  0.00  0.00    -0.617 OA
ENDBRANCH  28  29
ENDBRANCH  20  28
BRANCH  21  33
ATOM     33  O2B PKZ d   1      19.590  91.341 113.838  0.00  0.00    -0.388 OA
ATOM     34  H19 PKZ d   1      20.516  91.303 114.046  0.00  0.00     0.210 HD
ENDBRANCH  21  33
BRANCH  23  35
ATOM     35  N9A PKZ d   1      19.115  89.878 110.974  0.00  0.00    -0.294 N 
ATOM     36  C4A PKZ d   1      19.479  90.735 110.026  0.00  0.00     0.167 A 
ATOM     37  N3A PKZ d   1      20.534  91.550 109.817  0.00  0.00    -0.222 NA
ATOM     38  C5A PKZ d   1      18.418  90.695 109.031  0.00  0.00     0.149 A 
ATOM     39  C2A PKZ d   1      20.636  92.337 108.740  0.00  0.00     0.091 A 
ATOM     40  N1A PKZ d   1      19.702  92.356 107.785  0.00  0.00    -0.222 NA
ATOM     41  H13 PKZ d   1      21.503  92.979 108.639  0.00  0.00     0.146 H 
ATOM     42  C6A PKZ d   1      18.596  91.584 107.860  0.00  0.00     0.155 A 
ATOM     43  N6A PKZ d   1      17.672  91.631 106.876  0.00  0.00    -0.382 N 
ATOM     44  H14 PKZ d   1      16.829  91.043 106.933  0.00  0.00     0.157 HD
ATOM     45  H15 PKZ d   1      17.811  92.255 106.069  0.00  0.00     0.157 HD
ATOM     46  N7A PKZ d   1      17.509  89.804 109.475  0.00  0.00    -0.236 NA
ATOM     47  C8A PKZ d   1      17.949  89.309 110.656  0.00  0.00     0.071 A 
ATOM     48  H16 PKZ d   1      17.431  88.561 111.255  0.00  0.00     0.144 H 
ENDBRANCH  23  35
ENDBRANCH  16  19
ENDBRANCH  15  16
ENDBRANCH  12  15
ENDBRANCH  11  12
ENDBRANCH   8  11
ENDBRANCH   7   8
ENDBRANCH   4   7
ENDBRANCH   3   4
BRANCH   3  49
ATOM     49  CDP PKZ d   1      13.406  81.544 112.551  0.00  0.00    -0.065 C 
ATOM     50  H26 PKZ d   1      12.715  80.688 112.539  0.00  0.00     0.028 H 
ATOM     51  H27 PKZ d   1      14.155  81.399 113.343  0.00  0.00     0.028 H 
ATOM     52  H28 PKZ d   1      13.912  81.620 111.577  0.00  0.00     0.028 H 
ENDBRANCH   3  49
BRANCH   3  53
ATOM     53  CEP PKZ d   1      11.624  83.080 111.712  0.00  0.00    -0.065 C 
ATOM     54  H29 PKZ d   1      11.073  84.007 111.927  0.00  0.00     0.028 H 
ATOM     55  H30 PKZ d   1      10.917  82.239 111.653  0.00  0.00     0.028 H 
ATOM     56  H31 PKZ d   1      12.154  83.182 110.753  0.00  0.00     0.028 H 
ENDBRANCH   3  53
ENDBRANCH   1   3
BRANCH   1  57
ATOM     57  OAP PKZ d   1      11.768  84.184 114.553  0.00  0.00    -0.385 OA
ATOM     58  H33 PKZ d   1      12.620  84.599 114.615  0.00  0.00     0.210 HD
ENDBRANCH   1  57
BRANCH   1  59
ATOM     59  C9P PKZ d   1      10.613  82.109 114.139  0.00  0.00     0.247 C 
ATOM     60  O9P PKZ d   1      10.568  80.905 113.958  0.00  0.00    -0.271 OA
ATOM     61  N8P PKZ d   1       9.507  82.805 114.352  0.00  0.00    -0.358 N 
ATOM     62  H34 PKZ d   1       9.546  83.782 114.559  0.00  0.00     0.162 HD
BRANCH  61  63
ATOM     63  C7P PKZ d   1       8.245  82.111 114.276  0.00  0.00     0.003 C 
ATOM     64  H35 PKZ d   1       7.459  82.736 114.725  0.00  0.00     0.064 H 
ATOM     65  H36 PKZ d   1       8.318  81.162 114.827  0.00  0.00     0.064 H 
BRANCH  63  66
ATOM     66  C6P PKZ d   1       7.894  81.826 112.833  0.00  0.00     0.024 C 
ATOM     67  H37 PKZ d   1       8.659  81.183 112.373  0.00  0.00     0.049 H 
ATOM     68  H38 PKZ d   1       7.815  82.765 112.266  0.00  0.00     0.049 H 
BRANCH  66  69
ATOM     69  C5P PKZ d   1       6.576  81.125 112.862  0.00  0.00     0.219 C 
ATOM     70  O5P PKZ d   1       6.460  80.071 113.458  0.00  0.00    -0.274 OA
ATOM     71  N4P PKZ d   1       5.601  81.746 112.214  0.00  0.00    -0.360 N 
ATOM     72  H39 PKZ d   1       5.844  82.495 111.597  0.00  0.00     0.162 HD
BRANCH  71  73
ATOM     73  C3P PKZ d   1       4.205  81.398 112.352  0.00  0.00     0.003 C 
ATOM     74  H40 PKZ d   1       3.944  81.362 113.420  0.00  0.00     0.065 H 
ATOM     75  H41 PKZ d   1       4.030  80.411 111.898  0.00  0.00     0.065 H 
BRANCH  73  76
ATOM     76  C2P PKZ d   1       3.337  82.425 111.661  0.00  0.00    -0.002 C 
ATOM     77  H42 PKZ d   1       3.682  82.555 110.625  0.00  0.00     0.052 H 
ATOM     78  H43 PKZ d   1       3.412  83.383 112.195  0.00  0.00     0.052 H 
BRANCH  76  79
ATOM     79  S1P PKZ d   1       1.676  81.899 111.653  0.00  0.00    -0.091 SA
BRANCH  79  80
ATOM     80  C1  PKZ d   1       1.351  82.316 110.081  0.00  0.00     0.186 C 
ATOM     81  O1  PKZ d   1       2.226  82.824 109.409  0.00  0.00    -0.286 OA
BRANCH  80  82
ATOM     82  C2  PKZ d   1      -0.012  82.058 109.498  0.00  0.00     0.000 C 
ATOM     83  H44 PKZ d   1      -0.198  80.974 109.493  0.00  0.00     0.045 H 
ATOM     84  H45 PKZ d   1      -0.767  82.556 110.123  0.00  0.00     0.045 H 
BRANCH  82  85
ATOM     85  C3  PKZ d   1      -0.125  82.587 108.069  0.00  0.00    -0.058 C 
ATOM     86  H1  PKZ d   1       0.637  82.114 107.432  0.00  0.00     0.033 H 
ATOM     87  H2  PKZ d   1       0.016  83.678 108.060  0.00  0.00     0.033 H 
BRANCH  85  88
ATOM     88  C4  PKZ d   1      -1.517  82.239 107.559  0.00  0.00    -0.065 C 
ATOM     89  H46 PKZ d   1      -2.247  82.493 108.342  0.00  0.00     0.033 H 
ATOM     90  H47 PKZ d   1      -1.554  81.158 107.360  0.00  0.00     0.033 H 
BRANCH  88  91
ATOM     91  C5  PKZ d   1      -1.904  82.974 106.286  0.00  0.00    -0.065 C 
ATOM     92  H9  PKZ d   1      -1.000  83.234 105.717  0.00  0.00     0.033 H 
ATOM     93  H10 PKZ d   1      -2.455  83.892 106.539  0.00  0.00     0.033 H 
BRANCH  91  94
ATOM     94  C6  PKZ d   1      -2.787  82.056 105.457  0.00  0.00    -0.065 C 
ATOM     95  H48 PKZ d   1      -3.690  81.785 106.024  0.00  0.00     0.033 H 
ATOM     96  H49 PKZ d   1      -3.078  82.554 104.521  0.00  0.00     0.033 H 
BRANCH  94  97
ATOM     97  C7  PKZ d   1      -1.967  80.816 105.156  0.00  0.00    -0.065 C 
ATOM     98  H7  PKZ d   1      -0.903  81.092 105.117  0.00  0.00     0.033 H 
ATOM     99  H8  PKZ d   1      -2.125  80.080 105.958  0.00  0.00     0.033 H 
BRANCH  97 100
ATOM    100  C8  PKZ d   1      -2.363  80.196 103.834  0.00  0.00    -0.065 C 
ATOM    101  H5  PKZ d   1      -1.481  79.732 103.368  0.00  0.00     0.033 H 
ATOM    102  H6  PKZ d   1      -2.762  80.975 103.168  0.00  0.00     0.033 H 
BRANCH 100 103
ATOM    103  C9  PKZ d   1      -3.422  79.143 104.069  0.00  0.00    -0.065 C 
ATOM    104  H50 PKZ d   1      -3.073  78.437 104.837  0.00  0.00     0.033 H 
ATOM    105  H51 PKZ d   1      -4.350  79.626 104.410  0.00  0.00     0.033 H 
BRANCH 103 106
ATOM    106  C10 PKZ d   1      -3.687  78.395 102.779  0.00  0.00    -0.065 C 
ATOM    107  H3  PKZ d   1      -3.204  78.926 101.945  0.00  0.00     0.033 H 
ATOM    108  H4  PKZ d   1      -3.273  77.379 102.856  0.00  0.00     0.033 H 
BRANCH 106 109
ATOM    109  C11 PKZ d   1      -5.184  78.309 102.520  0.00  0.00    -0.069 C 
ATOM    110  H11 PKZ d   1      -5.589  79.321 102.373  0.00  0.00     0.032 H 
ATOM    111  H12 PKZ d   1      -5.679  77.838 103.382  0.00  0.00     0.032 H 
BRANCH 109 112
ATOM    112  C12 PKZ d   1      -5.435  77.482 101.282  0.00  0.00    -0.077 C 
ATOM    113  H52 PKZ d   1      -6.517  77.420 101.096  0.00  0.00     0.027 H 
ATOM    114  H53 PKZ d   1      -5.030  76.470 101.429  0.00  0.00     0.027 H 
ATOM    115  H54 PKZ d   1      -4.941  77.953 100.420  0.00  0.00     0.027 H 
ENDBRANCH 109 112
ENDBRANCH 106 109
ENDBRANCH 103 106
ENDBRANCH 100 103
ENDBRANCH  97 100
ENDBRANCH  94  97
ENDBRANCH  91  94
ENDBRANCH  88  91
ENDBRANCH  85  88
ENDBRANCH  82  85
ENDBRANCH  80  82
ENDBRANCH  79  80
ENDBRANCH  76  79
ENDBRANCH  73  76
ENDBRANCH  71  73
ENDBRANCH  66  69
ENDBRANCH  63  66
ENDBRANCH  61  63
ENDBRANCH   1  59
TORSDOF 35
