REMARK  3 active torsions:
REMARK  status: ('A' for Active; 'I' for Inactive)
REMARK    1  A    between atoms: C2_9  and  C15_4 
REMARK    2  A    between atoms: C2_9  and  C1_8 
REMARK    3  A    between atoms: C9_16  and  C4_11 
ROOT
ATOM      1  C2  6WD d   1      17.462  38.532  -8.513  0.00  0.00     0.060 C 
ATOM      2  C3  6WD d   1      17.096  39.401  -9.722  0.00  0.00    -0.022 C 
ATOM      3  C4  6WD d   1      17.171  40.899  -9.434  0.00  0.00     0.029 C 
ATOM      4  S5  6WD d   1      16.198  41.296  -7.964  0.00  0.00    -0.085 SA
ATOM      5  C6  6WD d   1      15.936  39.817  -7.061  0.00  0.00     0.135 C 
ATOM      6  N7  6WD d   1      16.508  38.720  -7.396  0.00  0.00    -0.358 N 
ATOM      7  N8  6WD d   1      15.245  39.928  -5.918  0.00  0.00    -0.380 N 
ATOM      8  H8  6WD d   1      16.069  39.156 -10.030  0.00  0.00     0.039 H 
ATOM      9  H9  6WD d   1      17.791  39.168 -10.543  0.00  0.00     0.039 H 
ATOM     10  H10 6WD d   1      18.217  41.197  -9.270  0.00  0.00     0.065 H 
ATOM     11  H11 6WD d   1      16.282  37.888  -6.833  0.00  0.00     0.162 HD
ATOM     12  H12 6WD d   1      15.060  39.092  -5.345  0.00  0.00     0.158 HD
ATOM     13  H13 6WD d   1      14.899  40.849  -5.613  0.00  0.00     0.158 HD
ENDROOT
BRANCH   1  14
ATOM     14  C15 6WD d   1      18.919  38.745  -8.105  0.00  0.00     0.008 A 
ATOM     15  C16 6WD d   1      19.211  39.159  -6.814  0.00  0.00    -0.069 A 
ATOM     16  C17 6WD d   1      20.518  39.339  -6.402  0.00  0.00    -0.045 A 
ATOM     17  H2  6WD d   1      18.402  39.344  -6.117  0.00  0.00     0.084 H 
ATOM     18  C18 6WD d   1      21.575  39.108  -7.280  0.00  0.00     0.119 A 
ATOM     19  H1  6WD d   1      20.722  39.663  -5.388  0.00  0.00     0.088 H 
ATOM     20  C19 6WD d   1      21.318  38.690  -8.586  0.00  0.00    -0.008 A 
ATOM     21  F22 6WD d   1      22.829  39.292  -6.845  0.00  0.00    -0.206 F 
ATOM     22  C20 6WD d   1      19.996  38.506  -8.997  0.00  0.00     0.128 A 
ATOM     23  H3  6WD d   1      22.136  38.510  -9.274  0.00  0.00     0.093 H 
ATOM     24  F21 6WD d   1      19.758  38.107 -10.255  0.00  0.00    -0.205 F 
ENDBRANCH   1  14
BRANCH   1  25
ATOM     25  C1  6WD d   1      17.300  37.086  -8.971  0.00  0.00    -0.049 C 
ATOM     26  H5  6WD d   1      16.256  36.911  -9.270  0.00  0.00     0.031 H 
ATOM     27  H6  6WD d   1      17.564  36.408  -8.146  0.00  0.00     0.031 H 
ATOM     28  H7  6WD d   1      17.963  36.896  -9.828  0.00  0.00     0.031 H 
ENDBRANCH   1  25
BRANCH   3  29
ATOM     29  C9  6WD d   1      16.615  41.621 -10.643  0.00  0.00    -0.009 A 
ATOM     30  C10 6WD d   1      15.244  41.609 -10.927  0.00  0.00     0.012 A 
ATOM     31  N11 6WD d   1      14.770  42.262 -12.019  0.00  0.00    -0.254 NA
ATOM     32  H14 6WD d   1      14.560  41.078 -10.274  0.00  0.00     0.115 H 
ATOM     33  C12 6WD d   1      15.623  42.924 -12.829  0.00  0.00     0.085 A 
ATOM     34  N13 6WD d   1      16.949  42.946 -12.577  0.00  0.00    -0.254 NA
ATOM     35  H4  6WD d   1      15.237  43.447 -13.697  0.00  0.00     0.146 H 
ATOM     36  C14 6WD d   1      17.464  42.309 -11.500  0.00  0.00     0.012 A 
ATOM     37  H15 6WD d   1      18.530  42.336 -11.308  0.00  0.00     0.115 H 
ENDBRANCH   3  29
TORSDOF 3
