REMARK  4 active torsions:
REMARK  status: ('A' for Active; 'I' for Inactive)
REMARK    1  A    between atoms: S02_2  and  C05_5 
REMARK    2  A    between atoms: C05_5  and  C06_6 
REMARK    3  A    between atoms: C05_5  and  C18_18 
REMARK       I    between atoms: C06_6  and  N08_8 
REMARK    4  A    between atoms: N08_8  and  C09_9 
ROOT
ATOM      1  C05 6VX d   1      -2.464   8.806  -0.347  0.00  0.00     0.164 C 
ATOM      2  H1  6VX d   1      -3.296   8.194   0.031  0.00  0.00     0.091 H 
ENDROOT
BRANCH   1   3
ATOM      3  S02 6VX d   1      -2.405   8.585  -2.096  0.00  0.00     0.119 S 
ATOM      4  O01 6VX d   1      -2.332   7.135  -2.269  0.00  0.00    -0.594 OA
ATOM      5  O03 6VX d   1      -3.640   9.158  -2.603  0.00  0.00    -0.594 OA
ATOM      6  O04 6VX d   1      -1.277   9.296  -2.668  0.00  0.00    -0.594 OA
ENDBRANCH   1   3
BRANCH   1   7
ATOM      7  C06 6VX d   1      -2.703  10.226   0.020  0.00  0.00     0.249 C 
ATOM      8  O07 6VX d   1      -2.292  11.221  -0.575  0.00  0.00    -0.271 OA
ATOM      9  N08 6VX d   1      -3.483  10.336   1.179  0.00  0.00    -0.304 N 
ATOM     10  H2  6VX d   1      -3.906   9.517   1.566  0.00  0.00     0.171 HD
BRANCH   9  11
ATOM     11  C09 6VX d   1      -3.680  11.569   1.802  0.00  0.00     0.174 A 
ATOM     12  N10 6VX d   1      -4.158  11.543   3.089  0.00  0.00    -0.223 NA
ATOM     13  C11 6VX d   1      -4.176  12.888   3.595  0.00  0.00     0.076 A 
ATOM     14  C12 6VX d   1      -4.654  13.182   4.896  0.00  0.00    -0.054 A 
ATOM     15  C16 6VX d   1      -3.731  13.862   2.715  0.00  0.00     0.037 A 
ATOM     16  C13 6VX d   1      -4.669  14.503   5.305  0.00  0.00    -0.081 A 
ATOM     17  H3  6VX d   1      -4.999  12.392   5.553  0.00  0.00     0.087 H 
ATOM     18  C14 6VX d   1      -4.233  15.499   4.430  0.00  0.00    -0.082 A 
ATOM     19  H4  6VX d   1      -5.017  14.763   6.298  0.00  0.00     0.083 H 
ATOM     20  C15 6VX d   1      -3.759  15.192   3.149  0.00  0.00    -0.064 A 
ATOM     21  H5  6VX d   1      -4.262  16.534   4.750  0.00  0.00     0.083 H 
ATOM     22  H6  6VX d   1      -3.414  15.984   2.494  0.00  0.00     0.085 H 
ATOM     23  S17 6VX d   1      -3.257  13.111   1.274  0.00  0.00    -0.050 SA
ENDBRANCH   9  11
ENDBRANCH   1   7
BRANCH   1  24
ATOM     24  C18 6VX d   1      -1.197   8.399   0.388  0.00  0.00    -0.028 A 
ATOM     25  C19 6VX d   1      -1.074   7.129   0.940  0.00  0.00    -0.075 A 
ATOM     26  C20 6VX d   1       0.079   6.744   1.622  0.00  0.00    -0.082 A 
ATOM     27  H7  6VX d   1      -1.891   6.424   0.838  0.00  0.00     0.084 H 
ATOM     28  C21 6VX d   1       1.122   7.654   1.780  0.00  0.00    -0.083 A 
ATOM     29  H8  6VX d   1       0.164   5.742   2.027  0.00  0.00     0.083 H 
ATOM     30  C22 6VX d   1       1.004   8.937   1.246  0.00  0.00    -0.082 A 
ATOM     31  H9  6VX d   1       2.020   7.367   2.315  0.00  0.00     0.083 H 
ATOM     32  C23 6VX d   1      -0.148   9.308   0.559  0.00  0.00    -0.075 A 
ATOM     33  H10 6VX d   1       1.813   9.648   1.367  0.00  0.00     0.083 H 
ATOM     34  H11 6VX d   1      -0.233  10.310   0.153  0.00  0.00     0.084 H 
ENDBRANCH   1  24
TORSDOF 4
