REMARK  4 active torsions:
REMARK  status: ('A' for Active; 'I' for Inactive)
REMARK       I    between atoms: N01_1  and  C02_2 
REMARK    1  A    between atoms: N01_1  and  C15_15 
REMARK    2  A    between atoms: C02_2  and  C04_4 
REMARK    3  A    between atoms: C04_4  and  C05_5 
REMARK    4  A    between atoms: C04_4  and  S11_11 
ROOT
ATOM      1  C04 6VY d   1       2.377   9.194   0.453  0.00  0.00     0.164 C 
ATOM      2  H2  6VY d   1       3.221   8.599   0.075  0.00  0.00     0.091 H 
ENDROOT
BRANCH   1   3
ATOM      3  C02 6VY d   1       2.655  10.587   0.004  0.00  0.00     0.248 C 
ATOM      4  N01 6VY d   1       3.559  10.732  -1.092  0.00  0.00    -0.326 N 
ATOM      5  H1  6VY d   1       4.040   9.915  -1.409  0.00  0.00     0.169 HD
ATOM      6  O03 6VY d   1       2.128  11.546   0.568  0.00  0.00    -0.271 OA
BRANCH   4   7
ATOM      7  C15 6VY d   1       3.825  11.971  -1.771  0.00  0.00     0.034 A 
ATOM      8  C16 6VY d   1       3.547  13.268  -1.262  0.00  0.00    -0.057 A 
ATOM      9  C17 6VY d   1       3.780  14.382  -2.084  0.00  0.00    -0.081 A 
ATOM     10  H8  6VY d   1       3.162  13.395  -0.257  0.00  0.00     0.086 H 
ATOM     11  C18 6VY d   1       4.220  14.218  -3.383  0.00  0.00    -0.083 A 
ATOM     12  H9  6VY d   1       3.613  15.380  -1.696  0.00  0.00     0.083 H 
ATOM     13  C19 6VY d   1       4.449  12.914  -3.905  0.00  0.00    -0.081 A 
ATOM     14  H10 6VY d   1       4.392  15.087  -4.008  0.00  0.00     0.083 H 
ATOM     15  C20 6VY d   1       4.228  11.818  -3.085  0.00  0.00    -0.057 A 
ATOM     16  H11 6VY d   1       4.790  12.780  -4.925  0.00  0.00     0.083 H 
ATOM     17  H12 6VY d   1       4.374  10.820  -3.482  0.00  0.00     0.086 H 
ENDBRANCH   4   7
ENDBRANCH   1   3
BRANCH   1  18
ATOM     18  C05 6VY d   1       1.219   8.713  -0.293  0.00  0.00    -0.028 A 
ATOM     19  C06 6VY d   1       0.136   9.525  -0.470  0.00  0.00    -0.075 A 
ATOM     20  C07 6VY d   1      -1.011   9.068  -1.200  0.00  0.00    -0.082 A 
ATOM     21  H3  6VY d   1       0.143  10.526  -0.054  0.00  0.00     0.084 H 
ATOM     22  C08 6VY d   1      -1.048   7.801  -1.728  0.00  0.00    -0.083 A 
ATOM     23  H4  6VY d   1      -1.858   9.730  -1.336  0.00  0.00     0.083 H 
ATOM     24  C09 6VY d   1       0.027   6.960  -1.550  0.00  0.00    -0.082 A 
ATOM     25  H5  6VY d   1      -1.918   7.465  -2.281  0.00  0.00     0.083 H 
ATOM     26  C10 6VY d   1       1.179   7.421  -0.832  0.00  0.00    -0.075 A 
ATOM     27  H6  6VY d   1       0.003   5.953  -1.951  0.00  0.00     0.083 H 
ATOM     28  H7  6VY d   1       2.030   6.761  -0.705  0.00  0.00     0.084 H 
ENDBRANCH   1  18
BRANCH   1  29
ATOM     29  S11 6VY d   1       2.427   8.898   2.174  0.00  0.00     0.119 S 
ATOM     30  O12 6VY d   1       3.665   9.486   2.679  0.00  0.00    -0.594 OA
ATOM     31  O13 6VY d   1       2.377   7.498   2.392  0.00  0.00    -0.594 OA
ATOM     32  O14 6VY d   1       1.225   9.497   2.756  0.00  0.00    -0.594 OA
ENDBRANCH   1  29
TORSDOF 4
