REMARK  6 active torsions:
REMARK  status: ('A' for Active; 'I' for Inactive)
REMARK    1  A    between atoms: C12_9  and  N14_1 
REMARK    2  A    between atoms: C10_19  and  C16_4 
REMARK    3  A    between atoms: C10_19  and  C15_5 
REMARK    4  A    between atoms: C2_11  and  C1_10 
REMARK    5  A    between atoms: C8_17  and  C3_12 
REMARK    6  A    between atoms: C4_13  and  C7_16 
ROOT
ATOM      1  C12 6WE d   1      15.652  39.986  -7.382  0.00  0.00     0.135 C 
ATOM      2  C8  6WE d   1      16.981  41.035  -9.676  0.00  0.00     0.030 C 
ATOM      3  C9  6WE d   1      16.842  39.537  -9.982  0.00  0.00    -0.022 C 
ATOM      4  C10 6WE d   1      17.193  38.659  -8.773  0.00  0.00     0.060 C 
ATOM      5  N11 6WE d   1      16.255  38.885  -7.666  0.00  0.00    -0.358 N 
ATOM      6  S13 6WE d   1      15.906  41.467  -8.304  0.00  0.00    -0.085 SA
ATOM      7  H15 6WE d   1      18.023  41.239  -9.387  0.00  0.00     0.065 H 
ATOM      8  H16 6WE d   1      17.517  39.282 -10.812  0.00  0.00     0.039 H 
ATOM      9  H17 6WE d   1      15.803  39.332 -10.278  0.00  0.00     0.039 H 
ATOM     10  H18 6WE d   1      16.060  38.080  -7.054  0.00  0.00     0.162 HD
ENDROOT
BRANCH   4  11
ATOM     11  C16 6WE d   1      18.640  38.858  -8.335  0.00  0.00     0.008 A 
ATOM     12  C17 6WE d   1      18.923  39.249  -7.024  0.00  0.00    -0.069 A 
ATOM     13  C18 6WE d   1      20.225  39.451  -6.575  0.00  0.00    -0.045 A 
ATOM     14  H4  6WE d   1      18.101  39.400  -6.333  0.00  0.00     0.084 H 
ATOM     15  C19 6WE d   1      21.288  39.260  -7.453  0.00  0.00     0.119 A 
ATOM     16  H3  6WE d   1      20.409  39.754  -5.551  0.00  0.00     0.088 H 
ATOM     17  C20 6WE d   1      21.032  38.874  -8.766  0.00  0.00    -0.008 A 
ATOM     18  F23 6WE d   1      22.540  39.452  -7.018  0.00  0.00    -0.206 F 
ATOM     19  C21 6WE d   1      19.725  38.673  -9.211  0.00  0.00     0.128 A 
ATOM     20  H8  6WE d   1      21.859  38.728  -9.451  0.00  0.00     0.093 H 
ATOM     21  F22 6WE d   1      19.549  38.303 -10.487  0.00  0.00    -0.205 F 
ENDBRANCH   4  11
BRANCH   4  22
ATOM     22  C15 6WE d   1      16.990  37.203  -9.197  0.00  0.00    -0.049 C 
ATOM     23  H5  6WE d   1      15.947  37.055  -9.514  0.00  0.00     0.031 H 
ATOM     24  H6  6WE d   1      17.213  36.539  -8.348  0.00  0.00     0.031 H 
ATOM     25  H7  6WE d   1      17.664  36.967 -10.034  0.00  0.00     0.031 H 
ENDBRANCH   4  22
BRANCH   2  26
ATOM     26  C3  6WE d   1      16.648  41.877 -10.897  0.00  0.00     0.014 A 
ATOM     27  C2  6WE d   1      15.441  41.954 -11.606  0.00  0.00     0.068 A 
ATOM     28  N6  6WE d   1      15.630  42.833 -12.613  0.00  0.00    -0.133 NA
ATOM     29  O5  6WE d   1      16.954  43.305 -12.530  0.00  0.00    -0.217 OA
ATOM     30  C4  6WE d   1      17.546  42.740 -11.524  0.00  0.00     0.084 A 
BRANCH  27  31
ATOM     31  C1  6WE d   1      14.145  41.217 -11.345  0.00  0.00    -0.033 C 
ATOM     32  H9  6WE d   1      13.397  41.514 -12.095  0.00  0.00     0.035 H 
ATOM     33  H10 6WE d   1      13.776  41.469 -10.340  0.00  0.00     0.035 H 
ATOM     34  H11 6WE d   1      14.320  40.133 -11.411  0.00  0.00     0.035 H 
ENDBRANCH  27  31
BRANCH  30  35
ATOM     35  C7  6WE d   1      18.980  42.990 -11.111  0.00  0.00    -0.029 C 
ATOM     36  H12 6WE d   1      19.437  43.720 -11.795  0.00  0.00     0.036 H 
ATOM     37  H13 6WE d   1      19.544  42.046 -11.153  0.00  0.00     0.036 H 
ATOM     38  H14 6WE d   1      19.002  43.385 -10.085  0.00  0.00     0.036 H 
ENDBRANCH  30  35
ENDBRANCH   2  26
BRANCH   1  39
ATOM     39  N14 6WE d   1      14.928  40.054  -6.258  0.00  0.00    -0.380 N 
ATOM     40  H1  6WE d   1      14.763  39.205  -5.699  0.00  0.00     0.158 HD
ATOM     41  H2  6WE d   1      14.536  40.956  -5.952  0.00  0.00     0.158 HD
ENDBRANCH   1  39
TORSDOF 6
