REMARK  1 active torsions:
REMARK  status: ('A' for Active; 'I' for Inactive)
REMARK    1  A    between atoms: C4_1  and  C7_2 
REMARK       I    between atoms: N1_12  and  C12_13 
ROOT
ATOM      1  C7  6WG d   1      22.450  42.804  27.372  0.00  0.00     0.039 C 
ATOM      2  C9  6WG d   1      21.366  43.442  29.578  0.00  0.00    -0.061 C 
ATOM      3  C8  6WG d   1      22.665  43.090  28.860  0.00  0.00    -0.042 C 
ATOM      4  C10 6WG d   1      20.329  42.354  29.409  0.00  0.00    -0.050 C 
ATOM      5  C11 6WG d   1      20.153  42.004  27.956  0.00  0.00    -0.002 C 
ATOM      6  N1  6WG d   1      21.455  41.717  27.344  0.00  0.00    -0.350 N 
ATOM      7  C12 6WG d   1      21.717  40.477  26.889  0.00  0.00     0.171 C 
ATOM      8  O1  6WG d   1      20.896  39.594  26.807  0.00  0.00    -0.284 OA
ATOM      9  H1  6WG d   1      23.400  42.437  26.955  0.00  0.00     0.080 H 
ATOM     10  H3  6WG d   1      20.971  44.381  29.163  0.00  0.00     0.033 H 
ATOM     11  H4  6WG d   1      21.574  43.574  30.650  0.00  0.00     0.033 H 
ATOM     12  H5  6WG d   1      23.364  43.934  28.960  0.00  0.00     0.036 H 
ATOM     13  H6  6WG d   1      23.099  42.196  29.332  0.00  0.00     0.036 H 
ATOM     14  H11 6WG d   1      19.369  42.705  29.814  0.00  0.00     0.035 H 
ATOM     15  H12 6WG d   1      20.653  41.458  29.959  0.00  0.00     0.035 H 
ATOM     16  H13 6WG d   1      19.684  42.850  27.433  0.00  0.00     0.064 H 
ATOM     17  H14 6WG d   1      19.508  41.117  27.871  0.00  0.00     0.064 H 
ATOM     18  H15 6WG d   1      22.736  40.255  26.574  0.00  0.00     0.180 H 
ENDROOT
BRANCH   1  19
ATOM     19  C4  6WG d   1      22.009  43.972  26.500  0.00  0.00    -0.035 A 
ATOM     20  C3  6WG d   1      21.206  43.764  25.379  0.00  0.00    -0.075 A 
ATOM     21  C2  6WG d   1      20.793  44.832  24.594  0.00  0.00    -0.082 A 
ATOM     22  H9  6WG d   1      20.901  42.757  25.118  0.00  0.00     0.084 H 
ATOM     23  C1  6WG d   1      21.180  46.115  24.908  0.00  0.00    -0.083 A 
ATOM     24  H8  6WG d   1      20.163  44.655  23.730  0.00  0.00     0.083 H 
ATOM     25  C6  6WG d   1      21.992  46.334  26.001  0.00  0.00    -0.082 A 
ATOM     26  H7  6WG d   1      20.848  46.949  24.300  0.00  0.00     0.083 H 
ATOM     27  C5  6WG d   1      22.411  45.270  26.789  0.00  0.00    -0.075 A 
ATOM     28  H2  6WG d   1      22.305  47.342  26.246  0.00  0.00     0.083 H 
ATOM     29  H10 6WG d   1      23.059  45.454  27.639  0.00  0.00     0.084 H 
ENDBRANCH   1  19
TORSDOF 1
