REMARK  5 active torsions:
REMARK  status: ('A' for Active; 'I' for Inactive)
REMARK    1  A    between atoms: C2'_10  and  O2'_11 
REMARK    2  A    between atoms: C1'_12  and  N9_13 
REMARK    3  A    between atoms: C2'1_32  and  O2'1_33 
REMARK    4  A    between atoms: C1'1_34  and  N91_35 
REMARK    5  A    between atoms: C61_39  and  N61_40 
ROOT
ATOM      1  P   2BA d   1     -22.457   4.626 -21.225  0.00  0.00     0.408 P 
ATOM      2  O1P 2BA d   1     -22.932   6.026 -21.629  0.00  0.00    -0.624 OA
ATOM      3  O2P 2BA d   1     -22.052   3.594 -22.263  0.00  0.00    -0.624 OA
ATOM      4  O5' 2BA d   1     -21.240   4.696 -20.142  0.00  0.00    -0.287 OA
ATOM      5  C5' 2BA d   1     -20.537   3.504 -19.782  0.00  0.00     0.058 C 
ATOM      6  C4' 2BA d   1     -20.225   3.357 -18.293  0.00  0.00     0.090 C 
ATOM      7  O4' 2BA d   1     -18.823   3.328 -18.184  0.00  0.00    -0.353 OA
ATOM      8  C3' 2BA d   1     -20.622   4.434 -17.262  0.00  0.00     0.106 C 
ATOM      9  O3' 2BA d   1     -21.517   3.828 -16.347  0.00  0.00    -0.279 OA
ATOM     10  C2' 2BA d   1     -19.354   4.838 -16.499  0.00  0.00     0.106 C 
ATOM     11  C1' 2BA d   1     -18.514   3.625 -16.815  0.00  0.00     0.140 C 
ATOM     12  P1  2BA d   1     -22.506   4.711 -15.458  0.00  0.00     0.408 P 
ATOM     13  O1P 2BA d   1     -21.730   5.964 -15.013  0.00  0.00    -0.624 OA
ATOM     14  O2P 2BA d   1     -23.128   3.808 -14.409  0.00  0.00    -0.624 OA
ATOM     15  O5' 2BA d   1     -23.660   4.971 -16.578  0.00  0.00    -0.287 OA
ATOM     16  C5' 2BA d   1     -24.582   3.900 -16.871  0.00  0.00     0.058 C 
ATOM     17  C4' 2BA d   1     -24.654   3.486 -18.346  0.00  0.00     0.090 C 
ATOM     18  O4' 2BA d   1     -25.995   3.086 -18.684  0.00  0.00    -0.353 OA
ATOM     19  C3' 2BA d   1     -24.367   4.551 -19.393  0.00  0.00     0.106 C 
ATOM     20  O3' 2BA d   1     -23.599   3.880 -20.378  0.00  0.00    -0.279 OA
ATOM     21  C2' 2BA d   1     -25.713   4.965 -19.987  0.00  0.00     0.106 C 
ATOM     22  C1' 2BA d   1     -26.462   3.668 -19.940  0.00  0.00     0.140 C 
ATOM     23  H1  2BA d   1     -19.584   3.491 -20.332  0.00  0.00     0.079 H 
ATOM     24  H2  2BA d   1     -21.149   2.643 -20.088  0.00  0.00     0.079 H 
ATOM     25  H3  2BA d   1     -20.665   2.404 -17.965  0.00  0.00     0.090 H 
ATOM     26  H4  2BA d   1     -21.083   5.304 -17.751  0.00  0.00     0.092 H 
ATOM     27  H5  2BA d   1     -18.916   5.769 -16.889  0.00  0.00     0.093 H 
ATOM     28  H7  2BA d   1     -18.863   2.811 -16.163  0.00  0.00     0.122 H 
ATOM     29  H12 2BA d   1     -25.587   4.221 -16.558  0.00  0.00     0.079 H 
ATOM     30  H13 2BA d   1     -24.279   3.020 -16.285  0.00  0.00     0.079 H 
ATOM     31  H14 2BA d   1     -23.955   2.649 -18.487  0.00  0.00     0.090 H 
ATOM     32  H15 2BA d   1     -23.831   5.416 -18.975  0.00  0.00     0.092 H 
ATOM     33  H16 2BA d   1     -26.191   5.747 -19.380  0.00  0.00     0.093 H 
ATOM     34  H18 2BA d   1     -26.144   3.042 -20.787  0.00  0.00     0.122 H 
ENDROOT
BRANCH  11  35
ATOM     35  N9  2BA d   1     -17.033   3.655 -16.700  0.00  0.00    -0.294 N 
ATOM     36  C8  2BA d   1     -16.143   4.445 -17.349  0.00  0.00     0.071 A 
ATOM     37  N7  2BA d   1     -14.875   4.117 -17.019  0.00  0.00    -0.236 NA
ATOM     38  H8  2BA d   1     -16.414   5.238 -18.044  0.00  0.00     0.144 H 
ATOM     39  C5  2BA d   1     -14.947   3.085 -16.162  0.00  0.00     0.149 A 
ATOM     40  C6  2BA d   1     -13.981   2.246 -15.418  0.00  0.00     0.155 A 
ATOM     41  C4  2BA d   1     -16.373   2.776 -15.965  0.00  0.00     0.167 A 
ATOM     42  N6  2BA d   1     -12.647   2.450 -15.537  0.00  0.00    -0.382 N 
ATOM     43  N1  2BA d   1     -14.478   1.278 -14.620  0.00  0.00    -0.222 NA
ATOM     44  H9  2BA d   1     -11.987   1.858 -15.013  0.00  0.00     0.157 HD
ATOM     45  H10 2BA d   1     -12.293   3.197 -16.151  0.00  0.00     0.157 HD
ATOM     46  C2  2BA d   1     -15.808   1.050 -14.490  0.00  0.00     0.091 A 
ATOM     47  N3  2BA d   1     -16.756   1.770 -15.134  0.00  0.00    -0.222 NA
ATOM     48  H11 2BA d   1     -16.129   0.248 -13.835  0.00  0.00     0.146 H 
ENDBRANCH  11  35
BRANCH  10  49
ATOM     49  O2' 2BA d   1     -19.560   4.956 -15.085  0.00  0.00    -0.388 OA
ATOM     50  H6  2BA d   1     -20.220   5.618 -14.916  0.00  0.00     0.210 HD
ENDBRANCH  10  49
BRANCH  21  51
ATOM     51  O2' 2BA d   1     -25.640   5.385 -21.343  0.00  0.00    -0.388 OA
ATOM     52  H17 2BA d   1     -25.060   6.134 -21.410  0.00  0.00     0.210 HD
ENDBRANCH  21  51
BRANCH  22  53
ATOM     53  N91 2BA d   1     -27.944   3.747 -19.986  0.00  0.00    -0.294 N 
ATOM     54  C81 2BA d   1     -28.718   4.589 -19.276  0.00  0.00     0.071 A 
ATOM     55  N71 2BA d   1     -30.044   4.336 -19.483  0.00  0.00    -0.236 NA
ATOM     56  H19 2BA d   1     -28.336   5.371 -18.621  0.00  0.00     0.144 H 
ATOM     57  C51 2BA d   1     -30.125   3.311 -20.342  0.00  0.00     0.149 A 
ATOM     58  C61 2BA d   1     -31.241   2.570 -20.983  0.00  0.00     0.155 A 
ATOM     59  C41 2BA d   1     -28.742   2.916 -20.659  0.00  0.00     0.167 A 
ATOM     60  N11 2BA d   1     -30.883   1.560 -21.812  0.00  0.00    -0.222 NA
ATOM     61  C21 2BA d   1     -29.583   1.253 -22.064  0.00  0.00     0.091 A 
ATOM     62  N31 2BA d   1     -28.541   1.902 -21.516  0.00  0.00    -0.222 NA
ATOM     63  H22 2BA d   1     -29.374   0.437 -22.747  0.00  0.00     0.146 H 
BRANCH  58  64
ATOM     64  N61 2BA d   1     -32.551   2.899 -20.735  0.00  0.00    -0.382 N 
ATOM     65  H20 2BA d   1     -33.309   2.372 -21.191  0.00  0.00     0.157 HD
ATOM     66  H21 2BA d   1     -32.775   3.673 -20.093  0.00  0.00     0.157 HD
ENDBRANCH  58  64
ENDBRANCH  22  53
TORSDOF 5
