REMARK WARNING: 32 MAX_TORS EXCEEDED!!!
REMARK  67 active torsions:
REMARK  status: ('A' for Active; 'I' for Inactive)
REMARK    1  A    between atoms: CA_2  and  C_3 
REMARK       I    between atoms: C_3  and  N_8 
REMARK    2  A    between atoms: N_8  and  CA_9 
REMARK    3  A    between atoms: CA_9  and  C_10 
REMARK    4  A    between atoms: CA_9  and  CB_12 
REMARK       I    between atoms: C_10  and  N_15 
REMARK    5  A    between atoms: CB_12  and  CG1_13 
REMARK    6  A    between atoms: CB_12  and  CG2_14 
REMARK    7  A    between atoms: N_15  and  CA_16 
REMARK    8  A    between atoms: CA_16  and  C_17 
REMARK    9  A    between atoms: CA_16  and  CB_19 
REMARK       I    between atoms: C_17  and  N_21 
REMARK   10  A    between atoms: CB_19  and  OG_20 
REMARK   11  A    between atoms: N_21  and  CA_22 
REMARK   12  A    between atoms: CA_22  and  C_23 
REMARK   13  A    between atoms: CA_22  and  CB_25 
REMARK       I    between atoms: C_23  and  N_30 
REMARK   14  A    between atoms: CB_25  and  CG_26 
REMARK   15  A    between atoms: CG_26  and  CD_27 
REMARK   16  A    between atoms: CD_27  and  CE_28 
REMARK   17  A    between atoms: CE_28  and  NZ_29 
REMARK   18  A    between atoms: N_30  and  CA_31 
REMARK   19  A    between atoms: CA_31  and  C_32 
REMARK   20  A    between atoms: CA_31  and  CB_34 
REMARK       I    between atoms: C_32  and  N_38 
REMARK   21  A    between atoms: CB_34  and  CG_35 
REMARK   22  A    between atoms: CG_35  and  SD_36 
REMARK   23  A    between atoms: SD_36  and  CE_37 
REMARK   24  A    between atoms: N_38  and  CA_39 
REMARK   25  A    between atoms: CA_39  and  C_40 
REMARK   26  A    between atoms: CA_39  and  CB_42 
REMARK       I    between atoms: C_40  and  N_49 
REMARK   27  A    between atoms: CB_42  and  CG_43 
REMARK   28  A    between atoms: CG_43  and  CD_44 
REMARK   29  A    between atoms: CD_44  and  NE_45 
REMARK       I    between atoms: NE_45  and  CZ_46 
REMARK       I    between atoms: CZ_46  and  NH1_47 
REMARK   30  A    between atoms: N_49  and  CA_50 
REMARK   31  A    between atoms: CA_50  and  C_51 
REMARK   32  A    between atoms: CA_50  and  CB_53 
REMARK       I    between atoms: C_51  and  N_57 
REMARK   33  A    between atoms: CB_53  and  CG_54 
REMARK   34  A    between atoms: CG_54  and  SD_55 
REMARK   35  A    between atoms: SD_55  and  CE_56 
REMARK   36  A    between atoms: N_57  and  CA_58 
REMARK   37  A    between atoms: CA_58  and  C_59 
REMARK   38  A    between atoms: CA_58  and  CB_61 
REMARK       I    between atoms: C_59  and  N_62 
REMARK   39  A    between atoms: N_62  and  CA_63 
REMARK   40  A    between atoms: CA_63  and  C_64 
REMARK   41  A    between atoms: CA_63  and  CB_66 
REMARK       I    between atoms: C_64  and  N_69 
REMARK   42  A    between atoms: CB_66  and  OG1_67 
REMARK   43  A    between atoms: CB_66  and  CG2_68 
REMARK   44  A    between atoms: CA_70  and  C_71 
REMARK       I    between atoms: C_71  and  N_76 
REMARK   45  A    between atoms: N_76  and  CA_77 
REMARK   46  A    between atoms: CA_77  and  C_78 
REMARK   47  A    between atoms: CA_77  and  CB_80 
REMARK       I    between atoms: C_78  and  N_84 
REMARK   48  A    between atoms: CB_80  and  CG_81 
REMARK   49  A    between atoms: CG_81  and  CD1_82 
REMARK   50  A    between atoms: CG_81  and  CD2_83 
REMARK   51  A    between atoms: N_84  and  CA_85 
REMARK   52  A    between atoms: CA_85  and  C_86 
REMARK   53  A    between atoms: CA_85  and  CB_88 
REMARK       I    between atoms: C_86  and  N_92 
REMARK   54  A    between atoms: CB_88  and  CG_89 
REMARK   55  A    between atoms: CG_89  and  CD1_90 
REMARK   56  A    between atoms: CG_89  and  CD2_91 
REMARK   57  A    between atoms: N_92  and  CA_93 
REMARK   58  A    between atoms: CA_93  and  C_94 
REMARK   59  A    between atoms: CA_93  and  CB_96 
REMARK       I    between atoms: C_94  and  N_100 
REMARK   60  A    between atoms: CB_96  and  CG_97 
REMARK   61  A    between atoms: CG_97  and  SD_98 
REMARK   62  A    between atoms: SD_98  and  CE_99 
REMARK   63  A    between atoms: N_100  and  CA_101 
REMARK   64  A    between atoms: CA_101  and  C_102 
REMARK   65  A    between atoms: CA_101  and  CB_104 
REMARK   66  A    between atoms: CB_104  and  CG_105 
REMARK   67  A    between atoms: CG_105  and  CD_106 
REMARK       I    between atoms: CD_106  and  NE2_108 
ROOT
ATOM      1  CA  MET d   1     -14.656  20.106  52.081  0.00  0.00     0.090 C 
ATOM      2  H60 MET d   1     -13.769  19.565  51.719  0.00  0.00     0.087 H 
ENDROOT
BRANCH   1   3
ATOM      3  N   MET d   1     -14.241  21.338  52.730  0.00  0.00    -0.346 N 
ATOM      4  C   ARG d   1     -12.991  21.513  53.110  0.00  0.00     0.241 C 
ATOM      5  O   ARG d   1     -12.119  20.689  52.883  0.00  0.00    -0.271 OA
ATOM      6  H59 MET d   1     -14.912  22.062  52.890  0.00  0.00     0.163 HD
BRANCH   4   7
ATOM      7  CA  ARG d   1     -12.675  22.816  53.840  0.00  0.00     0.089 C 
ATOM      8  H47 ARG d   1     -13.453  22.955  54.605  0.00  0.00     0.087 H 
BRANCH   7   9
ATOM      9  N   ARG d   1     -11.386  22.788  54.528  0.00  0.00    -0.346 N 
ATOM     10  C   MET d   1     -11.283  22.468  55.815  0.00  0.00     0.241 C 
ATOM     11  O   MET d   1     -12.245  22.114  56.504  0.00  0.00    -0.271 OA
ATOM     12  H46 ARG d   1     -10.557  23.016  54.017  0.00  0.00     0.163 HD
BRANCH  10  13
ATOM     13  CA  MET d   1      -9.882  22.542  56.411  0.00  0.00     0.090 C 
ATOM     14  H38 MET d   1      -9.191  22.955  55.661  0.00  0.00     0.087 H 
BRANCH  13  15
ATOM     15  N   MET d   1      -9.901  23.432  57.572  0.00  0.00    -0.346 N 
ATOM     16  C   LYS d   1      -9.770  24.749  57.432  0.00  0.00     0.241 C 
ATOM     17  O   LYS d   1      -9.482  25.286  56.367  0.00  0.00    -0.271 OA
ATOM     18  H37 MET d   1     -10.014  23.044  58.487  0.00  0.00     0.163 HD
BRANCH  16  19
ATOM     19  CA  LYS d   1     -10.015  25.590  58.667  0.00  0.00     0.089 C 
ATOM     20  H25 LYS d   1      -9.993  24.935  59.551  0.00  0.00     0.087 H 
BRANCH  19  21
ATOM     21  N   LYS d   1      -9.010  26.636  58.836  0.00  0.00    -0.346 N 
ATOM     22  C   SER d   1      -8.165  26.665  59.868  0.00  0.00     0.243 C 
ATOM     23  O   SER d   1      -8.030  25.734  60.668  0.00  0.00    -0.271 OA
ATOM     24  H24 LYS d   1      -8.953  27.361  58.150  0.00  0.00     0.163 HD
BRANCH  22  25
ATOM     25  CA  SER d   1      -7.361  27.956  60.009  0.00  0.00     0.109 C 
ATOM     26  H20 SER d   1      -7.989  28.774  59.626  0.00  0.00     0.090 H 
BRANCH  25  27
ATOM     27  N   SER d   1      -7.024  28.285  61.398  0.00  0.00    -0.344 N 
ATOM     28  C   VAL d   1      -7.913  28.831  62.228  0.00  0.00     0.241 C 
ATOM     29  O   VAL d   1      -9.091  29.026  61.918  0.00  0.00    -0.271 OA
ATOM     30  H19 SER d   1      -6.101  28.094  61.732  0.00  0.00     0.163 HD
BRANCH  28  31
ATOM     31  CA  VAL d   1      -7.409  29.229  63.612  0.00  0.00     0.092 C 
ATOM     32  H11 VAL d   1      -6.318  29.093  63.647  0.00  0.00     0.088 H 
BRANCH  31  33
ATOM     33  N   VAL d   1      -7.706  30.649  63.782  0.00  0.00    -0.346 N 
ATOM     34  C   PRO d   1      -7.214  31.636  63.099  0.00  0.00     0.249 C 
ATOM     35  O   PRO d   1      -6.294  31.556  62.341  0.00  0.00    -0.271 OA
ATOM     36  H10 VAL d   1      -8.358  30.886  64.502  0.00  0.00     0.163 HD
BRANCH  34  37
ATOM     37  CA  PRO d   1      -7.933  32.882  63.353  0.00  0.00     0.178 C 
ATOM     38  N   PRO d   1      -9.044  32.419  64.153  0.00  0.00    -0.062 N 
ATOM     39  CD  PRO d   1      -9.243  33.266  65.336  0.00  0.00     0.083 C 
ATOM     40  H1  PRO d   1      -8.861  31.474  64.453  0.00  0.00     0.278 HD
ATOM     41  H2  PRO d   1      -9.882  32.437  63.592  0.00  0.00     0.278 HD
ATOM     42  CG  PRO d   1      -8.248  34.357  65.140  0.00  0.00    -0.040 C 
ATOM     43  H8  PRO d   1      -9.039  32.707  66.261  0.00  0.00     0.075 H 
ATOM     44  H9  PRO d   1     -10.267  33.666  65.368  0.00  0.00     0.075 H 
ATOM     45  CB  PRO d   1      -7.173  33.737  64.325  0.00  0.00    -0.028 C 
ATOM     46  H6  PRO d   1      -8.701  35.205  64.606  0.00  0.00     0.035 H 
ATOM     47  H7  PRO d   1      -7.853  34.702  66.107  0.00  0.00     0.035 H 
ATOM     48  H4  PRO d   1      -6.584  34.503  63.800  0.00  0.00     0.036 H 
ATOM     49  H5  PRO d   1      -6.506  33.126  64.951  0.00  0.00     0.036 H 
ATOM     50  H3  PRO d   1      -8.213  33.417  62.434  0.00  0.00     0.099 H 
ENDBRANCH  34  37
ENDBRANCH  31  33
BRANCH  31  51
ATOM     51  CB  VAL d   1      -8.026  28.345  64.712  0.00  0.00    -0.033 C 
ATOM     52  H12 VAL d   1      -9.121  28.375  64.612  0.00  0.00     0.042 H 
BRANCH  51  53
ATOM     53  CG1 VAL d   1      -7.565  26.908  64.553  0.00  0.00    -0.071 C 
ATOM     54  H13 VAL d   1      -8.013  26.290  65.345  0.00  0.00     0.028 H 
ATOM     55  H14 VAL d   1      -6.469  26.864  64.630  0.00  0.00     0.028 H 
ATOM     56  H15 VAL d   1      -7.879  26.529  63.569  0.00  0.00     0.028 H 
ENDBRANCH  51  53
BRANCH  51  57
ATOM     57  CG2 VAL d   1      -7.650  28.872  66.091  0.00  0.00    -0.071 C 
ATOM     58  H16 VAL d   1      -7.990  29.913  66.191  0.00  0.00     0.028 H 
ATOM     59  H17 VAL d   1      -6.558  28.830  66.214  0.00  0.00     0.028 H 
ATOM     60  H18 VAL d   1      -8.130  28.253  66.863  0.00  0.00     0.028 H 
ENDBRANCH  51  57
ENDBRANCH  31  51
ENDBRANCH  28  31
ENDBRANCH  25  27
BRANCH  25  61
ATOM     61  CB  SER d   1      -6.098  27.892  59.141  0.00  0.00     0.044 C 
ATOM     62  H21 SER d   1      -6.394  27.758  58.090  0.00  0.00     0.077 H 
ATOM     63  H22 SER d   1      -5.488  27.035  59.462  0.00  0.00     0.077 H 
BRANCH  61  64
ATOM     64  OG  SER d   1      -5.324  29.074  59.253  0.00  0.00    -0.398 OA
ATOM     65  H23 SER d   1      -4.552  28.999  58.704  0.00  0.00     0.209 HD
ENDBRANCH  61  64
ENDBRANCH  25  61
ENDBRANCH  22  25
ENDBRANCH  19  21
BRANCH  19  66
ATOM     66  CB  LYS d   1     -11.405  26.242  58.548  0.00  0.00    -0.038 C 
ATOM     67  H26 LYS d   1     -11.777  26.452  59.562  0.00  0.00     0.036 H 
ATOM     68  H27 LYS d   1     -12.080  25.530  58.050  0.00  0.00     0.036 H 
BRANCH  66  69
ATOM     69  CG  LYS d   1     -11.413  27.571  57.739  0.00  0.00    -0.061 C 
ATOM     70  H28 LYS d   1     -10.703  27.475  56.904  0.00  0.00     0.033 H 
ATOM     71  H29 LYS d   1     -11.090  28.386  58.404  0.00  0.00     0.033 H 
BRANCH  69  72
ATOM     72  CD  LYS d   1     -12.795  27.928  57.166  0.00  0.00    -0.043 C 
ATOM     73  H30 LYS d   1     -13.570  27.457  57.788  0.00  0.00     0.035 H 
ATOM     74  H31 LYS d   1     -12.864  27.542  56.138  0.00  0.00     0.035 H 
BRANCH  72  75
ATOM     75  CE  LYS d   1     -13.029  29.434  57.144  0.00  0.00     0.080 C 
ATOM     76  H32 LYS d   1     -13.080  29.801  58.180  0.00  0.00     0.075 H 
ATOM     77  H33 LYS d   1     -13.982  29.638  56.635  0.00  0.00     0.075 H 
BRANCH  75  78
ATOM     78  NZ  LYS d   1     -11.946  30.151  56.436  0.00  0.00    -0.079 N 
ATOM     79  H34 LYS d   1     -12.137  31.141  56.444  0.00  0.00     0.274 HD
ATOM     80  H35 LYS d   1     -11.895  29.826  55.483  0.00  0.00     0.274 HD
ATOM     81  H36 LYS d   1     -11.068  29.975  56.899  0.00  0.00     0.274 HD
ENDBRANCH  75  78
ENDBRANCH  72  75
ENDBRANCH  69  72
ENDBRANCH  66  69
ENDBRANCH  19  66
ENDBRANCH  16  19
ENDBRANCH  13  15
BRANCH  13  82
ATOM     82  CB  MET d   1      -9.419  21.136  56.780  0.00  0.00    -0.030 C 
ATOM     83  H39 MET d   1      -9.736  20.451  55.980  0.00  0.00     0.037 H 
ATOM     84  H40 MET d   1      -9.909  20.851  57.722  0.00  0.00     0.037 H 
BRANCH  82  85
ATOM     85  CG  MET d   1      -7.959  20.990  56.959  0.00  0.00    -0.021 C 
ATOM     86  H41 MET d   1      -7.768  20.087  57.557  0.00  0.00     0.049 H 
ATOM     87  H42 MET d   1      -7.582  21.872  57.497  0.00  0.00     0.049 H 
BRANCH  85  88
ATOM     88  SD  MET d   1      -7.065  20.844  55.400  0.00  0.00    -0.173 SA
BRANCH  88  89
ATOM     89  CE  MET d   1      -7.425  19.113  54.991  0.00  0.00    -0.035 C 
ATOM     90  H43 MET d   1      -6.939  18.852  54.039  0.00  0.00     0.041 H 
ATOM     91  H44 MET d   1      -8.512  18.977  54.897  0.00  0.00     0.041 H 
ATOM     92  H45 MET d   1      -7.041  18.460  55.789  0.00  0.00     0.041 H 
ENDBRANCH  88  89
ENDBRANCH  85  88
ENDBRANCH  82  85
ENDBRANCH  13  82
ENDBRANCH  10  13
ENDBRANCH   7   9
BRANCH   7  93
ATOM     93  CB  ARG d   1     -12.732  24.012  52.898  0.00  0.00    -0.036 C 
ATOM     94  H48 ARG d   1     -13.690  23.990  52.357  0.00  0.00     0.036 H 
ATOM     95  H49 ARG d   1     -11.903  23.935  52.179  0.00  0.00     0.036 H 
BRANCH  93  96
ATOM     96  CG  ARG d   1     -12.619  25.328  53.627  0.00  0.00    -0.048 C 
ATOM     97  H50 ARG d   1     -11.659  25.358  54.163  0.00  0.00     0.035 H 
ATOM     98  H51 ARG d   1     -13.445  25.408  54.349  0.00  0.00     0.035 H 
BRANCH  96  99
ATOM     99  CD  ARG d   1     -12.685  26.493  52.679  0.00  0.00     0.009 C 
ATOM    100  H52 ARG d   1     -13.670  26.497  52.190  0.00  0.00     0.064 H 
ATOM    101  H53 ARG d   1     -11.899  26.377  51.919  0.00  0.00     0.064 H 
BRANCH  99 102
ATOM    102  NE  ARG d   1     -12.494  27.765  53.362  0.00  0.00    -0.227 N 
ATOM    103  CZ  ARG d   1     -12.305  28.917  52.734  0.00  0.00     0.665 C 
ATOM    104  NH1 ARG d   1     -12.290  28.950  51.407  0.00  0.00    -0.235 N 
ATOM    105  NH2 ARG d   1     -12.147  30.033  53.428  0.00  0.00    -0.235 N 
ATOM    106  H55 ARG d   1     -12.143  29.843  50.916  0.00  0.00     0.174 HD
ATOM    107  H56 ARG d   1     -12.425  28.082  50.869  0.00  0.00     0.174 HD
ATOM    108  H57 ARG d   1     -12.159  30.005  54.458  0.00  0.00     0.174 HD
ATOM    109  H58 ARG d   1     -12.012  30.929  52.938  0.00  0.00     0.174 HD
ATOM    110  H54 ARG d   1     -12.507  27.770  54.392  0.00  0.00     0.177 HD
ENDBRANCH  99 102
ENDBRANCH  96  99
ENDBRANCH  93  96
ENDBRANCH   7  93
ENDBRANCH   4   7
ENDBRANCH   1   3
BRANCH   1 111
ATOM    111  C   MET d   1     -15.571  20.425  50.914  0.00  0.00     0.241 C 
ATOM    112  O   MET d   1     -16.235  21.448  50.920  0.00  0.00    -0.271 OA
ATOM    113  N   ALA d   1     -15.575  19.560  49.905  0.00  0.00    -0.346 N 
ATOM    114  H68 ALA d   1     -14.891  18.831  49.885  0.00  0.00     0.163 HD
BRANCH 113 115
ATOM    115  CA  ALA d   1     -16.552  19.647  48.826  0.00  0.00     0.086 C 
ATOM    116  H69 ALA d   1     -16.734  20.701  48.569  0.00  0.00     0.086 H 
BRANCH 115 117
ATOM    117  C   ALA d   1     -17.833  19.000  49.319  0.00  0.00     0.240 C 
ATOM    118  O   ALA d   1     -17.765  17.960  49.972  0.00  0.00    -0.271 OA
ATOM    119  N   THR d   1     -18.876  19.655  48.873  0.00  0.00    -0.344 N 
ATOM    120  H73 THR d   1     -18.797  20.412  48.224  0.00  0.00     0.163 HD
BRANCH 119 121
ATOM    121  CA  THR d   1     -20.144  19.205  49.385  0.00  0.00     0.114 C 
ATOM    122  H74 THR d   1     -19.941  18.492  50.198  0.00  0.00     0.091 H 
BRANCH 121 123
ATOM    123  C   THR d   1     -20.962  18.421  48.316  0.00  0.00     0.245 C 
ATOM    124  O   THR d   1     -20.971  18.772  47.130  0.00  0.00    -0.271 OA
ATOM    125  N   PRO d   1     -21.624  17.325  48.735  0.00  0.00    -0.337 N 
ATOM    126  CA  PRO d   1     -22.464  16.534  47.826  0.00  0.00     0.091 C 
ATOM    127  CD  PRO d   1     -21.634  16.778  50.101  0.00  0.00    -0.001 C 
ATOM    128  CB  PRO d   1     -22.701  15.233  48.597  0.00  0.00    -0.036 C 
ATOM    129  H80 PRO d   1     -21.948  16.351  46.872  0.00  0.00     0.087 H 
ATOM    130  CG  PRO d   1     -22.624  15.630  50.017  0.00  0.00    -0.048 C 
ATOM    131  H81 PRO d   1     -21.925  14.491  48.357  0.00  0.00     0.036 H 
ATOM    132  H82 PRO d   1     -23.692  14.816  48.362  0.00  0.00     0.036 H 
ATOM    133  H83 PRO d   1     -22.275  14.784  50.628  0.00  0.00     0.035 H 
ATOM    134  H84 PRO d   1     -23.612  15.956  50.373  0.00  0.00     0.035 H 
ATOM    135  H85 PRO d   1     -21.970  17.535  50.825  0.00  0.00     0.064 H 
ATOM    136  H86 PRO d   1     -20.635  16.416  50.387  0.00  0.00     0.064 H 
BRANCH 126 137
ATOM    137  C   PRO d   1     -23.798  17.202  47.572  0.00  0.00     0.241 C 
ATOM    138  O   PRO d   1     -24.263  18.028  48.373  0.00  0.00    -0.271 OA
ATOM    139  N   LEU d   1     -24.409  16.825  46.453  0.00  0.00    -0.346 N 
ATOM    140  H87 LEU d   1     -23.950  16.176  45.846  0.00  0.00     0.163 HD
BRANCH 139 141
ATOM    141  CA  LEU d   1     -25.724  17.326  46.082  0.00  0.00     0.089 C 
ATOM    142  H88 LEU d   1     -25.947  18.180  46.739  0.00  0.00     0.087 H 
BRANCH 141 143
ATOM    143  C   LEU d   1     -26.861  16.314  46.257  0.00  0.00     0.241 C 
ATOM    144  O   LEU d   1     -26.708  15.100  46.037  0.00  0.00    -0.271 OA
ATOM    145  N   LEU d   1     -28.019  16.851  46.641  0.00  0.00    -0.346 N 
ATOM    146  H98 LEU d   1     -28.048  17.822  46.878  0.00  0.00     0.163 HD
BRANCH 145 147
ATOM    147  CA  LEU d   1     -29.241  16.067  46.726  0.00  0.00     0.089 C 
ATOM    148  H99 LEU d   1     -29.030  15.091  47.188  0.00  0.00     0.087 H 
BRANCH 147 149
ATOM    149  C   LEU d   1     -29.766  15.874  45.320  0.00  0.00     0.241 C 
ATOM    150  O   LEU d   1     -29.854  16.827  44.547  0.00  0.00    -0.271 OA
ATOM    151  N   MET d   1     -30.148  14.645  45.000  0.00  0.00    -0.346 N 
ATOM    152 9H10 MET d   1     -29.938  13.889  45.620  0.00  0.00     0.163 HD
BRANCH 151 153
ATOM    153  CA  MET d   1     -30.866  14.377  43.765  0.00  0.00     0.090 C 
ATOM    154 0H11 MET d   1     -30.406  14.944  42.943  0.00  0.00     0.087 H 
BRANCH 153 155
ATOM    155  C   MET d   1     -32.319  14.859  43.950  0.00  0.00     0.241 C 
ATOM    156  O   MET d   1     -32.758  15.091  45.079  0.00  0.00    -0.271 OA
ATOM    157  N   GLN d   1     -33.064  15.042  42.866  0.00  0.00    -0.345 N 
ATOM    158 8H11 GLN d   1     -32.698  14.813  41.964  0.00  0.00     0.163 HD
BRANCH 157 159
ATOM    159  CA  GLN d   1     -34.423  15.580  42.991  0.00  0.00     0.096 C 
ATOM    160 9H11 GLN d   1     -34.396  16.362  43.764  0.00  0.00     0.089 H 
BRANCH 159 161
ATOM    161  C   GLN d   1     -35.466  14.547  43.423  0.00  0.00     0.196 C 
ATOM    162  O   GLN d   1     -35.136  13.394  43.716  0.00  0.00    -0.646 OA
ATOM    163  OXT GLN d   1     -36.663  14.841  43.489  0.00  0.00    -0.646 OA
ENDBRANCH 159 161
BRANCH 159 164
ATOM    164  CB  GLN d   1     -34.848  16.224  41.680  0.00  0.00    -0.029 C 
ATOM    165 0H12 GLN d   1     -34.877  15.444  40.905  0.00  0.00     0.037 H 
ATOM    166 1H12 GLN d   1     -34.099  16.983  41.409  0.00  0.00     0.037 H 
BRANCH 164 167
ATOM    167  CG  GLN d   1     -36.199  16.889  41.733  0.00  0.00     0.011 C 
ATOM    168 2H12 GLN d   1     -36.154  17.733  42.437  0.00  0.00     0.047 H 
ATOM    169 3H12 GLN d   1     -36.943  16.159  42.084  0.00  0.00     0.047 H 
BRANCH 167 170
ATOM    170  CD  GLN d   1     -36.620  17.404  40.375  0.00  0.00     0.215 C 
ATOM    171  OE1 GLN d   1     -35.829  17.399  39.429  0.00  0.00    -0.274 OA
ATOM    172  NE2 GLN d   1     -37.869  17.847  40.268  0.00  0.00    -0.370 N 
ATOM    173 4H12 GLN d   1     -38.201  18.199  39.393  0.00  0.00     0.159 HD
ATOM    174 5H12 GLN d   1     -38.476  17.828  41.062  0.00  0.00     0.159 HD
ENDBRANCH 167 170
ENDBRANCH 164 167
ENDBRANCH 159 164
ENDBRANCH 157 159
ENDBRANCH 153 155
BRANCH 153 175
ATOM    175  CB  MET d   1     -30.776  12.888  43.437  0.00  0.00    -0.030 C 
ATOM    176 1H11 MET d   1     -31.524  12.656  42.664  0.00  0.00     0.037 H 
ATOM    177 2H11 MET d   1     -31.002  12.317  44.349  0.00  0.00     0.037 H 
BRANCH 175 178
ATOM    178  CG  MET d   1     -29.414  12.459  42.929  0.00  0.00    -0.021 C 
ATOM    179 3H11 MET d   1     -28.650  12.949  43.550  0.00  0.00     0.049 H 
ATOM    180 4H11 MET d   1     -29.316  12.802  41.889  0.00  0.00     0.049 H 
BRANCH 178 181
ATOM    181  SD  MET d   1     -29.102  10.675  42.961  0.00  0.00    -0.173 SA
BRANCH 181 182
ATOM    182  CE  MET d   1     -27.460  10.565  42.265  0.00  0.00    -0.035 C 
ATOM    183 5H11 MET d   1     -27.147   9.511  42.229  0.00  0.00     0.041 H 
ATOM    184 6H11 MET d   1     -26.757  11.135  42.891  0.00  0.00     0.041 H 
ATOM    185 7H11 MET d   1     -27.465  10.982  41.247  0.00  0.00     0.041 H 
ENDBRANCH 181 182
ENDBRANCH 178 181
ENDBRANCH 175 178
ENDBRANCH 153 175
ENDBRANCH 151 153
ENDBRANCH 147 149
BRANCH 147 186
ATOM    186  CB  LEU d   1     -30.281  16.811  47.554  0.00  0.00    -0.035 C 
ATOM    187 0H10 LEU d   1     -31.157  16.953  46.903  0.00  0.00     0.037 H 
ATOM    188 1H10 LEU d   1     -29.844  17.790  47.800  0.00  0.00     0.037 H 
BRANCH 186 189
ATOM    189  CG  LEU d   1     -30.804  16.225  48.867  0.00  0.00    -0.059 C 
ATOM    190 2H10 LEU d   1     -30.050  16.402  49.648  0.00  0.00     0.038 H 
BRANCH 189 191
ATOM    191  CD1 LEU d   1     -32.095  16.942  49.269  0.00  0.00    -0.073 C 
ATOM    192 3H10 LEU d   1     -32.470  16.520  50.213  0.00  0.00     0.028 H 
ATOM    193 4H10 LEU d   1     -32.850  16.806  48.481  0.00  0.00     0.028 H 
ATOM    194 5H10 LEU d   1     -31.892  18.015  49.402  0.00  0.00     0.028 H 
ENDBRANCH 189 191
BRANCH 189 195
ATOM    195  CD2 LEU d   1     -31.026  14.731  48.760  0.00  0.00    -0.073 C 
ATOM    196 6H10 LEU d   1     -30.085  14.240  48.471  0.00  0.00     0.028 H 
ATOM    197 7H10 LEU d   1     -31.794  14.528  48.000  0.00  0.00     0.028 H 
ATOM    198 8H10 LEU d   1     -31.360  14.339  49.732  0.00  0.00     0.028 H 
ENDBRANCH 189 195
ENDBRANCH 186 189
ENDBRANCH 147 186
ENDBRANCH 145 147
ENDBRANCH 141 143
BRANCH 141 199
ATOM    199  CB  LEU d   1     -25.681  17.829  44.648  0.00  0.00    -0.035 C 
ATOM    200  H89 LEU d   1     -26.704  18.085  44.336  0.00  0.00     0.037 H 
ATOM    201  H90 LEU d   1     -25.293  17.024  44.006  0.00  0.00     0.037 H 
BRANCH 199 202
ATOM    202  CG  LEU d   1     -24.796  19.061  44.471  0.00  0.00    -0.059 C 
ATOM    203  H91 LEU d   1     -23.813  18.853  44.918  0.00  0.00     0.038 H 
BRANCH 202 204
ATOM    204  CD1 LEU d   1     -24.604  19.378  43.011  0.00  0.00    -0.073 C 
ATOM    205  H92 LEU d   1     -23.965  20.267  42.910  0.00  0.00     0.028 H 
ATOM    206  H93 LEU d   1     -25.582  19.575  42.547  0.00  0.00     0.028 H 
ATOM    207  H94 LEU d   1     -24.126  18.523  42.510  0.00  0.00     0.028 H 
ENDBRANCH 202 204
BRANCH 202 208
ATOM    208  CD2 LEU d   1     -25.412  20.252  45.178  0.00  0.00    -0.073 C 
ATOM    209  H95 LEU d   1     -25.550  20.015  46.243  0.00  0.00     0.028 H 
ATOM    210  H96 LEU d   1     -26.387  20.483  44.725  0.00  0.00     0.028 H 
ATOM    211  H97 LEU d   1     -24.746  21.122  45.079  0.00  0.00     0.028 H 
ENDBRANCH 202 208
ENDBRANCH 199 202
ENDBRANCH 141 199
ENDBRANCH 139 141
ENDBRANCH 126 137
ENDBRANCH 121 123
BRANCH 121 212
ATOM    212  CB  THR d   1     -20.856  20.405  50.014  0.00  0.00     0.060 C 
ATOM    213  H75 THR d   1     -20.092  21.046  50.479  0.00  0.00     0.086 H 
BRANCH 212 214
ATOM    214  OG1 THR d   1     -21.736  19.947  51.040  0.00  0.00    -0.393 OA
ATOM    215  H76 THR d   1     -22.179  20.691  51.431  0.00  0.00     0.210 HD
ENDBRANCH 212 214
BRANCH 212 216
ATOM    216  CG2 THR d   1     -21.600  21.252  48.980  0.00  0.00    -0.050 C 
ATOM    217  H77 THR d   1     -22.092  22.097  49.484  0.00  0.00     0.031 H 
ATOM    218  H78 THR d   1     -22.358  20.634  48.477  0.00  0.00     0.031 H 
ATOM    219  H79 THR d   1     -20.885  21.634  48.236  0.00  0.00     0.031 H 
ENDBRANCH 212 216
ENDBRANCH 121 212
ENDBRANCH 119 121
ENDBRANCH 115 117
BRANCH 115 220
ATOM    220  CB  ALA d   1     -16.061  18.914  47.619  0.00  0.00    -0.049 C 
ATOM    221  H70 ALA d   1     -16.808  18.989  46.815  0.00  0.00     0.030 H 
ATOM    222  H71 ALA d   1     -15.900  17.856  47.873  0.00  0.00     0.030 H 
ATOM    223  H72 ALA d   1     -15.113  19.358  47.281  0.00  0.00     0.030 H 
ENDBRANCH 115 220
ENDBRANCH 113 115
ENDBRANCH   1 111
BRANCH   1 224
ATOM    224  CB  MET d   1     -15.417  19.239  53.072  0.00  0.00    -0.030 C 
ATOM    225  H61 MET d   1     -14.749  18.968  53.903  0.00  0.00     0.037 H 
ATOM    226  H62 MET d   1     -15.760  18.325  52.565  0.00  0.00     0.037 H 
BRANCH 224 227
ATOM    227  CG  MET d   1     -16.614  19.985  53.618  0.00  0.00    -0.021 C 
ATOM    228  H63 MET d   1     -16.962  20.674  52.834  0.00  0.00     0.049 H 
ATOM    229  H64 MET d   1     -16.275  20.563  54.490  0.00  0.00     0.049 H 
BRANCH 227 230
ATOM    230  SD  MET d   1     -18.014  19.002  54.133  0.00  0.00    -0.173 SA
BRANCH 230 231
ATOM    231  CE  MET d   1     -19.096  20.351  54.522  0.00  0.00    -0.035 C 
ATOM    232  H65 MET d   1     -20.060  19.957  54.876  0.00  0.00     0.041 H 
ATOM    233  H66 MET d   1     -19.257  20.963  53.622  0.00  0.00     0.041 H 
ATOM    234  H67 MET d   1     -18.642  20.970  55.310  0.00  0.00     0.041 H 
ENDBRANCH 230 231
ENDBRANCH 227 230
ENDBRANCH 224 227
ENDBRANCH   1 224
TORSDOF 67
