REMARK WARNING: 32 MAX_TORS EXCEEDED!!!
REMARK  54 active torsions:
REMARK  status: ('A' for Active; 'I' for Inactive)
REMARK    1  A    between atoms: N_1  and  CA_2 
REMARK    2  A    between atoms: CA_2  and  C_3 
REMARK    3  A    between atoms: CA_2  and  CB_5 
REMARK       I    between atoms: C_3  and  N_9 
REMARK    4  A    between atoms: CB_5  and  CG_6 
REMARK    5  A    between atoms: CG_6  and  SD_7 
REMARK    6  A    between atoms: SD_7  and  CE_8 
REMARK    7  A    between atoms: N_9  and  CA_10 
REMARK    8  A    between atoms: CA_10  and  C_11 
REMARK    9  A    between atoms: CA_10  and  CB_13 
REMARK       I    between atoms: C_11  and  N_14 
REMARK   10  A    between atoms: N_14  and  CA_15 
REMARK   11  A    between atoms: CA_15  and  C_16 
REMARK   12  A    between atoms: CA_15  and  CB_18 
REMARK       I    between atoms: C_16  and  N_21 
REMARK   13  A    between atoms: CB_18  and  OG1_19 
REMARK   14  A    between atoms: CB_18  and  CG2_20 
REMARK   15  A    between atoms: CA_22  and  C_23 
REMARK       I    between atoms: C_23  and  N_28 
REMARK   16  A    between atoms: N_28  and  CA_29 
REMARK   17  A    between atoms: CA_29  and  C_30 
REMARK   18  A    between atoms: CA_29  and  CB_32 
REMARK       I    between atoms: C_30  and  N_36 
REMARK   19  A    between atoms: CB_32  and  CG_33 
REMARK   20  A    between atoms: CG_33  and  CD1_34 
REMARK   21  A    between atoms: CG_33  and  CD2_35 
REMARK   22  A    between atoms: N_36  and  CA_37 
REMARK   23  A    between atoms: CA_37  and  C_38 
REMARK   24  A    between atoms: CA_37  and  CB_40 
REMARK       I    between atoms: C_38  and  N_44 
REMARK   25  A    between atoms: CB_40  and  CG_41 
REMARK   26  A    between atoms: CG_41  and  CD1_42 
REMARK   27  A    between atoms: CG_41  and  CD2_43 
REMARK   28  A    between atoms: N_44  and  CA_45 
REMARK   29  A    between atoms: CA_45  and  C_46 
REMARK   30  A    between atoms: CA_45  and  CB_48 
REMARK       I    between atoms: C_46  and  N_52 
REMARK   31  A    between atoms: CB_48  and  CG_49 
REMARK   32  A    between atoms: CG_49  and  SD_50 
REMARK   33  A    between atoms: SD_50  and  CE_51 
REMARK   34  A    between atoms: N_52  and  CA_53 
REMARK   35  A    between atoms: CA_53  and  C_54 
REMARK   36  A    between atoms: CA_53  and  CB_56 
REMARK       I    between atoms: C_54  and  N_61 
REMARK   37  A    between atoms: CB_56  and  CG_57 
REMARK   38  A    between atoms: CG_57  and  CD_58 
REMARK       I    between atoms: CD_58  and  NE2_60 
REMARK   39  A    between atoms: N_61  and  CA_62 
REMARK   40  A    between atoms: CA_62  and  C_63 
REMARK   41  A    between atoms: CA_62  and  CB_65 
REMARK       I    between atoms: C_63  and  N_66 
REMARK   42  A    between atoms: N_66  and  CA_67 
REMARK   43  A    between atoms: CA_67  and  C_68 
REMARK   44  A    between atoms: CA_67  and  CB_70 
REMARK       I    between atoms: C_68  and  N_74 
REMARK   45  A    between atoms: CB_70  and  CG_71 
REMARK   46  A    between atoms: CG_71  and  CD1_72 
REMARK   47  A    between atoms: CG_71  and  CD2_73 
REMARK   48  A    between atoms: CA_75  and  C_76 
REMARK       I    between atoms: C_76  and  N_81 
REMARK   49  A    between atoms: N_81  and  CA_82 
REMARK   50  A    between atoms: CA_82  and  C_83 
REMARK   51  A    between atoms: CA_82  and  CB_85 
REMARK   52  A    between atoms: CB_85  and  CG_86 
REMARK   53  A    between atoms: CG_86  and  SD_87 
REMARK   54  A    between atoms: SD_87  and  CE_88 
ROOT
ATOM      1  N   MET d   1       8.977  54.996  23.347  0.00  0.00    -0.346 N 
ATOM      2  H53 MET d   1       9.282  54.588  22.486  0.00  0.00     0.163 HD
ATOM      3  C   LEU d   1       9.874  55.483  24.193  0.00  0.00     0.241 C 
ATOM      4  O   LEU d   1       9.571  56.106  25.197  0.00  0.00    -0.271 OA
ENDROOT
BRANCH   3   5
ATOM      5  CA  LEU d   1      11.329  55.218  23.860  0.00  0.00     0.089 C 
ATOM      6  H43 LEU d   1      11.481  55.386  22.784  0.00  0.00     0.087 H 
BRANCH   5   7
ATOM      7  N   LEU d   1      12.205  56.126  24.593  0.00  0.00    -0.346 N 
ATOM      8  C   LEU d   1      13.165  56.783  23.951  0.00  0.00     0.241 C 
ATOM      9  O   LEU d   1      13.356  56.658  22.736  0.00  0.00    -0.271 OA
ATOM     10  H42 LEU d   1      12.083  56.254  25.577  0.00  0.00     0.163 HD
BRANCH   8  11
ATOM     11  CA  LEU d   1      14.065  57.692  24.784  0.00  0.00     0.089 C 
ATOM     12  H32 LEU d   1      14.391  57.136  25.675  0.00  0.00     0.087 H 
BRANCH  11  13
ATOM     13  N   LEU d   1      15.236  58.047  23.999  0.00  0.00    -0.346 N 
ATOM     14  C   PRO d   1      16.393  57.438  24.207  0.00  0.00     0.241 C 
ATOM     15  O   PRO d   1      16.554  56.600  25.090  0.00  0.00    -0.271 OA
ATOM     16  H31 LEU d   1      15.167  58.756  23.297  0.00  0.00     0.163 HD
BRANCH  14  17
ATOM     17  CA  PRO d   1      17.558  57.813  23.296  0.00  0.00     0.091 C 
ATOM     18  N   PRO d   1      18.799  57.927  24.073  0.00  0.00    -0.337 N 
ATOM     19  C   THR d   1      18.966  58.934  24.946  0.00  0.00     0.245 C 
ATOM     20  CD  PRO d   1      19.745  56.838  23.775  0.00  0.00    -0.001 C 
ATOM     21  O   THR d   1      18.146  59.836  25.072  0.00  0.00    -0.271 OA
ATOM     22  CG  PRO d   1      19.350  56.433  22.380  0.00  0.00    -0.048 C 
ATOM     23  H29 PRO d   1      19.624  56.003  24.480  0.00  0.00     0.064 H 
ATOM     24  H30 PRO d   1      20.785  57.196  23.805  0.00  0.00     0.064 H 
ATOM     25  CB  PRO d   1      17.838  56.647  22.331  0.00  0.00    -0.036 C 
ATOM     26  H27 PRO d   1      19.856  57.064  21.634  0.00  0.00     0.035 H 
ATOM     27  H28 PRO d   1      19.599  55.377  22.197  0.00  0.00     0.035 H 
ATOM     28  H25 PRO d   1      17.519  56.907  21.311  0.00  0.00     0.036 H 
ATOM     29  H26 PRO d   1      17.310  55.740  22.660  0.00  0.00     0.036 H 
ATOM     30  H24 PRO d   1      17.336  58.744  22.755  0.00  0.00     0.087 H 
BRANCH  19  31
ATOM     31  CA  THR d   1      20.218  58.909  25.824  0.00  0.00     0.114 C 
ATOM     32  H18 THR d   1      20.694  57.922  25.732  0.00  0.00     0.091 H 
BRANCH  31  33
ATOM     33  N   THR d   1      21.198  59.928  25.447  0.00  0.00    -0.344 N 
ATOM     34  C   ALA d   1      22.489  59.646  25.280  0.00  0.00     0.240 C 
ATOM     35  O   ALA d   1      22.934  58.495  25.264  0.00  0.00    -0.271 OA
ATOM     36  H17 THR d   1      20.888  60.869  25.310  0.00  0.00     0.163 HD
BRANCH  34  37
ATOM     37  CA  ALA d   1      23.418  60.852  25.096  0.00  0.00     0.086 C 
ATOM     38  H13 ALA d   1      23.475  61.115  24.029  0.00  0.00     0.086 H 
BRANCH  37  39
ATOM     39  N   ALA d   1      22.861  61.960  25.847  0.00  0.00    -0.346 N 
ATOM     40  C   MET d   1      22.310  63.023  25.277  0.00  0.00     0.249 C 
ATOM     41  O   MET d   1      22.363  63.253  24.063  0.00  0.00    -0.271 OA
ATOM     42  H12 ALA d   1      22.894  61.921  26.846  0.00  0.00     0.163 HD
BRANCH  40  43
ATOM     43  CA  MET d   1      21.592  63.960  26.241  0.00  0.00     0.176 C 
ATOM     44  H4  MET d   1      22.157  63.985  27.185  0.00  0.00     0.099 H 
BRANCH  43  45
ATOM     45  N   MET d   1      21.524  65.323  25.727  0.00  0.00    -0.066 N 
ATOM     46  H1  MET d   1      21.044  65.909  26.392  0.00  0.00     0.275 HD
ATOM     47  H2  MET d   1      21.024  65.328  24.852  0.00  0.00     0.275 HD
ATOM     48  H3  MET d   1      22.458  65.675  25.582  0.00  0.00     0.275 HD
ENDBRANCH  43  45
BRANCH  43  49
ATOM     49  CB  MET d   1      20.193  63.391  26.527  0.00  0.00    -0.022 C 
ATOM     50  H5  MET d   1      20.114  62.410  26.035  0.00  0.00     0.037 H 
ATOM     51  H6  MET d   1      19.449  64.078  26.097  0.00  0.00     0.037 H 
BRANCH  49  52
ATOM     52  CG  MET d   1      19.874  63.209  28.001  0.00  0.00    -0.021 C 
ATOM     53  H7  MET d   1      20.667  62.597  28.456  0.00  0.00     0.049 H 
ATOM     54  H8  MET d   1      18.912  62.683  28.086  0.00  0.00     0.049 H 
BRANCH  52  55
ATOM     55  SD  MET d   1      19.758  64.766  28.915  0.00  0.00    -0.173 SA
BRANCH  55  56
ATOM     56  CE  MET d   1      18.160  65.401  28.390  0.00  0.00    -0.035 C 
ATOM     57  H9  MET d   1      17.967  66.364  28.885  0.00  0.00     0.041 H 
ATOM     58  H10 MET d   1      17.372  64.684  28.664  0.00  0.00     0.041 H 
ATOM     59  H11 MET d   1      18.163  65.544  27.299  0.00  0.00     0.041 H 
ENDBRANCH  55  56
ENDBRANCH  52  55
ENDBRANCH  49  52
ENDBRANCH  43  49
ENDBRANCH  40  43
ENDBRANCH  37  39
BRANCH  37  60
ATOM     60  CB  ALA d   1      24.816  60.537  25.612  0.00  0.00    -0.049 C 
ATOM     61  H14 ALA d   1      25.237  59.696  25.041  0.00  0.00     0.030 H 
ATOM     62  H15 ALA d   1      24.762  60.266  26.677  0.00  0.00     0.030 H 
ATOM     63  H16 ALA d   1      25.459  61.421  25.491  0.00  0.00     0.030 H 
ENDBRANCH  37  60
ENDBRANCH  34  37
ENDBRANCH  31  33
BRANCH  31  64
ATOM     64  CB  THR d   1      19.770  59.124  27.283  0.00  0.00     0.060 C 
ATOM     65  H19 THR d   1      19.255  60.093  27.356  0.00  0.00     0.086 H 
BRANCH  64  66
ATOM     66  OG1 THR d   1      20.921  59.139  28.137  0.00  0.00    -0.393 OA
ATOM     67  H20 THR d   1      20.645  59.272  29.036  0.00  0.00     0.210 HD
ENDBRANCH  64  66
BRANCH  64  68
ATOM     68  CG2 THR d   1      18.818  58.031  27.732  0.00  0.00    -0.050 C 
ATOM     69  H21 THR d   1      18.517  58.212  28.774  0.00  0.00     0.031 H 
ATOM     70  H22 THR d   1      19.320  57.055  27.660  0.00  0.00     0.031 H 
ATOM     71  H23 THR d   1      17.927  58.034  27.087  0.00  0.00     0.031 H 
ENDBRANCH  64  68
ENDBRANCH  31  64
ENDBRANCH  19  31
ENDBRANCH  14  17
ENDBRANCH  11  13
BRANCH  11  72
ATOM     72  CB  LEU d   1      13.332  58.966  25.254  0.00  0.00    -0.035 C 
ATOM     73  H33 LEU d   1      12.409  58.669  25.774  0.00  0.00     0.037 H 
ATOM     74  H34 LEU d   1      13.077  59.571  24.371  0.00  0.00     0.037 H 
BRANCH  72  75
ATOM     75  CG  LEU d   1      14.178  59.823  26.208  0.00  0.00    -0.059 C 
ATOM     76  H35 LEU d   1      15.134  60.031  25.706  0.00  0.00     0.038 H 
BRANCH  75  77
ATOM     77  CD1 LEU d   1      13.530  61.168  26.542  0.00  0.00    -0.073 C 
ATOM     78  H36 LEU d   1      14.183  61.730  27.226  0.00  0.00     0.028 H 
ATOM     79  H37 LEU d   1      12.556  60.996  27.024  0.00  0.00     0.028 H 
ATOM     80  H38 LEU d   1      13.385  61.745  25.617  0.00  0.00     0.028 H 
ENDBRANCH  75  77
BRANCH  75  81
ATOM     81  CD2 LEU d   1      14.473  59.050  27.489  0.00  0.00    -0.073 C 
ATOM     82  H39 LEU d   1      14.938  58.086  27.236  0.00  0.00     0.028 H 
ATOM     83  H40 LEU d   1      13.534  58.873  28.035  0.00  0.00     0.028 H 
ATOM     84  H41 LEU d   1      15.159  59.634  28.120  0.00  0.00     0.028 H 
ENDBRANCH  75  81
ENDBRANCH  72  75
ENDBRANCH  11  72
ENDBRANCH   8  11
ENDBRANCH   5   7
BRANCH   5  85
ATOM     85  CB  LEU d   1      11.655  53.754  24.180  0.00  0.00    -0.035 C 
ATOM     86  H44 LEU d   1      12.750  53.648  24.206  0.00  0.00     0.037 H 
ATOM     87  H45 LEU d   1      11.245  53.131  23.372  0.00  0.00     0.037 H 
BRANCH  85  88
ATOM     88  CG  LEU d   1      11.101  53.234  25.502  0.00  0.00    -0.059 C 
ATOM     89  H46 LEU d   1      10.107  53.678  25.659  0.00  0.00     0.038 H 
BRANCH  88  90
ATOM     90  CD1 LEU d   1      10.950  51.717  25.470  0.00  0.00    -0.073 C 
ATOM     91  H47 LEU d   1      10.550  51.368  26.433  0.00  0.00     0.028 H 
ATOM     92  H48 LEU d   1      11.932  51.254  25.292  0.00  0.00     0.028 H 
ATOM     93  H49 LEU d   1      10.259  51.434  24.662  0.00  0.00     0.028 H 
ENDBRANCH  88  90
BRANCH  88  94
ATOM     94  CD2 LEU d   1      12.004  53.651  26.657  0.00  0.00    -0.073 C 
ATOM     95  H50 LEU d   1      12.104  54.746  26.668  0.00  0.00     0.028 H 
ATOM     96  H51 LEU d   1      12.996  53.194  26.530  0.00  0.00     0.028 H 
ATOM     97  H52 LEU d   1      11.564  53.314  27.607  0.00  0.00     0.028 H 
ENDBRANCH  88  94
ENDBRANCH  85  88
ENDBRANCH   5  85
ENDBRANCH   3   5
BRANCH   1  98
ATOM     98  CA  MET d   1       7.553  55.047  23.653  0.00  0.00     0.090 C 
ATOM     99  H54 MET d   1       7.366  55.920  24.295  0.00  0.00     0.087 H 
BRANCH  98 100
ATOM    100  C   MET d   1       7.142  53.794  24.412  0.00  0.00     0.241 C 
ATOM    101  O   MET d   1       7.502  52.667  24.047  0.00  0.00    -0.271 OA
ATOM    102  N   GLN d   1       6.385  53.997  25.479  0.00  0.00    -0.346 N 
ATOM    103  H62 GLN d   1       6.058  54.917  25.696  0.00  0.00     0.163 HD
BRANCH 102 104
ATOM    104  CA  GLN d   1       6.032  52.877  26.333  0.00  0.00     0.090 C 
ATOM    105  H63 GLN d   1       6.848  52.141  26.284  0.00  0.00     0.087 H 
BRANCH 104 106
ATOM    106  C   GLN d   1       4.759  52.197  25.872  0.00  0.00     0.241 C 
ATOM    107  O   GLN d   1       3.762  52.858  25.618  0.00  0.00    -0.271 OA
ATOM    108  N   ALA d   1       4.812  50.875  25.744  0.00  0.00    -0.346 N 
ATOM    109  H70 ALA d   1       5.697  50.415  25.813  0.00  0.00     0.163 HD
BRANCH 108 110
ATOM    110  CA  ALA d   1       3.615  50.078  25.506  0.00  0.00     0.086 C 
ATOM    111  H71 ALA d   1       3.071  50.478  24.638  0.00  0.00     0.086 H 
BRANCH 110 112
ATOM    112  C   ALA d   1       2.737  50.159  26.746  0.00  0.00     0.240 C 
ATOM    113  O   ALA d   1       3.245  50.215  27.872  0.00  0.00    -0.271 OA
ATOM    114  N   LEU d   1       1.424  50.155  26.539  0.00  0.00    -0.346 N 
ATOM    115  H75 LEU d   1       1.086  50.136  25.598  0.00  0.00     0.163 HD
BRANCH 114 116
ATOM    116  CA  LEU d   1       0.457  50.177  27.632  0.00  0.00     0.090 C 
ATOM    117  H76 LEU d   1       0.975  50.405  28.575  0.00  0.00     0.087 H 
BRANCH 116 118
ATOM    118  C   LEU d   1      -0.216  48.813  27.740  0.00  0.00     0.243 C 
ATOM    119  O   LEU d   1      -0.432  48.139  26.724  0.00  0.00    -0.271 OA
ATOM    120  N   PRO d   1      -0.500  48.368  28.974  0.00  0.00    -0.337 N 
ATOM    121  CA  PRO d   1      -1.196  47.088  29.157  0.00  0.00     0.091 C 
ATOM    122  CD  PRO d   1       0.042  48.900  30.239  0.00  0.00    -0.001 C 
ATOM    123  CB  PRO d   1      -0.967  46.765  30.646  0.00  0.00    -0.036 C 
ATOM    124  H86 PRO d   1      -0.771  46.309  28.507  0.00  0.00     0.087 H 
ATOM    125  CG  PRO d   1      -0.671  48.093  31.294  0.00  0.00    -0.048 C 
ATOM    126  H87 PRO d   1      -0.116  46.078  30.766  0.00  0.00     0.036 H 
ATOM    127  H88 PRO d   1      -1.868  46.313  31.086  0.00  0.00     0.036 H 
ATOM    128  H89 PRO d   1      -0.027  47.957  32.175  0.00  0.00     0.035 H 
ATOM    129  H90 PRO d   1      -1.604  48.591  31.595  0.00  0.00     0.035 H 
ATOM    130  H91 PRO d   1      -0.184  49.971  30.344  0.00  0.00     0.064 H 
ATOM    131  H92 PRO d   1       1.130  48.748  30.296  0.00  0.00     0.064 H 
BRANCH 121 132
ATOM    132  C   PRO d   1      -2.689  47.234  28.885  0.00  0.00     0.241 C 
ATOM    133  O   PRO d   1      -3.283  48.242  29.267  0.00  0.00    -0.271 OA
ATOM    134  N   MET d   1      -3.283  46.244  28.233  0.00  0.00    -0.345 N 
ATOM    135  H93 MET d   1      -2.724  45.518  27.832  0.00  0.00     0.163 HD
BRANCH 134 136
ATOM    136  CA  MET d   1      -4.731  46.191  28.088  0.00  0.00     0.097 C 
ATOM    137  H94 MET d   1      -5.111  47.216  27.962  0.00  0.00     0.089 H 
BRANCH 136 138
ATOM    138  C   MET d   1      -5.370  45.579  29.333  0.00  0.00     0.196 C 
ATOM    139  O   MET d   1      -6.273  46.166  29.937  0.00  0.00    -0.646 OA
ATOM    140  OXT MET d   1      -4.998  44.483  29.764  0.00  0.00    -0.646 OA
ENDBRANCH 136 138
BRANCH 136 141
ATOM    141  CB  MET d   1      -5.107  45.371  26.856  0.00  0.00    -0.029 C 
ATOM    142  H95 MET d   1      -6.197  45.429  26.718  0.00  0.00     0.037 H 
ATOM    143  H96 MET d   1      -4.815  44.325  27.031  0.00  0.00     0.037 H 
BRANCH 141 144
ATOM    144  CG  MET d   1      -4.438  45.849  25.589  0.00  0.00    -0.021 C 
ATOM    145  H97 MET d   1      -3.348  45.838  25.737  0.00  0.00     0.049 H 
ATOM    146  H98 MET d   1      -4.769  46.877  25.379  0.00  0.00     0.049 H 
BRANCH 144 147
ATOM    147  SD  MET d   1      -4.840  44.813  24.183  0.00  0.00    -0.173 SA
BRANCH 147 148
ATOM    148  CE  MET d   1      -4.269  45.851  22.827  0.00  0.00    -0.035 C 
ATOM    149  H99 MET d   1      -4.452  45.339  21.871  0.00  0.00     0.041 H 
ATOM    150 0H10 MET d   1      -3.192  46.042  22.940  0.00  0.00     0.041 H 
ATOM    151 1H10 MET d   1      -4.815  46.806  22.841  0.00  0.00     0.041 H 
ENDBRANCH 147 148
ENDBRANCH 144 147
ENDBRANCH 141 144
ENDBRANCH 136 141
ENDBRANCH 134 136
ENDBRANCH 121 132
ENDBRANCH 116 118
BRANCH 116 152
ATOM    152  CB  LEU d   1      -0.589  51.243  27.361  0.00  0.00    -0.035 C 
ATOM    153  H77 LEU d   1      -1.296  51.249  28.204  0.00  0.00     0.037 H 
ATOM    154  H78 LEU d   1      -1.122  50.971  26.438  0.00  0.00     0.037 H 
BRANCH 152 155
ATOM    155  CG  LEU d   1      -0.044  52.657  27.192  0.00  0.00    -0.059 C 
ATOM    156  H79 LEU d   1       0.837  52.624  26.535  0.00  0.00     0.038 H 
BRANCH 155 157
ATOM    157  CD1 LEU d   1      -1.098  53.521  26.560  0.00  0.00    -0.073 C 
ATOM    158  H80 LEU d   1      -0.709  54.542  26.436  0.00  0.00     0.028 H 
ATOM    159  H81 LEU d   1      -1.989  53.544  27.205  0.00  0.00     0.028 H 
ATOM    160  H82 LEU d   1      -1.368  53.110  25.576  0.00  0.00     0.028 H 
ENDBRANCH 155 157
BRANCH 155 161
ATOM    161  CD2 LEU d   1       0.368  53.246  28.539  0.00  0.00    -0.073 C 
ATOM    162  H83 LEU d   1       1.139  52.609  28.997  0.00  0.00     0.028 H 
ATOM    163  H84 LEU d   1      -0.509  53.294  29.202  0.00  0.00     0.028 H 
ATOM    164  H85 LEU d   1       0.770  54.259  28.389  0.00  0.00     0.028 H 
ENDBRANCH 155 161
ENDBRANCH 152 155
ENDBRANCH 116 152
ENDBRANCH 114 116
ENDBRANCH 110 112
BRANCH 110 165
ATOM    165  CB  ALA d   1       3.992  48.636  25.241  0.00  0.00    -0.049 C 
ATOM    166  H72 ALA d   1       3.081  48.046  25.063  0.00  0.00     0.030 H 
ATOM    167  H73 ALA d   1       4.527  48.231  26.112  0.00  0.00     0.030 H 
ATOM    168  H74 ALA d   1       4.642  48.584  24.355  0.00  0.00     0.030 H 
ENDBRANCH 110 165
ENDBRANCH 108 110
ENDBRANCH 104 106
BRANCH 104 169
ATOM    169  CB  GLN d   1       5.892  53.340  27.777  0.00  0.00    -0.030 C 
ATOM    170  H64 GLN d   1       5.241  52.633  28.312  0.00  0.00     0.037 H 
ATOM    171  H65 GLN d   1       5.431  54.339  27.783  0.00  0.00     0.037 H 
BRANCH 169 172
ATOM    172  CG  GLN d   1       7.223  53.415  28.498  0.00  0.00     0.011 C 
ATOM    173  H66 GLN d   1       7.817  54.236  28.070  0.00  0.00     0.047 H 
ATOM    174  H67 GLN d   1       7.759  52.464  28.362  0.00  0.00     0.047 H 
BRANCH 172 175
ATOM    175  CD  GLN d   1       7.029  53.663  29.966  0.00  0.00     0.215 C 
ATOM    176  OE1 GLN d   1       6.380  54.632  30.355  0.00  0.00    -0.274 OA
ATOM    177  NE2 GLN d   1       7.552  52.768  30.795  0.00  0.00    -0.370 N 
ATOM    178  H68 GLN d   1       7.453  52.884  31.783  0.00  0.00     0.159 HD
ATOM    179  H69 GLN d   1       8.045  51.978  30.431  0.00  0.00     0.159 HD
ENDBRANCH 172 175
ENDBRANCH 169 172
ENDBRANCH 104 169
ENDBRANCH 102 104
ENDBRANCH  98 100
BRANCH  98 180
ATOM    180  CB  MET d   1       6.726  55.206  22.375  0.00  0.00    -0.030 C 
ATOM    181  H55 MET d   1       5.657  55.187  22.632  0.00  0.00     0.037 H 
ATOM    182  H56 MET d   1       6.954  54.374  21.692  0.00  0.00     0.037 H 
BRANCH 180 183
ATOM    183  CG  MET d   1       7.046  56.506  21.693  0.00  0.00    -0.021 C 
ATOM    184  H57 MET d   1       8.113  56.502  21.427  0.00  0.00     0.049 H 
ATOM    185  H58 MET d   1       6.848  57.324  22.401  0.00  0.00     0.049 H 
BRANCH 183 186
ATOM    186  SD  MET d   1       6.104  56.808  20.215  0.00  0.00    -0.173 SA
BRANCH 186 187
ATOM    187  CE  MET d   1       7.359  57.697  19.292  0.00  0.00    -0.035 C 
ATOM    188  H59 MET d   1       6.957  57.983  18.309  0.00  0.00     0.041 H 
ATOM    189  H60 MET d   1       8.239  57.052  19.154  0.00  0.00     0.041 H 
ATOM    190  H61 MET d   1       7.650  58.601  19.846  0.00  0.00     0.041 H 
ENDBRANCH 186 187
ENDBRANCH 183 186
ENDBRANCH 180 183
ENDBRANCH  98 180
ENDBRANCH   1  98
TORSDOF 54
