REMARK  8 active torsions:
REMARK  status: ('A' for Active; 'I' for Inactive)
REMARK    1  A    between atoms: CAR_3  and  CAU_4 
REMARK    2  A    between atoms: CAK_7  and  CAD_8 
REMARK    3  A    between atoms: C4_16  and  N_17 
REMARK    4  A    between atoms: N_17  and  CA_18 
REMARK    5  A    between atoms: CA_18  and  C_19 
REMARK    6  A    between atoms: CA_18  and  CB_26 
REMARK       I    between atoms: C_19  and  NAN_21 
REMARK    7  A    between atoms: NAN_21  and  PBC_22 
REMARK    8  A    between atoms: CB_26  and  CG_27 
ROOT
ATOM      1  N   7AM d   1      -6.181  69.983  37.229  0.00  0.00    -0.360 N 
ATOM      2  H10 7AM d   1      -5.160  69.863  37.298  0.00  0.00     0.162 HD
ENDROOT
BRANCH   1   3
ATOM      3  C4  7AM d   1      -6.888  70.220  38.354  0.00  0.00     0.138 A 
ATOM      4  C5  7AM d   1      -6.278  69.949  39.521  0.00  0.00     0.047 A 
ATOM      5  CAC 7AM d   1      -5.034  69.445  39.699  0.00  0.00    -0.049 A 
ATOM      6  C6  7AM d   1      -6.957  70.190  40.684  0.00  0.00     0.113 A 
ATOM      7  CAD 7AM d   1      -4.646  69.290  40.970  0.00  0.00     0.018 A 
ATOM      8  H8  7AM d   1      -4.390  69.183  38.861  0.00  0.00     0.087 H 
ATOM      9  SAE 7AM d   1      -5.936  69.761  41.933  0.00  0.00    -0.069 SA
ATOM     10  N1  7AM d   1      -8.222  70.694  40.705  0.00  0.00    -0.234 NA
ATOM     11  C2  7AM d   1      -8.867  70.985  39.503  0.00  0.00     0.090 A 
ATOM     12  N3  7AM d   1      -8.142  70.736  38.324  0.00  0.00    -0.224 NA
ATOM     13  H9  7AM d   1      -9.875  71.383  39.479  0.00  0.00     0.146 H 
BRANCH   7  14
ATOM     14  CAK 7AM d   1      -3.468  68.751  41.369  0.00  0.00    -0.019 A 
ATOM     15  CAP 7AM d   1      -2.446  68.404  40.448  0.00  0.00    -0.071 A 
ATOM     16  CAQ 7AM d   1      -1.266  67.792  40.871  0.00  0.00    -0.076 A 
ATOM     17  H1  7AM d   1      -2.585  68.619  39.395  0.00  0.00     0.084 H 
ATOM     18  CAR 7AM d   1      -1.067  67.497  42.218  0.00  0.00    -0.062 A 
ATOM     19  H2  7AM d   1      -0.498  67.544  40.147  0.00  0.00     0.084 H 
ATOM     20  CAS 7AM d   1      -2.065  67.822  43.140  0.00  0.00    -0.076 A 
ATOM     21  CAT 7AM d   1      -3.255  68.428  42.725  0.00  0.00    -0.071 A 
ATOM     22  H6  7AM d   1      -1.915  67.602  44.191  0.00  0.00     0.084 H 
ATOM     23  H7  7AM d   1      -4.024  68.652  43.455  0.00  0.00     0.084 H 
BRANCH  18  24
ATOM     24  CAU 7AM d   1       0.118  66.891  42.627  0.00  0.00    -0.051 C 
ATOM     25  H3  7AM d   1       0.094  66.737  43.716  0.00  0.00     0.033 H 
ATOM     26  H4  7AM d   1       0.969  67.537  42.366  0.00  0.00     0.033 H 
ATOM     27  H5  7AM d   1       0.227  65.920  42.122  0.00  0.00     0.033 H 
ENDBRANCH  18  24
ENDBRANCH   7  14
ENDBRANCH   1   3
BRANCH   1  28
ATOM     28  CA  7AM d   1      -6.818  69.891  35.911  0.00  0.00     0.092 C 
ATOM     29  H11 7AM d   1      -7.869  70.200  36.011  0.00  0.00     0.088 H 
BRANCH  28  30
ATOM     30  C   7AM d   1      -6.788  68.426  35.389  0.00  0.00     0.250 C 
ATOM     31  O   7AM d   1      -5.838  67.671  35.641  0.00  0.00    -0.271 OA
ATOM     32  NAN 7AM d   1      -7.896  68.108  34.659  0.00  0.00    -0.252 N 
ATOM     33  H12 7AM d   1      -8.594  68.810  34.515  0.00  0.00     0.176 HD
BRANCH  32  34
ATOM     34  PBC 7AM d   1      -8.138  66.560  33.982  0.00  0.00     0.378 P 
ATOM     35  OBD 7AM d   1      -6.987  66.266  32.850  0.00  0.00    -0.622 OA
ATOM     36  OBF 7AM d   1      -7.953  65.471  35.211  0.00  0.00    -0.622 OA
ATOM     37  OBE 7AM d   1      -9.461  66.270  33.326  0.00  0.00    -0.622 OA
ENDBRANCH  32  34
ENDBRANCH  28  30
BRANCH  28  38
ATOM     38  CB  7AM d   1      -6.133  70.831  34.931  0.00  0.00    -0.014 C 
ATOM     39  H13 7AM d   1      -6.363  70.532  33.898  0.00  0.00     0.043 H 
ATOM     40  H14 7AM d   1      -5.044  70.808  35.085  0.00  0.00     0.043 H 
BRANCH  38  41
ATOM     41  CG  7AM d   1      -6.636  72.143  35.184  0.00  0.00    -0.056 A 
ATOM     42  CD1 7AM d   1      -5.960  73.001  36.071  0.00  0.00    -0.077 A 
ATOM     43  CE1 7AM d   1      -6.433  74.284  36.327  0.00  0.00    -0.082 A 
ATOM     44  H15 7AM d   1      -5.057  72.657  36.562  0.00  0.00     0.084 H 
ATOM     45  CZ  7AM d   1      -7.596  74.735  35.705  0.00  0.00    -0.083 A 
ATOM     46  H16 7AM d   1      -5.897  74.933  37.010  0.00  0.00     0.083 H 
ATOM     47  CE2 7AM d   1      -8.279  73.893  34.821  0.00  0.00    -0.082 A 
ATOM     48  H17 7AM d   1      -7.969  75.733  35.905  0.00  0.00     0.083 H 
ATOM     49  CD2 7AM d   1      -7.804  72.603  34.559  0.00  0.00    -0.077 A 
ATOM     50  H18 7AM d   1      -9.183  74.242  34.335  0.00  0.00     0.083 H 
ATOM     51  H19 7AM d   1      -8.340  71.958  33.872  0.00  0.00     0.084 H 
ENDBRANCH  38  41
ENDBRANCH  28  38
ENDBRANCH   1  28
TORSDOF 8
