REMARK  3 active torsions:
REMARK  status: ('A' for Active; 'I' for Inactive)
REMARK       I    between atoms: NAO_3  and  CAQ_4 
REMARK    1  A    between atoms: CAQ_4  and  CAS_6 
REMARK    2  A    between atoms: CAH_12  and  NAG_13 
REMARK    3  A    between atoms: NAG_13  and  CAF_14 
ROOT
ATOM      1  CAM 6XB d   1      50.415 121.519   6.848  0.00  0.00    -0.010 C 
ATOM      2  CAN 6XB d   1      51.171 120.491   6.047  0.00  0.00     0.003 C 
ATOM      3  NAO 6XB d   1      50.739 120.626   4.644  0.00  0.00    -0.348 N 
ATOM      4  CAQ 6XB d   1      50.012 119.631   4.127  0.00  0.00     0.216 C 
ATOM      5  OAR 6XB d   1      49.704 118.657   4.799  0.00  0.00    -0.274 OA
ATOM      6  CAP 6XB d   1      51.038 121.884   3.976  0.00  0.00     0.027 C 
ATOM      7  CAL 6XB d   1      50.661 122.948   4.852  0.00  0.00     0.031 A 
ATOM      8  CAK 6XB d   1      50.372 122.751   6.182  0.00  0.00     0.041 A 
ATOM      9  NAJ 6XB d   1      50.100 123.963   6.713  0.00  0.00    -0.280 N 
ATOM     10  NAI 6XB d   1      50.108 124.828   5.760  0.00  0.00    -0.156 NA
ATOM     11  CAH 6XB d   1      50.458 124.246   4.615  0.00  0.00     0.158 A 
ATOM     12  H1  6XB d   1      50.913 121.654   7.819  0.00  0.00     0.044 H 
ATOM     13  H2  6XB d   1      49.387 121.163   7.009  0.00  0.00     0.044 H 
ATOM     14  H3  6XB d   1      50.940 119.481   6.417  0.00  0.00     0.065 H 
ATOM     15  H4  6XB d   1      52.253 120.672   6.127  0.00  0.00     0.065 H 
ATOM     16  H8  6XB d   1      50.468 121.953   3.038  0.00  0.00     0.072 H 
ATOM     17  H9  6XB d   1      52.114 121.944   3.757  0.00  0.00     0.072 H 
ATOM     18  H10 6XB d   1      49.918 124.160   7.707  0.00  0.00     0.189 HD
ENDROOT
BRANCH  11  19
ATOM     19  NAG 6XB d   1      50.767 124.882   3.468  0.00  0.00    -0.339 N 
ATOM     20  H11 6XB d   1      51.569 124.516   2.936  0.00  0.00     0.167 HD
BRANCH  19  21
ATOM     21  CAF 6XB d   1      50.134 125.941   2.953  0.00  0.00     0.033 A 
ATOM     22  CAE 6XB d   1      50.718 126.546   1.844  0.00  0.00    -0.057 A 
ATOM     23  CAD 6XB d   1      50.126 127.630   1.228  0.00  0.00    -0.081 A 
ATOM     24  H12 6XB d   1      51.654 126.159   1.457  0.00  0.00     0.086 H 
ATOM     25  CAC 6XB d   1      48.900 128.046   1.698  0.00  0.00    -0.083 A 
ATOM     26  H13 6XB d   1      50.610 128.137   0.401  0.00  0.00     0.083 H 
ATOM     27  CAB 6XB d   1      48.319 127.495   2.827  0.00  0.00    -0.081 A 
ATOM     28  H14 6XB d   1      48.373 128.830   1.167  0.00  0.00     0.083 H 
ATOM     29  CAA 6XB d   1      48.924 126.410   3.453  0.00  0.00    -0.057 A 
ATOM     30  H15 6XB d   1      47.397 127.907   3.221  0.00  0.00     0.083 H 
ATOM     31  H16 6XB d   1      48.462 125.940   4.313  0.00  0.00     0.086 H 
ENDBRANCH  19  21
ENDBRANCH  11  19
BRANCH   4  32
ATOM     32  CAS 6XB d   1      49.736 119.693   2.612  0.00  0.00    -0.003 C 
ATOM     33  H5  6XB d   1      49.132 118.823   2.313  0.00  0.00     0.040 H 
ATOM     34  H6  6XB d   1      50.690 119.682   2.065  0.00  0.00     0.040 H 
ATOM     35  H7  6XB d   1      49.188 120.618   2.377  0.00  0.00     0.040 H 
ENDBRANCH   4  32
TORSDOF 3
