REMARK  9 active torsions:
REMARK  status: ('A' for Active; 'I' for Inactive)
REMARK    1  A    between atoms: C5_8  and  C7_1 
REMARK    2  A    between atoms: C2_3  and  C1_5 
REMARK    3  A    between atoms: C2_3  and  C3_6 
REMARK    4  A    between atoms: N4_7  and  C2_3 
REMARK       I    between atoms: N4_7  and  C5_8 
REMARK    5  A    between atoms: C11_11  and  N13_13 
REMARK    6  A    between atoms: N13_13  and  C14_14 
REMARK    7  A    between atoms: N17_17  and  C19_19 
REMARK    8  A    between atoms: C19_19  and  C20_20 
REMARK       I    between atoms: N25_25  and  C27_27 
REMARK    9  A    between atoms: C27_27  and  C29_29 
ROOT
ATOM      1  C14 6XG d   1     -36.109   3.507 -12.213  0.00  0.00     0.158 A 
ATOM      2  C15 6XG d   1     -36.049   4.278 -11.041  0.00  0.00     0.032 A 
ATOM      3  C16 6XG d   1     -36.776   3.561 -10.131  0.00  0.00     0.044 A 
ATOM      4  N17 6XG d   1     -37.216   2.434 -10.721  0.00  0.00    -0.271 N 
ATOM      5  N18 6XG d   1     -36.794   2.392 -12.024  0.00  0.00    -0.153 NA
ATOM      6  C23 6XG d   1     -37.020   3.977  -8.704  0.00  0.00    -0.009 C 
ATOM      7  C24 6XG d   1     -36.657   5.451  -8.568  0.00  0.00     0.003 C 
ATOM      8  N25 6XG d   1     -35.388   5.712  -9.255  0.00  0.00    -0.348 N 
ATOM      9  C26 6XG d   1     -35.367   5.585 -10.731  0.00  0.00     0.027 C 
ATOM     10  C27 6XG d   1     -34.317   6.108  -8.542  0.00  0.00     0.216 C 
ATOM     11  O28 6XG d   1     -34.371   6.186  -7.293  0.00  0.00    -0.274 OA
ATOM     12  H21 6XG d   1     -36.394   3.376  -8.029  0.00  0.00     0.044 H 
ATOM     13  H22 6XG d   1     -38.080   3.830  -8.449  0.00  0.00     0.044 H 
ATOM     14  H23 6XG d   1     -36.555   5.706  -7.503  0.00  0.00     0.065 H 
ATOM     15  H24 6XG d   1     -37.450   6.066  -9.018  0.00  0.00     0.065 H 
ATOM     16  H25 6XG d   1     -35.912   6.421 -11.195  0.00  0.00     0.072 H 
ATOM     17  H26 6XG d   1     -34.331   5.573 -11.100  0.00  0.00     0.072 H 
ENDROOT
BRANCH   1  18
ATOM     18  N13 6XG d   1     -35.528   3.859 -13.435  0.00  0.00    -0.339 N 
ATOM     19  H13 6XG d   1     -35.471   4.865 -13.651  0.00  0.00     0.167 HD
BRANCH  18  20
ATOM     20  C11 6XG d   1     -35.018   2.979 -14.391  0.00  0.00     0.034 A 
ATOM     21  C10 6XG d   1     -34.788   3.454 -15.677  0.00  0.00    -0.057 A 
ATOM     22  C9  6XG d   1     -34.199   2.647 -16.632  0.00  0.00    -0.080 A 
ATOM     23  H3  6XG d   1     -35.074   4.468 -15.934  0.00  0.00     0.086 H 
ATOM     24  C8  6XG d   1     -33.847   1.337 -16.338  0.00  0.00    -0.068 A 
ATOM     25  H1  6XG d   1     -34.010   3.042 -17.623  0.00  0.00     0.083 H 
ATOM     26  C7  6XG d   1     -34.076   0.848 -15.039  0.00  0.00     0.034 A 
ATOM     27  H11 6XG d   1     -33.403   0.702 -17.096  0.00  0.00     0.085 H 
ATOM     28  C12 6XG d   1     -34.656   1.684 -14.082  0.00  0.00    -0.042 A 
ATOM     29  H12 6XG d   1     -34.825   1.309 -13.079  0.00  0.00     0.088 H 
BRANCH  26  30
ATOM     30  C5  6XG d   1     -33.718  -0.500 -14.609  0.00  0.00     0.252 C 
ATOM     31  N4  6XG d   1     -33.497  -1.431 -15.551  0.00  0.00    -0.353 N 
ATOM     32  H10 6XG d   1     -33.597  -1.196 -16.518  0.00  0.00     0.163 HD
ATOM     33  O6  6XG d   1     -33.623  -0.765 -13.389  0.00  0.00    -0.268 OA
BRANCH  31  34
ATOM     34  C2  6XG d   1     -33.107  -2.802 -15.162  0.00  0.00     0.005 C 
ATOM     35  H2  6XG d   1     -32.777  -2.720 -14.116  0.00  0.00     0.071 H 
BRANCH  34  36
ATOM     36  C1  6XG d   1     -34.292  -3.746 -15.098  0.00  0.00    -0.058 C 
ATOM     37  H4  6XG d   1     -33.947  -4.748 -14.805  0.00  0.00     0.030 H 
ATOM     38  H5  6XG d   1     -34.773  -3.798 -16.086  0.00  0.00     0.030 H 
ATOM     39  H6  6XG d   1     -35.016  -3.376 -14.357  0.00  0.00     0.030 H 
ENDBRANCH  34  36
BRANCH  34  40
ATOM     40  C3  6XG d   1     -31.868  -3.267 -15.904  0.00  0.00    -0.058 C 
ATOM     41  H7  6XG d   1     -31.100  -2.481 -15.864  0.00  0.00     0.030 H 
ATOM     42  H8  6XG d   1     -32.125  -3.475 -16.953  0.00  0.00     0.030 H 
ATOM     43  H9  6XG d   1     -31.480  -4.182 -15.433  0.00  0.00     0.030 H 
ENDBRANCH  34  40
ENDBRANCH  31  34
ENDBRANCH  26  30
ENDBRANCH  18  20
ENDBRANCH   1  18
BRANCH   4  44
ATOM     44  C19 6XG d   1     -38.031   1.357 -10.158  0.00  0.00     0.020 C 
ATOM     45  H14 6XG d   1     -38.075   1.469  -9.065  0.00  0.00     0.068 H 
ATOM     46  H15 6XG d   1     -37.575   0.388 -10.409  0.00  0.00     0.068 H 
BRANCH  44  47
ATOM     47  C20 6XG d   1     -39.449   1.411 -10.728  0.00  0.00    -0.037 A 
ATOM     48  C21 6XG d   1     -40.569   0.788  -9.893  0.00  0.00    -0.060 A 
ATOM     49  C22 6XG d   1     -40.411   2.300  -9.964  0.00  0.00    -0.060 A 
ATOM     50  H17 6XG d   1     -40.330   0.252  -8.963  0.00  0.00     0.033 H 
ATOM     51  H18 6XG d   1     -41.420   0.299 -10.390  0.00  0.00     0.033 H 
ATOM     52  H19 6XG d   1     -41.151   2.904 -10.509  0.00  0.00     0.033 H 
ATOM     53  H20 6XG d   1     -40.061   2.857  -9.082  0.00  0.00     0.033 H 
ATOM     54  H16 6XG d   1     -39.450   1.351 -11.826  0.00  0.00     0.042 H 
ENDBRANCH  44  47
ENDBRANCH   4  44
BRANCH  10  55
ATOM     55  C29 6XG d   1     -33.004   6.394  -9.223  0.00  0.00    -0.003 C 
ATOM     56  H27 6XG d   1     -32.261   6.702  -8.472  0.00  0.00     0.040 H 
ATOM     57  H28 6XG d   1     -33.140   7.202  -9.957  0.00  0.00     0.040 H 
ATOM     58  H29 6XG d   1     -32.652   5.487  -9.737  0.00  0.00     0.040 H 
ENDBRANCH  10  55
TORSDOF 9
