REMARK  6 active torsions:
REMARK  status: ('A' for Active; 'I' for Inactive)
REMARK    1  A    between atoms: C9_2  and  N18_26 
REMARK    2  A    between atoms: C2_3  and  C1_5 
REMARK       I    between atoms: N4_29  and  C2_3 
REMARK    3  A    between atoms: N11_25  and  C12_6 
REMARK    4  A    between atoms: N18_26  and  C19_10 
REMARK    5  A    between atoms: C22_13  and  C26_16 
REMARK    6  A    between atoms: N29_28  and  C31_19 
ROOT
ATOM      1  C7  6XH d   1       2.996  -1.982   4.378  0.00  0.00     0.044 A 
ATOM      2  C9  6XH d   1       1.561  -2.075   2.675  0.00  0.00     0.158 A 
ATOM      3  C2  6XH d   1       6.474  -2.025   2.446  0.00  0.00     0.216 C 
ATOM      4  C6  6XH d   1       4.243  -1.826   5.197  0.00  0.00    -0.009 C 
ATOM      5  C32 6XH d   1       4.077  -1.373   2.155  0.00  0.00     0.027 C 
ATOM      6  C5  6XH d   1       5.316  -1.144   4.366  0.00  0.00     0.003 C 
ATOM      7  C8  6XH d   1       2.902  -1.799   3.027  0.00  0.00     0.032 A 
ATOM      8  N10 6XH d   1       0.902  -2.379   3.769  0.00  0.00    -0.153 NA
ATOM      9  N11 6XH d   1       1.785  -2.339   4.840  0.00  0.00    -0.264 N 
ATOM     10  N4  6XH d   1       5.317  -1.539   2.948  0.00  0.00    -0.348 N 
ATOM     11  O3  6XH d   1       7.413  -2.154   3.216  0.00  0.00    -0.274 OA
ATOM     12  H1  6XH d   1       4.600  -2.817   5.513  0.00  0.00     0.044 H 
ATOM     13  H2  6XH d   1       4.024  -1.215   6.085  0.00  0.00     0.044 H 
ATOM     14  H21 6XH d   1       3.961  -0.320   1.860  0.00  0.00     0.072 H 
ATOM     15  H22 6XH d   1       4.122  -2.003   1.255  0.00  0.00     0.072 H 
ATOM     16  H23 6XH d   1       6.297  -1.395   4.795  0.00  0.00     0.065 H 
ATOM     17  H24 6XH d   1       5.158  -0.057   4.422  0.00  0.00     0.065 H 
ENDROOT
BRANCH   2  18
ATOM     18  N18 6XH d   1       0.948  -2.041   1.414  0.00  0.00    -0.337 N 
ATOM     19  H25 6XH d   1       1.070  -1.216   0.809  0.00  0.00     0.167 HD
BRANCH  18  20
ATOM     20  C19 6XH d   1       0.164  -3.130   0.965  0.00  0.00     0.072 A 
ATOM     21  C20 6XH d   1      -0.034  -4.298   1.703  0.00  0.00    -0.053 A 
ATOM     22  C21 6XH d   1      -0.808  -5.336   1.193  0.00  0.00    -0.070 A 
ATOM     23  H13 6XH d   1       0.419  -4.397   2.683  0.00  0.00     0.087 H 
ATOM     24  C22 6XH d   1      -1.418  -5.233  -0.062  0.00  0.00    -0.020 A 
ATOM     25  H14 6XH d   1      -0.941  -6.239   1.778  0.00  0.00     0.084 H 
ATOM     26  C23 6XH d   1      -1.217  -4.067  -0.799  0.00  0.00    -0.033 A 
ATOM     27  C24 6XH d   1      -0.442  -3.037  -0.284  0.00  0.00     0.143 A 
ATOM     28  H15 6XH d   1      -1.668  -3.964  -1.779  0.00  0.00     0.089 H 
ATOM     29  F25 6XH d   1      -0.258  -1.916  -1.007  0.00  0.00    -0.204 F 
BRANCH  24  30
ATOM     30  C26 6XH d   1      -2.244  -6.345  -0.637  0.00  0.00     0.011 A 
ATOM     31  C27 6XH d   1      -3.027  -6.283  -1.809  0.00  0.00     0.034 A 
ATOM     32  N28 6XH d   1      -3.593  -7.451  -2.006  0.00  0.00    -0.185 NA
ATOM     33  H16 6XH d   1      -3.143  -5.408  -2.447  0.00  0.00     0.118 H 
ATOM     34  N29 6XH d   1      -3.192  -8.314  -0.995  0.00  0.00    -0.285 N 
ATOM     35  C30 6XH d   1      -2.368  -7.626  -0.165  0.00  0.00     0.010 A 
ATOM     36  H17 6XH d   1      -1.886  -8.025   0.727  0.00  0.00     0.115 H 
BRANCH  34  37
ATOM     37  C31 6XH d   1      -3.622  -9.711  -0.890  0.00  0.00     0.002 C 
ATOM     38  H18 6XH d   1      -4.291  -9.953  -1.729  0.00  0.00     0.059 H 
ATOM     39  H19 6XH d   1      -4.156  -9.860   0.060  0.00  0.00     0.059 H 
ATOM     40  H20 6XH d   1      -2.741 -10.369  -0.922  0.00  0.00     0.059 H 
ENDBRANCH  34  37
ENDBRANCH  24  30
ENDBRANCH  18  20
ENDBRANCH   2  18
BRANCH   9  41
ATOM     41  C12 6XH d   1       1.407  -2.644   6.222  0.00  0.00     0.057 C 
ATOM     42  C14 6XH d   1       0.382  -1.603   6.746  0.00  0.00    -0.022 C 
ATOM     43  C15 6XH d   1      -0.835  -2.475   7.156  0.00  0.00     0.021 C 
ATOM     44  H7  6XH d   1       0.107  -0.889   5.956  0.00  0.00     0.039 H 
ATOM     45  H8  6XH d   1       0.784  -1.056   7.611  0.00  0.00     0.039 H 
ATOM     46  O16 6XH d   1      -0.735  -3.637   6.306  0.00  0.00    -0.389 OA
ATOM     47  H9  6XH d   1      -1.778  -1.939   6.976  0.00  0.00     0.074 H 
ATOM     48  H10 6XH d   1      -0.772  -2.760   8.217  0.00  0.00     0.074 H 
ATOM     49  C17 6XH d   1       0.658  -3.986   6.275  0.00  0.00     0.040 C 
ATOM     50  H11 6XH d   1       0.935  -4.548   7.179  0.00  0.00     0.077 H 
ATOM     51  H12 6XH d   1       0.885  -4.590   5.384  0.00  0.00     0.077 H 
ATOM     52  H6  6XH d   1       2.304  -2.667   6.859  0.00  0.00     0.079 H 
ENDBRANCH   9  41
BRANCH   3  53
ATOM     53  C1  6XH d   1       6.604  -2.431   0.995  0.00  0.00    -0.003 C 
ATOM     54  H3  6XH d   1       7.625  -2.796   0.806  0.00  0.00     0.040 H 
ATOM     55  H4  6XH d   1       6.400  -1.562   0.351  0.00  0.00     0.040 H 
ATOM     56  H5  6XH d   1       5.882  -3.230   0.772  0.00  0.00     0.040 H 
ENDBRANCH   3  53
TORSDOF 6
