REMARK  6 active torsions:
REMARK  status: ('A' for Active; 'I' for Inactive)
REMARK    1  A    between atoms: C9_2  and  N18_26 
REMARK    2  A    between atoms: C2_3  and  C1_5 
REMARK       I    between atoms: N4_29  and  C2_3 
REMARK    3  A    between atoms: N11_25  and  C12_6 
REMARK    4  A    between atoms: N18_26  and  C19_10 
REMARK    5  A    between atoms: C22_13  and  C26_16 
REMARK    6  A    between atoms: N29_28  and  C31_19 
ROOT
ATOM      1  C7  6XH d   1      -0.665 -17.393 -21.747  0.00  0.00     0.044 A 
ATOM      2  C9  6XH d   1      -0.370 -15.230 -22.083  0.00  0.00     0.158 A 
ATOM      3  C2  6XH d   1       2.033 -18.172 -19.040  0.00  0.00     0.216 C 
ATOM      4  C6  6XH d   1      -0.657 -18.771 -21.149  0.00  0.00    -0.009 C 
ATOM      5  C32 6XH d   1       0.556 -16.306 -19.821  0.00  0.00     0.027 C 
ATOM      6  C5  6XH d   1      -0.273 -18.660 -19.676  0.00  0.00     0.003 C 
ATOM      7  C8  6XH d   1      -0.129 -16.286 -21.178  0.00  0.00     0.032 A 
ATOM      8  N10 6XH d   1      -0.998 -15.675 -23.151  0.00  0.00    -0.153 NA
ATOM      9  N11 6XH d   1      -1.194 -17.035 -22.942  0.00  0.00    -0.264 N 
ATOM     10  N4  6XH d   1       0.836 -17.720 -19.496  0.00  0.00    -0.348 N 
ATOM     11  O3  6XH d   1       2.205 -19.370 -18.826  0.00  0.00    -0.274 OA
ATOM     12  H1  6XH d   1       0.075 -19.400 -21.677  0.00  0.00     0.044 H 
ATOM     13  H2  6XH d   1      -1.657 -19.220 -21.238  0.00  0.00     0.044 H 
ATOM     14  H21 6XH d   1      -0.104 -15.867 -19.058  0.00  0.00     0.072 H 
ATOM     15  H22 6XH d   1       1.496 -15.736 -19.864  0.00  0.00     0.072 H 
ATOM     16  H23 6XH d   1       0.031 -19.651 -19.307  0.00  0.00     0.065 H 
ATOM     17  H24 6XH d   1      -1.142 -18.306 -19.102  0.00  0.00     0.065 H 
ENDROOT
BRANCH   2  18
ATOM     18  N18 6XH d   1       0.021 -13.913 -21.886  0.00  0.00    -0.337 N 
ATOM     19  H25 6XH d   1       0.614 -13.724 -21.066  0.00  0.00     0.167 HD
BRANCH  18  20
ATOM     20  C19 6XH d   1      -0.312 -12.807 -22.696  0.00  0.00     0.072 A 
ATOM     21  C20 6XH d   1      -1.121 -12.857 -23.836  0.00  0.00    -0.053 A 
ATOM     22  C21 6XH d   1      -1.389 -11.697 -24.559  0.00  0.00    -0.070 A 
ATOM     23  H13 6XH d   1      -1.541 -13.803 -24.158  0.00  0.00     0.087 H 
ATOM     24  C22 6XH d   1      -0.863 -10.462 -24.169  0.00  0.00    -0.020 A 
ATOM     25  H14 6XH d   1      -2.017 -11.753 -25.441  0.00  0.00     0.084 H 
ATOM     26  C23 6XH d   1      -0.063 -10.409 -23.027  0.00  0.00    -0.033 A 
ATOM     27  C24 6XH d   1       0.192 -11.570 -22.321  0.00  0.00     0.143 A 
ATOM     28  H15 6XH d   1       0.355  -9.465 -22.696  0.00  0.00     0.089 H 
ATOM     29  F25 6XH d   1       0.965 -11.516 -21.214  0.00  0.00    -0.204 F 
BRANCH  24  30
ATOM     30  C26 6XH d   1      -1.162  -9.212 -24.927  0.00  0.00     0.011 A 
ATOM     31  C27 6XH d   1      -1.669  -9.137 -26.236  0.00  0.00     0.034 A 
ATOM     32  N28 6XH d   1      -1.803  -7.874 -26.541  0.00  0.00    -0.185 NA
ATOM     33  H16 6XH d   1      -1.908  -9.982 -26.881  0.00  0.00     0.118 H 
ATOM     34  N29 6XH d   1      -1.418  -7.080 -25.468  0.00  0.00    -0.285 N 
ATOM     35  C30 6XH d   1      -1.034  -7.918 -24.488  0.00  0.00     0.010 A 
ATOM     36  H17 6XH d   1      -0.678  -7.617 -23.503  0.00  0.00     0.115 H 
BRANCH  34  37
ATOM     37  C31 6XH d   1      -1.429  -5.619 -25.423  0.00  0.00     0.002 C 
ATOM     38  H18 6XH d   1      -1.797  -5.225 -26.382  0.00  0.00     0.059 H 
ATOM     39  H19 6XH d   1      -0.409  -5.250 -25.242  0.00  0.00     0.059 H 
ATOM     40  H20 6XH d   1      -2.090  -5.282 -24.611  0.00  0.00     0.059 H 
ENDBRANCH  34  37
ENDBRANCH  24  30
ENDBRANCH  18  20
ENDBRANCH   2  18
BRANCH   9  41
ATOM     41  C12 6XH d   1      -1.851 -17.897 -23.911  0.00  0.00     0.057 C 
ATOM     42  C14 6XH d   1      -3.170 -17.290 -24.424  0.00  0.00    -0.022 C 
ATOM     43  C15 6XH d   1      -3.241 -17.819 -25.882  0.00  0.00     0.021 C 
ATOM     44  H7  6XH d   1      -3.137 -16.191 -24.401  0.00  0.00     0.039 H 
ATOM     45  H8  6XH d   1      -4.027 -17.643 -23.831  0.00  0.00     0.039 H 
ATOM     46  O16 6XH d   1      -1.930 -18.357 -26.181  0.00  0.00    -0.389 OA
ATOM     47  H9  6XH d   1      -3.483 -16.999 -26.574  0.00  0.00     0.074 H 
ATOM     48  H10 6XH d   1      -4.004 -18.607 -25.965  0.00  0.00     0.074 H 
ATOM     49  C17 6XH d   1      -0.987 -17.976 -25.178  0.00  0.00     0.040 C 
ATOM     50  H11 6XH d   1      -0.195 -18.732 -25.071  0.00  0.00     0.077 H 
ATOM     51  H12 6XH d   1      -0.534 -17.001 -25.410  0.00  0.00     0.077 H 
ATOM     52  H6  6XH d   1      -2.019 -18.892 -23.472  0.00  0.00     0.079 H 
ENDBRANCH   9  41
BRANCH   3  53
ATOM     53  C1  6XH d   1       3.155 -17.184 -18.817  0.00  0.00    -0.003 C 
ATOM     54  H3  6XH d   1       4.045 -17.716 -18.450  0.00  0.00     0.040 H 
ATOM     55  H4  6XH d   1       2.842 -16.436 -18.074  0.00  0.00     0.040 H 
ATOM     56  H5  6XH d   1       3.394 -16.681 -19.765  0.00  0.00     0.040 H 
ENDBRANCH   3  53
TORSDOF 6
