REMARK  4 active torsions:
REMARK  status: ('A' for Active; 'I' for Inactive)
REMARK    1  A    between atoms: N1_1  and  S1_2 
REMARK    2  A    between atoms: S1_2  and  C1_5 
REMARK    3  A    between atoms: N2_8  and  C5_9 
REMARK       I    between atoms: N4_11  and  C3_12 
REMARK    4  A    between atoms: C3_12  and  C4_14 
ROOT
ATOM      1  C1  MZM d   1      34.893   9.583  19.621  0.00  0.00     0.235 A 
ATOM      2  S2  MZM d   1      35.997  10.870  19.161  0.00  0.00    -0.017 SA
ATOM      3  C2  MZM d   1      37.182   9.877  19.970  0.00  0.00     0.172 A 
ATOM      4  N2  MZM d   1      36.749   8.737  20.497  0.00  0.00    -0.250 N 
ATOM      5  N3  MZM d   1      35.379   8.516  20.303  0.00  0.00    -0.149 NA
ATOM      6  N4  MZM d   1      38.497  10.205  20.071  0.00  0.00    -0.306 N 
ATOM      7  C3  MZM d   1      38.935  11.430  20.354  0.00  0.00     0.219 C 
ATOM      8  O3  MZM d   1      38.330  12.444  20.034  0.00  0.00    -0.274 OA
ATOM      9  H6  MZM d   1      39.175   9.485  19.924  0.00  0.00     0.171 HD
ENDROOT
BRANCH   4  10
ATOM     10  C5  MZM d   1      37.450   7.668  21.233  0.00  0.00     0.005 C 
ATOM     11  H3  MZM d   1      36.733   6.880  21.506  0.00  0.00     0.059 H 
ATOM     12  H4  MZM d   1      37.901   8.086  22.145  0.00  0.00     0.059 H 
ATOM     13  H5  MZM d   1      38.239   7.241  20.596  0.00  0.00     0.059 H 
ENDBRANCH   4  10
BRANCH   1  14
ATOM     14  S1  MZM d   1      33.279   9.611  19.249  0.00  0.00     0.282 S 
ATOM     15  O1  MZM d   1      32.500   9.386  20.419  0.00  0.00    -0.199 OA
ATOM     16  O2  MZM d   1      32.932  10.893  18.701  0.00  0.00    -0.199 OA
BRANCH  14  17
ATOM     17  N1  MZM d   1      33.039   8.423  18.177  0.00  0.00    -0.323 N 
ATOM     18  H1  MZM d   1      33.240   7.476  18.427  0.00  0.00     0.169 HD
ATOM     19  H2  MZM d   1      32.689   8.636  17.265  0.00  0.00     0.169 HD
ENDBRANCH  14  17
ENDBRANCH   1  14
BRANCH   7  20
ATOM     20  C4  MZM d   1      40.247  11.476  21.084  0.00  0.00    -0.002 C 
ATOM     21  H7  MZM d   1      40.525  12.523  21.273  0.00  0.00     0.040 H 
ATOM     22  H8  MZM d   1      41.024  10.995  20.472  0.00  0.00     0.040 H 
ATOM     23  H9  MZM d   1      40.153  10.944  22.042  0.00  0.00     0.040 H 
ENDBRANCH   7  20
TORSDOF 4
