REMARK  14 active torsions:
REMARK  status: ('A' for Active; 'I' for Inactive)
REMARK    1  A    between atoms: C2_2  and  C1_1 
REMARK       I    between atoms: C1_1  and  N_39 
REMARK    2  A    between atoms: C3_3  and  C2_2 
REMARK    3  A    between atoms: C3_3  and  N1_37 
REMARK    4  A    between atoms: C4_41  and  C3_3 
REMARK    5  A    between atoms: C11_8  and  C12_9 
REMARK       I    between atoms: N1_37  and  C11_8 
REMARK    6  A    between atoms: C12_9  and  N2_35 
REMARK    7  A    between atoms: C21_16  and  N3_31 
REMARK    8  A    between atoms: C24_18  and  C25_27 
REMARK    9  A    between atoms: C23_29  and  C24_18 
REMARK   10  A    between atoms: C26_26  and  C27_19 
REMARK   11  A    between atoms: C25_27  and  C26_26 
REMARK   12  A    between atoms: C25_27  and  N4_28 
REMARK       I    between atoms: N3_31  and  C23_29 
REMARK   13  A    between atoms: N_39  and  C_40 
REMARK   14  A    between atoms: C4_41  and  C5_42 
ROOT
ATOM      1  C13 6XJ d   1      -5.600  -7.783  26.171  0.00  0.00     0.044 A 
ATOM      2  C14 6XJ d   1      -5.406  -8.487  24.980  0.00  0.00    -0.056 A 
ATOM      3  C15 6XJ d   1      -5.777  -9.822  24.901  0.00  0.00    -0.081 A 
ATOM      4  C16 6XJ d   1      -6.339 -10.451  25.987  0.00  0.00    -0.082 A 
ATOM      5  C19 6XJ d   1      -6.374  -7.752  28.631  0.00  0.00    -0.037 C 
ATOM      6  C20 6XJ d   1      -5.051  -7.402  29.344  0.00  0.00    -0.034 C 
ATOM      7  C21 6XJ d   1      -3.933  -7.034  28.359  0.00  0.00     0.090 C 
ATOM      8  C22 6XJ d   1      -4.452  -5.954  27.356  0.00  0.00     0.247 C 
ATOM      9  C18 6XJ d   1      -6.176  -8.414  27.285  0.00  0.00    -0.031 A 
ATOM     10  C17 6XJ d   1      -6.541  -9.755  27.169  0.00  0.00    -0.075 A 
ATOM     11  O2  6XJ d   1      -4.282  -4.765  27.539  0.00  0.00    -0.271 OA
ATOM     12  N2  6XJ d   1      -5.126  -6.433  26.268  0.00  0.00    -0.307 N 
ATOM     13  H8  6XJ d   1      -4.967  -7.992  24.121  0.00  0.00     0.086 H 
ATOM     14  H9  6XJ d   1      -5.623 -10.371  23.979  0.00  0.00     0.083 H 
ATOM     15  H10 6XJ d   1      -6.625 -11.494  25.919  0.00  0.00     0.083 H 
ATOM     16  H11 6XJ d   1      -6.946  -6.824  28.482  0.00  0.00     0.040 H 
ATOM     17  H12 6XJ d   1      -6.946  -8.436  29.275  0.00  0.00     0.040 H 
ATOM     18  H13 6XJ d   1      -4.728  -8.271  29.936  0.00  0.00     0.037 H 
ATOM     19  H14 6XJ d   1      -5.226  -6.547  30.014  0.00  0.00     0.037 H 
ATOM     20  H15 6XJ d   1      -3.690  -7.941  27.787  0.00  0.00     0.087 H 
ATOM     21  H29 6XJ d   1      -6.990 -10.261  28.016  0.00  0.00     0.084 H 
ENDROOT
BRANCH  12  22
ATOM     22  C12 6XJ d   1      -5.395  -5.511  25.172  0.00  0.00     0.076 C 
ATOM     23  H6  6XJ d   1      -6.245  -5.921  24.607  0.00  0.00     0.079 H 
ATOM     24  H7  6XJ d   1      -5.684  -4.550  25.623  0.00  0.00     0.079 H 
BRANCH  22  25
ATOM     25  C11 6XJ d   1      -4.295  -5.218  24.169  0.00  0.00     0.236 C 
ATOM     26  O1  6XJ d   1      -4.573  -4.666  23.109  0.00  0.00    -0.272 OA
ATOM     27  N1  6XJ d   1      -3.043  -5.558  24.510  0.00  0.00    -0.354 N 
ATOM     28  H30 6XJ d   1      -2.885  -5.923  25.427  0.00  0.00     0.162 HD
BRANCH  27  29
ATOM     29  C3  6XJ d   1      -1.895  -5.422  23.609  0.00  0.00     0.024 C 
ATOM     30  H3  6XJ d   1      -2.225  -5.625  22.580  0.00  0.00     0.073 H 
BRANCH  29  31
ATOM     31  C2  6XJ d   1      -1.376  -3.980  23.700  0.00  0.00     0.028 C 
ATOM     32  H1  6XJ d   1      -2.235  -3.296  23.766  0.00  0.00     0.050 H 
ATOM     33  H2  6XJ d   1      -0.758  -3.880  24.604  0.00  0.00     0.050 H 
BRANCH  31  34
ATOM     34  C1  6XJ d   1      -0.544  -3.607  22.495  0.00  0.00     0.219 C 
ATOM     35  O   6XJ d   1      -0.937  -3.823  21.349  0.00  0.00    -0.274 OA
ATOM     36  N   6XJ d   1       0.613  -3.015  22.757  0.00  0.00    -0.365 N 
ATOM     37  H31 6XJ d   1       0.905  -2.929  23.710  0.00  0.00     0.161 HD
BRANCH  36  38
ATOM     38  C   6XJ d   1       1.474  -2.486  21.711  0.00  0.00    -0.018 C 
ATOM     39  H32 6XJ d   1       2.373  -2.044  22.165  0.00  0.00     0.056 H 
ATOM     40  H33 6XJ d   1       0.932  -1.714  21.145  0.00  0.00     0.056 H 
ATOM     41  H34 6XJ d   1       1.768  -3.300  21.032  0.00  0.00     0.056 H 
ENDBRANCH  36  38
ENDBRANCH  31  34
ENDBRANCH  29  31
BRANCH  29  42
ATOM     42  C4  6XJ d   1      -0.762  -6.406  23.965  0.00  0.00    -0.022 C 
ATOM     43  H35 6XJ d   1      -0.527  -6.284  25.032  0.00  0.00     0.043 H 
ATOM     44  H36 6XJ d   1       0.120  -6.143  23.363  0.00  0.00     0.043 H 
BRANCH  42  45
ATOM     45  C5  6XJ d   1      -1.081  -7.863  23.719  0.00  0.00    -0.054 A 
ATOM     46  C10 6XJ d   1      -0.716  -8.465  22.517  0.00  0.00    -0.054 A 
ATOM     47  C9  6XJ d   1      -1.126  -9.756  22.226  0.00  0.00     0.056 A 
ATOM     48  H5  6XJ d   1      -0.107  -7.920  21.805  0.00  0.00     0.086 H 
ATOM     49  C8  6XJ d   1      -1.850 -10.487  23.146  0.00  0.00     0.055 A 
ATOM     50 CL   6XJ d   1      -0.813 -10.409  20.650  0.00  0.00    -0.083 Cl
ATOM     51  C7  6XJ d   1      -2.181  -9.917  24.368  0.00  0.00    -0.060 A 
ATOM     52 CL1  6XJ d   1      -2.404 -12.085  22.753  0.00  0.00    -0.083 Cl
ATOM     53  C6  6XJ d   1      -1.801  -8.610  24.645  0.00  0.00    -0.075 A 
ATOM     54  H4  6XJ d   1      -2.734 -10.490  25.103  0.00  0.00     0.086 H 
ATOM     55  H37 6XJ d   1      -2.070  -8.166  25.597  0.00  0.00     0.084 H 
ENDBRANCH  42  45
ENDBRANCH  29  42
ENDBRANCH  27  29
ENDBRANCH  22  25
ENDBRANCH  12  22
BRANCH   7  56
ATOM     56  N3  6XJ d   1      -2.699  -6.583  28.996  0.00  0.00    -0.348 N 
ATOM     57  C23 6XJ d   1      -1.629  -6.253  28.260  0.00  0.00     0.220 C 
ATOM     58  O3  6XJ d   1      -1.621  -6.342  27.039  0.00  0.00    -0.274 OA
ATOM     59  H28 6XJ d   1      -2.652  -6.520  29.993  0.00  0.00     0.163 HD
BRANCH  57  60
ATOM     60  C24 6XJ d   1      -0.395  -5.798  29.006  0.00  0.00     0.036 C 
ATOM     61  H16 6XJ d   1      -0.271  -4.714  28.868  0.00  0.00     0.050 H 
ATOM     62  H17 6XJ d   1      -0.520  -6.020  30.076  0.00  0.00     0.050 H 
BRANCH  60  63
ATOM     63  C25 6XJ d   1       0.858  -6.516  28.488  0.00  0.00     0.112 C 
ATOM     64  H24 6XJ d   1       0.630  -6.838  27.461  0.00  0.00     0.085 H 
BRANCH  63  65
ATOM     65  C26 6XJ d   1       1.167  -7.790  29.290  0.00  0.00    -0.014 C 
ATOM     66  H22 6XJ d   1       2.041  -8.285  28.843  0.00  0.00     0.043 H 
ATOM     67  H23 6XJ d   1       1.397  -7.507  30.328  0.00  0.00     0.043 H 
BRANCH  65  68
ATOM     68  C27 6XJ d   1       0.014  -8.759  29.298  0.00  0.00    -0.056 A 
ATOM     69  C32 6XJ d   1      -0.767  -8.923  30.436  0.00  0.00    -0.075 A 
ATOM     70  C31 6XJ d   1      -1.892  -9.734  30.421  0.00  0.00    -0.066 A 
ATOM     71  H19 6XJ d   1      -0.492  -8.409  31.350  0.00  0.00     0.084 H 
ATOM     72  C30 6XJ d   1      -2.244 -10.369  29.243  0.00  0.00     0.011 A 
ATOM     73  H18 6XJ d   1      -2.486  -9.868  31.318  0.00  0.00     0.085 H 
ATOM     74 BR   6XJ d   1      -3.826 -11.411  29.183  0.00  0.00    -0.051 Br
ATOM     75  C29 6XJ d   1      -1.487 -10.229  28.099  0.00  0.00    -0.066 A 
ATOM     76  C28 6XJ d   1      -0.355  -9.432  28.137  0.00  0.00    -0.075 A 
ATOM     77  H20 6XJ d   1      -1.774 -10.735  27.184  0.00  0.00     0.085 H 
ATOM     78  H21 6XJ d   1       0.255  -9.331  27.246  0.00  0.00     0.084 H 
ENDBRANCH  65  68
ENDBRANCH  63  65
BRANCH  63  79
ATOM     79  N4  6XJ d   1       2.024  -5.632  28.396  0.00  0.00    -0.074 N 
ATOM     80  H25 6XJ d   1       1.782  -4.811  27.864  0.00  0.00     0.274 HD
ATOM     81  H26 6XJ d   1       2.779  -6.118  27.938  0.00  0.00     0.274 HD
ATOM     82  H27 6XJ d   1       2.313  -5.359  29.322  0.00  0.00     0.274 HD
ENDBRANCH  63  79
ENDBRANCH  60  63
ENDBRANCH  57  60
ENDBRANCH   7  56
TORSDOF 14
