REMARK  11 active torsions:
REMARK  status: ('A' for Active; 'I' for Inactive)
REMARK    1  A    between atoms: C2_11  and  C4_1 
REMARK    2  A    between atoms: C5_3  and  C2_11 
REMARK    3  A    between atoms: C2_11  and  C3_9 
REMARK    4  A    between atoms: C2_11  and  C1_10 
REMARK    5  A    between atoms: N10_13  and  C17_17 
REMARK    6  A    between atoms: C18_18  and  C38_38 
REMARK    7  A    between atoms: C19_19  and  C23_23 
REMARK    8  A    between atoms: C25_25  and  N31_31 
REMARK    9  A    between atoms: N28_28  and  C30_30 
REMARK   10  A    between atoms: N31_31  and  C32_32 
REMARK   11  A    between atoms: C38_38  and  O39_39 
ROOT
ATOM      1  C17 6XL d   1     -40.560  27.789  -7.762  0.00  0.00     0.163 A 
ATOM      2  C18 6XL d   1     -39.193  27.788  -8.039  0.00  0.00     0.024 A 
ATOM      3  C19 6XL d   1     -38.766  28.138  -9.328  0.00  0.00    -0.015 A 
ATOM      4  C20 6XL d   1     -39.772  28.481 -10.242  0.00  0.00    -0.055 A 
ATOM      5  C21 6XL d   1     -41.109  28.450  -9.877  0.00  0.00     0.005 A 
ATOM      6  N22 6XL d   1     -41.468  28.100  -8.658  0.00  0.00    -0.241 NA
ATOM      7  H13 6XL d   1     -39.500  28.775 -11.249  0.00  0.00     0.087 H 
ATOM      8  H14 6XL d   1     -41.868  28.717 -10.603  0.00  0.00     0.114 H 
ENDROOT
BRANCH   1   9
ATOM      9  N10 6XL d   1     -40.930  27.424  -6.466  0.00  0.00    -0.178 N 
ATOM     10  C11 6XL d   1     -40.985  28.331  -5.465  0.00  0.00     0.284 A 
ATOM     11  C13 6XL d   1     -41.297  27.844  -4.115  0.00  0.00     0.084 A 
ATOM     12  O12 6XL d   1     -40.715  29.521  -5.669  0.00  0.00    -0.265 OA
ATOM     13  C14 6XL d   1     -41.243  28.623  -2.954  0.00  0.00     0.133 A 
ATOM     14  C7  6XL d   1     -41.556  26.469  -3.971  0.00  0.00     0.002 A 
ATOM     15  C15 6XL d   1     -41.497  28.083  -1.702  0.00  0.00    -0.038 A 
ATOM     16  F16 6XL d   1     -40.957  29.938  -3.041  0.00  0.00    -0.205 F 
ATOM     17  C5  6XL d   1     -41.768  26.725  -1.577  0.00  0.00    -0.047 A 
ATOM     18  H12 6XL d   1     -41.484  28.718  -0.823  0.00  0.00     0.089 H 
ATOM     19  C6  6XL d   1     -41.798  25.930  -2.701  0.00  0.00    -0.064 A 
ATOM     20  H4  6XL d   1     -42.012  24.872  -2.602  0.00  0.00     0.085 H 
ATOM     21  C8  6XL d   1     -41.563  25.608  -5.140  0.00  0.00     0.033 A 
ATOM     22  N9  6XL d   1     -41.242  26.080  -6.294  0.00  0.00    -0.174 NA
ATOM     23  H5  6XL d   1     -41.841  24.560  -5.040  0.00  0.00     0.118 H 
BRANCH  17  24
ATOM     24  C2  6XL d   1     -42.045  26.090  -0.234  0.00  0.00    -0.024 C 
BRANCH  24  25
ATOM     25  C4  6XL d   1     -42.091  27.158   0.855  0.00  0.00    -0.066 C 
ATOM     26  H1  6XL d   1     -42.293  26.683   1.826  0.00  0.00     0.028 H 
ATOM     27  H2  6XL d   1     -42.889  27.880   0.627  0.00  0.00     0.028 H 
ATOM     28  H3  6XL d   1     -41.124  27.681   0.897  0.00  0.00     0.028 H 
ENDBRANCH  24  25
BRANCH  24  29
ATOM     29  C3  6XL d   1     -43.380  25.336  -0.246  0.00  0.00    -0.066 C 
ATOM     30  H6  6XL d   1     -43.358  24.563  -1.028  0.00  0.00     0.028 H 
ATOM     31  H7  6XL d   1     -44.198  26.042  -0.452  0.00  0.00     0.028 H 
ATOM     32  H8  6XL d   1     -43.542  24.862   0.733  0.00  0.00     0.028 H 
ENDBRANCH  24  29
BRANCH  24  33
ATOM     33  C1  6XL d   1     -40.921  25.091   0.071  0.00  0.00    -0.066 C 
ATOM     34  H9  6XL d   1     -39.956  25.618   0.083  0.00  0.00     0.028 H 
ATOM     35  H10 6XL d   1     -40.903  24.311  -0.704  0.00  0.00     0.028 H 
ATOM     36  H11 6XL d   1     -41.098  24.628   1.053  0.00  0.00     0.028 H 
ENDBRANCH  24  33
ENDBRANCH  17  24
ENDBRANCH   1   9
BRANCH   2  37
ATOM     37  C38 6XL d   1     -38.215  27.331  -6.983  0.00  0.00     0.045 C 
ATOM     38  H26 6XL d   1     -37.329  26.920  -7.490  0.00  0.00     0.081 H 
ATOM     39  H27 6XL d   1     -38.696  26.541  -6.388  0.00  0.00     0.081 H 
BRANCH  37  40
ATOM     40  O39 6XL d   1     -37.785  28.351  -6.098  0.00  0.00    -0.396 OA
ATOM     41  H28 6XL d   1     -37.175  27.985  -5.468  0.00  0.00     0.209 HD
ENDBRANCH  37  40
ENDBRANCH   2  37
BRANCH   3  42
ATOM     42  C23 6XL d   1     -37.342  28.217  -9.777  0.00  0.00    -0.031 A 
ATOM     43  C24 6XL d   1     -36.911  27.700 -11.021  0.00  0.00    -0.064 A 
ATOM     44  C25 6XL d   1     -35.588  27.850 -11.398  0.00  0.00     0.105 A 
ATOM     45  H15 6XL d   1     -37.614  27.188 -11.676  0.00  0.00     0.081 H 
ATOM     46  C26 6XL d   1     -34.673  28.510 -10.550  0.00  0.00     0.246 A 
ATOM     47  H16 6XL d   1     -35.854  28.796 -11.893  0.00  0.00     0.094 H 
ATOM     48  O27 6XL d   1     -33.499  28.643 -10.890  0.00  0.00    -0.271 OA
ATOM     49  N28 6XL d   1     -35.102  28.985  -9.378  0.00  0.00    -0.350 N 
ATOM     50  C29 6XL d   1     -36.401  28.855  -9.004  0.00  0.00     0.021 A 
ATOM     51  H17 6XL d   1     -36.388  28.322  -8.042  0.00  0.00     0.071 H 
ATOM     52  H18 6XL d   1     -36.776  29.878  -8.852  0.00  0.00     0.071 H 
BRANCH  44  53
ATOM     53  N31 6XL d   1     -35.019  27.371 -12.597  0.00  0.00    -0.358 N 
ATOM     54  H22 6XL d   1     -33.990  27.326 -12.627  0.00  0.00     0.162 HD
BRANCH  53  55
ATOM     55  C32 6XL d   1     -35.683  26.956 -13.735  0.00  0.00     0.127 A 
ATOM     56  C33 6XL d   1     -34.911  26.649 -14.853  0.00  0.00    -0.022 A 
ATOM     57  C34 6XL d   1     -35.563  26.228 -15.991  0.00  0.00     0.007 A 
ATOM     58  H23 6XL d   1     -33.831  26.739 -14.828  0.00  0.00     0.091 H 
ATOM     59  N35 6XL d   1     -36.891  26.147 -15.991  0.00  0.00    -0.254 NA
ATOM     60  H24 6XL d   1     -34.999  25.965 -16.879  0.00  0.00     0.115 H 
ATOM     61  C36 6XL d   1     -37.589  26.449 -14.918  0.00  0.00     0.088 A 
ATOM     62  N37 6XL d   1     -37.003  26.841 -13.802  0.00  0.00    -0.225 NA
ATOM     63  H25 6XL d   1     -38.670  26.374 -14.951  0.00  0.00     0.146 H 
ENDBRANCH  53  55
ENDBRANCH  44  53
BRANCH  49  64
ATOM     64  C30 6XL d   1     -34.130  29.643  -8.495  0.00  0.00    -0.016 C 
ATOM     65  H19 6XL d   1     -33.141  29.647  -8.977  0.00  0.00     0.056 H 
ATOM     66  H20 6XL d   1     -34.072  29.096  -7.542  0.00  0.00     0.056 H 
ATOM     67  H21 6XL d   1     -34.449  30.678  -8.305  0.00  0.00     0.056 H 
ENDBRANCH  49  64
ENDBRANCH   3  42
TORSDOF 11
