REMARK  16 active torsions:
REMARK  status: ('A' for Active; 'I' for Inactive)
REMARK    1  A    between atoms: C7_2  and  C4_8 
REMARK    2  A    between atoms: C5_7  and  C6_4 
REMARK    3  A    between atoms: N1_6  and  C18_33 
REMARK    4  A    between atoms: C4_8  and  C5_7 
REMARK    5  A    between atoms: C4_8  and  C3_9 
REMARK       I    between atoms: C24_12  and  N2_13 
REMARK    6  A    between atoms: C23_26  and  C24_12 
REMARK    7  A    between atoms: N2_13  and  C31_14 
REMARK    8  A    between atoms: N2_13  and  C25_19 
REMARK    9  A    between atoms: C31_14  and  C32_15 
REMARK   10  A    between atoms: C32_15  and  C35_16 
REMARK   11  A    between atoms: C32_15  and  C34_17 
REMARK   12  A    between atoms: C32_15  and  C33_18 
REMARK   13  A    between atoms: C29_21  and  C30_22 
REMARK   14  A    between atoms: C20_29  and  O4_30 
REMARK   15  A    between atoms: O4_30  and  C36_31 
REMARK   16  A    between atoms: C14_39  and  C15_38 
ROOT
ATOM      1  C23 6XQ d   1      18.363  32.289  34.641  0.00  0.00     0.059 A 
ATOM      2  C22 6XQ d   1      18.441  32.423  36.024  0.00  0.00    -0.063 A 
ATOM      3  C21 6XQ d   1      19.406  31.751  36.749  0.00  0.00    -0.050 A 
ATOM      4  C20 6XQ d   1      20.311  30.934  36.097  0.00  0.00     0.070 A 
ATOM      5  C19 6XQ d   1      20.265  30.774  34.718  0.00  0.00    -0.024 A 
ATOM      6  C18 6XQ d   1      19.285  31.448  33.988  0.00  0.00     0.048 A 
ATOM      7  H26 6XQ d   1      17.735  33.064  36.540  0.00  0.00     0.085 H 
ATOM      8  H27 6XQ d   1      19.453  31.864  37.826  0.00  0.00     0.087 H 
ATOM      9  H31 6XQ d   1      20.981  30.134  34.215  0.00  0.00     0.091 H 
ENDROOT
BRANCH   6  10
ATOM     10  N1  6XQ d   1      19.189  31.337  32.579  0.00  0.00    -0.380 N 
ATOM     11  C17 6XQ d   1      18.069  30.581  32.018  0.00  0.00    -0.004 C 
ATOM     12  C16 6XQ d   1      17.844  30.950  30.553  0.00  0.00    -0.041 C 
ATOM     13  H32 6XQ d   1      17.158  30.808  32.591  0.00  0.00     0.064 H 
ATOM     14  H33 6XQ d   1      18.288  29.506  32.089  0.00  0.00     0.064 H 
ATOM     15  C15 6XQ d   1      19.119  30.697  29.739  0.00  0.00    -0.004 C 
ATOM     16  H34 6XQ d   1      17.575  32.014  30.484  0.00  0.00     0.036 H 
ATOM     17  H35 6XQ d   1      17.026  30.337  30.146  0.00  0.00     0.036 H 
ATOM     18  C38 6XQ d   1      20.307  31.417  30.389  0.00  0.00    -0.041 C 
ATOM     19  H40 6XQ d   1      19.328  29.618  29.779  0.00  0.00     0.050 H 
ATOM     20  C37 6XQ d   1      20.425  31.038  31.859  0.00  0.00    -0.004 C 
ATOM     21  H38 6XQ d   1      21.232  31.132  29.867  0.00  0.00     0.036 H 
ATOM     22  H39 6XQ d   1      20.160  32.504  30.307  0.00  0.00     0.036 H 
ATOM     23  H36 6XQ d   1      20.635  29.961  31.937  0.00  0.00     0.064 H 
ATOM     24  H37 6XQ d   1      21.251  31.606  32.312  0.00  0.00     0.064 H 
BRANCH  15  25
ATOM     25  C14 6XQ d   1      18.949  31.050  28.314  0.00  0.00     0.059 A 
ATOM     26  O5  6XQ d   1      20.135  31.012  27.597  0.00  0.00    -0.314 OA
ATOM     27  C9  6XQ d   1      19.812  31.383  26.311  0.00  0.00     0.086 A 
ATOM     28  C8  6XQ d   1      20.693  31.477  25.255  0.00  0.00    -0.043 A 
ATOM     29  C10 6XQ d   1      18.456  31.651  26.218  0.00  0.00     0.000 A 
ATOM     30  C7  6XQ d   1      20.187  31.865  24.014  0.00  0.00    -0.050 A 
ATOM     31  H41 6XQ d   1      21.746  31.256  25.385  0.00  0.00     0.088 H 
ATOM     32  C12 6XQ d   1      18.821  32.144  23.889  0.00  0.00    -0.075 A 
ATOM     33  C11 6XQ d   1      17.964  32.040  24.973  0.00  0.00    -0.070 A 
ATOM     34  H44 6XQ d   1      18.426  32.447  22.926  0.00  0.00     0.084 H 
ATOM     35  H43 6XQ d   1      16.910  32.261  24.853  0.00  0.00     0.085 H 
ATOM     36  C13 6XQ d   1      17.923  31.430  27.539  0.00  0.00    -0.041 A 
ATOM     37  H42 6XQ d   1      16.886  31.549  27.848  0.00  0.00     0.088 H 
BRANCH  30  38
ATOM     38  C4  6XQ d   1      21.129  31.981  22.831  0.00  0.00    -0.016 C 
ATOM     39  H5  6XQ d   1      22.021  32.512  23.194  0.00  0.00     0.048 H 
BRANCH  38  40
ATOM     40  C5  6XQ d   1      21.592  30.610  22.318  0.00  0.00     0.023 C 
ATOM     41  H3  6XQ d   1      21.628  29.901  23.158  0.00  0.00     0.050 H 
ATOM     42  H4  6XQ d   1      20.881  30.246  21.561  0.00  0.00     0.050 H 
BRANCH  40  43
ATOM     43  C6  6XQ d   1      22.961  30.723  21.702  0.00  0.00     0.173 C 
ATOM     44  O1  6XQ d   1      22.950  30.662  20.394  0.00  0.00    -0.648 OA
ATOM     45  O2  6XQ d   1      23.974  30.872  22.356  0.00  0.00    -0.648 OA
ENDBRANCH  40  43
ENDBRANCH  38  40
BRANCH  38  46
ATOM     46  C3  6XQ d   1      20.558  32.809  21.657  0.00  0.00    -0.046 A 
ATOM     47  C1  6XQ d   1      21.521  33.640  20.865  0.00  0.00    -0.061 A 
ATOM     48  C2  6XQ d   1      20.555  34.301  21.792  0.00  0.00    -0.061 A 
ATOM     49  H1  6XQ d   1      21.395  33.740  19.777  0.00  0.00     0.033 H 
ATOM     50  H2  6XQ d   1      22.593  33.622  21.110  0.00  0.00     0.033 H 
ATOM     51  H7  6XQ d   1      19.718  34.888  21.386  0.00  0.00     0.033 H 
ATOM     52  H8  6XQ d   1      20.916  34.770  22.719  0.00  0.00     0.033 H 
ATOM     53  H6  6XQ d   1      19.726  32.279  21.170  0.00  0.00     0.041 H 
ENDBRANCH  38  46
ENDBRANCH  30  38
ENDBRANCH  15  25
ENDBRANCH   6  10
BRANCH   1  54
ATOM     54  C24 6XQ d   1      17.285  33.065  33.936  0.00  0.00     0.261 C 
ATOM     55  O3  6XQ d   1      16.173  32.589  33.818  0.00  0.00    -0.267 OA
ATOM     56  N2  6XQ d   1      17.578  34.318  33.479  0.00  0.00    -0.297 N 
BRANCH  56  57
ATOM     57  C31 6XQ d   1      16.904  35.476  34.083  0.00  0.00     0.010 C 
ATOM     58  H9  6XQ d   1      17.680  36.142  34.489  0.00  0.00     0.066 H 
ATOM     59  H10 6XQ d   1      16.272  35.106  34.904  0.00  0.00     0.066 H 
BRANCH  57  60
ATOM     60  C32 6XQ d   1      16.012  36.312  33.141  0.00  0.00    -0.035 C 
BRANCH  60  61
ATOM     61  C35 6XQ d   1      14.905  36.964  33.962  0.00  0.00    -0.068 C 
ATOM     62  H11 6XQ d   1      14.262  37.563  33.300  0.00  0.00     0.028 H 
ATOM     63  H12 6XQ d   1      15.351  37.615  34.728  0.00  0.00     0.028 H 
ATOM     64  H13 6XQ d   1      14.303  36.184  34.450  0.00  0.00     0.028 H 
ENDBRANCH  60  61
BRANCH  60  65
ATOM     65  C34 6XQ d   1      16.856  37.400  32.484  0.00  0.00    -0.068 C 
ATOM     66  H14 6XQ d   1      17.657  36.935  31.890  0.00  0.00     0.028 H 
ATOM     67  H15 6XQ d   1      17.300  38.039  33.261  0.00  0.00     0.028 H 
ATOM     68  H16 6XQ d   1      16.220  38.011  31.827  0.00  0.00     0.028 H 
ENDBRANCH  60  65
BRANCH  60  69
ATOM     69  C33 6XQ d   1      15.374  35.451  32.051  0.00  0.00    -0.068 C 
ATOM     70  H17 6XQ d   1      14.763  34.663  32.517  0.00  0.00     0.028 H 
ATOM     71  H18 6XQ d   1      16.163  34.989  31.439  0.00  0.00     0.028 H 
ATOM     72  H19 6XQ d   1      14.736  36.080  31.413  0.00  0.00     0.028 H 
ENDBRANCH  60  69
ENDBRANCH  57  60
ENDBRANCH  56  57
BRANCH  56  73
ATOM     73  C25 6XQ d   1      18.789  34.523  32.779  0.00  0.00     0.132 A 
ATOM     74  N3  6XQ d   1      18.619  34.590  31.450  0.00  0.00    -0.236 NA
ATOM     75  C29 6XQ d   1      19.711  34.792  30.687  0.00  0.00     0.033 A 
ATOM     76  C28 6XQ d   1      20.986  34.924  31.245  0.00  0.00    -0.059 A 
ATOM     77  C27 6XQ d   1      21.133  34.853  32.619  0.00  0.00    -0.077 A 
ATOM     78  H23 6XQ d   1      21.849  35.080  30.609  0.00  0.00     0.086 H 
ATOM     79  C26 6XQ d   1      20.022  34.655  33.419  0.00  0.00    -0.038 A 
ATOM     80  H24 6XQ d   1      22.115  34.952  33.067  0.00  0.00     0.083 H 
ATOM     81  H25 6XQ d   1      20.106  34.605  34.499  0.00  0.00     0.089 H 
BRANCH  75  82
ATOM     82  C30 6XQ d   1      19.491  34.860  29.205  0.00  0.00    -0.035 C 
ATOM     83  H20 6XQ d   1      20.453  35.027  28.699  0.00  0.00     0.035 H 
ATOM     84  H21 6XQ d   1      18.806  35.689  28.974  0.00  0.00     0.035 H 
ATOM     85  H22 6XQ d   1      19.052  33.914  28.856  0.00  0.00     0.035 H 
ENDBRANCH  75  82
ENDBRANCH  56  73
ENDBRANCH   1  54
BRANCH   4  86
ATOM     86  O4  6XQ d   1      21.184  30.354  36.979  0.00  0.00    -0.356 OA
BRANCH  86  87
ATOM     87  C36 6XQ d   1      22.184  29.481  36.469  0.00  0.00     0.010 C 
ATOM     88  H28 6XQ d   1      22.798  29.102  37.299  0.00  0.00     0.066 H 
ATOM     89  H29 6XQ d   1      22.823  30.029  35.761  0.00  0.00     0.066 H 
ATOM     90  H30 6XQ d   1      21.705  28.637  35.952  0.00  0.00     0.066 H 
ENDBRANCH  86  87
ENDBRANCH   4  86
TORSDOF 16
