REMARK  9 active torsions:
REMARK  status: ('A' for Active; 'I' for Inactive)
REMARK    1  A    between atoms: C12_17  and  C13_2 
REMARK    2  A    between atoms: C13_2  and  S14_18 
REMARK    3  A    between atoms: S14_18  and  C17_3 
REMARK    4  A    between atoms: C18_21  and  C02_8 
REMARK    5  A    between atoms: N03_9  and  C11_16 
REMARK    6  A    between atoms: C11_16  and  C12_17 
REMARK    7  A    between atoms: C18_21  and  N19_22 
REMARK    8  A    between atoms: N22_24  and  C29_29 
REMARK    9  A    between atoms: C29_29  and  C30_30 
ROOT
ATOM      1  C10 6YA d   1      22.100  16.748  22.515  0.00  0.00    -0.055 A 
ATOM      2  C01 6YA d   1      21.629  20.371  22.255  0.00  0.00    -0.047 A 
ATOM      3  C02 6YA d   1      20.571  19.936  21.439  0.00  0.00     0.031 A 
ATOM      4  N03 6YA d   1      20.602  18.561  21.404  0.00  0.00    -0.348 N 
ATOM      5  C04 6YA d   1      21.657  18.078  22.206  0.00  0.00     0.045 A 
ATOM      6  C05 6YA d   1      22.331  19.180  22.760  0.00  0.00    -0.006 A 
ATOM      7  C06 6YA d   1      23.459  18.982  23.620  0.00  0.00    -0.050 A 
ATOM      8  C07 6YA d   1      23.899  17.654  23.916  0.00  0.00     0.035 A 
ATOM      9 CL8  6YA d   1      25.265  17.381  24.957  0.00  0.00    -0.084 Cl
ATOM     10  C09 6YA d   1      23.220  16.554  23.363  0.00  0.00    -0.060 A 
ATOM     11  H1  6YA d   1      21.579  15.893  22.101  0.00  0.00     0.087 H 
ATOM     12  H8  6YA d   1      21.884  21.407  22.475  0.00  0.00     0.088 H 
ATOM     13  H9  6YA d   1      23.977  19.835  24.044  0.00  0.00     0.087 H 
ATOM     14  H10 6YA d   1      23.556  15.548  23.587  0.00  0.00     0.086 H 
ENDROOT
BRANCH   3  15
ATOM     15  C18 6YA d   1      19.572  20.835  20.698  0.00  0.00     0.043 C 
ATOM     16  H15 6YA d   1      19.706  21.880  21.014  0.00  0.00     0.074 H 
ATOM     17  H16 6YA d   1      18.544  20.513  20.922  0.00  0.00     0.074 H 
BRANCH  15  18
ATOM     18  N19 6YA d   1      19.826  20.715  19.263  0.00  0.00    -0.290 N 
ATOM     19  C20 6YA d   1      19.014  20.034  18.310  0.00  0.00     0.330 A 
ATOM     20  O21 6YA d   1      17.953  19.444  18.545  0.00  0.00    -0.246 OA
ATOM     21  N22 6YA d   1      19.633  20.162  17.047  0.00  0.00    -0.289 N 
ATOM     22  C23 6YA d   1      20.841  20.915  17.226  0.00  0.00     0.069 A 
ATOM     23  C24 6YA d   1      20.954  21.252  18.588  0.00  0.00     0.083 A 
ATOM     24  C28 6YA d   1      21.926  21.392  16.333  0.00  0.00    -0.038 A 
ATOM     25  C25 6YA d   1      22.064  22.007  19.043  0.00  0.00     0.030 A 
ATOM     26  N26 6YA d   1      23.032  22.419  18.167  0.00  0.00    -0.271 NA
ATOM     27  H17 6YA d   1      22.147  22.260  20.094  0.00  0.00     0.118 H 
ATOM     28  C27 6YA d   1      22.980  22.128  16.853  0.00  0.00     0.004 A 
ATOM     29  H18 6YA d   1      23.770  22.473  16.195  0.00  0.00     0.114 H 
ATOM     30  H7  6YA d   1      21.895  21.165  15.274  0.00  0.00     0.089 H 
BRANCH  21  31
ATOM     31  C29 6YA d   1      19.142  19.606  15.809  0.00  0.00     0.095 C 
ATOM     32  H19 6YA d   1      18.834  18.566  15.990  0.00  0.00     0.078 H 
ATOM     33  H20 6YA d   1      19.956  19.624  15.069  0.00  0.00     0.078 H 
BRANCH  31  34
ATOM     34  C30 6YA d   1      17.941  20.381  15.236  0.00  0.00     0.403 C 
ATOM     35  F31 6YA d   1      17.029  20.705  16.230  0.00  0.00    -0.169 F 
ATOM     36  F32 6YA d   1      17.340  19.602  14.335  0.00  0.00    -0.169 F 
ATOM     37  F33 6YA d   1      18.365  21.503  14.646  0.00  0.00    -0.169 F 
ENDBRANCH  31  34
ENDBRANCH  21  31
ENDBRANCH  15  18
ENDBRANCH   3  15
BRANCH   4  38
ATOM     38  C11 6YA d   1      19.632  17.747  20.656  0.00  0.00     0.001 C 
ATOM     39  H11 6YA d   1      18.921  18.429  20.168  0.00  0.00     0.065 H 
ATOM     40  H12 6YA d   1      19.096  17.111  21.375  0.00  0.00     0.065 H 
BRANCH  38  41
ATOM     41  C12 6YA d   1      20.236  16.836  19.574  0.00  0.00    -0.038 C 
ATOM     42  H13 6YA d   1      20.438  17.417  18.662  0.00  0.00     0.036 H 
ATOM     43  H14 6YA d   1      21.172  16.388  19.939  0.00  0.00     0.036 H 
BRANCH  41  44
ATOM     44  C13 6YA d   1      19.201  15.730  19.277  0.00  0.00     0.030 C 
ATOM     45  H2  6YA d   1      18.201  16.182  19.209  0.00  0.00     0.056 H 
ATOM     46  H3  6YA d   1      19.216  14.994  20.095  0.00  0.00     0.056 H 
BRANCH  44  47
ATOM     47  S14 6YA d   1      19.576  14.894  17.725  0.00  0.00     0.140 S 
ATOM     48  O15 6YA d   1      20.837  14.187  17.805  0.00  0.00    -0.228 OA
ATOM     49  O16 6YA d   1      19.848  15.815  16.691  0.00  0.00    -0.228 OA
BRANCH  47  50
ATOM     50  C17 6YA d   1      18.283  13.813  17.288  0.00  0.00     0.015 C 
ATOM     51  H4  6YA d   1      18.529  13.312  16.340  0.00  0.00     0.048 H 
ATOM     52  H5  6YA d   1      17.351  14.385  17.170  0.00  0.00     0.048 H 
ATOM     53  H6  6YA d   1      18.153  13.059  18.078  0.00  0.00     0.048 H 
ENDBRANCH  47  50
ENDBRANCH  44  47
ENDBRANCH  41  44
ENDBRANCH  38  41
ENDBRANCH   4  38
TORSDOF 9
