REMARK  6 active torsions:
REMARK  status: ('A' for Active; 'I' for Inactive)
REMARK       I    between atoms: N01_1  and  C02_2 
REMARK    1  A    between atoms: N01_1  and  C15_15 
REMARK    2  A    between atoms: C02_2  and  C04_4 
REMARK    3  A    between atoms: C06_6  and  C10_10 
REMARK    4  A    between atoms: N13_13  and  C24_24 
REMARK    5  A    between atoms: N17_17  and  C20_20 
REMARK    6  A    between atoms: C19_19  and  C21_21 
REMARK       I    between atoms: C21_21  and  N22_22 
ROOT
ATOM      1  C04 6YD d   1      32.432  40.240  61.258  0.00  0.00     0.125 A 
ATOM      2  N05 6YD d   1      32.193  40.474  59.958  0.00  0.00    -0.243 NA
ATOM      3  C06 6YD d   1      30.934  40.319  59.515  0.00  0.00     0.070 A 
ATOM      4  C07 6YD d   1      29.888  39.904  60.335  0.00  0.00    -0.054 A 
ATOM      5  C08 6YD d   1      30.157  39.639  61.662  0.00  0.00    -0.078 A 
ATOM      6  C09 6YD d   1      31.442  39.811  62.140  0.00  0.00    -0.050 A 
ATOM      7  H2  6YD d   1      28.885  39.792  59.940  0.00  0.00     0.087 H 
ATOM      8  H3  6YD d   1      29.368  39.299  62.323  0.00  0.00     0.083 H 
ATOM      9  H4  6YD d   1      31.675  39.616  63.181  0.00  0.00     0.087 H 
ENDROOT
BRANCH   1  10
ATOM     10  C02 6YD d   1      33.862  40.298  61.726  0.00  0.00     0.274 C 
ATOM     11  N01 6YD d   1      34.823  40.437  60.755  0.00  0.00    -0.318 N 
ATOM     12  H1  6YD d   1      34.536  40.666  59.825  0.00  0.00     0.169 HD
ATOM     13  O03 6YD d   1      34.150  40.103  62.902  0.00  0.00    -0.266 OA
BRANCH  11  14
ATOM     14  C15 6YD d   1      36.207  40.269  61.019  0.00  0.00     0.088 A 
ATOM     15  C16 6YD d   1      36.938  40.260  62.237  0.00  0.00     0.026 A 
ATOM     16  N17 6YD d   1      38.227  40.072  61.930  0.00  0.00    -0.282 N 
ATOM     17  H7  6YD d   1      36.525  40.383  63.237  0.00  0.00     0.117 H 
ATOM     18  N18 6YD d   1      38.450  39.940  60.600  0.00  0.00    -0.165 NA
ATOM     19  C19 6YD d   1      37.235  40.056  60.050  0.00  0.00     0.172 A 
BRANCH  16  20
ATOM     20  C20 6YD d   1      39.353  39.975  62.851  0.00  0.00     0.002 C 
ATOM     21  H8  6YD d   1      40.281  39.820  62.281  0.00  0.00     0.059 H 
ATOM     22  H9  6YD d   1      39.196  39.127  63.534  0.00  0.00     0.059 H 
ATOM     23  H10 6YD d   1      39.432  40.905  63.433  0.00  0.00     0.059 H 
ENDBRANCH  16  20
BRANCH  19  24
ATOM     24  C21 6YD d   1      37.041  39.925  58.598  0.00  0.00     0.272 C 
ATOM     25  N22 6YD d   1      38.029  39.351  57.911  0.00  0.00    -0.365 N 
ATOM     26  H11 6YD d   1      37.949  39.237  56.921  0.00  0.00     0.159 HD
ATOM     27  H12 6YD d   1      38.850  39.035  58.386  0.00  0.00     0.159 HD
ATOM     28  O23 6YD d   1      35.969  40.305  58.071  0.00  0.00    -0.266 OA
ENDBRANCH  19  24
ENDBRANCH  11  14
ENDBRANCH   1  10
BRANCH   3  29
ATOM     29  C10 6YD d   1      30.724  40.579  58.072  0.00  0.00     0.029 A 
ATOM     30  C11 6YD d   1      29.534  40.825  57.357  0.00  0.00     0.035 A 
ATOM     31  N12 6YD d   1      29.755  41.004  56.066  0.00  0.00    -0.185 NA
ATOM     32  H5  6YD d   1      28.547  40.863  57.815  0.00  0.00     0.118 H 
ATOM     33  N13 6YD d   1      31.141  40.852  55.927  0.00  0.00    -0.285 N 
ATOM     34  C14 6YD d   1      31.707  40.593  57.111  0.00  0.00     0.011 A 
ATOM     35  H6  6YD d   1      32.768  40.422  57.285  0.00  0.00     0.115 H 
BRANCH  33  36
ATOM     36  C24 6YD d   1      31.809  40.967  54.639  0.00  0.00     0.002 C 
ATOM     37  H13 6YD d   1      32.890  40.811  54.771  0.00  0.00     0.059 H 
ATOM     38  H14 6YD d   1      31.631  41.969  54.222  0.00  0.00     0.059 H 
ATOM     39  H15 6YD d   1      31.411  40.207  53.950  0.00  0.00     0.059 H 
ENDBRANCH  33  36
ENDBRANCH   3  29
TORSDOF 6
