REMARK  5 active torsions:
REMARK  status: ('A' for Active; 'I' for Inactive)
REMARK       I    between atoms: N01_1  and  C02_2 
REMARK    1  A    between atoms: N01_1  and  C19_19 
REMARK    2  A    between atoms: C02_2  and  C04_4 
REMARK    3  A    between atoms: C10_10  and  N13_13 
REMARK    4  A    between atoms: C20_20  and  C24_24 
REMARK    5  A    between atoms: N22_22  and  C27_27 
REMARK       I    between atoms: C24_24  and  N25_25 
ROOT
ATOM      1  C04 6YE d   1      31.664   6.286  -9.372  0.00  0.00     0.099 A 
ATOM      2  C05 6YE d   1      32.490   5.438 -10.176  0.00  0.00     0.041 A 
ATOM      3  N06 6YE d   1      33.235   6.122 -11.096  0.00  0.00    -0.178 NA
ATOM      4  N07 6YE d   1      32.889   7.454 -10.911  0.00  0.00    -0.226 N 
ATOM      5  C08 6YE d   1      31.931   7.596  -9.835  0.00  0.00     0.169 A 
ATOM      6  N09 6YE d   1      31.485   8.825  -9.452  0.00  0.00    -0.211 NA
ATOM      7  C10 6YE d   1      31.932   9.943 -10.138  0.00  0.00     0.129 A 
ATOM      8  C11 6YE d   1      32.874   9.822 -11.177  0.00  0.00    -0.022 A 
ATOM      9  C12 6YE d   1      33.347   8.595 -11.579  0.00  0.00     0.010 A 
ATOM     10  H2  6YE d   1      32.522   4.355 -10.066  0.00  0.00     0.119 H 
ATOM     11  H3  6YE d   1      33.236  10.721 -11.674  0.00  0.00     0.091 H 
ATOM     12  H4  6YE d   1      34.061   8.513 -12.397  0.00  0.00     0.115 H 
ENDROOT
BRANCH   1  13
ATOM     13  C02 6YE d   1      30.799   5.764  -8.261  0.00  0.00     0.261 C 
ATOM     14  N01 6YE d   1      29.970   6.696  -7.666  0.00  0.00    -0.319 N 
ATOM     15  H1  6YE d   1      29.796   7.551  -8.154  0.00  0.00     0.169 HD
ATOM     16  O03 6YE d   1      30.890   4.570  -7.890  0.00  0.00    -0.267 OA
BRANCH  14  17
ATOM     17  C19 6YE d   1      29.352   6.510  -6.405  0.00  0.00     0.088 A 
ATOM     18  C20 6YE d   1      28.704   7.526  -5.613  0.00  0.00     0.172 A 
ATOM     19  N21 6YE d   1      28.208   6.972  -4.502  0.00  0.00    -0.165 NA
ATOM     20  N22 6YE d   1      28.512   5.652  -4.535  0.00  0.00    -0.282 N 
ATOM     21  C23 6YE d   1      29.182   5.300  -5.638  0.00  0.00     0.026 A 
ATOM     22  H15 6YE d   1      29.529   4.302  -5.903  0.00  0.00     0.117 H 
BRANCH  18  23
ATOM     23  C24 6YE d   1      28.584   8.958  -5.936  0.00  0.00     0.272 C 
ATOM     24  N25 6YE d   1      28.143   9.762  -4.971  0.00  0.00    -0.365 N 
ATOM     25  H16 6YE d   1      28.045  10.742  -5.143  0.00  0.00     0.159 HD
ATOM     26  H17 6YE d   1      27.910   9.386  -4.074  0.00  0.00     0.159 HD
ATOM     27  O26 6YE d   1      28.885   9.373  -7.063  0.00  0.00    -0.266 OA
ENDBRANCH  18  23
BRANCH  20  28
ATOM     28  C27 6YE d   1      28.096   4.793  -3.436  0.00  0.00     0.002 C 
ATOM     29  H18 6YE d   1      28.426   3.762  -3.631  0.00  0.00     0.059 H 
ATOM     30  H19 6YE d   1      27.000   4.816  -3.347  0.00  0.00     0.059 H 
ATOM     31  H20 6YE d   1      28.548   5.152  -2.499  0.00  0.00     0.059 H 
ENDBRANCH  20  28
ENDBRANCH  14  17
ENDBRANCH   1  13
BRANCH   7  32
ATOM     32  N13 6YE d   1      31.502  11.188  -9.674  0.00  0.00    -0.363 N 
ATOM     33  C14 6YE d   1      31.926  12.434 -10.326  0.00  0.00     0.019 C 
ATOM     34  C15 6YE d   1      31.201  13.675  -9.853  0.00  0.00     0.096 C 
ATOM     35  H5  6YE d   1      31.756  12.329 -11.408  0.00  0.00     0.066 H 
ATOM     36  H6  6YE d   1      33.001  12.572 -10.135  0.00  0.00     0.066 H 
ATOM     37  N16 6YE d   1      31.308  13.734  -8.393  0.00  0.00    -0.072 N 
ATOM     38  H7  6YE d   1      30.142  13.624 -10.148  0.00  0.00     0.078 H 
ATOM     39  H8  6YE d   1      31.663  14.569 -10.297  0.00  0.00     0.078 H 
ATOM     40  C17 6YE d   1      30.602  12.595  -7.813  0.00  0.00     0.096 C 
ATOM     41  H9  6YE d   1      30.896  14.591  -8.059  0.00  0.00     0.277 HD
ATOM     42  H10 6YE d   1      32.279  13.701  -8.125  0.00  0.00     0.277 HD
ATOM     43  C18 6YE d   1      31.366  11.372  -8.222  0.00  0.00     0.019 C 
ATOM     44  H11 6YE d   1      29.573  12.548  -8.199  0.00  0.00     0.078 H 
ATOM     45  H12 6YE d   1      30.578  12.680  -6.717  0.00  0.00     0.078 H 
ATOM     46  H13 6YE d   1      32.375  11.438  -7.789  0.00  0.00     0.066 H 
ATOM     47  H14 6YE d   1      30.848  10.492  -7.812  0.00  0.00     0.066 H 
ENDBRANCH   7  32
TORSDOF 5
