REMARK  16 active torsions:
REMARK  status: ('A' for Active; 'I' for Inactive)
REMARK    1  A    between atoms: OAA_35  and  CAB_1 
REMARK    2  A    between atoms: CAE_4  and  NAH_36 
REMARK    3  A    between atoms: CAL_7  and  OAA_35 
REMARK    4  A    between atoms: CAO_8  and  NAP_31 
REMARK    5  A    between atoms: O1_25  and  CAW_9 
REMARK    6  A    between atoms: CBA_10  and  CBE_27 
REMARK    7  A    between atoms: CBG_12  and  CBK_11 
REMARK       I    between atoms: N2_14  and  CBG_12 
REMARK    8  A    between atoms: C2_15  and  N2_14 
REMARK    9  A    between atoms: C3_16  and  O3_17 
REMARK   10  A    between atoms: C4_18  and  O4_19 
REMARK   11  A    between atoms: C5_20  and  C6_21 
REMARK   12  A    between atoms: C6_21  and  O6_22 
REMARK   13  A    between atoms: C1_24  and  O1_25 
REMARK   14  A    between atoms: CBE_27  and  OBF_28 
REMARK   15  A    between atoms: CAS_29  and  OAT_30 
REMARK       I    between atoms: NAP_31  and  CBI_32 
REMARK   16  A    between atoms: CBI_32  and  CBL_34 
ROOT
ATOM      1  CAL 6Y2 d   1       6.675 -22.421 -15.193  0.00  0.00     0.159 C 
ATOM      2  CAO 6Y2 d   1       6.546 -21.125 -14.465  0.00  0.00     0.087 C 
ATOM      3  CAW 6Y2 d   1       8.411 -20.092 -15.775  0.00  0.00     0.095 C 
ATOM      4  CBA 6Y2 d   1       8.616 -21.446 -16.438  0.00  0.00     0.089 C 
ATOM      5  OBB 6Y2 d   1       7.960 -22.544 -15.772  0.00  0.00    -0.349 OA
ATOM      6  CAS 6Y2 d   1       6.915 -19.961 -15.434  0.00  0.00     0.087 C 
ATOM      7  H5  6Y2 d   1       5.846 -22.565 -15.902  0.00  0.00     0.133 H 
ATOM      8  H6  6Y2 d   1       7.230 -21.121 -13.603  0.00  0.00     0.084 H 
ATOM      9  H7  6Y2 d   1       9.014 -19.986 -14.861  0.00  0.00     0.091 H 
ATOM     10  H8  6Y2 d   1       8.249 -21.377 -17.473  0.00  0.00     0.090 H 
ATOM     11  H26 6Y2 d   1       6.337 -20.065 -16.364  0.00  0.00     0.090 H 
ENDROOT
BRANCH   3  12
ATOM     12  O1  6Y2 d   1       8.852 -19.155 -16.794  0.00  0.00    -0.348 OA
BRANCH  12  13
ATOM     13  C1  6Y2 d   1       9.281 -17.882 -16.363  0.00  0.00     0.154 C 
ATOM     14  C2  6Y2 d   1      10.156 -17.405 -17.507  0.00  0.00     0.087 C 
ATOM     15  C3  6Y2 d   1      10.600 -15.987 -17.222  0.00  0.00     0.086 C 
ATOM     16  H13 6Y2 d   1       9.596 -17.443 -18.453  0.00  0.00     0.084 H 
ATOM     17  C4  6Y2 d   1       9.417 -15.095 -17.031  0.00  0.00     0.089 C 
ATOM     18  H14 6Y2 d   1      11.204 -15.969 -16.303  0.00  0.00     0.090 H 
ATOM     19  C5  6Y2 d   1       8.560 -15.677 -15.894  0.00  0.00     0.089 C 
ATOM     20  H16 6Y2 d   1       9.740 -14.074 -16.779  0.00  0.00     0.091 H 
ATOM     21  O5  6Y2 d   1       8.147 -17.041 -16.223  0.00  0.00    -0.349 OA
ATOM     22  H18 6Y2 d   1       9.154 -15.692 -14.968  0.00  0.00     0.090 H 
ATOM     23  H22 6Y2 d   1       9.842 -17.934 -15.418  0.00  0.00     0.132 H 
BRANCH  14  24
ATOM     24  N2  6Y2 d   1      11.343 -18.272 -17.586  0.00  0.00    -0.349 N 
ATOM     25  CBG 6Y2 d   1      11.820 -18.756 -18.757  0.00  0.00     0.214 C 
ATOM     26  OBH 6Y2 d   1      11.380 -18.464 -19.877  0.00  0.00    -0.274 OA
ATOM     27  H12 6Y2 d   1      11.817 -18.514 -16.739  0.00  0.00     0.163 HD
BRANCH  25  28
ATOM     28  CBK 6Y2 d   1      13.039 -19.631 -18.628  0.00  0.00    -0.003 C 
ATOM     29  H9  6Y2 d   1      13.274 -19.777 -17.564  0.00  0.00     0.040 H 
ATOM     30  H10 6Y2 d   1      13.891 -19.149 -19.129  0.00  0.00     0.040 H 
ATOM     31  H11 6Y2 d   1      12.842 -20.606 -19.097  0.00  0.00     0.040 H 
ENDBRANCH  25  28
ENDBRANCH  14  24
BRANCH  15  32
ATOM     32  O3  6Y2 d   1      11.406 -15.574 -18.321  0.00  0.00    -0.391 OA
ATOM     33  H15 6Y2 d   1      11.704 -14.684 -18.177  0.00  0.00     0.210 HD
ENDBRANCH  15  32
BRANCH  17  34
ATOM     34  O4  6Y2 d   1       8.679 -15.088 -18.223  0.00  0.00    -0.390 OA
ATOM     35  H17 6Y2 d   1       9.224 -14.762 -18.930  0.00  0.00     0.210 HD
ENDBRANCH  17  34
BRANCH  19  36
ATOM     36  C6  6Y2 d   1       7.341 -14.831 -15.686  0.00  0.00     0.043 C 
ATOM     37  H19 6Y2 d   1       6.704 -14.821 -16.583  0.00  0.00     0.078 H 
ATOM     38  H20 6Y2 d   1       7.612 -13.799 -15.417  0.00  0.00     0.078 H 
BRANCH  36  39
ATOM     39  O6  6Y2 d   1       6.693 -15.504 -14.592  0.00  0.00    -0.398 OA
ATOM     40  H21 6Y2 d   1       5.891 -15.045 -14.370  0.00  0.00     0.209 HD
ENDBRANCH  36  39
ENDBRANCH  19  36
ENDBRANCH  12  13
ENDBRANCH   3  12
BRANCH   4  41
ATOM     41  CBE 6Y2 d   1      10.084 -21.831 -16.430  0.00  0.00     0.043 C 
ATOM     42  H23 6Y2 d   1      10.348 -22.329 -15.485  0.00  0.00     0.078 H 
ATOM     43  H24 6Y2 d   1      10.718 -20.942 -16.566  0.00  0.00     0.078 H 
BRANCH  41  44
ATOM     44  OBF 6Y2 d   1      10.236 -22.726 -17.527  0.00  0.00    -0.398 OA
ATOM     45  H25 6Y2 d   1       9.674 -23.481 -17.398  0.00  0.00     0.209 HD
ENDBRANCH  41  44
ENDBRANCH   4  41
BRANCH   6  46
ATOM     46  OAT 6Y2 d   1       6.565 -18.708 -14.830  0.00  0.00    -0.391 OA
ATOM     47  H27 6Y2 d   1       6.782 -18.000 -15.425  0.00  0.00     0.210 HD
ENDBRANCH   6  46
BRANCH   2  48
ATOM     48  NAP 6Y2 d   1       5.167 -20.932 -13.994  0.00  0.00    -0.349 N 
ATOM     49  CBI 6Y2 d   1       4.787 -20.463 -12.770  0.00  0.00     0.214 C 
ATOM     50  OBJ 6Y2 d   1       3.600 -20.294 -12.526  0.00  0.00    -0.274 OA
ATOM     51  H28 6Y2 d   1       4.435 -21.168 -14.633  0.00  0.00     0.163 HD
BRANCH  49  52
ATOM     52  CBL 6Y2 d   1       5.802 -20.146 -11.628  0.00  0.00    -0.003 C 
ATOM     53  H29 6Y2 d   1       5.258 -19.783 -10.744  0.00  0.00     0.040 H 
ATOM     54  H30 6Y2 d   1       6.506 -19.372 -11.968  0.00  0.00     0.040 H 
ATOM     55  H31 6Y2 d   1       6.358 -21.059 -11.367  0.00  0.00     0.040 H 
ENDBRANCH  49  52
ENDBRANCH   2  48
BRANCH   1  56
ATOM     56  OAA 6Y2 d   1       6.846 -23.494 -14.257  0.00  0.00    -0.318 OA
BRANCH  56  57
ATOM     57  CAB 6Y2 d   1       5.893 -24.434 -14.300  0.00  0.00     0.072 A 
ATOM     58  CAC 6Y2 d   1       6.131 -25.686 -14.870  0.00  0.00    -0.048 A 
ATOM     59  CAD 6Y2 d   1       5.092 -26.619 -14.870  0.00  0.00    -0.048 A 
ATOM     60  H1  6Y2 d   1       7.096 -25.927 -15.301  0.00  0.00     0.087 H 
ATOM     61  CAE 6Y2 d   1       3.847 -26.280 -14.300  0.00  0.00     0.103 A 
ATOM     62  H2  6Y2 d   1       5.242 -27.600 -15.306  0.00  0.00     0.087 H 
ATOM     63  CAF 6Y2 d   1       3.629 -25.026 -13.735  0.00  0.00    -0.048 A 
ATOM     64  CAG 6Y2 d   1       4.661 -24.111 -13.736  0.00  0.00    -0.048 A 
ATOM     65  H3  6Y2 d   1       2.667 -24.774 -13.303  0.00  0.00     0.087 H 
ATOM     66  H4  6Y2 d   1       4.512 -23.132 -13.294  0.00  0.00     0.087 H 
BRANCH  61  67
ATOM     67  NAH 6Y2 d   1       2.827 -27.131 -14.288  0.00  0.00    -0.116 N 
ATOM     68  OAJ 6Y2 d   1       3.110 -28.616 -13.944  0.00  0.00    -0.532 OA
ATOM     69  OAI 6Y2 d   1       1.348 -26.537 -14.640  0.00  0.00    -0.532 OA
ENDBRANCH  61  67
ENDBRANCH  56  57
ENDBRANCH   1  56
TORSDOF 16
