REMARK  2 active torsions:
REMARK  status: ('A' for Active; 'I' for Inactive)
REMARK    1  A    between atoms: C2_3  and  C6_8 
REMARK    2  A    between atoms: N2_7  and  C10_12 
ROOT
ATOM      1  N2  NCT d   1      67.367 -27.202 -39.076  0.00  0.00    -0.067 N 
ATOM      2  C6  NCT d   1      67.324 -28.110 -40.292  0.00  0.00     0.130 C 
ATOM      3  C7  NCT d   1      65.877 -28.032 -40.655  0.00  0.00    -0.033 C 
ATOM      4  C8  NCT d   1      65.107 -27.914 -39.370  0.00  0.00    -0.040 C 
ATOM      5  C9  NCT d   1      66.000 -27.095 -38.490  0.00  0.00     0.084 C 
ATOM      6  H5  NCT d   1      67.771 -26.298 -39.267  0.00  0.00     0.280 HD
ATOM      7  H6  NCT d   1      67.585 -29.147 -40.033  0.00  0.00     0.092 H 
ATOM      8  H7  NCT d   1      65.573 -28.941 -41.195  0.00  0.00     0.036 H 
ATOM      9  H8  NCT d   1      65.693 -27.151 -41.288  0.00  0.00     0.036 H 
ATOM     10  H9  NCT d   1      64.926 -28.906 -38.930  0.00  0.00     0.035 H 
ATOM     11  H10 NCT d   1      64.146 -27.405 -39.535  0.00  0.00     0.035 H 
ATOM     12  H11 NCT d   1      65.669 -26.046 -38.481  0.00  0.00     0.076 H 
ATOM     13  H12 NCT d   1      65.992 -27.491 -37.464  0.00  0.00     0.076 H 
ENDROOT
BRANCH   2  14
ATOM     14  C2  NCT d   1      68.318 -27.612 -41.294  0.00  0.00    -0.010 A 
ATOM     15  C1  NCT d   1      68.456 -26.235 -41.557  0.00  0.00     0.010 A 
ATOM     16  N1  NCT d   1      69.350 -25.734 -42.445  0.00  0.00    -0.273 NA
ATOM     17  H1  NCT d   1      67.816 -25.542 -41.023  0.00  0.00     0.115 H 
ATOM     18  C5  NCT d   1      70.138 -26.605 -43.122  0.00  0.00     0.002 A 
ATOM     19  C4  NCT d   1      70.067 -27.989 -42.929  0.00  0.00    -0.065 A 
ATOM     20  H4  NCT d   1      70.850 -26.214 -43.840  0.00  0.00     0.114 H 
ATOM     21  C3  NCT d   1      69.144 -28.479 -42.004  0.00  0.00    -0.072 A 
ATOM     22  H3  NCT d   1      70.711 -28.662 -43.483  0.00  0.00     0.085 H 
ATOM     23  H2  NCT d   1      69.069 -29.547 -41.836  0.00  0.00     0.084 H 
ENDBRANCH   2  14
BRANCH   1  24
ATOM     24  C10 NCT d   1      68.151 -28.017 -38.156  0.00  0.00     0.067 C 
ATOM     25  H13 NCT d   1      69.174 -28.127 -38.544  0.00  0.00     0.068 H 
ATOM     26  H14 NCT d   1      67.687 -29.010 -38.059  0.00  0.00     0.068 H 
ATOM     27  H15 NCT d   1      68.183 -27.529 -37.171  0.00  0.00     0.068 H 
ENDBRANCH   1  24
TORSDOF 2
