REMARK  10 active torsions:
REMARK  status: ('A' for Active; 'I' for Inactive)
REMARK    1  A    between atoms: C14_14  and  N4_1 
REMARK    2  A    between atoms: N3_3  and  C4_5 
REMARK    3  A    between atoms: C3_6  and  C21_23 
REMARK    4  A    between atoms: C2_9  and  C1_10 
REMARK    5  A    between atoms: C1_10  and  O1_30 
REMARK    6  A    between atoms: C11_19  and  C13_15 
REMARK    7  A    between atoms: C11_19  and  C12_18 
REMARK    8  A    between atoms: C10_20  and  C11_19 
REMARK    9  A    between atoms: C16_21  and  S_32 
REMARK   10  A    between atoms: S_32  and  C17_22 
ROOT
ATOM      1  N4  6Y4 d   1      10.996 -41.142  12.036  0.00  0.00    -0.244 N 
ATOM      2  C8  6Y4 d   1       9.641 -41.185  12.070  0.00  0.00     0.014 A 
ATOM      3  N3  6Y4 d   1       9.002 -39.910  15.384  0.00  0.00    -0.199 N 
ATOM      4  C6  6Y4 d   1       8.187 -40.314  14.207  0.00  0.00     0.040 C 
ATOM      5  C7  6Y4 d   1       9.337 -40.665  13.310  0.00  0.00     0.006 A 
ATOM      6  C9  6Y4 d   1      10.595 -40.344  13.898  0.00  0.00     0.088 A 
ATOM      7  C10 6Y4 d   1      10.445 -39.729  15.162  0.00  0.00     0.076 C 
ATOM      8  N5  6Y4 d   1      11.638 -40.596  13.134  0.00  0.00    -0.170 NA
ATOM      9  H1  6Y4 d   1       8.957 -41.544  11.302  0.00  0.00     0.115 H 
ATOM     10  H3  6Y4 d   1       7.580 -39.487  13.810  0.00  0.00     0.072 H 
ATOM     11  H4  6Y4 d   1       7.538 -41.177  14.419  0.00  0.00     0.072 H 
ATOM     12  H15 6Y4 d   1      11.034 -40.199  15.964  0.00  0.00     0.084 H 
ENDROOT
BRANCH   1  13
ATOM     13  C14 6Y4 d   1      11.741 -41.502  10.998  0.00  0.00     0.059 A 
ATOM     14  C15 6Y4 d   1      11.261 -42.355  10.025  0.00  0.00    -0.034 A 
ATOM     15  C16 6Y4 d   1      12.014 -42.684   8.915  0.00  0.00     0.061 A 
ATOM     16  H10 6Y4 d   1      10.269 -42.777  10.135  0.00  0.00     0.089 H 
ATOM     17  C18 6Y4 d   1      13.284 -42.173   8.745  0.00  0.00    -0.062 A 
ATOM     18  C19 6Y4 d   1      13.798 -41.329   9.720  0.00  0.00    -0.079 A 
ATOM     19  H21 6Y4 d   1      13.869 -42.425   7.868  0.00  0.00     0.085 H 
ATOM     20  C20 6Y4 d   1      13.033 -40.991  10.814  0.00  0.00    -0.055 A 
ATOM     21  H20 6Y4 d   1      14.803 -40.935   9.620  0.00  0.00     0.083 H 
ATOM     22  H19 6Y4 d   1      13.441 -40.311  11.553  0.00  0.00     0.087 H 
BRANCH  15  23
ATOM     23  S   6Y4 d   1      11.405 -43.665   7.826  0.00  0.00     0.172 S 
ATOM     24  O3  6Y4 d   1      12.002 -44.965   8.027  0.00  0.00    -0.223 OA
ATOM     25  O2  6Y4 d   1      11.765 -43.132   6.551  0.00  0.00    -0.223 OA
BRANCH  23  26
ATOM     26  C17 6Y4 d   1       9.783 -43.816   8.050  0.00  0.00     0.020 C 
ATOM     27  H16 6Y4 d   1       9.300 -42.839   7.903  0.00  0.00     0.049 H 
ATOM     28  H17 6Y4 d   1       9.585 -44.172   9.072  0.00  0.00     0.049 H 
ATOM     29  H18 6Y4 d   1       9.378 -44.538   7.325  0.00  0.00     0.049 H 
ENDBRANCH  23  26
ENDBRANCH  15  23
ENDBRANCH   1  13
BRANCH   7  30
ATOM     30  C11 6Y4 d   1      10.916 -38.310  14.908  0.00  0.00    -0.035 C 
ATOM     31  H14 6Y4 d   1      11.753 -38.375  14.197  0.00  0.00     0.042 H 
BRANCH  30  32
ATOM     32  C13 6Y4 d   1       9.880 -37.396  14.274  0.00  0.00    -0.071 C 
ATOM     33  H7  6Y4 d   1      10.313 -36.395  14.130  0.00  0.00     0.028 H 
ATOM     34  H8  6Y4 d   1       9.002 -37.324  14.933  0.00  0.00     0.028 H 
ATOM     35  H9  6Y4 d   1       9.575 -37.807  13.300  0.00  0.00     0.028 H 
ENDBRANCH  30  32
BRANCH  30  36
ATOM     36  C12 6Y4 d   1      11.450 -37.722  16.184  0.00  0.00    -0.071 C 
ATOM     37  H11 6Y4 d   1      12.196 -38.404  16.618  0.00  0.00     0.028 H 
ATOM     38  H12 6Y4 d   1      10.624 -37.580  16.896  0.00  0.00     0.028 H 
ATOM     39  H13 6Y4 d   1      11.921 -36.751  15.971  0.00  0.00     0.028 H 
ENDBRANCH  30  36
ENDBRANCH   7  30
BRANCH   3  40
ATOM     40  C4  6Y4 d   1       8.648 -39.879  16.722  0.00  0.00     0.725 A 
ATOM     41  N2  6Y4 d   1       9.628 -39.477  17.573  0.00  0.00    -0.074 NA
ATOM     42  C5  6Y4 d   1       9.487 -39.425  18.897  0.00  0.00     0.031 A 
ATOM     43  C2  6Y4 d   1       8.296 -39.837  19.469  0.00  0.00     0.018 A 
ATOM     44  H2  6Y4 d   1      10.297 -39.064  19.520  0.00  0.00     0.116 H 
ATOM     45  C3  6Y4 d   1       7.270 -40.309  18.501  0.00  0.00     0.169 A 
ATOM     46  N1  6Y4 d   1       7.466 -40.322  17.163  0.00  0.00    -0.058 NA
BRANCH  43  47
ATOM     47  C1  6Y4 d   1       8.106 -39.813  20.991  0.00  0.00     0.044 C 
ATOM     48  H5  6Y4 d   1       8.468 -40.768  21.399  0.00  0.00     0.081 H 
ATOM     49  H6  6Y4 d   1       7.032 -39.706  21.203  0.00  0.00     0.081 H 
BRANCH  47  50
ATOM     50  O1  6Y4 d   1       8.810 -38.738  21.658  0.00  0.00    -0.396 OA
ATOM     51  H22 6Y4 d   1       9.742 -38.821  21.493  0.00  0.00     0.209 HD
ENDBRANCH  47  50
ENDBRANCH  43  47
BRANCH  45  52
ATOM     52  C21 6Y4 d   1       5.971 -40.786  18.982  0.00  0.00     0.435 C 
ATOM     53  F3  6Y4 d   1       5.421 -39.818  19.706  0.00  0.00    -0.165 F 
ATOM     54  F1  6Y4 d   1       6.261 -41.872  19.700  0.00  0.00    -0.165 F 
ATOM     55  F2  6Y4 d   1       5.249 -41.041  17.893  0.00  0.00    -0.165 F 
ENDBRANCH  45  52
ENDBRANCH   3  40
TORSDOF 10
