REMARK  9 active torsions:
REMARK  status: ('A' for Active; 'I' for Inactive)
REMARK    1  A    between atoms: N2_13  and  C15_4 
REMARK    2  A    between atoms: O2_11  and  C19_5 
REMARK    3  A    between atoms: C18_10  and  O2_11 
REMARK    4  A    between atoms: C3_14  and  C1_15 
REMARK    5  A    between atoms: C1_15  and  C2_16 
REMARK    6  A    between atoms: C1_15  and  C_17 
REMARK    7  A    between atoms: C5_22  and  N1_20 
REMARK    8  A    between atoms: C7_25  and  S_27 
REMARK    9  A    between atoms: S_27  and  C8_30 
ROOT
ATOM      1  C12 6Y8 d   1       6.623  42.349 -23.876  0.00  0.00     0.014 A 
ATOM      2  C13 6Y8 d   1       6.175  42.097 -22.609  0.00  0.00     0.006 A 
ATOM      3  N2  6Y8 d   1       5.543  41.704 -20.463  0.00  0.00    -0.348 N 
ATOM      4  C3  6Y8 d   1       5.186  43.116 -20.699  0.00  0.00     0.061 C 
ATOM      5  C14 6Y8 d   1       6.014  40.973 -21.656  0.00  0.00     0.025 C 
ATOM      6  C4  6Y8 d   1       5.702  43.321 -22.046  0.00  0.00     0.087 A 
ATOM      7  N1  6Y8 d   1       6.436  43.677 -24.029  0.00  0.00    -0.244 N 
ATOM      8  N   6Y8 d   1       5.839  44.313 -22.931  0.00  0.00    -0.170 NA
ATOM      9  H2  6Y8 d   1       7.035  41.642 -24.595  0.00  0.00     0.115 H 
ATOM     10  H7  6Y8 d   1       5.663  43.792 -19.974  0.00  0.00     0.083 H 
ATOM     11  H15 6Y8 d   1       6.968  40.459 -21.468  0.00  0.00     0.071 H 
ATOM     12  H16 6Y8 d   1       5.268  40.245 -22.008  0.00  0.00     0.071 H 
ENDROOT
BRANCH   7  13
ATOM     13  C5  6Y8 d   1       6.699  44.355 -25.172  0.00  0.00     0.059 A 
ATOM     14  C11 6Y8 d   1       6.088  45.587 -25.393  0.00  0.00    -0.055 A 
ATOM     15  C10 6Y8 d   1       6.261  46.332 -26.533  0.00  0.00    -0.079 A 
ATOM     16  H17 6Y8 d   1       5.438  45.980 -24.620  0.00  0.00     0.087 H 
ATOM     17  C9  6Y8 d   1       7.065  45.847 -27.533  0.00  0.00    -0.062 A 
ATOM     18  H1  6Y8 d   1       5.768  47.291 -26.642  0.00  0.00     0.083 H 
ATOM     19  C7  6Y8 d   1       7.694  44.629 -27.374  0.00  0.00     0.061 A 
ATOM     20  H18 6Y8 d   1       7.206  46.418 -28.444  0.00  0.00     0.085 H 
ATOM     21  C6  6Y8 d   1       7.507  43.894 -26.213  0.00  0.00    -0.034 A 
ATOM     22  H19 6Y8 d   1       8.002  42.935 -26.111  0.00  0.00     0.089 H 
BRANCH  19  23
ATOM     23  S   6Y8 d   1       8.617  44.119 -28.566  0.00  0.00     0.172 S 
ATOM     24  O   6Y8 d   1       7.940  44.468 -29.768  0.00  0.00    -0.223 OA
ATOM     25  O1  6Y8 d   1       8.858  42.716 -28.384  0.00  0.00    -0.223 OA
BRANCH  23  26
ATOM     26  C8  6Y8 d   1      10.060  44.938 -28.533  0.00  0.00     0.020 C 
ATOM     27  H20 6Y8 d   1      10.700  44.587 -29.356  0.00  0.00     0.049 H 
ATOM     28  H21 6Y8 d   1      10.564  44.754 -27.573  0.00  0.00     0.049 H 
ATOM     29  H22 6Y8 d   1       9.873  46.016 -28.648  0.00  0.00     0.049 H 
ENDBRANCH  23  26
ENDBRANCH  19  23
ENDBRANCH   7  13
BRANCH   4  30
ATOM     30  C1  6Y8 d   1       3.676  43.272 -20.641  0.00  0.00    -0.036 C 
ATOM     31  H8  6Y8 d   1       3.352  42.924 -19.649  0.00  0.00     0.042 H 
BRANCH  30  32
ATOM     32  C2  6Y8 d   1       3.298  44.748 -20.761  0.00  0.00    -0.071 C 
ATOM     33  H9  6Y8 d   1       2.204  44.851 -20.718  0.00  0.00     0.028 H 
ATOM     34  H10 6Y8 d   1       3.666  45.144 -21.719  0.00  0.00     0.028 H 
ATOM     35  H11 6Y8 d   1       3.752  45.311 -19.933  0.00  0.00     0.028 H 
ENDBRANCH  30  32
BRANCH  30  36
ATOM     36  C   6Y8 d   1       2.930  42.429 -21.675  0.00  0.00    -0.071 C 
ATOM     37  H12 6Y8 d   1       3.220  41.374 -21.566  0.00  0.00     0.028 H 
ATOM     38  H13 6Y8 d   1       3.187  42.777 -22.686  0.00  0.00     0.028 H 
ATOM     39  H14 6Y8 d   1       1.846  42.529 -21.517  0.00  0.00     0.028 H 
ENDBRANCH  30  36
ENDBRANCH   4  30
BRANCH   3  40
ATOM     40  C15 6Y8 d   1       5.617  41.224 -19.160  0.00  0.00     0.171 A 
ATOM     41  C16 6Y8 d   1       6.067  39.860 -18.794  0.00  0.00     0.179 A 
ATOM     42  F   6Y8 d   1       6.368  38.892 -19.668  0.00  0.00    -0.201 F 
ATOM     43  C17 6Y8 d   1       6.148  39.550 -17.460  0.00  0.00     0.047 A 
ATOM     44  N3  6Y8 d   1       5.859  40.470 -16.553  0.00  0.00    -0.216 NA
ATOM     45  H6  6Y8 d   1       6.447  38.555 -17.150  0.00  0.00     0.119 H 
ATOM     46  C18 6Y8 d   1       5.476  41.701 -16.895  0.00  0.00     0.269 A 
ATOM     47  N4  6Y8 d   1       5.367  42.096 -18.169  0.00  0.00    -0.186 NA
BRANCH  46  48
ATOM     48  O2  6Y8 d   1       5.222  42.574 -15.898  0.00  0.00    -0.324 OA
BRANCH  48  49
ATOM     49  C19 6Y8 d   1       4.226  42.261 -14.950  0.00  0.00     0.013 C 
ATOM     50  H3  6Y8 d   1       4.151  43.075 -14.214  0.00  0.00     0.067 H 
ATOM     51  H4  6Y8 d   1       4.491  41.325 -14.435  0.00  0.00     0.067 H 
ATOM     52  H5  6Y8 d   1       3.260  42.138 -15.461  0.00  0.00     0.067 H 
ENDBRANCH  48  49
ENDBRANCH  46  48
ENDBRANCH   3  40
TORSDOF 9
