REMARK  14 active torsions:
REMARK  status: ('A' for Active; 'I' for Inactive)
REMARK    1  A    between atoms: C10_1  and  O11_14 
REMARK    2  A    between atoms: C20_3  and  N21_22 
REMARK    3  A    between atoms: N27_28  and  C28_4 
REMARK    4  A    between atoms: C28_4  and  C29_29 
REMARK    5  A    between atoms: C03_7  and  S02_6 
REMARK    6  A    between atoms: S02_6  and  N27_28 
REMARK    7  A    between atoms: P04_8  and  C03_7 
REMARK    8  A    between atoms: O05_9  and  P04_8 
REMARK    9  A    between atoms: C06_10  and  O05_9 
REMARK   10  A    between atoms: C07_11  and  C06_10 
REMARK   11  A    between atoms: C08_12  and  O09_13 
REMARK   12  A    between atoms: N13_16  and  C12_15 
REMARK   13  A    between atoms: C29_29  and  N30_30 
REMARK       I    between atoms: N30_30  and  C31_31 
REMARK   14  A    between atoms: C31_31  and  C32_32 
ROOT
ATOM      1  C10 6ZD d   1     -16.166 -38.388 119.020  0.00  0.00     0.105 C 
ATOM      2  C07 6ZD d   1     -17.705 -39.962 120.047  0.00  0.00     0.089 C 
ATOM      3  C08 6ZD d   1     -17.633 -38.589 119.380  0.00  0.00     0.091 C 
ATOM      4  C12 6ZD d   1     -15.403 -39.374 119.953  0.00  0.00     0.139 C 
ATOM      5  O24 6ZD d   1     -16.344 -40.355 120.390  0.00  0.00    -0.353 OA
ATOM      6  H1  6ZD d   1     -15.982 -38.627 117.962  0.00  0.00     0.093 H 
ATOM      7  H8  6ZD d   1     -18.318 -39.898 120.958  0.00  0.00     0.090 H 
ATOM      8  H9  6ZD d   1     -18.256 -38.566 118.474  0.00  0.00     0.091 H 
ATOM      9  H12 6ZD d   1     -14.989 -38.837 120.819  0.00  0.00     0.122 H 
ENDROOT
BRANCH   2  10
ATOM     10  C06 6ZD d   1     -18.302 -40.988 119.117  0.00  0.00     0.056 C 
ATOM     11  H6  6ZD d   1     -17.505 -41.634 118.720  0.00  0.00     0.079 H 
ATOM     12  H7  6ZD d   1     -19.032 -41.602 119.665  0.00  0.00     0.079 H 
BRANCH  10  13
ATOM     13  O05 6ZD d   1     -18.948 -40.322 118.050  0.00  0.00    -0.309 OA
BRANCH  13  14
ATOM     14  P04 6ZD d   1     -18.527 -40.693 116.579  0.00  0.00     0.265 P 
ATOM     15  O25 6ZD d   1     -19.533 -41.767 116.059  0.00  0.00    -0.646 OA
ATOM     16  O26 6ZD d   1     -17.062 -41.199 116.431  0.00  0.00    -0.646 OA
BRANCH  14  17
ATOM     17  C03 6ZD d   1     -18.716 -39.100 115.675  0.00  0.00     0.141 C 
ATOM     18  H4  6ZD d   1     -18.092 -38.328 116.149  0.00  0.00     0.078 H 
ATOM     19  H5  6ZD d   1     -18.408 -39.229 114.627  0.00  0.00     0.078 H 
BRANCH  17  20
ATOM     20  S02 6ZD d   1     -20.465 -38.603 115.744  0.00  0.00     0.238 S 
ATOM     21  O01 6ZD d   1     -20.814 -38.079 114.455  0.00  0.00    -0.205 OA
ATOM     22  O35 6ZD d   1     -20.632 -37.731 116.865  0.00  0.00    -0.205 OA
BRANCH  20  23
ATOM     23  N27 6ZD d   1     -21.341 -39.978 116.023  0.00  0.00    -0.317 N 
ATOM     24  H18 6ZD d   1     -21.052 -40.616 116.736  0.00  0.00     0.172 HD
BRANCH  23  25
ATOM     25  C28 6ZD d   1     -22.524 -40.262 115.240  0.00  0.00     0.017 C 
ATOM     26  H2  6ZD d   1     -22.511 -39.657 114.321  0.00  0.00     0.067 H 
ATOM     27  H3  6ZD d   1     -23.422 -40.018 115.827  0.00  0.00     0.067 H 
BRANCH  25  28
ATOM     28  C29 6ZD d   1     -22.540 -41.759 114.872  0.00  0.00     0.010 C 
ATOM     29  H19 6ZD d   1     -21.611 -42.228 115.230  0.00  0.00     0.066 H 
ATOM     30  H20 6ZD d   1     -22.605 -41.861 113.779  0.00  0.00     0.066 H 
BRANCH  28  31
ATOM     31  N30 6ZD d   1     -23.679 -42.430 115.482  0.00  0.00    -0.360 N 
ATOM     32  C31 6ZD d   1     -23.717 -43.758 115.547  0.00  0.00     0.213 C 
ATOM     33  O34 6ZD d   1     -22.794 -44.431 115.089  0.00  0.00    -0.274 OA
ATOM     34  H21 6ZD d   1     -24.435 -41.891 115.853  0.00  0.00     0.162 HD
BRANCH  32  35
ATOM     35  C32 6ZD d   1     -24.914 -44.388 116.194  0.00  0.00    -0.003 C 
ATOM     36  H22 6ZD d   1     -24.807 -45.483 116.175  0.00  0.00     0.040 H 
ATOM     37  H23 6ZD d   1     -25.822 -44.099 115.645  0.00  0.00     0.040 H 
ATOM     38  H24 6ZD d   1     -24.991 -44.045 117.236  0.00  0.00     0.040 H 
ENDBRANCH  32  35
ENDBRANCH  28  31
ENDBRANCH  25  28
ENDBRANCH  23  25
ENDBRANCH  20  23
ENDBRANCH  17  20
ENDBRANCH  14  17
ENDBRANCH  13  14
ENDBRANCH  10  13
ENDBRANCH   2  10
BRANCH   3  39
ATOM     39  O09 6ZD d   1     -18.079 -37.579 120.292  0.00  0.00    -0.390 OA
ATOM     40  H10 6ZD d   1     -18.031 -36.729 119.870  0.00  0.00     0.210 HD
ENDBRANCH   3  39
BRANCH   1  41
ATOM     41  O11 6ZD d   1     -15.782 -37.034 119.284  0.00  0.00    -0.388 OA
ATOM     42  H11 6ZD d   1     -15.908 -36.844 120.206  0.00  0.00     0.210 HD
ENDBRANCH   1  41
BRANCH   4  43
ATOM     43  N13 6ZD d   1     -14.294 -40.016 119.181  0.00  0.00    -0.295 N 
ATOM     44  C14 6ZD d   1     -14.457 -40.659 117.993  0.00  0.00     0.071 A 
ATOM     45  N15 6ZD d   1     -13.291 -41.123 117.534  0.00  0.00    -0.234 NA
ATOM     46  H13 6ZD d   1     -15.412 -40.780 117.483  0.00  0.00     0.144 H 
ATOM     47  C17 6ZD d   1     -12.341 -40.755 118.453  0.00  0.00     0.171 A 
ATOM     48  C16 6ZD d   1     -12.957 -40.060 119.488  0.00  0.00     0.161 A 
ATOM     49  C18 6ZD d   1     -10.944 -40.970 118.490  0.00  0.00     0.292 A 
ATOM     50  N22 6ZD d   1     -12.192 -39.588 120.540  0.00  0.00    -0.174 N 
ATOM     51  C20 6ZD d   1     -10.836 -39.860 120.461  0.00  0.00     0.680 A 
ATOM     52  H17 6ZD d   1     -12.603 -39.069 121.329  0.00  0.00     0.186 HD
ATOM     53  N19 6ZD d   1     -10.190 -40.526 119.489  0.00  0.00    -0.154 N 
ATOM     54  H14 6ZD d   1      -9.202 -40.678 119.516  0.00  0.00     0.187 HD
ATOM     55  O23 6ZD d   1     -10.414 -41.590 117.542  0.00  0.00    -0.265 OA
BRANCH  51  56
ATOM     56  N21 6ZD d   1     -10.105 -39.400 121.486  0.00  0.00    -0.234 N 
ATOM     57  H15 6ZD d   1     -10.560 -38.884 122.252  0.00  0.00     0.174 HD
ATOM     58  H16 6ZD d   1      -9.088 -39.562 121.507  0.00  0.00     0.174 HD
ENDBRANCH  51  56
ENDBRANCH   4  43
TORSDOF 14
