REMARK  4 active torsions:
REMARK  status: ('A' for Active; 'I' for Inactive)
REMARK    1  A    between atoms: C3_8  and  C4_9 
REMARK    2  A    between atoms: N4_18  and  C13_19 
REMARK    3  A    between atoms: C14_24  and  N6_25 
REMARK    4  A    between atoms: C21_30  and  N7_31 
ROOT
ATOM      1  C13 6YN d   1     -38.668  -2.158   0.438  0.00  0.00     0.093 A 
ATOM      2  C17 6YN d   1     -37.894  -2.193  -0.715  0.00  0.00     0.030 A 
ATOM      3  N5  6YN d   1     -36.622  -2.562  -0.659  0.00  0.00    -0.271 NA
ATOM      4  C16 6YN d   1     -36.041  -2.901   0.484  0.00  0.00     0.004 A 
ATOM      5  C15 6YN d   1     -36.744  -2.885   1.683  0.00  0.00    -0.038 A 
ATOM      6  C14 6YN d   1     -38.083  -2.514   1.655  0.00  0.00     0.060 A 
ATOM      7  H8  6YN d   1     -38.333  -1.917  -1.667  0.00  0.00     0.118 H 
ATOM      8  H9  6YN d   1     -34.998  -3.196   0.483  0.00  0.00     0.114 H 
ATOM      9  H10 6YN d   1     -36.261  -3.155   2.615  0.00  0.00     0.089 H 
ENDROOT
BRANCH   1  10
ATOM     10  N4  6YN d   1     -39.943  -1.786   0.427  0.00  0.00    -0.184 N 
ATOM     11  C8  6YN d   1     -40.792  -1.715  -0.599  0.00  0.00     0.728 A 
ATOM     12  N2  6YN d   1     -42.114  -1.536  -0.301  0.00  0.00    -0.060 N 
ATOM     13  N3  6YN d   1     -40.619  -1.750  -1.920  0.00  0.00    -0.073 NA
ATOM     14  N1  6YN d   1     -42.674  -1.451   0.804  0.00  0.00    -0.151 NA
ATOM     15  C5  6YN d   1     -42.763  -1.482  -1.512  0.00  0.00     0.095 A 
ATOM     16  C4  6YN d   1     -43.991  -1.298   0.942  0.00  0.00     0.094 A 
ATOM     17  C7  6YN d   1     -44.754  -1.229  -0.231  0.00  0.00    -0.050 A 
ATOM     18  C6  6YN d   1     -44.141  -1.314  -1.484  0.00  0.00    -0.051 A 
ATOM     19  H4  6YN d   1     -45.834  -1.108  -0.166  0.00  0.00     0.087 H 
ATOM     20  H5  6YN d   1     -44.722  -1.251  -2.403  0.00  0.00     0.087 H 
ATOM     21  C9  6YN d   1     -41.835  -1.615  -2.477  0.00  0.00     0.049 A 
ATOM     22  H6  6YN d   1     -42.038  -1.613  -3.547  0.00  0.00     0.119 H 
ATOM     23  H7  6YN d   1     -40.331  -1.514   1.341  0.00  0.00     0.184 HD
BRANCH  16  24
ATOM     24  C3  6YN d   1     -44.553  -1.227   2.238  0.00  0.00     0.071 A 
ATOM     25  C12 6YN d   1     -44.074  -2.054   3.262  0.00  0.00     0.132 A 
ATOM     26  F1  6YN d   1     -43.066  -2.910   3.019  0.00  0.00    -0.205 F 
ATOM     27  C11 6YN d   1     -44.618  -2.013   4.544  0.00  0.00    -0.045 A 
ATOM     28  C2  6YN d   1     -45.669  -1.142   4.829  0.00  0.00    -0.077 A 
ATOM     29  H1  6YN d   1     -44.224  -2.659   5.321  0.00  0.00     0.088 H 
ATOM     30  C1  6YN d   1     -46.162  -0.321   3.817  0.00  0.00    -0.045 A 
ATOM     31  H2  6YN d   1     -46.097  -1.104   5.824  0.00  0.00     0.083 H 
ATOM     32  C10 6YN d   1     -45.605  -0.364   2.540  0.00  0.00     0.132 A 
ATOM     33  H3  6YN d   1     -46.984   0.355   4.024  0.00  0.00     0.088 H 
ATOM     34  F2  6YN d   1     -46.097   0.439   1.587  0.00  0.00    -0.205 F 
ENDBRANCH  16  24
ENDBRANCH   1  10
BRANCH   6  35
ATOM     35  N6  6YN d   1     -38.786  -2.459   2.876  0.00  0.00    -0.377 N 
ATOM     36  C22 6YN d   1     -38.835  -3.631   3.777  0.00  0.00     0.021 C 
ATOM     37  C21 6YN d   1     -40.086  -3.649   4.656  0.00  0.00     0.115 C 
ATOM     38  H11 6YN d   1     -37.948  -3.612   4.428  0.00  0.00     0.067 H 
ATOM     39  H12 6YN d   1     -38.822  -4.545   3.166  0.00  0.00     0.067 H 
ATOM     40  C20 6YN d   1     -40.248  -2.270   5.341  0.00  0.00    -0.036 C 
ATOM     41  H19 6YN d   1     -40.967  -3.845   4.028  0.00  0.00     0.086 H 
ATOM     42  C19 6YN d   1     -40.469  -1.205   4.272  0.00  0.00    -0.048 C 
ATOM     43  H17 6YN d   1     -41.113  -2.295   6.020  0.00  0.00     0.036 H 
ATOM     44  H18 6YN d   1     -39.339  -2.034   5.914  0.00  0.00     0.036 H 
ATOM     45  C18 6YN d   1     -39.265  -1.118   3.334  0.00  0.00    -0.005 C 
ATOM     46  H15 6YN d   1     -41.364  -1.462   3.687  0.00  0.00     0.035 H 
ATOM     47  H16 6YN d   1     -40.617  -0.230   4.760  0.00  0.00     0.035 H 
ATOM     48  H13 6YN d   1     -39.550  -0.527   2.451  0.00  0.00     0.064 H 
ATOM     49  H14 6YN d   1     -38.443  -0.614   3.864  0.00  0.00     0.064 H 
BRANCH  37  50
ATOM     50  N7  6YN d   1     -39.973  -4.711   5.667  0.00  0.00    -0.073 N 
ATOM     51  H20 6YN d   1     -39.868  -5.602   5.208  0.00  0.00     0.274 HD
ATOM     52  H21 6YN d   1     -40.804  -4.722   6.237  0.00  0.00     0.274 HD
ATOM     53  H22 6YN d   1     -39.169  -4.536   6.249  0.00  0.00     0.274 HD
ENDBRANCH  37  50
ENDBRANCH   6  35
TORSDOF 4
