REMARK WARNING: 32 MAX_TORS EXCEEDED!!!
REMARK  39 active torsions:
REMARK  status: ('A' for Active; 'I' for Inactive)
REMARK    1  A    between atoms: N_1  and  CA_2 
REMARK    2  A    between atoms: CA_8  and  CB_11 
REMARK    3  A    between atoms: CB_11  and  CG_12 
REMARK    4  A    between atoms: CG_12  and  CD_13 
REMARK       I    between atoms: CD_13  and  NE2_15 
REMARK    5  A    between atoms: CA_17  and  CB_20 
REMARK    6  A    between atoms: CB_20  and  CG_21 
REMARK    7  A    between atoms: CG_21  and  CD1_22 
REMARK    8  A    between atoms: CG_21  and  CD2_23 
REMARK    9  A    between atoms: CA_25  and  CB_28 
REMARK   10  A    between atoms: CB_28  and  CG1_29 
REMARK   11  A    between atoms: CB_28  and  CG2_30 
REMARK   12  A    between atoms: CG1_29  and  CD1_31 
REMARK   13  A    between atoms: CA_33  and  CB_36 
REMARK   14  A    between atoms: CB_36  and  CG_37 
REMARK       I    between atoms: CG_37  and  ND2_39 
REMARK   15  A    between atoms: CA_41  and  CB_44 
REMARK   16  A    between atoms: CB_44  and  OG1_45 
REMARK   17  A    between atoms: CB_44  and  CG2_46 
REMARK   18  A    between atoms: CA_48  and  CB_51 
REMARK   19  A    between atoms: CB_51  and  CG_52 
REMARK       I    between atoms: CG_52  and  ND2_54 
REMARK   20  A    between atoms: CA_60  and  CB_63 
REMARK   21  A    between atoms: CB_63  and  OG_64 
REMARK   22  A    between atoms: CA_66  and  CB_69 
REMARK   23  A    between atoms: CB_69  and  CG_70 
REMARK   24  A    between atoms: CA_80  and  CB_83 
REMARK   25  A    between atoms: CB_83  and  CG_84 
REMARK   26  A    between atoms: CA_90  and  CB_93 
REMARK   27  A    between atoms: CB_93  and  CG1_94 
REMARK   28  A    between atoms: CB_93  and  CG2_95 
REMARK   29  A    between atoms: CG1_94  and  CD1_96 
REMARK   30  A    between atoms: CA_98  and  CB_101 
REMARK   31  A    between atoms: CB_101  and  CG_102 
REMARK       I    between atoms: CG_102  and  ND2_104 
REMARK   32  A    between atoms: CA_106  and  C_107 
REMARK       I    between atoms: C_107  and  N_111 
REMARK   33  A    between atoms: N_111  and  CA_112 
REMARK   34  A    between atoms: CA_112  and  C_113 
REMARK   35  A    between atoms: CA_112  and  CB_115 
REMARK   36  A    between atoms: CB_115  and  CG_116 
REMARK   37  A    between atoms: CG_116  and  CD_117 
REMARK   38  A    between atoms: CD_117  and  CE_118 
REMARK   39  A    between atoms: CE_118  and  NZ_119 
ROOT
ATOM      1  CA  CYS d   1      -0.098 -16.731   9.606  0.00  0.00     0.184 C 
ATOM      2  C   CYS d   1       0.646 -15.993  10.714  0.00  0.00     0.249 C 
ATOM      3  O   CYS d   1       0.785 -16.483  11.826  0.00  0.00    -0.271 OA
ATOM      4  CB  CYS d   1      -1.613 -16.579   9.779  0.00  0.00     0.021 C 
ATOM      5  SG  CYS d   1      -2.556 -17.295   8.412  0.00  0.00    -0.095 SA
ATOM      6  N   CYS d   1       0.359 -14.892   5.579  0.00  0.00    -0.345 N 
ATOM      7  CA  CYS d   1       0.231 -16.343   5.732  0.00  0.00     0.098 C 
ATOM      8  CB  CYS d   1      -1.243 -16.794   5.678  0.00  0.00     0.013 C 
ATOM      9  SG  CYS d   1      -2.410 -15.987   6.811  0.00  0.00    -0.095 SA
ATOM     10  H4  CYS d   1       0.184 -16.277   8.645  0.00  0.00     0.100 H 
ATOM     11  H5  CYS d   1      -1.852 -15.508   9.847  0.00  0.00     0.054 H 
ATOM     12  H6  CYS d   1      -1.911 -17.081  10.711  0.00  0.00     0.054 H 
ATOM     13  H98 CYS d   1       0.134 -14.482   4.695  0.00  0.00     0.163 HD
ATOM     14  H99 CYS d   1       0.658 -16.639   6.702  0.00  0.00     0.088 H 
ATOM     15 0H10 CYS d   1      -1.266 -17.872   5.895  0.00  0.00     0.053 H 
ATOM     16 1H10 CYS d   1      -1.604 -16.618   4.654  0.00  0.00     0.053 H 
ATOM     17  N   GLN d   1       1.137 -14.804  10.379  0.00  0.00    -0.346 N 
ATOM     18  CA  GLN d   1       1.853 -13.948  11.305  0.00  0.00     0.090 C 
ATOM     19  C   GLN d   1       1.177 -12.582  11.313  0.00  0.00     0.241 C 
ATOM     20  O   GLN d   1       0.861 -12.030  10.247  0.00  0.00    -0.271 OA
ATOM     21  H7  GLN d   1       1.006 -14.484   9.441  0.00  0.00     0.163 HD
ATOM     22  H8  GLN d   1       1.807 -14.383  12.314  0.00  0.00     0.087 H 
ATOM     23  N   LEU d   1       0.969 -12.029  12.508  0.00  0.00    -0.346 N 
ATOM     24  CA  LEU d   1       0.408 -10.690  12.642  0.00  0.00     0.089 C 
ATOM     25  C   LEU d   1       1.553  -9.681  12.574  0.00  0.00     0.241 C 
ATOM     26  O   LEU d   1       2.504  -9.784  13.349  0.00  0.00    -0.271 OA
ATOM     27  H15 LEU d   1       1.203 -12.545  13.332  0.00  0.00     0.163 HD
ATOM     28  H16 LEU d   1      -0.286 -10.508  11.808  0.00  0.00     0.087 H 
ATOM     29  N   ILE d   1       1.459  -8.712  11.650  0.00  0.00    -0.346 N 
ATOM     30  CA  ILE d   1       2.518  -7.739  11.390  0.00  0.00     0.092 C 
ATOM     31  C   ILE d   1       2.022  -6.332  11.696  0.00  0.00     0.241 C 
ATOM     32  O   ILE d   1       0.946  -5.918  11.235  0.00  0.00    -0.271 OA
ATOM     33  N   ILE d   1      -1.981  -9.278   8.230  0.00  0.00    -0.346 N 
ATOM     34  CA  ILE d   1      -1.660 -10.678   8.471  0.00  0.00     0.092 C 
ATOM     35  C   ILE d   1      -1.049 -11.257   7.198  0.00  0.00     0.241 C 
ATOM     36  O   ILE d   1      -1.593 -11.085   6.094  0.00  0.00    -0.271 OA
ATOM     37  H26 ILE d   1       0.619  -8.653  11.111  0.00  0.00     0.163 HD
ATOM     38  H27 ILE d   1       3.366  -7.971  12.050  0.00  0.00     0.088 H 
ATOM     39  H81 ILE d   1      -2.706  -9.050   7.580  0.00  0.00     0.163 HD
ATOM     40  H82 ILE d   1      -0.907 -10.727   9.271  0.00  0.00     0.088 H 
ATOM     41  N   ASN d   1       2.868  -5.565  12.377  0.00  0.00    -0.346 N 
ATOM     42  CA  ASN d   1       2.668  -4.133  12.552  0.00  0.00     0.097 C 
ATOM     43  C   ASN d   1       3.797  -3.383  11.852  0.00  0.00     0.241 C 
ATOM     44  O   ASN d   1       4.963  -3.557  12.206  0.00  0.00    -0.271 OA
ATOM     45  N   ASN d   1       4.887   0.442  11.144  0.00  0.00    -0.345 N 
ATOM     46  CA  ASN d   1       4.663   1.853  11.518  0.00  0.00     0.097 C 
ATOM     47  C   ASN d   1       3.221   2.083  11.986  0.00  0.00     0.241 C 
ATOM     48  O   ASN d   1       2.619   3.131  11.735  0.00  0.00    -0.271 OA
ATOM     49  N   ASN d   1       0.119 -11.880   7.348  0.00  0.00    -0.346 N 
ATOM     50  CA  ASN d   1       0.792 -12.599   6.274  0.00  0.00     0.097 C 
ATOM     51  C   ASN d   1       0.763 -14.093   6.570  0.00  0.00     0.241 C 
ATOM     52  O   ASN d   1       1.129 -14.515   7.678  0.00  0.00    -0.271 OA
ATOM     53  H37 ASN d   1       3.676  -5.989  12.786  0.00  0.00     0.163 HD
ATOM     54  H38 ASN d   1       1.712  -3.851  12.087  0.00  0.00     0.088 H 
ATOM     55  H50 ASN d   1       5.705  -0.017  11.491  0.00  0.00     0.163 HD
ATOM     56  H51 ASN d   1       5.326   2.080  12.366  0.00  0.00     0.088 H 
ATOM     57  H92 ASN d   1       0.558 -11.853   8.246  0.00  0.00     0.163 HD
ATOM     58  H93 ASN d   1       0.253 -12.412   5.334  0.00  0.00     0.088 H 
ATOM     59  N   THR d   1       3.440  -2.541  10.879  0.00  0.00    -0.344 N 
ATOM     60  CA  THR d   1       4.389  -1.721  10.129  0.00  0.00     0.113 C 
ATOM     61  C   THR d   1       4.052  -0.253  10.365  0.00  0.00     0.243 C 
ATOM     62  O   THR d   1       3.028   0.232   9.864  0.00  0.00    -0.271 OA
ATOM     63  H43 THR d   1       2.469  -2.467  10.651  0.00  0.00     0.163 HD
ATOM     64  H44 THR d   1       5.407  -1.919  10.496  0.00  0.00     0.091 H 
ATOM     65  N   GLY d   1       2.655   1.087  12.674  0.00  0.00    -0.351 N 
ATOM     66  CA  GLY d   1       1.318   1.194  13.213  0.00  0.00     0.069 C 
ATOM     67  C   GLY d   1       0.259   0.488  12.394  0.00  0.00     0.236 C 
ATOM     68  O   GLY d   1      -0.857   0.271  12.900  0.00  0.00    -0.272 OA
ATOM     69  H56 GLY d   1       3.171   0.243  12.820  0.00  0.00     0.163 HD
ATOM     70  H57 GLY d   1       1.054   2.260  13.272  0.00  0.00     0.078 H 
ATOM     71  H58 GLY d   1       1.318   0.760  14.224  0.00  0.00     0.078 H 
ATOM     72  N   SER d   1       0.555   0.162  11.136  0.00  0.00    -0.344 N 
ATOM     73  CA  SER d   1      -0.446  -0.468  10.277  0.00  0.00     0.109 C 
ATOM     74  C   SER d   1      -0.462  -1.979  10.475  0.00  0.00     0.243 C 
ATOM     75  O   SER d   1       0.595  -2.619  10.491  0.00  0.00    -0.271 OA
ATOM     76  H59 SER d   1       1.469   0.350  10.777  0.00  0.00     0.163 HD
ATOM     77  H60 SER d   1      -1.437  -0.071  10.543  0.00  0.00     0.090 H 
ATOM     78  N   TRP d   1      -1.653  -2.560  10.591  0.00  0.00    -0.346 N 
ATOM     79  CA  TRP d   1      -1.755  -3.991  10.849  0.00  0.00     0.093 C 
ATOM     80  C   TRP d   1      -2.004  -4.813   9.584  0.00  0.00     0.241 C 
ATOM     81  O   TRP d   1      -2.749  -4.417   8.697  0.00  0.00    -0.271 OA
ATOM     82  H64 TRP d   1      -2.484  -2.011  10.501  0.00  0.00     0.163 HD
ATOM     83  H65 TRP d   1      -0.791  -4.310  11.271  0.00  0.00     0.088 H 
ATOM     84  N   HIS d   1      -1.363  -5.961   9.497  0.00  0.00    -0.346 N 
ATOM     85  CA  HIS d   1      -1.752  -6.892   8.449  0.00  0.00     0.094 C 
ATOM     86  C   HIS d   1      -1.336  -8.294   8.852  0.00  0.00     0.241 C 
ATOM     87  O   HIS d   1      -0.446  -8.486   9.690  0.00  0.00    -0.271 OA
ATOM     88  H74 HIS d   1      -0.627  -6.187  10.136  0.00  0.00     0.163 HD
ATOM     89  H75 HIS d   1      -2.849  -6.870   8.371  0.00  0.00     0.088 H 
ENDROOT
BRANCH   7  90
ATOM     90  C   CYS d   1       1.002 -17.028   4.606  0.00  0.00     0.242 C 
ATOM     91  O   CYS d   1       0.706 -16.803   3.426  0.00  0.00    -0.271 OA
ATOM     92  N   LYS d   1       1.925 -17.918   4.976  0.00  0.00    -0.345 N 
ATOM     93 2H10 LYS d   1       2.079 -18.043   5.956  0.00  0.00     0.163 HD
BRANCH  92  94
ATOM     94  CA  LYS d   1       2.733 -18.729   4.051  0.00  0.00     0.096 C 
ATOM     95 3H10 LYS d   1       2.483 -18.442   3.019  0.00  0.00     0.089 H 
BRANCH  94  96
ATOM     96  C   LYS d   1       2.443 -20.189   4.270  0.00  0.00     0.196 C 
ATOM     97  O   LYS d   1       1.929 -20.526   5.330  0.00  0.00    -0.646 OA
ATOM     98  OXT LYS d   1       2.781 -21.035   3.433  0.00  0.00    -0.646 OA
ENDBRANCH  94  96
BRANCH  94  99
ATOM     99  CB  LYS d   1       4.237 -18.570   4.275  0.00  0.00    -0.037 C 
ATOM    100 4H10 LYS d   1       4.743 -19.146   3.486  0.00  0.00     0.036 H 
ATOM    101 5H10 LYS d   1       4.466 -19.012   5.256  0.00  0.00     0.036 H 
BRANCH  99 102
ATOM    102  CG  LYS d   1       4.820 -17.216   4.264  0.00  0.00    -0.061 C 
ATOM    103 6H10 LYS d   1       4.157 -16.523   4.803  0.00  0.00     0.033 H 
ATOM    104 7H10 LYS d   1       4.943 -16.874   3.226  0.00  0.00     0.033 H 
BRANCH 102 105
ATOM    105  CD  LYS d   1       6.187 -17.267   4.956  0.00  0.00    -0.043 C 
ATOM    106 8H10 LYS d   1       6.790 -18.065   4.499  0.00  0.00     0.035 H 
ATOM    107 9H10 LYS d   1       6.040 -17.485   6.024  0.00  0.00     0.035 H 
BRANCH 105 108
ATOM    108  CE  LYS d   1       6.930 -15.941   4.817  0.00  0.00     0.080 C 
ATOM    109 0H11 LYS d   1       7.576 -15.990   3.928  0.00  0.00     0.075 H 
ATOM    110 1H11 LYS d   1       7.549 -15.788   5.713  0.00  0.00     0.075 H 
BRANCH 108 111
ATOM    111  NZ  LYS d   1       5.999 -14.777   4.671  0.00  0.00    -0.079 N 
ATOM    112 2H11 LYS d   1       6.534 -13.928   4.583  0.00  0.00     0.274 HD
ATOM    113 3H11 LYS d   1       5.406 -14.717   5.484  0.00  0.00     0.274 HD
ATOM    114 4H11 LYS d   1       5.430 -14.903   3.848  0.00  0.00     0.274 HD
ENDBRANCH 108 111
ENDBRANCH 105 108
ENDBRANCH 102 105
ENDBRANCH  99 102
ENDBRANCH  94  99
ENDBRANCH  92  94
ENDBRANCH   7  90
BRANCH  50 115
ATOM    115  CB  ASN d   1       2.242 -12.120   6.108  0.00  0.00     0.036 C 
ATOM    116  H94 ASN d   1       2.796 -12.334   7.034  0.00  0.00     0.051 H 
ATOM    117  H95 ASN d   1       2.240 -11.035   5.925  0.00  0.00     0.051 H 
BRANCH 115 118
ATOM    118  CG  ASN d   1       2.933 -12.809   4.955  0.00  0.00     0.217 C 
ATOM    119  OD1 ASN d   1       4.038 -13.339   5.086  0.00  0.00    -0.274 OA
ATOM    120  ND2 ASN d   1       2.245 -12.853   3.805  0.00  0.00    -0.370 N 
ATOM    121  H96 ASN d   1       2.643 -13.294   3.001  0.00  0.00     0.159 HD
ATOM    122  H97 ASN d   1       1.334 -12.444   3.752  0.00  0.00     0.159 HD
ENDBRANCH 115 118
ENDBRANCH  50 115
BRANCH   1 123
ATOM    123  N   CYS d   1       0.275 -18.127   9.568  0.00  0.00    -0.066 N 
ATOM    124  H1  CYS d   1      -0.230 -18.590   8.829  0.00  0.00     0.275 HD
ATOM    125  H2  CYS d   1       0.050 -18.559  10.450  0.00  0.00     0.275 HD
ATOM    126  H3  CYS d   1       1.266 -18.206   9.399  0.00  0.00     0.275 HD
ENDBRANCH   1 123
BRANCH  34 127
ATOM    127  CB  ILE d   1      -2.885 -11.484   8.933  0.00  0.00    -0.030 C 
ATOM    128  H83 ILE d   1      -3.732 -11.262   8.268  0.00  0.00     0.043 H 
BRANCH 127 129
ATOM    129  CG1 ILE d   1      -3.264 -11.089  10.376  0.00  0.00    -0.063 C 
ATOM    130  H84 ILE d   1      -3.224  -9.992  10.448  0.00  0.00     0.033 H 
ATOM    131  H85 ILE d   1      -2.518 -11.529  11.054  0.00  0.00     0.033 H 
BRANCH 129 132
ATOM    132  CD1 ILE d   1      -4.681 -11.552  10.853  0.00  0.00    -0.076 C 
ATOM    133  H89 ILE d   1      -4.846 -11.219  11.889  0.00  0.00     0.027 H 
ATOM    134  H90 ILE d   1      -4.743 -12.649  10.806  0.00  0.00     0.027 H 
ATOM    135  H91 ILE d   1      -5.449 -11.113  10.200  0.00  0.00     0.027 H 
ENDBRANCH 129 132
ENDBRANCH 127 129
BRANCH 127 136
ATOM    136  CG2 ILE d   1      -2.571 -12.987   8.861  0.00  0.00    -0.071 C 
ATOM    137  H86 ILE d   1      -2.303 -13.256   7.829  0.00  0.00     0.028 H 
ATOM    138  H87 ILE d   1      -3.456 -13.562   9.172  0.00  0.00     0.028 H 
ATOM    139  H88 ILE d   1      -1.730 -13.218   9.531  0.00  0.00     0.028 H 
ENDBRANCH 127 136
ENDBRANCH  34 127
BRANCH  18 140
ATOM    140  CB  GLN d   1       3.330 -13.818  10.883  0.00  0.00    -0.030 C 
ATOM    141  H9  GLN d   1       3.460 -12.853  10.371  0.00  0.00     0.037 H 
ATOM    142  H10 GLN d   1       3.564 -14.636  10.186  0.00  0.00     0.037 H 
BRANCH 140 143
ATOM    143  CG  GLN d   1       4.299 -13.880  12.025  0.00  0.00     0.011 C 
ATOM    144  H11 GLN d   1       3.995 -13.153  12.793  0.00  0.00     0.047 H 
ATOM    145  H12 GLN d   1       5.304 -13.626  11.657  0.00  0.00     0.047 H 
BRANCH 143 146
ATOM    146  CD  GLN d   1       4.333 -15.266  12.641  0.00  0.00     0.215 C 
ATOM    147  OE1 GLN d   1       4.459 -15.416  13.851  0.00  0.00    -0.274 OA
ATOM    148  NE2 GLN d   1       4.205 -16.290  11.803  0.00  0.00    -0.370 N 
ATOM    149  H13 GLN d   1       4.220 -17.227  12.152  0.00  0.00     0.159 HD
ATOM    150  H14 GLN d   1       4.094 -16.123  10.823  0.00  0.00     0.159 HD
ENDBRANCH 143 146
ENDBRANCH 140 143
ENDBRANCH  18 140
BRANCH  85 151
ATOM    151  CB  HIS d   1      -1.186  -6.512   7.063  0.00  0.00     0.004 C 
ATOM    152  H76 HIS d   1      -1.560  -5.511   6.803  0.00  0.00     0.046 H 
ATOM    153  H77 HIS d   1      -1.556  -7.244   6.330  0.00  0.00     0.046 H 
BRANCH 151 154
ATOM    154  CG  HIS d   1       0.308  -6.486   6.982  0.00  0.00     0.053 A 
ATOM    155  ND1 HIS d   1       1.048  -7.546   6.497  0.00  0.00    -0.247 NA
ATOM    156  CE1 HIS d   1       2.332  -7.225   6.498  0.00  0.00     0.064 A 
ATOM    157  NE2 HIS d   1       2.448  -5.979   6.917  0.00  0.00    -0.359 N 
ATOM    158  H79 HIS d   1       3.152  -7.878   6.203  0.00  0.00     0.143 H 
ATOM    159  CD2 HIS d   1       1.197  -5.488   7.212  0.00  0.00     0.002 A 
ATOM    160  H80 HIS d   1       3.332  -5.458   7.008  0.00  0.00     0.166 HD
ATOM    161  H78 HIS d   1       0.964  -4.484   7.565  0.00  0.00     0.114 H 
ENDBRANCH 151 154
ENDBRANCH  85 151
BRANCH  24 162
ATOM    162  CB  LEU d   1      -0.359 -10.533  13.959  0.00  0.00    -0.035 C 
ATOM    163  H17 LEU d   1       0.256 -10.940  14.775  0.00  0.00     0.037 H 
ATOM    164  H18 LEU d   1      -1.299 -11.101  13.889  0.00  0.00     0.037 H 
BRANCH 162 165
ATOM    165  CG  LEU d   1      -0.693  -9.061  14.278  0.00  0.00    -0.059 C 
ATOM    166  H19 LEU d   1       0.237  -8.488  14.144  0.00  0.00     0.038 H 
BRANCH 165 167
ATOM    167  CD1 LEU d   1      -1.732  -8.511  13.297  0.00  0.00    -0.073 C 
ATOM    168  H20 LEU d   1      -1.952  -7.462  13.546  0.00  0.00     0.028 H 
ATOM    169  H21 LEU d   1      -2.654  -9.106  13.368  0.00  0.00     0.028 H 
ATOM    170  H22 LEU d   1      -1.336  -8.569  12.272  0.00  0.00     0.028 H 
ENDBRANCH 165 167
BRANCH 165 171
ATOM    171  CD2 LEU d   1      -1.182  -8.804  15.718  0.00  0.00    -0.073 C 
ATOM    172  H23 LEU d   1      -0.442  -9.196  16.432  0.00  0.00     0.028 H 
ATOM    173  H24 LEU d   1      -2.146  -9.311  15.874  0.00  0.00     0.028 H 
ATOM    174  H25 LEU d   1      -1.307  -7.723  15.875  0.00  0.00     0.028 H 
ENDBRANCH 165 171
ENDBRANCH 162 165
ENDBRANCH  24 162
BRANCH  79 175
ATOM    175  CB  TRP d   1      -2.848  -4.324  11.871  0.00  0.00    -0.012 C 
ATOM    176  H66 TRP d   1      -2.772  -5.399  12.092  0.00  0.00     0.044 H 
ATOM    177  H67 TRP d   1      -3.817  -4.115  11.393  0.00  0.00     0.044 H 
BRANCH 175 178
ATOM    178  CG  TRP d   1      -2.833  -3.597  13.184  0.00  0.00    -0.028 A 
ATOM    179  CD1 TRP d   1      -3.553  -2.493  13.516  0.00  0.00    -0.015 A 
ATOM    180  NE1 TRP d   1      -3.312  -2.152  14.826  0.00  0.00    -0.365 N 
ATOM    181  H68 TRP d   1      -4.222  -1.958  12.844  0.00  0.00     0.112 H 
ATOM    182  CE2 TRP d   1      -2.383  -3.015  15.342  0.00  0.00     0.042 A 
ATOM    183  H69 TRP d   1      -3.757  -1.375  15.335  0.00  0.00     0.165 HD
ATOM    184  CD2 TRP d   1      -2.070  -3.944  14.337  0.00  0.00    -0.002 A 
ATOM    185  CZ2 TRP d   1      -1.818  -3.070  16.622  0.00  0.00    -0.056 A 
ATOM    186  CE3 TRP d   1      -1.149  -4.967  14.624  0.00  0.00    -0.070 A 
ATOM    187  CZ3 TRP d   1      -0.598  -5.038  15.898  0.00  0.00    -0.082 A 
ATOM    188  H70 TRP d   1      -0.873  -5.689  13.864  0.00  0.00     0.084 H 
ATOM    189  CH2 TRP d   1      -0.927  -4.081  16.881  0.00  0.00    -0.081 A 
ATOM    190  H72 TRP d   1       0.093  -5.838  16.139  0.00  0.00     0.083 H 
ATOM    191  H73 TRP d   1      -0.467  -4.146  17.860  0.00  0.00     0.083 H 
ATOM    192  H71 TRP d   1      -2.075  -2.340  17.381  0.00  0.00     0.086 H 
ENDBRANCH 175 178
ENDBRANCH  79 175
BRANCH  30 193
ATOM    193  CB  ILE d   1       3.011  -7.773   9.933  0.00  0.00    -0.030 C 
ATOM    194  H28 ILE d   1       2.240  -7.308   9.300  0.00  0.00     0.043 H 
BRANCH 193 195
ATOM    195  CG1 ILE d   1       3.193  -9.217   9.457  0.00  0.00    -0.063 C 
ATOM    196  H29 ILE d   1       3.308  -9.214   8.363  0.00  0.00     0.033 H 
ATOM    197  H30 ILE d   1       2.296  -9.792   9.730  0.00  0.00     0.033 H 
BRANCH 195 198
ATOM    198  CD1 ILE d   1       4.377  -9.877  10.054  0.00  0.00    -0.076 C 
ATOM    199  H34 ILE d   1       4.453 -10.907   9.675  0.00  0.00     0.027 H 
ATOM    200  H35 ILE d   1       4.273  -9.896  11.149  0.00  0.00     0.027 H 
ATOM    201  H36 ILE d   1       5.285  -9.318   9.782  0.00  0.00     0.027 H 
ENDBRANCH 195 198
ENDBRANCH 193 195
BRANCH 193 202
ATOM    202  CG2 ILE d   1       4.315  -6.931   9.790  0.00  0.00    -0.071 C 
ATOM    203  H31 ILE d   1       4.130  -5.906  10.144  0.00  0.00     0.028 H 
ATOM    204  H32 ILE d   1       4.620  -6.904   8.733  0.00  0.00     0.028 H 
ATOM    205  H33 ILE d   1       5.115  -7.388  10.391  0.00  0.00     0.028 H 
ENDBRANCH 193 202
ENDBRANCH  30 193
BRANCH  73 206
ATOM    206  CB  SER d   1      -0.159  -0.128   8.822  0.00  0.00     0.044 C 
ATOM    207  H61 SER d   1      -0.524  -0.939   8.175  0.00  0.00     0.077 H 
ATOM    208  H62 SER d   1       0.925  -0.004   8.679  0.00  0.00     0.077 H 
BRANCH 206 209
ATOM    209  OG  SER d   1      -0.824   1.081   8.491  0.00  0.00    -0.398 OA
ATOM    210  H63 SER d   1      -0.508   1.779   9.052  0.00  0.00     0.209 HD
ENDBRANCH 206 209
ENDBRANCH  73 206
BRANCH  42 211
ATOM    211  CB  ASN d   1       2.613  -3.758  14.036  0.00  0.00     0.036 C 
ATOM    212  H39 ASN d   1       3.604  -3.930  14.481  0.00  0.00     0.051 H 
ATOM    213  H40 ASN d   1       1.871  -4.398  14.535  0.00  0.00     0.051 H 
BRANCH 211 214
ATOM    214  CG  ASN d   1       2.225  -2.298  14.252  0.00  0.00     0.217 C 
ATOM    215  OD1 ASN d   1       2.910  -1.369  13.772  0.00  0.00    -0.274 OA
ATOM    216  ND2 ASN d   1       1.082  -2.088  14.927  0.00  0.00    -0.370 N 
ATOM    217  H41 ASN d   1       0.770  -1.155  15.103  0.00  0.00     0.159 HD
ATOM    218  H42 ASN d   1       0.544  -2.865  15.253  0.00  0.00     0.159 HD
ENDBRANCH 211 214
ENDBRANCH  42 211
BRANCH  60 219
ATOM    219  CB  THR d   1       4.331  -2.064   8.644  0.00  0.00     0.060 C 
ATOM    220  H45 THR d   1       3.346  -1.765   8.257  0.00  0.00     0.086 H 
BRANCH 219 221
ATOM    221  OG1 THR d   1       4.479  -3.482   8.473  0.00  0.00    -0.393 OA
ATOM    222  H46 THR d   1       4.443  -3.694   7.548  0.00  0.00     0.210 HD
ENDBRANCH 219 221
BRANCH 219 223
ATOM    223  CG2 THR d   1       5.445  -1.283   7.822  0.00  0.00    -0.050 C 
ATOM    224  H47 THR d   1       5.373  -1.554   6.758  0.00  0.00     0.031 H 
ATOM    225  H48 THR d   1       6.440  -1.555   8.203  0.00  0.00     0.031 H 
ATOM    226  H49 THR d   1       5.292  -0.200   7.935  0.00  0.00     0.031 H 
ENDBRANCH 219 223
ENDBRANCH  60 219
BRANCH  46 227
ATOM    227  CB  ASN d   1       5.041   2.815  10.360  0.00  0.00     0.036 C 
ATOM    228  H52 ASN d   1       4.313   2.683   9.546  0.00  0.00     0.051 H 
ATOM    229  H53 ASN d   1       6.046   2.548  10.000  0.00  0.00     0.051 H 
BRANCH 227 230
ATOM    230  CG  ASN d   1       5.049   4.326  10.779  0.00  0.00     0.217 C 
ATOM    231  OD1 ASN d   1       5.094   4.658  11.971  0.00  0.00    -0.274 OA
ATOM    232  ND2 ASN d   1       4.996   5.237   9.779  0.00  0.00    -0.370 N 
ATOM    233  H54 ASN d   1       4.998   6.214   9.992  0.00  0.00     0.159 HD
ATOM    234  H55 ASN d   1       4.954   4.933   8.827  0.00  0.00     0.159 HD
ENDBRANCH 227 230
ENDBRANCH  46 227
TORSDOF 39
