REMARK  7 active torsions:
REMARK  status: ('A' for Active; 'I' for Inactive)
REMARK    1  A    between atoms: C9_9  and  C7_1 
REMARK    2  A    between atoms: S24_24  and  C6_2 
REMARK    3  A    between atoms: C14_14  and  C8_8 
REMARK    4  A    between atoms: C15_15  and  C12_12 
REMARK    5  A    between atoms: C13_13  and  O21_21 
REMARK    6  A    between atoms: C14_14  and  N16_16 
REMARK    7  A    between atoms: C15_15  and  S24_24 
ROOT
ATOM      1  C9  6YS d   1     -22.020 -28.703  23.946  0.00  0.00     0.043 A 
ATOM      2  C10 6YS d   1     -21.720 -29.127  25.356  0.00  0.00    -0.008 A 
ATOM      3  C11 6YS d   1     -22.487 -27.873  25.108  0.00  0.00     0.009 A 
ATOM      4  C12 6YS d   1     -24.017 -29.573  25.979  0.00  0.00     0.022 C 
ATOM      5  C13 6YS d   1     -22.582 -30.156  26.014  0.00  0.00     0.047 C 
ATOM      6  C14 6YS d   1     -23.845 -28.048  25.716  0.00  0.00     0.222 C 
ATOM      7  H4  6YS d   1     -22.773 -29.266  23.376  0.00  0.00     0.058 H 
ATOM      8  H5  6YS d   1     -20.686 -29.146  25.732  0.00  0.00     0.046 H 
ATOM      9  H6  6YS d   1     -22.092 -26.857  25.252  0.00  0.00     0.046 H 
ATOM     10  H7  6YS d   1     -24.517 -29.986  25.091  0.00  0.00     0.049 H 
ATOM     11  H8  6YS d   1     -22.269 -30.343  27.052  0.00  0.00     0.084 H 
ENDROOT
BRANCH   4  12
ATOM     12  C15 6YS d   1     -24.884 -30.015  27.159  0.00  0.00    -0.010 C 
ATOM     13  H9  6YS d   1     -24.657 -29.362  28.015  0.00  0.00     0.050 H 
ATOM     14  H10 6YS d   1     -24.619 -31.053  27.409  0.00  0.00     0.050 H 
BRANCH  12  15
ATOM     15  S24 6YS d   1     -26.671 -29.946  26.854  0.00  0.00    -0.129 SA
BRANCH  15  16
ATOM     16  C6  6YS d   1     -26.905 -31.427  25.942  0.00  0.00     0.003 A 
ATOM     17  C3  6YS d   1     -26.548 -32.643  26.527  0.00  0.00    -0.026 A 
ATOM     18  C5  6YS d   1     -26.709 -33.845  25.827  0.00  0.00     0.156 A 
ATOM     19  H2  6YS d   1     -26.142 -32.657  27.532  0.00  0.00     0.090 H 
ATOM     20  C4  6YS d   1     -27.218 -33.794  24.528  0.00  0.00     0.154 A 
ATOM     21  F23 6YS d   1     -26.368 -35.028  26.388  0.00  0.00    -0.203 F 
ATOM     22  C1  6YS d   1     -27.590 -32.580  23.938  0.00  0.00    -0.041 A 
ATOM     23  F22 6YS d   1     -27.309 -34.926  23.834  0.00  0.00    -0.203 F 
ATOM     24  C2  6YS d   1     -27.441 -31.387  24.651  0.00  0.00    -0.064 A 
ATOM     25  H1  6YS d   1     -27.992 -32.565  22.931  0.00  0.00     0.088 H 
ATOM     26  H3  6YS d   1     -27.737 -30.443  24.209  0.00  0.00     0.085 H 
ENDBRANCH  15  16
ENDBRANCH  12  15
ENDBRANCH   4  12
BRANCH   5  27
ATOM     27  O21 6YS d   1     -22.461 -31.348  25.242  0.00  0.00    -0.395 OA
ATOM     28  H14 6YS d   1     -21.568 -31.668  25.293  0.00  0.00     0.210 HD
ENDBRANCH   5  27
BRANCH   6  29
ATOM     29  C8  6YS d   1     -23.961 -27.225  26.954  0.00  0.00     0.211 C 
ATOM     30  O18 6YS d   1     -24.889 -26.485  27.227  0.00  0.00    -0.646 OA
ATOM     31  O20 6YS d   1     -22.878 -27.418  27.726  0.00  0.00    -0.646 OA
ENDBRANCH   6  29
BRANCH   6  32
ATOM     32  N16 6YS d   1     -24.829 -27.529  24.792  0.00  0.00    -0.059 N 
ATOM     33  H11 6YS d   1     -24.675 -26.542  24.656  0.00  0.00     0.275 HD
ATOM     34  H12 6YS d   1     -25.753 -27.676  25.167  0.00  0.00     0.275 HD
ATOM     35  H13 6YS d   1     -24.745 -28.007  23.908  0.00  0.00     0.275 HD
ENDBRANCH   6  32
BRANCH   1  36
ATOM     36  C7  6YS d   1     -20.985 -28.295  23.012  0.00  0.00     0.177 C 
ATOM     37  O17 6YS d   1     -20.184 -27.390  23.182  0.00  0.00    -0.648 OA
ATOM     38  O19 6YS d   1     -21.038 -29.100  21.940  0.00  0.00    -0.648 OA
ENDBRANCH   1  36
TORSDOF 7
