REMARK  8 active torsions:
REMARK  status: ('A' for Active; 'I' for Inactive)
REMARK    1  A    between atoms: C1_1  and  N1_10 
REMARK    2  A    between atoms: C2_2  and  N3_12 
REMARK    3  A    between atoms: OH_25  and  C13_4 
REMARK    4  A    between atoms: C14_5  and  OH_25 
REMARK    5  A    between atoms: C14_5  and  C15_26 
REMARK    6  A    between atoms: C16_30  and  C14_5 
REMARK    7  A    between atoms: C21_36  and  C22_6 
REMARK    8  A    between atoms: CA_20  and  C_21 
ROOT
ATOM      1  C1  6Z4 d   1      47.536  -0.619  74.917  0.00  0.00     0.724 A 
ATOM      2  C2  6Z4 d   1      48.910   1.092  75.750  0.00  0.00     0.149 A 
ATOM      3  C12 6Z4 d   1      48.137   1.146  76.898  0.00  0.00     0.013 A 
ATOM      4  C13 6Z4 d   1      47.073   0.246  76.983  0.00  0.00     0.188 A 
ATOM      5  N2  6Z4 d   1      48.599   0.194  74.766  0.00  0.00    -0.045 NA
ATOM      6  N5  6Z4 d   1      46.737  -0.603  75.966  0.00  0.00    -0.039 NA
ATOM      7  H1  6Z4 d   1      48.348   1.853  77.692  0.00  0.00     0.096 H 
ENDROOT
BRANCH   2   8
ATOM      8  N3  6Z4 d   1      50.031   1.910  75.602  0.00  0.00    -0.365 N 
ATOM      9  CE1 6Z4 d   1      50.329   3.001  76.475  0.00  0.00    -0.003 C 
ATOM     10  CD1 6Z4 d   1      51.171   4.037  75.752  0.00  0.00    -0.041 C 
ATOM     11  H8  6Z4 d   1      50.884   2.627  77.348  0.00  0.00     0.064 H 
ATOM     12  H9  6Z4 d   1      49.390   3.466  76.809  0.00  0.00     0.064 H 
ATOM     13  CG  6Z4 d   1      52.447   3.494  75.159  0.00  0.00    -0.011 C 
ATOM     14  H10 6Z4 d   1      51.434   4.829  76.469  0.00  0.00     0.036 H 
ATOM     15  H11 6Z4 d   1      50.567   4.465  74.938  0.00  0.00     0.036 H 
ATOM     16  CD2 6Z4 d   1      52.029   2.339  74.265  0.00  0.00    -0.041 C 
ATOM     17  C8  6Z4 d   1      53.450   3.072  76.248  0.00  0.00     0.090 C 
ATOM     18  CB  6Z4 d   1      53.125   4.567  74.349  0.00  0.00    -0.020 C 
ATOM     19  CE2 6Z4 d   1      51.226   1.285  75.006  0.00  0.00    -0.003 C 
ATOM     20  H12 6Z4 d   1      52.934   1.867  73.853  0.00  0.00     0.036 H 
ATOM     21  H13 6Z4 d   1      51.415   2.735  73.442  0.00  0.00     0.036 H 
ATOM     22  H14 6Z4 d   1      50.916   0.498  74.303  0.00  0.00     0.064 H 
ATOM     23  H15 6Z4 d   1      51.845   0.844  75.801  0.00  0.00     0.064 H 
ATOM     24  N   6Z4 d   1      54.640   3.916  76.059  0.00  0.00    -0.060 N 
ATOM     25  H16 6Z4 d   1      53.713   2.010  76.133  0.00  0.00     0.076 H 
ATOM     26  H17 6Z4 d   1      53.020   3.237  77.247  0.00  0.00     0.076 H 
ATOM     27  CA  6Z4 d   1      54.573   4.286  74.620  0.00  0.00     0.185 C 
ATOM     28  H18 6Z4 d   1      55.483   3.402  76.260  0.00  0.00     0.278 HD
ATOM     29  H19 6Z4 d   1      54.598   4.735  76.645  0.00  0.00     0.278 HD
ATOM     30  H20 6Z4 d   1      54.894   3.421  74.022  0.00  0.00     0.101 H 
ATOM     31  H21 6Z4 d   1      52.840   5.571  74.696  0.00  0.00     0.038 H 
ATOM     32  H22 6Z4 d   1      52.891   4.469  73.279  0.00  0.00     0.038 H 
BRANCH  27  33
ATOM     33  C   6Z4 d   1      55.447   5.471  74.215  0.00  0.00     0.204 C 
ATOM     34  O   6Z4 d   1      55.520   5.766  72.981  0.00  0.00    -0.646 OA
ATOM     35  O2  6Z4 d   1      55.993   6.070  75.203  0.00  0.00    -0.646 OA
ENDBRANCH  27  33
ENDBRANCH   2   8
BRANCH   4  36
ATOM     36  OH  6Z4 d   1      46.311   0.204  78.170  0.00  0.00    -0.314 OA
BRANCH  36  37
ATOM     37  C14 6Z4 d   1      45.625  -1.116  78.384  0.00  0.00     0.166 C 
ATOM     38  H2  6Z4 d   1      46.001  -1.838  77.644  0.00  0.00     0.106 H 
BRANCH  37  39
ATOM     39  C15 6Z4 d   1      45.937  -1.696  79.781  0.00  0.00     0.418 C 
ATOM     40  F1  6Z4 d   1      45.177  -2.812  79.921  0.00  0.00    -0.168 F 
ATOM     41  F2  6Z4 d   1      47.233  -2.066  79.974  0.00  0.00    -0.168 F 
ATOM     42  F3  6Z4 d   1      45.677  -0.854  80.828  0.00  0.00    -0.168 F 
ENDBRANCH  37  39
BRANCH  37  43
ATOM     43  C16 6Z4 d   1      44.138  -0.865  78.095  0.00  0.00    -0.009 A 
ATOM     44  C17 6Z4 d   1      43.638   0.169  78.858  0.00  0.00    -0.072 A 
ATOM     45  C18 6Z4 d   1      42.375   0.640  78.772  0.00  0.00    -0.061 A 
ATOM     46  H23 6Z4 d   1      44.303   0.635  79.575  0.00  0.00     0.084 H 
ATOM     47  C19 6Z4 d   1      41.544   0.093  77.870  0.00  0.00     0.035 A 
ATOM     48  H24 6Z4 d   1      42.039   1.443  79.418  0.00  0.00     0.086 H 
ATOM     49 CL1  6Z4 d   1      39.988   0.776  77.815  0.00  0.00    -0.084 Cl
ATOM     50  C20 6Z4 d   1      41.998  -0.897  77.045  0.00  0.00    -0.051 A 
ATOM     51  C21 6Z4 d   1      43.281  -1.440  77.138  0.00  0.00    -0.015 A 
ATOM     52  H25 6Z4 d   1      41.330  -1.279  76.282  0.00  0.00     0.087 H 
BRANCH  51  53
ATOM     53  C22 6Z4 d   1      43.617  -2.468  76.117  0.00  0.00    -0.025 A 
ATOM     54  C23 6Z4 d   1      44.186  -3.713  76.366  0.00  0.00    -0.072 A 
ATOM     55  C24 6Z4 d   1      44.474  -4.577  75.298  0.00  0.00    -0.082 A 
ATOM     56  H3  6Z4 d   1      44.407  -4.015  77.383  0.00  0.00     0.084 H 
ATOM     57  C25 6Z4 d   1      44.213  -4.230  73.963  0.00  0.00    -0.083 A 
ATOM     58  H26 6Z4 d   1      44.913  -5.545  75.511  0.00  0.00     0.083 H 
ATOM     59  C26 6Z4 d   1      43.675  -2.990  73.671  0.00  0.00    -0.082 A 
ATOM     60  H4  6Z4 d   1      44.432  -4.930  73.165  0.00  0.00     0.083 H 
ATOM     61  C27 6Z4 d   1      43.389  -2.146  74.753  0.00  0.00    -0.072 A 
ATOM     62  H5  6Z4 d   1      43.483  -2.684  72.649  0.00  0.00     0.083 H 
ATOM     63  H27 6Z4 d   1      42.962  -1.175  74.532  0.00  0.00     0.084 H 
ENDBRANCH  51  53
ENDBRANCH  37  43
ENDBRANCH  36  37
ENDBRANCH   4  36
BRANCH   1  64
ATOM     64  N1  6Z4 d   1      47.109  -1.514  73.953  0.00  0.00    -0.231 N 
ATOM     65  H6  6Z4 d   1      47.645  -1.625  73.080  0.00  0.00     0.174 HD
ATOM     66  H7  6Z4 d   1      46.255  -2.069  74.108  0.00  0.00     0.174 HD
ENDBRANCH   1  64
TORSDOF 8
