REMARK  15 active torsions:
REMARK  status: ('A' for Active; 'I' for Inactive)
REMARK    1  A    between atoms: C1_1  and  O1_2 
REMARK    2  A    between atoms: O1_2  and  P1_3 
REMARK    3  A    between atoms: P1_3  and  O13_18 
REMARK    4  A    between atoms: C2_4  and  O2_5 
REMARK    5  A    between atoms: C3_6  and  O3_7 
REMARK    6  A    between atoms: C4_8  and  O4_9 
REMARK    7  A    between atoms: O4_9  and  P4_10 
REMARK    8  A    between atoms: C5_11  and  O5_12 
REMARK    9  A    between atoms: O5_12  and  P5_13 
REMARK   10  A    between atoms: C6_14  and  O6_15 
REMARK   11  A    between atoms: O13_18  and  C1C_19 
REMARK   12  A    between atoms: C1C_19  and  C2C_20 
REMARK   13  A    between atoms: C2C_20  and  O2C_21 
REMARK   14  A    between atoms: C2C_20  and  C3C_22 
REMARK   15  A    between atoms: C3C_22  and  O3C_23 
ROOT
ATOM      1  C1  PIO d   1      46.167   8.257  14.775  0.00  0.00     0.105 C 
ATOM      2  C2  PIO d   1      46.547   7.248  13.701  0.00  0.00     0.090 C 
ATOM      3  C3  PIO d   1      47.096   7.972  12.479  0.00  0.00     0.091 C 
ATOM      4  C4  PIO d   1      48.284   8.834  12.878  0.00  0.00     0.106 C 
ATOM      5  C5  PIO d   1      47.917   9.804  13.986  0.00  0.00     0.106 C 
ATOM      6  C6  PIO d   1      47.374   9.076  15.206  0.00  0.00     0.091 C 
ATOM      7  H1  PIO d   1      45.400   8.932  14.368  0.00  0.00     0.092 H 
ATOM      8  H2  PIO d   1      45.648   6.686  13.408  0.00  0.00     0.091 H 
ATOM      9  H4  PIO d   1      46.309   8.620  12.066  0.00  0.00     0.091 H 
ATOM     10  H6  PIO d   1      49.129   8.204  13.194  0.00  0.00     0.092 H 
ATOM     11  H7  PIO d   1      47.167  10.519  13.616  0.00  0.00     0.092 H 
ATOM     12  H8  PIO d   1      48.148   8.405  15.607  0.00  0.00     0.091 H 
ENDROOT
BRANCH   1  13
ATOM     13  O1  PIO d   1      45.639   7.585  15.938  0.00  0.00    -0.279 OA
BRANCH  13  14
ATOM     14  P1  PIO d   1      44.068   7.263  16.138  0.00  0.00     0.408 P 
ATOM     15  O11 PIO d   1      43.163   8.278  15.551  0.00  0.00    -0.624 OA
ATOM     16  O12 PIO d   1      44.050   5.855  15.536  0.00  0.00    -0.624 OA
BRANCH  14  17
ATOM     17  O13 PIO d   1      43.786   6.916  17.681  0.00  0.00    -0.287 OA
BRANCH  17  18
ATOM     18  C1C PIO d   1      43.462   7.983  18.596  0.00  0.00     0.057 C 
ATOM     19  H10 PIO d   1      42.996   8.813  18.045  0.00  0.00     0.079 H 
ATOM     20  H11 PIO d   1      44.379   8.339  19.088  0.00  0.00     0.079 H 
BRANCH  18  21
ATOM     21  C2C PIO d   1      42.502   7.462  19.632  0.00  0.00     0.077 C 
ATOM     22  H12 PIO d   1      42.662   6.383  19.772  0.00  0.00     0.089 H 
BRANCH  21  23
ATOM     23  O2C PIO d   1      41.144   7.715  19.153  0.00  0.00    -0.391 OA
ATOM     24  H13 PIO d   1      40.519   7.394  19.792  0.00  0.00     0.210 HD
ENDBRANCH  21  23
BRANCH  21  25
ATOM     25  C3C PIO d   1      42.667   8.169  20.950  0.00  0.00     0.042 C 
ATOM     26  H14 PIO d   1      42.506   9.249  20.814  0.00  0.00     0.078 H 
ATOM     27  H15 PIO d   1      43.681   7.995  21.339  0.00  0.00     0.078 H 
BRANCH  25  28
ATOM     28  O3C PIO d   1      41.694   7.647  21.881  0.00  0.00    -0.398 OA
ATOM     29  H16 PIO d   1      40.820   7.797  21.541  0.00  0.00     0.209 HD
ENDBRANCH  25  28
ENDBRANCH  21  25
ENDBRANCH  18  21
ENDBRANCH  17  18
ENDBRANCH  14  17
ENDBRANCH  13  14
ENDBRANCH   1  13
BRANCH   2  30
ATOM     30  O2  PIO d   1      47.516   6.335  14.202  0.00  0.00    -0.390 OA
ATOM     31  H3  PIO d   1      47.744   5.712  13.522  0.00  0.00     0.210 HD
ENDBRANCH   2  30
BRANCH   6  32
ATOM     32  O6  PIO d   1      47.003  10.010  16.213  0.00  0.00    -0.390 OA
ATOM     33  H9  PIO d   1      47.764  10.518  16.468  0.00  0.00     0.210 HD
ENDBRANCH   6  32
BRANCH   3  34
ATOM     34  O3  PIO d   1      47.482   7.028  11.486  0.00  0.00    -0.390 OA
ATOM     35  H5  PIO d   1      47.823   7.489  10.728  0.00  0.00     0.210 HD
ENDBRANCH   3  34
BRANCH   5  36
ATOM     36  O5  PIO d   1      49.115  10.497  14.394  0.00  0.00    -0.272 OA
BRANCH  36  37
ATOM     37  P5  PIO d   1      49.301  12.035  14.846  0.00  0.00     0.422 P 
ATOM     38  O51 PIO d   1      50.810  12.280  14.910  0.00  0.00    -0.617 OA
ATOM     39  O52 PIO d   1      48.580  12.459  16.083  0.00  0.00    -0.617 OA
ATOM     40  O53 PIO d   1      48.751  12.683  13.573  0.00  0.00    -0.617 OA
ENDBRANCH  36  37
ENDBRANCH   5  36
BRANCH   4  41
ATOM     41  O4  PIO d   1      48.616   9.599  11.700  0.00  0.00    -0.272 OA
BRANCH  41  42
ATOM     42  P4  PIO d   1      49.742   9.364  10.579  0.00  0.00     0.422 P 
ATOM     43  O41 PIO d   1      49.533   7.896  10.199  0.00  0.00    -0.617 OA
ATOM     44  O42 PIO d   1      49.180  10.247   9.462  0.00  0.00    -0.617 OA
ATOM     45  O43 PIO d   1      51.156   9.688  10.933  0.00  0.00    -0.617 OA
ENDBRANCH  41  42
ENDBRANCH   4  41
TORSDOF 15
