REMARK  6 active torsions:
REMARK  status: ('A' for Active; 'I' for Inactive)
REMARK    1  A    between atoms: C8_3  and  C19_17 
REMARK    2  A    between atoms: C13_5  and  C17_12 
REMARK    3  A    between atoms: C14_6  and  C15_7 
REMARK    4  A    between atoms: C12_11  and  C14_6 
REMARK    5  A    between atoms: C15_7  and  C16_8 
REMARK    6  A    between atoms: C9_15  and  C20_16 
ROOT
ATOM      1  C2  6ZE d   1      91.631  44.493  40.315  0.00  0.00     0.093 A 
ATOM      2  C4  6ZE d   1      91.123  42.846  42.145  0.00  0.00    -0.057 A 
ATOM      3  C8  6ZE d   1      87.451  43.430  41.797  0.00  0.00     0.056 A 
ATOM      4  C11 6ZE d   1      93.900  44.927  39.674  0.00  0.00     0.295 A 
ATOM      5  C13 6ZE d   1      93.488  43.247  41.502  0.00  0.00    -0.037 A 
ATOM      6  O18 6ZE d   1      94.721  45.536  38.974  0.00  0.00    -0.259 OA
ATOM      7  O10 6ZE d   1      92.548  45.142  39.530  0.00  0.00    -0.274 OA
ATOM      8  C12 6ZE d   1      94.438  43.974  40.651  0.00  0.00     0.024 A 
ATOM      9  C3  6ZE d   1      92.051  43.509  41.343  0.00  0.00     0.005 A 
ATOM     10  C5  6ZE d   1      89.796  43.127  41.944  0.00  0.00     0.007 A 
ATOM     11  C9  6ZE d   1      88.500  42.672  42.535  0.00  0.00    -0.020 A 
ATOM     12  O7  6ZE d   1      88.060  44.239  40.880  0.00  0.00    -0.314 OA
ATOM     13  C6  6ZE d   1      89.366  44.100  40.932  0.00  0.00     0.089 A 
ATOM     14  C1  6ZE d   1      90.285  44.768  40.141  0.00  0.00    -0.016 A 
ATOM     15  H1  6ZE d   1      91.439  42.135  42.900  0.00  0.00     0.086 H 
ATOM     16  H18 6ZE d   1      89.958  45.490  39.402  0.00  0.00     0.092 H 
ENDROOT
BRANCH   8  17
ATOM     17  C14 6ZE d   1      95.942  43.782  40.733  0.00  0.00    -0.035 C 
ATOM     18  H2  6ZE d   1      96.449  44.753  40.629  0.00  0.00     0.040 H 
ATOM     19  H3  6ZE d   1      96.209  43.330  41.700  0.00  0.00     0.040 H 
BRANCH  17  20
ATOM     20  C15 6ZE d   1      96.357  42.858  39.598  0.00  0.00    -0.065 C 
ATOM     21  H4  6ZE d   1      96.454  43.446  38.674  0.00  0.00     0.032 H 
ATOM     22  H5  6ZE d   1      95.585  42.087  39.463  0.00  0.00     0.032 H 
BRANCH  20  23
ATOM     23  C16 6ZE d   1      97.674  42.188  39.894  0.00  0.00    -0.076 C 
ATOM     24  H6  6ZE d   1      97.946  41.528  39.057  0.00  0.00     0.027 H 
ATOM     25  H7  6ZE d   1      97.584  41.593  40.815  0.00  0.00     0.027 H 
ATOM     26  H8  6ZE d   1      98.453  42.953  40.026  0.00  0.00     0.027 H 
ENDBRANCH  20  23
ENDBRANCH  17  20
ENDBRANCH   8  17
BRANCH   5  27
ATOM     27  C17 6ZE d   1      93.957  42.264  42.534  0.00  0.00    -0.050 C 
ATOM     28  H9  6ZE d   1      95.055  42.200  42.507  0.00  0.00     0.033 H 
ATOM     29  H10 6ZE d   1      93.526  41.275  42.320  0.00  0.00     0.033 H 
ATOM     30  H11 6ZE d   1      93.634  42.597  43.531  0.00  0.00     0.033 H 
ENDBRANCH   5  27
BRANCH  11  31
ATOM     31  C20 6ZE d   1      88.505  41.650  43.647  0.00  0.00    -0.048 C 
ATOM     32  H12 6ZE d   1      87.470  41.438  43.955  0.00  0.00     0.033 H 
ATOM     33  H13 6ZE d   1      89.069  42.044  44.505  0.00  0.00     0.033 H 
ATOM     34  H14 6ZE d   1      88.979  40.723  43.291  0.00  0.00     0.033 H 
ENDBRANCH  11  31
BRANCH   3  35
ATOM     35  C19 6ZE d   1      85.958  43.512  41.854  0.00  0.00    -0.031 C 
ATOM     36  H15 6ZE d   1      85.601  44.225  41.097  0.00  0.00     0.036 H 
ATOM     37  H16 6ZE d   1      85.647  43.852  42.853  0.00  0.00     0.036 H 
ATOM     38  H17 6ZE d   1      85.528  42.519  41.654  0.00  0.00     0.036 H 
ENDBRANCH   3  35
TORSDOF 6
