REMARK  10 active torsions:
REMARK  status: ('A' for Active; 'I' for Inactive)
REMARK    1  A    between atoms: C1_1  and  C2_4 
REMARK    2  A    between atoms: C4_6  and  N4_20 
REMARK    3  A    between atoms: C5_7  and  N5_8 
REMARK       I    between atoms: N5_8  and  C10_9 
REMARK    4  A    between atoms: C10_9  and  C11_11 
REMARK    5  A    between atoms: C6_12  and  O7_14 
REMARK    6  A    between atoms: O7_14  and  C8_15 
REMARK    7  A    between atoms: C8_15  and  C9_16 
REMARK    8  A    between atoms: C8_15  and  C81_17 
REMARK    9  A    between atoms: C9_16  and  C91_19 
REMARK   10  A    between atoms: C81_17  and  C82_18 
ROOT
ATOM      1  C2  G39 d   1      24.524 -18.737 -64.402  0.00  0.00     0.035 C 
ATOM      2  C3  G39 d   1      23.950 -17.398 -64.265  0.00  0.00    -0.024 C 
ATOM      3  C4  G39 d   1      24.617 -16.596 -62.993  0.00  0.00     0.122 C 
ATOM      4  C5  G39 d   1      25.916 -16.515 -63.035  0.00  0.00     0.064 C 
ATOM      5  C6  G39 d   1      26.679 -17.971 -62.943  0.00  0.00     0.061 C 
ATOM      6  C7  G39 d   1      26.032 -19.053 -63.675  0.00  0.00    -0.026 C 
ATOM      7  H1  G39 d   1      25.012 -18.432 -65.339  0.00  0.00     0.056 H 
ATOM      8  H2  G39 d   1      22.865 -17.487 -64.105  0.00  0.00     0.037 H 
ATOM      9  H3  G39 d   1      24.140 -16.830 -65.188  0.00  0.00     0.037 H 
ATOM     10  H4  G39 d   1      24.345 -17.133 -62.072  0.00  0.00     0.087 H 
ATOM     11  H5  G39 d   1      26.201 -16.003 -63.966  0.00  0.00     0.079 H 
ATOM     12  H10 G39 d   1      26.608 -18.262 -61.885  0.00  0.00     0.086 H 
ATOM     13  H11 G39 d   1      26.721 -19.366 -64.474  0.00  0.00     0.038 H 
ATOM     14  H12 G39 d   1      25.887 -19.884 -62.969  0.00  0.00     0.038 H 
ENDROOT
BRANCH   5  15
ATOM     15  O7  G39 d   1      28.100 -17.881 -63.224  0.00  0.00    -0.379 OA
BRANCH  15  16
ATOM     16  C8  G39 d   1      28.897 -18.102 -62.038  0.00  0.00     0.038 C 
ATOM     17  H13 G39 d   1      28.688 -17.284 -61.333  0.00  0.00     0.083 H 
BRANCH  16  18
ATOM     18  C9  G39 d   1      28.529 -19.419 -61.339  0.00  0.00    -0.044 C 
ATOM     19  H14 G39 d   1      27.435 -19.494 -61.258  0.00  0.00     0.036 H 
ATOM     20  H15 G39 d   1      28.973 -19.433 -60.333  0.00  0.00     0.036 H 
BRANCH  18  21
ATOM     21  C91 G39 d   1      29.059 -20.609 -62.141  0.00  0.00    -0.074 C 
ATOM     22  H21 G39 d   1      28.789 -21.545 -61.630  0.00  0.00     0.027 H 
ATOM     23  H22 G39 d   1      30.154 -20.538 -62.222  0.00  0.00     0.027 H 
ATOM     24  H23 G39 d   1      28.615 -20.600 -63.148  0.00  0.00     0.027 H 
ENDBRANCH  18  21
ENDBRANCH  16  18
BRANCH  16  25
ATOM     25  C81 G39 d   1      30.388 -18.043 -62.399  0.00  0.00    -0.044 C 
ATOM     26  H16 G39 d   1      30.559 -18.531 -63.370  0.00  0.00     0.036 H 
ATOM     27  H17 G39 d   1      30.983 -18.549 -61.624  0.00  0.00     0.036 H 
BRANCH  25  28
ATOM     28  C82 G39 d   1      30.779 -16.573 -62.479  0.00  0.00    -0.074 C 
ATOM     29  H18 G39 d   1      31.845 -16.491 -62.737  0.00  0.00     0.027 H 
ATOM     30  H19 G39 d   1      30.599 -16.092 -61.506  0.00  0.00     0.027 H 
ATOM     31  H20 G39 d   1      30.175 -16.075 -63.252  0.00  0.00     0.027 H 
ENDBRANCH  25  28
ENDBRANCH  16  25
ENDBRANCH  15  16
ENDBRANCH   5  15
BRANCH   4  32
ATOM     32  N5  G39 d   1      26.445 -15.769 -61.842  0.00  0.00    -0.352 N 
ATOM     33  C10 G39 d   1      27.172 -14.569 -62.008  0.00  0.00     0.214 C 
ATOM     34  O10 G39 d   1      27.346 -14.117 -63.117  0.00  0.00    -0.274 OA
ATOM     35  H6  G39 d   1      26.281 -16.125 -60.922  0.00  0.00     0.163 HD
BRANCH  33  36
ATOM     36  C11 G39 d   1      27.700 -13.854 -60.791  0.00  0.00    -0.003 C 
ATOM     37  H7  G39 d   1      28.237 -12.946 -61.103  0.00  0.00     0.040 H 
ATOM     38  H8  G39 d   1      28.388 -14.517 -60.246  0.00  0.00     0.040 H 
ATOM     39  H9  G39 d   1      26.861 -13.577 -60.136  0.00  0.00     0.040 H 
ENDBRANCH  33  36
ENDBRANCH   4  32
BRANCH   3  40
ATOM     40  N4  G39 d   1      24.018 -15.206 -62.945  0.00  0.00    -0.073 N 
ATOM     41  H24 G39 d   1      23.013 -15.274 -62.913  0.00  0.00     0.274 HD
ATOM     42  H25 G39 d   1      24.294 -14.693 -63.768  0.00  0.00     0.274 HD
ATOM     43  H26 G39 d   1      24.349 -14.726 -62.123  0.00  0.00     0.274 HD
ENDBRANCH   3  40
BRANCH   1  44
ATOM     44  C1  G39 d   1      23.848 -19.863 -65.116  0.00  0.00     0.177 C 
ATOM     45  O1A G39 d   1      22.738 -19.692 -65.698  0.00  0.00    -0.648 OA
ATOM     46  O1B G39 d   1      24.402 -20.997 -65.094  0.00  0.00    -0.648 OA
ENDBRANCH   1  44
TORSDOF 10
