REMARK  10 active torsions:
REMARK  status: ('A' for Active; 'I' for Inactive)
REMARK    1  A    between atoms: C1_1  and  C2_4 
REMARK    2  A    between atoms: C4_6  and  NE_20 
REMARK    3  A    between atoms: C5_7  and  N5_8 
REMARK       I    between atoms: N5_8  and  C10_9 
REMARK    4  A    between atoms: C10_9  and  C11_11 
REMARK    5  A    between atoms: C6_12  and  C7_14 
REMARK    6  A    between atoms: C7_14  and  O7_15 
REMARK    7  A    between atoms: C7_14  and  C8_16 
REMARK    8  A    between atoms: C8_16  and  O8_17 
REMARK    9  A    between atoms: C8_16  and  C9_18 
REMARK   10  A    between atoms: C9_18  and  O9_19 
REMARK       I    between atoms: CZ_21  and  NH1_22 
REMARK       I    between atoms: CZ_21  and  NH2_23 
ROOT
ATOM      1  C2  ZMR d   1      24.346 -18.621 -63.712  0.00  0.00     0.124 C 
ATOM      2  C3  ZMR d   1      23.514 -17.277 -63.050  0.00  0.00    -0.010 C 
ATOM      3  C4  ZMR d   1      24.298 -16.383 -62.196  0.00  0.00     0.051 C 
ATOM      4  C5  ZMR d   1      25.906 -16.658 -62.325  0.00  0.00     0.059 C 
ATOM      5  C6  ZMR d   1      26.262 -17.893 -62.267  0.00  0.00     0.088 C 
ATOM      6  O6  ZMR d   1      25.672 -18.784 -63.381  0.00  0.00    -0.365 OA
ATOM      7  H1  ZMR d   1      24.614 -18.029 -64.599  0.00  0.00     0.100 H 
ATOM      8  H2  ZMR d   1      22.677 -17.664 -62.450  0.00  0.00     0.040 H 
ATOM      9  H3  ZMR d   1      23.121 -16.681 -63.887  0.00  0.00     0.040 H 
ATOM     10  H4  ZMR d   1      24.008 -16.593 -61.156  0.00  0.00     0.076 H 
ATOM     11  H5  ZMR d   1      26.261 -16.248 -63.282  0.00  0.00     0.079 H 
ATOM     12  H10 ZMR d   1      25.967 -18.294 -61.286  0.00  0.00     0.090 H 
ENDROOT
BRANCH   5  13
ATOM     13  C7  ZMR d   1      27.824 -18.000 -62.457  0.00  0.00     0.089 C 
ATOM     14  H11 ZMR d   1      28.343 -17.384 -61.708  0.00  0.00     0.091 H 
BRANCH  13  15
ATOM     15  O7  ZMR d   1      28.126 -17.570 -63.730  0.00  0.00    -0.390 OA
ATOM     16  H12 ZMR d   1      27.679 -18.119 -64.363  0.00  0.00     0.210 HD
ENDBRANCH  13  15
BRANCH  13  17
ATOM     17  C8  ZMR d   1      28.242 -19.426 -62.332  0.00  0.00     0.083 C 
ATOM     18  H13 ZMR d   1      27.686 -20.023 -63.070  0.00  0.00     0.090 H 
BRANCH  17  19
ATOM     19  O8  ZMR d   1      27.938 -19.923 -61.035  0.00  0.00    -0.391 OA
ATOM     20  H14 ZMR d   1      28.399 -19.408 -60.384  0.00  0.00     0.210 HD
ENDBRANCH  17  19
BRANCH  17  21
ATOM     21  C9  ZMR d   1      29.733 -19.546 -62.634  0.00  0.00     0.043 C 
ATOM     22  H15 ZMR d   1      29.975 -18.911 -63.499  0.00  0.00     0.078 H 
ATOM     23  H16 ZMR d   1      29.967 -20.594 -62.871  0.00  0.00     0.078 H 
BRANCH  21  24
ATOM     24  O9  ZMR d   1      30.514 -19.139 -61.533  0.00  0.00    -0.398 OA
ATOM     25  H17 ZMR d   1      30.312 -19.687 -60.783  0.00  0.00     0.209 HD
ENDBRANCH  21  24
ENDBRANCH  17  21
ENDBRANCH  13  17
ENDBRANCH   5  13
BRANCH   4  26
ATOM     26  N5  ZMR d   1      26.525 -15.891 -61.168  0.00  0.00    -0.352 N 
ATOM     27  C10 ZMR d   1      27.131 -14.630 -61.398  0.00  0.00     0.214 C 
ATOM     28  O10 ZMR d   1      27.166 -14.150 -62.519  0.00  0.00    -0.274 OA
ATOM     29  H6  ZMR d   1      26.505 -16.276 -60.245  0.00  0.00     0.163 HD
BRANCH  27  30
ATOM     30  C11 ZMR d   1      27.732 -13.888 -60.224  0.00  0.00    -0.003 C 
ATOM     31  H7  ZMR d   1      28.157 -12.935 -60.572  0.00  0.00     0.040 H 
ATOM     32  H8  ZMR d   1      28.526 -14.500 -59.771  0.00  0.00     0.040 H 
ATOM     33  H9  ZMR d   1      26.950 -13.689 -59.477  0.00  0.00     0.040 H 
ENDBRANCH  27  30
ENDBRANCH   4  26
BRANCH   3  34
ATOM     34  NE  ZMR d   1      24.013 -14.969 -62.456  0.00  0.00    -0.220 N 
ATOM     35  CZ  ZMR d   1      23.880 -14.096 -61.488  0.00  0.00     0.665 C 
ATOM     36  NH1 ZMR d   1      24.016 -14.478 -60.127  0.00  0.00    -0.235 N 
ATOM     37  NH2 ZMR d   1      23.603 -12.748 -61.817  0.00  0.00    -0.235 N 
ATOM     38  H19 ZMR d   1      23.907 -13.775 -59.382  0.00  0.00     0.174 HD
ATOM     39  H20 ZMR d   1      24.223 -15.458 -59.885  0.00  0.00     0.174 HD
ATOM     40  H21 ZMR d   1      23.504 -12.469 -62.803  0.00  0.00     0.174 HD
ATOM     41  H22 ZMR d   1      23.500 -12.046 -61.070  0.00  0.00     0.174 HD
ATOM     42  H18 ZMR d   1      23.914 -14.651 -63.431  0.00  0.00     0.178 HD
ENDBRANCH   3  34
BRANCH   1  43
ATOM     43  C1  ZMR d   1      23.684 -19.647 -64.590  0.00  0.00     0.203 C 
ATOM     44  O1A ZMR d   1      24.135 -20.823 -64.561  0.00  0.00    -0.646 OA
ATOM     45  O1B ZMR d   1      22.702 -19.346 -65.315  0.00  0.00    -0.646 OA
ENDBRANCH   1  43
TORSDOF 10
