REMARK  5 active torsions:
REMARK  status: ('A' for Active; 'I' for Inactive)
REMARK    1  A    between atoms: N1_1  and  C1'_9 
REMARK    2  A    between atoms: C2'_10  and  O2'_13 
REMARK    3  A    between atoms: C3'_11  and  O3'_14 
REMARK    4  A    between atoms: C4'_12  and  C5'_16 
REMARK    5  A    between atoms: C5'_16  and  O5'_17 
ROOT
ATOM      1  C1' URI d   1     -90.842  68.379   7.755  0.00  0.00     0.141 C 
ATOM      2  C2' URI d   1     -89.336  68.635   7.699  0.00  0.00     0.105 C 
ATOM      3  C3' URI d   1     -89.126  68.869   6.208  0.00  0.00     0.091 C 
ATOM      4  C4' URI d   1     -90.393  69.608   5.808  0.00  0.00     0.088 C 
ATOM      5  O4' URI d   1     -91.426  69.005   6.631  0.00  0.00    -0.353 OA
ATOM      6  H4  URI d   1     -91.248  68.815   8.680  0.00  0.00     0.123 H 
ATOM      7  H5  URI d   1     -88.745  67.787   8.076  0.00  0.00     0.093 H 
ATOM      8  H6  URI d   1     -89.074  67.903   5.684  0.00  0.00     0.091 H 
ATOM      9  H7  URI d   1     -90.280  70.673   6.060  0.00  0.00     0.090 H 
ENDROOT
BRANCH   1  10
ATOM     10  N1  URI d   1     -91.172  66.935   7.718  0.00  0.00    -0.280 N 
ATOM     11  C2  URI d   1     -90.976  66.190   8.868  0.00  0.00     0.331 A 
ATOM     12  N3  URI d   1     -91.307  64.861   8.762  0.00  0.00    -0.275 N 
ATOM     13  O2  URI d   1     -90.539  66.662   9.903  0.00  0.00    -0.246 OA
ATOM     14  C4  URI d   1     -91.808  64.215   7.650  0.00  0.00     0.250 A 
ATOM     15  H1  URI d   1     -91.170  64.301   9.579  0.00  0.00     0.173 HD
ATOM     16  C5  URI d   1     -91.986  65.053   6.505  0.00  0.00    -0.002 A 
ATOM     17  O4  URI d   1     -92.059  63.010   7.710  0.00  0.00    -0.268 OA
ATOM     18  C6  URI d   1     -91.672  66.350   6.578  0.00  0.00    -0.008 A 
ATOM     19  H2  URI d   1     -92.376  64.636   5.577  0.00  0.00     0.094 H 
ATOM     20  H3  URI d   1     -91.819  66.971   5.696  0.00  0.00     0.112 H 
ENDBRANCH   1  10
BRANCH   2  21
ATOM     21  O2' URI d   1     -89.058  69.816   8.438  0.00  0.00    -0.388 OA
ATOM     22  H8  URI d   1     -88.156  70.075   8.292  0.00  0.00     0.210 HD
ENDBRANCH   2  21
BRANCH   3  23
ATOM     23  O3' URI d   1     -87.945  69.590   5.904  0.00  0.00    -0.390 OA
ATOM     24  H9  URI d   1     -87.954  70.420   6.367  0.00  0.00     0.210 HD
ENDBRANCH   3  23
BRANCH   4  25
ATOM     25  C5' URI d   1     -90.778  69.516   4.353  0.00  0.00     0.043 C 
ATOM     26  H10 URI d   1     -90.058  70.094   3.755  0.00  0.00     0.078 H 
ATOM     27  H11 URI d   1     -91.785  69.938   4.222  0.00  0.00     0.078 H 
BRANCH  25  28
ATOM     28  O5' URI d   1     -90.779  68.170   3.899  0.00  0.00    -0.398 OA
ATOM     29  H12 URI d   1     -89.910  67.801   4.005  0.00  0.00     0.209 HD
ENDBRANCH  25  28
ENDBRANCH   4  25
TORSDOF 5
