REMARK  7 active torsions:
REMARK  status: ('A' for Active; 'I' for Inactive)
REMARK    1  A    between atoms: C02_2  and  C01_3 
REMARK    2  A    between atoms: C02_2  and  C03_4 
REMARK    3  A    between atoms: C04_5  and  C05_6 
REMARK    4  A    between atoms: C08_10  and  N04_21 
REMARK    5  A    between atoms: N03_13  and  C10_14 
REMARK    6  A    between atoms: N04_21  and  C16_22 
REMARK    7  A    between atoms: C18_25  and  N06_28 
ROOT
ATOM      1  C03 LQQ d   1      15.474  25.721   5.445  0.00  0.00     0.084 A 
ATOM      2  C04 LQQ d   1      16.355  25.201   6.350  0.00  0.00    -0.027 A 
ATOM      3  C06 LQQ d   1      16.389  25.691   7.723  0.00  0.00     0.036 A 
ATOM      4  C07 LQQ d   1      17.351  25.404   8.696  0.00  0.00     0.035 A 
ATOM      5  N01 LQQ d   1      17.412  25.980   9.899  0.00  0.00    -0.074 NA
ATOM      6  C08 LQQ d   1      16.424  26.842  10.183  0.00  0.00     0.730 A 
ATOM      7  N02 LQQ d   1      15.432  27.218   9.355  0.00  0.00    -0.044 NA
ATOM      8  C09 LQQ d   1      15.446  26.661   8.129  0.00  0.00     0.164 A 
ATOM      9  N03 LQQ d   1      14.540  27.164   7.200  0.00  0.00    -0.292 N 
ATOM     10  C15 LQQ d   1      14.517  26.731   5.836  0.00  0.00     0.264 A 
ATOM     11  O02 LQQ d   1      13.729  27.218   5.033  0.00  0.00    -0.267 OA
ATOM     12  H7  LQQ d   1      18.102  24.660   8.456  0.00  0.00     0.117 H 
ENDROOT
BRANCH   6  13
ATOM     13  N04 LQQ d   1      16.469  27.316  11.464  0.00  0.00    -0.171 N 
ATOM     14  H17 LQQ d   1      17.291  27.011  12.004  0.00  0.00     0.186 HD
BRANCH  13  15
ATOM     15  C16 LQQ d   1      15.601  28.132  12.155  0.00  0.00     0.142 A 
ATOM     16  N05 LQQ d   1      14.934  27.467  13.111  0.00  0.00    -0.241 NA
ATOM     17  C17 LQQ d   1      14.041  28.147  13.842  0.00  0.00     0.030 A 
ATOM     18  C18 LQQ d   1      13.762  29.498  13.659  0.00  0.00     0.048 A 
ATOM     19  H18 LQQ d   1      13.505  27.615  14.620  0.00  0.00     0.118 H 
ATOM     20  C19 LQQ d   1      14.478  30.174  12.676  0.00  0.00    -0.052 A 
ATOM     21  C20 LQQ d   1      15.409  29.498  11.913  0.00  0.00    -0.036 A 
ATOM     22  H19 LQQ d   1      14.305  31.231  12.509  0.00  0.00     0.087 H 
ATOM     23  H20 LQQ d   1      15.977  30.012  11.146  0.00  0.00     0.089 H 
BRANCH  18  24
ATOM     24  N06 LQQ d   1      12.744  30.118  14.388  0.00  0.00    -0.377 N 
ATOM     25  C21 LQQ d   1      12.912  31.526  14.760  0.00  0.00     0.018 C 
ATOM     26  C22 LQQ d   1      11.925  31.906  15.838  0.00  0.00     0.096 C 
ATOM     27  H21 LQQ d   1      12.743  32.157  13.875  0.00  0.00     0.066 H 
ATOM     28  H22 LQQ d   1      13.935  31.683  15.133  0.00  0.00     0.066 H 
ATOM     29  N07 LQQ d   1      10.539  31.616  15.385  0.00  0.00    -0.072 N 
ATOM     30  H23 LQQ d   1      12.020  32.980  16.056  0.00  0.00     0.078 H 
ATOM     31  H24 LQQ d   1      12.139  31.327  16.748  0.00  0.00     0.078 H 
ATOM     32  C23 LQQ d   1      10.381  30.180  15.028  0.00  0.00     0.096 C 
ATOM     33  H25 LQQ d   1      10.332  32.181  14.576  0.00  0.00     0.277 HD
ATOM     34  H26 LQQ d   1       9.896  31.843  16.127  0.00  0.00     0.277 HD
ATOM     35  C24 LQQ d   1      11.378  29.795  13.960  0.00  0.00     0.018 C 
ATOM     36  H27 LQQ d   1       9.361  30.009  14.652  0.00  0.00     0.078 H 
ATOM     37  H28 LQQ d   1      10.550  29.562  15.922  0.00  0.00     0.078 H 
ATOM     38  H29 LQQ d   1      11.305  28.714  13.770  0.00  0.00     0.066 H 
ATOM     39  H30 LQQ d   1      11.149  30.346  13.036  0.00  0.00     0.066 H 
ENDBRANCH  18  24
ENDBRANCH  13  15
ENDBRANCH   6  13
BRANCH   9  40
ATOM     40  C10 LQQ d   1      13.634  28.279   7.585  0.00  0.00     0.021 C 
ATOM     41  C11 LQQ d   1      14.036  29.637   7.006  0.00  0.00    -0.045 C 
ATOM     42  C12 LQQ d   1      12.718  30.319   6.747  0.00  0.00    -0.063 C 
ATOM     43  H9  LQQ d   1      14.604  29.513   6.072  0.00  0.00     0.036 H 
ATOM     44  H10 LQQ d   1      14.638  30.208   7.728  0.00  0.00     0.036 H 
ATOM     45  C13 LQQ d   1      11.794  29.231   6.353  0.00  0.00    -0.063 C 
ATOM     46  H11 LQQ d   1      12.816  31.055   5.936  0.00  0.00     0.033 H 
ATOM     47  H12 LQQ d   1      12.358  30.822   7.657  0.00  0.00     0.033 H 
ATOM     48  C14 LQQ d   1      12.162  28.055   7.229  0.00  0.00    -0.045 C 
ATOM     49  H13 LQQ d   1      11.929  28.977   5.291  0.00  0.00     0.033 H 
ATOM     50  H14 LQQ d   1      10.750  29.530   6.529  0.00  0.00     0.033 H 
ATOM     51  H15 LQQ d   1      11.542  28.039   8.137  0.00  0.00     0.036 H 
ATOM     52  H16 LQQ d   1      12.035  27.109   6.682  0.00  0.00     0.036 H 
ATOM     53  H8  LQQ d   1      13.698  28.356   8.680  0.00  0.00     0.073 H 
ENDBRANCH   9  40
BRANCH   2  54
ATOM     54  C05 LQQ d   1      17.258  24.069   5.956  0.00  0.00    -0.049 C 
ATOM     55  H4  LQQ d   1      17.103  23.829   4.894  0.00  0.00     0.033 H 
ATOM     56  H5  LQQ d   1      17.027  23.185   6.569  0.00  0.00     0.033 H 
ATOM     57  H6  LQQ d   1      18.306  24.363   6.117  0.00  0.00     0.033 H 
ENDBRANCH   2  54
BRANCH   1  58
ATOM     58  C02 LQQ d   1      15.505  25.287   4.040  0.00  0.00     0.161 C 
ATOM     59  O01 LQQ d   1      16.473  25.557   3.326  0.00  0.00    -0.293 OA
BRANCH  58  60
ATOM     60  C01 LQQ d   1      14.343  24.533   3.471  0.00  0.00    -0.016 C 
ATOM     61  H1  LQQ d   1      13.582  24.387   4.252  0.00  0.00     0.038 H 
ATOM     62  H2  LQQ d   1      14.685  23.554   3.105  0.00  0.00     0.038 H 
ATOM     63  H3  LQQ d   1      13.908  25.104   2.638  0.00  0.00     0.038 H 
ENDBRANCH  58  60
ENDBRANCH   1  58
TORSDOF 7
