REMARK  6 active torsions:
REMARK  status: ('A' for Active; 'I' for Inactive)
REMARK    1  A    between atoms: C9_5  and  C15_25 
REMARK    2  A    between atoms: C8_6  and  C14_26 
REMARK       I    between atoms: C20_10  and  N22_11 
REMARK    3  A    between atoms: C19_17  and  C20_10 
REMARK    4  A    between atoms: C18_18  and  C19_17 
REMARK    5  A    between atoms: C18_18  and  C12_19 
REMARK    6  A    between atoms: C13_22  and  C16_23 
ROOT
ATOM      1  C11 6ZY d   1      33.536 -16.074  15.404  0.00  0.00     0.295 A 
ATOM      2  C2  6ZY d   1      31.699 -16.400  13.892  0.00  0.00     0.093 A 
ATOM      3  C3  6ZY d   1      32.463 -17.399  13.064  0.00  0.00     0.005 A 
ATOM      4  C5  6ZY d   1      30.552 -17.598  11.659  0.00  0.00     0.007 A 
ATOM      5  C9  6ZY d   1      29.559 -17.964  10.611  0.00  0.00    -0.020 A 
ATOM      6  C8  6ZY d   1      28.333 -17.177  10.918  0.00  0.00     0.056 A 
ATOM      7  C6  6ZY d   1      29.805 -16.623  12.483  0.00  0.00     0.089 A 
ATOM      8  C1  6ZY d   1      30.393 -16.035  13.581  0.00  0.00    -0.016 A 
ATOM      9  C12 6ZY d   1      34.403 -17.046  14.673  0.00  0.00     0.025 A 
ATOM     10  O17 6ZY d   1      33.962 -15.487  16.414  0.00  0.00    -0.259 OA
ATOM     11  O10 6ZY d   1      32.261 -15.806  14.979  0.00  0.00    -0.274 OA
ATOM     12  C13 6ZY d   1      33.862 -17.735  13.475  0.00  0.00    -0.037 A 
ATOM     13  C4  6ZY d   1      31.851 -17.971  11.953  0.00  0.00    -0.057 A 
ATOM     14  O7  6ZY d   1      28.584 -16.396  12.029  0.00  0.00    -0.314 OA
ATOM     15  H1  6ZY d   1      29.856 -15.311  14.183  0.00  0.00     0.092 H 
ATOM     16  H19 6ZY d   1      32.378 -18.689  11.335  0.00  0.00     0.086 H 
ENDROOT
BRANCH   9  17
ATOM     17  C18 6ZY d   1      35.806 -17.317  15.182  0.00  0.00    -0.027 C 
ATOM     18  H14 6ZY d   1      35.829 -17.208  16.276  0.00  0.00     0.041 H 
ATOM     19  H15 6ZY d   1      36.107 -18.339  14.909  0.00  0.00     0.041 H 
BRANCH  17  20
ATOM     20  C19 6ZY d   1      36.766 -16.313  14.546  0.00  0.00     0.013 C 
ATOM     21  H12 6ZY d   1      36.540 -16.210  13.474  0.00  0.00     0.047 H 
ATOM     22  H13 6ZY d   1      36.661 -15.335  15.038  0.00  0.00     0.047 H 
BRANCH  20  23
ATOM     23  C20 6ZY d   1      38.176 -16.824  14.723  0.00  0.00     0.220 C 
ATOM     24  O21 6ZY d   1      38.677 -17.419  13.785  0.00  0.00    -0.273 OA
ATOM     25  N22 6ZY d   1      38.828 -16.593  15.862  0.00  0.00    -0.352 N 
ATOM     26  C27 6ZY d   1      40.169 -17.098  16.088  0.00  0.00    -0.002 C 
ATOM     27  C23 6ZY d   1      38.348 -15.754  16.979  0.00  0.00    -0.002 C 
ATOM     28  C26 6ZY d   1      40.983 -15.851  15.793  0.00  0.00    -0.050 C 
ATOM     29  H2  6ZY d   1      40.417 -17.918  15.398  0.00  0.00     0.064 H 
ATOM     30  H3  6ZY d   1      40.306 -17.438  17.125  0.00  0.00     0.064 H 
ATOM     31  C25 6ZY d   1      40.669 -14.742  16.814  0.00  0.00    -0.062 C 
ATOM     32  H4  6ZY d   1      40.739 -15.491  14.783  0.00  0.00     0.035 H 
ATOM     33  H5  6ZY d   1      42.054 -16.098  15.846  0.00  0.00     0.035 H 
ATOM     34  C24 6ZY d   1      39.174 -14.469  16.898  0.00  0.00    -0.050 C 
ATOM     35  H6  6ZY d   1      41.184 -13.819  16.509  0.00  0.00     0.033 H 
ATOM     36  H7  6ZY d   1      41.032 -15.055  17.804  0.00  0.00     0.033 H 
ATOM     37  H8  6ZY d   1      38.867 -13.908  16.003  0.00  0.00     0.035 H 
ATOM     38  H9  6ZY d   1      38.975 -13.865  17.796  0.00  0.00     0.035 H 
ATOM     39  H10 6ZY d   1      38.515 -16.260  17.941  0.00  0.00     0.064 H 
ATOM     40  H11 6ZY d   1      37.277 -15.532  16.863  0.00  0.00     0.064 H 
ENDBRANCH  20  23
ENDBRANCH  17  20
ENDBRANCH   9  17
BRANCH  12  41
ATOM     41  C16 6ZY d   1      34.725 -18.742  12.725  0.00  0.00    -0.050 C 
ATOM     42  H16 6ZY d   1      34.160 -19.146  11.872  0.00  0.00     0.033 H 
ATOM     43  H17 6ZY d   1      35.003 -19.563  13.402  0.00  0.00     0.033 H 
ATOM     44  H18 6ZY d   1      35.635 -18.244  12.359  0.00  0.00     0.033 H 
ENDBRANCH  12  41
BRANCH   5  45
ATOM     45  C15 6ZY d   1      29.920 -18.963   9.544  0.00  0.00    -0.048 C 
ATOM     46  H20 6ZY d   1      30.955 -19.304   9.696  0.00  0.00     0.033 H 
ATOM     47  H21 6ZY d   1      29.831 -18.491   8.555  0.00  0.00     0.033 H 
ATOM     48  H22 6ZY d   1      29.238 -19.824   9.602  0.00  0.00     0.033 H 
ENDBRANCH   5  45
BRANCH   6  49
ATOM     49  C14 6ZY d   1      26.996 -17.092  10.231  0.00  0.00    -0.031 C 
ATOM     50  H23 6ZY d   1      26.349 -16.388  10.774  0.00  0.00     0.036 H 
ATOM     51  H24 6ZY d   1      26.526 -18.087  10.218  0.00  0.00     0.036 H 
ATOM     52  H25 6ZY d   1      27.136 -16.739   9.199  0.00  0.00     0.036 H 
ENDBRANCH   6  49
TORSDOF 6
