REMARK  6 active torsions:
REMARK  status: ('A' for Active; 'I' for Inactive)
REMARK    1  A    between atoms: C6_4  and  O11_20 
REMARK    2  A    between atoms: C9_8  and  C18_9 
REMARK    3  A    between atoms: C18_9  and  C19_10 
REMARK    4  A    between atoms: C10_16  and  C16_17 
REMARK    5  A    between atoms: O11_20  and  S12_21 
REMARK    6  A    between atoms: S12_21  and  C15_24 
ROOT
ATOM      1  C2  6ZU d   1      35.768 -16.316  16.368  0.00  0.00     0.093 A 
ATOM      2  C4  6ZU d   1      36.053 -17.821  14.406  0.00  0.00    -0.067 A 
ATOM      3  C5  6ZU d   1      34.659 -17.805  14.239  0.00  0.00    -0.048 A 
ATOM      4  C6  6ZU d   1      33.849 -17.045  15.110  0.00  0.00     0.092 A 
ATOM      5  O17 6ZU d   1      37.915 -14.823  18.691  0.00  0.00    -0.259 OA
ATOM      6  C8  6ZU d   1      37.582 -15.504  17.704  0.00  0.00     0.295 A 
ATOM      7  O7  6ZU d   1      36.266 -15.596  17.412  0.00  0.00    -0.274 OA
ATOM      8  C9  6ZU d   1      38.585 -16.240  16.870  0.00  0.00     0.029 A 
ATOM      9  C10 6ZU d   1      38.110 -17.052  15.717  0.00  0.00    -0.036 A 
ATOM     10  C3  6ZU d   1      36.650 -17.093  15.447  0.00  0.00     0.005 A 
ATOM     11  C1  6ZU d   1      34.399 -16.332  16.165  0.00  0.00    -0.016 A 
ATOM     12  H1  6ZU d   1      36.671 -18.398  13.728  0.00  0.00     0.085 H 
ATOM     13  H2  6ZU d   1      34.204 -18.378  13.439  0.00  0.00     0.087 H 
ATOM     14  H13 6ZU d   1      33.750 -15.782  16.837  0.00  0.00     0.092 H 
ENDROOT
BRANCH   8  15
ATOM     15  C18 6ZU d   1      40.036 -16.156  17.254  0.00  0.00    -0.011 C 
ATOM     16  H3  6ZU d   1      40.480 -17.151  17.105  0.00  0.00     0.047 H 
ATOM     17  H4  6ZU d   1      40.086 -15.888  18.320  0.00  0.00     0.047 H 
BRANCH  15  18
ATOM     18  C19 6ZU d   1      40.869 -15.165  16.494  0.00  0.00    -0.054 A 
ATOM     19  C24 6ZU d   1      40.626 -13.801  16.619  0.00  0.00    -0.077 A 
ATOM     20  C23 6ZU d   1      41.435 -12.917  15.914  0.00  0.00    -0.082 A 
ATOM     21  H5  6ZU d   1      39.825 -13.436  17.251  0.00  0.00     0.084 H 
ATOM     22  C22 6ZU d   1      42.476 -13.382  15.103  0.00  0.00    -0.083 A 
ATOM     23  H6  6ZU d   1      41.256 -11.851  15.994  0.00  0.00     0.083 H 
ATOM     24  C21 6ZU d   1      42.718 -14.745  14.992  0.00  0.00    -0.082 A 
ATOM     25  H7  6ZU d   1      43.095 -12.677  14.560  0.00  0.00     0.083 H 
ATOM     26  C20 6ZU d   1      41.914 -15.633  15.694  0.00  0.00    -0.077 A 
ATOM     27  H8  6ZU d   1      43.524 -15.111  14.366  0.00  0.00     0.083 H 
ATOM     28  H9  6ZU d   1      42.099 -16.699  15.621  0.00  0.00     0.084 H 
ENDBRANCH  15  18
ENDBRANCH   8  15
BRANCH   9  29
ATOM     29  C16 6ZU d   1      39.088 -17.814  14.847  0.00  0.00    -0.050 C 
ATOM     30  H10 6ZU d   1      40.111 -17.650  15.216  0.00  0.00     0.033 H 
ATOM     31  H11 6ZU d   1      39.011 -17.457  13.809  0.00  0.00     0.033 H 
ATOM     32  H12 6ZU d   1      38.852 -18.888  14.884  0.00  0.00     0.033 H 
ENDBRANCH   9  29
BRANCH   4  33
ATOM     33  O11 6ZU d   1      32.480 -17.039  14.993  0.00  0.00    -0.233 OA
BRANCH  33  34
ATOM     34  S12 6ZU d   1      31.644 -15.991  14.249  0.00  0.00     0.266 S 
ATOM     35  O13 6ZU d   1      30.269 -16.447  14.223  0.00  0.00    -0.199 OA
ATOM     36  O14 6ZU d   1      32.112 -15.932  12.862  0.00  0.00    -0.199 OA
BRANCH  34  37
ATOM     37  C15 6ZU d   1      31.920 -14.634  15.153  0.00  0.00     0.038 C 
ATOM     38  H14 6ZU d   1      31.367 -13.787  14.721  0.00  0.00     0.052 H 
ATOM     39  H15 6ZU d   1      32.996 -14.407  15.155  0.00  0.00     0.052 H 
ATOM     40  H16 6ZU d   1      31.580 -14.805  16.185  0.00  0.00     0.052 H 
ENDBRANCH  34  37
ENDBRANCH  33  34
ENDBRANCH   4  33
TORSDOF 6
