REMARK  6 active torsions:
REMARK  status: ('A' for Active; 'I' for Inactive)
REMARK    1  A    between atoms: C10_6  and  C16_7 
REMARK    2  A    between atoms: C6_11  and  N11_13 
REMARK    3  A    between atoms: N11_13  and  C14_14 
REMARK    4  A    between atoms: N11_13  and  C12_16 
REMARK    5  A    between atoms: C14_14  and  C15_15 
REMARK    6  A    between atoms: C12_16  and  C13_17 
ROOT
ATOM      1  O17 6ZW d   1       7.465 -11.319 -32.113  0.00  0.00    -0.260 OA
ATOM      2  C8  6ZW d   1       7.373 -12.531 -32.377  0.00  0.00     0.288 A 
ATOM      3  O7  6ZW d   1       6.647 -12.871 -33.473  0.00  0.00    -0.275 OA
ATOM      4  C2  6ZW d   1       6.531 -14.174 -33.839  0.00  0.00     0.092 A 
ATOM      5  C9  6ZW d   1       7.995 -13.479 -31.574  0.00  0.00    -0.004 A 
ATOM      6  C10 6ZW d   1       7.921 -14.841 -31.852  0.00  0.00    -0.043 A 
ATOM      7  C3  6ZW d   1       7.156 -15.241 -33.059  0.00  0.00     0.004 A 
ATOM      8  C4  6ZW d   1       7.002 -16.549 -33.483  0.00  0.00    -0.068 A 
ATOM      9  C5  6ZW d   1       6.258 -16.815 -34.631  0.00  0.00    -0.056 A 
ATOM     10  C6  6ZW d   1       5.640 -15.798 -35.368  0.00  0.00     0.032 A 
ATOM     11  C1  6ZW d   1       5.804 -14.481 -34.956  0.00  0.00    -0.024 A 
ATOM     12  H1  6ZW d   1       8.557 -13.147 -30.702  0.00  0.00     0.093 H 
ATOM     13  H5  6ZW d   1       7.457 -17.361 -32.926  0.00  0.00     0.085 H 
ATOM     14  H6  6ZW d   1       6.155 -17.841 -34.964  0.00  0.00     0.086 H 
ATOM     15  H7  6ZW d   1       5.348 -13.683 -35.530  0.00  0.00     0.091 H 
ENDROOT
BRANCH  10  16
ATOM     16  N11 6ZW d   1       4.841 -16.080 -36.510  0.00  0.00    -0.382 N 
BRANCH  16  17
ATOM     17  C14 6ZW d   1       4.556 -17.480 -36.896  0.00  0.00    -0.008 C 
ATOM     18  H8  6ZW d   1       5.517 -17.989 -37.062  0.00  0.00     0.063 H 
ATOM     19  H9  6ZW d   1       3.983 -17.463 -37.835  0.00  0.00     0.063 H 
BRANCH  17  20
ATOM     20  C15 6ZW d   1       3.761 -18.293 -35.872  0.00  0.00    -0.061 C 
ATOM     21  H10 6ZW d   1       3.605 -19.312 -36.255  0.00  0.00     0.029 H 
ATOM     22  H11 6ZW d   1       2.787 -17.813 -35.699  0.00  0.00     0.029 H 
ATOM     23  H12 6ZW d   1       4.320 -18.338 -34.926  0.00  0.00     0.029 H 
ENDBRANCH  17  20
ENDBRANCH  16  17
BRANCH  16  24
ATOM     24  C12 6ZW d   1       4.289 -15.004 -37.351  0.00  0.00    -0.008 C 
ATOM     25  H13 6ZW d   1       4.163 -15.394 -38.372  0.00  0.00     0.063 H 
ATOM     26  H14 6ZW d   1       5.008 -14.172 -37.363  0.00  0.00     0.063 H 
BRANCH  24  27
ATOM     27  C13 6ZW d   1       2.949 -14.468 -36.877  0.00  0.00    -0.061 C 
ATOM     28  H15 6ZW d   1       2.611 -13.672 -37.557  0.00  0.00     0.029 H 
ATOM     29  H16 6ZW d   1       3.056 -14.060 -35.861  0.00  0.00     0.029 H 
ATOM     30  H17 6ZW d   1       2.210 -15.283 -36.870  0.00  0.00     0.029 H 
ENDBRANCH  24  27
ENDBRANCH  16  24
ENDBRANCH  10  16
BRANCH   6  31
ATOM     31  C16 6ZW d   1       8.621 -15.850 -30.979  0.00  0.00    -0.050 C 
ATOM     32  H2  6ZW d   1       9.121 -15.331 -30.147  0.00  0.00     0.033 H 
ATOM     33  H3  6ZW d   1       9.369 -16.394 -31.574  0.00  0.00     0.033 H 
ATOM     34  H4  6ZW d   1       7.884 -16.561 -30.578  0.00  0.00     0.033 H 
ENDBRANCH   6  31
TORSDOF 6
