REMARK  7 active torsions:
REMARK  status: ('A' for Active; 'I' for Inactive)
REMARK    1  A    between atoms: C2_1  and  N15_29 
REMARK    2  A    between atoms: C19_9  and  N27_28 
REMARK    3  A    between atoms: C8_10  and  C10_12 
REMARK    4  A    between atoms: N15_29  and  C16_11 
REMARK       I    between atoms: C10_12  and  N11_30 
REMARK    5  A    between atoms: C22_21  and  N7_27 
REMARK    6  A    between atoms: N11_30  and  C13_22 
REMARK    7  A    between atoms: N11_30  and  C14_23 
ROOT
ATOM      1  C2  6ZZ d   1      24.400  34.251  -8.961  0.00  0.00     0.729 A 
ATOM      2  C4  6ZZ d   1      25.796  32.765  -7.959  0.00  0.00     0.035 A 
ATOM      3  C5  6ZZ d   1      25.705  33.394  -6.724  0.00  0.00     0.031 A 
ATOM      4  C6  6ZZ d   1      24.881  34.537  -6.775  0.00  0.00     0.162 A 
ATOM      5  C9  6ZZ d   1      26.147  33.265  -5.393  0.00  0.00    -0.036 A 
ATOM      6  C8  6ZZ d   1      25.616  34.289  -4.663  0.00  0.00     0.106 A 
ATOM      7  N1  6ZZ d   1      25.189  33.170  -9.079  0.00  0.00    -0.074 NA
ATOM      8  N3  6ZZ d   1      24.228  35.002  -7.852  0.00  0.00    -0.044 NA
ATOM      9  N7  6ZZ d   1      24.819  35.097  -5.508  0.00  0.00    -0.321 N 
ATOM     10  H1  6ZZ d   1      26.409  31.873  -8.020  0.00  0.00     0.117 H 
ATOM     11  H3  6ZZ d   1      26.801  32.482  -5.011  0.00  0.00     0.088 H 
ENDROOT
BRANCH   1  12
ATOM     12  N15 6ZZ d   1      23.627  34.491 -10.063  0.00  0.00    -0.171 N 
ATOM     13  H29 6ZZ d   1      23.784  33.834 -10.841  0.00  0.00     0.186 HD
BRANCH  12  14
ATOM     14  C16 6ZZ d   1      22.673  35.456 -10.321  0.00  0.00     0.142 A 
ATOM     15  N   6ZZ d   1      22.718  36.063 -11.516  0.00  0.00    -0.241 NA
ATOM     16  C20 6ZZ d   1      21.831  37.040 -11.757  0.00  0.00     0.030 A 
ATOM     17  C19 6ZZ d   1      20.863  37.456 -10.842  0.00  0.00     0.048 A 
ATOM     18  H2  6ZZ d   1      21.868  37.536 -12.720  0.00  0.00     0.118 H 
ATOM     19  C18 6ZZ d   1      20.823  36.797  -9.621  0.00  0.00    -0.052 A 
ATOM     20  C   6ZZ d   1      21.725  35.788  -9.345  0.00  0.00    -0.036 A 
ATOM     21  H4  6ZZ d   1      20.081  37.075  -8.881  0.00  0.00     0.087 H 
ATOM     22  H28 6ZZ d   1      21.700  35.266  -8.396  0.00  0.00     0.089 H 
BRANCH  17  23
ATOM     23  N27 6ZZ d   1      19.973  38.497 -11.115  0.00  0.00    -0.377 N 
ATOM     24  C28 6ZZ d   1      20.007  39.701 -10.282  0.00  0.00     0.018 C 
ATOM     25  C29 6ZZ d   1      18.635  40.331 -10.223  0.00  0.00     0.096 C 
ATOM     26  H13 6ZZ d   1      20.327  39.431  -9.265  0.00  0.00     0.066 H 
ATOM     27  H14 6ZZ d   1      20.720  40.420 -10.712  0.00  0.00     0.066 H 
ATOM     28  N30 6ZZ d   1      18.138  40.616 -11.598  0.00  0.00    -0.072 N 
ATOM     29  H17 6ZZ d   1      18.692  41.272  -9.655  0.00  0.00     0.078 H 
ATOM     30  H18 6ZZ d   1      17.940  39.641  -9.722  0.00  0.00     0.078 H 
ATOM     31  C31 6ZZ d   1      18.125  39.394 -12.447  0.00  0.00     0.096 C 
ATOM     32  H30 6ZZ d   1      18.738  41.304 -12.026  0.00  0.00     0.277 HD
ATOM     33  H31 6ZZ d   1      17.200  40.980 -11.537  0.00  0.00     0.277 HD
ATOM     34  C32 6ZZ d   1      19.494  38.754 -12.477  0.00  0.00     0.018 C 
ATOM     35  H19 6ZZ d   1      17.399  38.676 -12.037  0.00  0.00     0.078 H 
ATOM     36  H20 6ZZ d   1      17.831  39.668 -13.471  0.00  0.00     0.078 H 
ATOM     37  H15 6ZZ d   1      20.198  39.429 -12.986  0.00  0.00     0.066 H 
ATOM     38  H16 6ZZ d   1      19.436  37.802 -13.026  0.00  0.00     0.066 H 
ENDBRANCH  17  23
ENDBRANCH  12  14
ENDBRANCH   1  12
BRANCH   9  39
ATOM     39  C22 6ZZ d   1      23.907  36.190  -5.074  0.00  0.00     0.019 C 
ATOM     40  C23 6ZZ d   1      22.421  35.877  -5.251  0.00  0.00    -0.046 C 
ATOM     41  C24 6ZZ d   1      21.787  37.233  -5.412  0.00  0.00    -0.063 C 
ATOM     42  H9  6ZZ d   1      22.255  35.258  -6.145  0.00  0.00     0.036 H 
ATOM     43  H10 6ZZ d   1      22.021  35.360  -4.367  0.00  0.00     0.036 H 
ATOM     44  C25 6ZZ d   1      22.776  38.063  -6.149  0.00  0.00    -0.063 C 
ATOM     45  H5  6ZZ d   1      20.852  37.152  -5.986  0.00  0.00     0.033 H 
ATOM     46  H6  6ZZ d   1      21.575  37.675  -4.427  0.00  0.00     0.033 H 
ATOM     47  C26 6ZZ d   1      24.166  37.532  -5.760  0.00  0.00    -0.046 C 
ATOM     48  H7  6ZZ d   1      22.678  39.119  -5.859  0.00  0.00     0.033 H 
ATOM     49  H8  6ZZ d   1      22.622  37.965  -7.234  0.00  0.00     0.033 H 
ATOM     50  H11 6ZZ d   1      24.665  38.228  -5.069  0.00  0.00     0.036 H 
ATOM     51  H12 6ZZ d   1      24.790  37.393  -6.655  0.00  0.00     0.036 H 
ATOM     52  H21 6ZZ d   1      24.089  36.329  -3.998  0.00  0.00     0.073 H 
ENDBRANCH   9  39
BRANCH   6  53
ATOM     53  C10 6ZZ d   1      25.789  34.560  -3.199  0.00  0.00     0.269 C 
ATOM     54  N11 6ZZ d   1      26.550  35.592  -2.820  0.00  0.00    -0.355 N 
ATOM     55  O12 6ZZ d   1      25.286  33.771  -2.399  0.00  0.00    -0.266 OA
BRANCH  54  56
ATOM     56  C13 6ZZ d   1      26.779  35.915  -1.410  0.00  0.00    -0.016 C 
ATOM     57  H22 6ZZ d   1      27.432  36.797  -1.337  0.00  0.00     0.056 H 
ATOM     58  H23 6ZZ d   1      27.261  35.061  -0.912  0.00  0.00     0.056 H 
ATOM     59  H24 6ZZ d   1      25.817  36.129  -0.922  0.00  0.00     0.056 H 
ENDBRANCH  54  56
BRANCH  54  60
ATOM     60  C14 6ZZ d   1      27.229  36.474  -3.764  0.00  0.00    -0.016 C 
ATOM     61  H25 6ZZ d   1      27.000  36.157  -4.792  0.00  0.00     0.056 H 
ATOM     62  H26 6ZZ d   1      28.315  36.423  -3.598  0.00  0.00     0.056 H 
ATOM     63  H27 6ZZ d   1      26.884  37.508  -3.614  0.00  0.00     0.056 H 
ENDBRANCH  54  60
ENDBRANCH   6  53
TORSDOF 7
