REMARK  10 active torsions:
REMARK  status: ('A' for Active; 'I' for Inactive)
REMARK    1  A    between atoms: N12_2  and  C13_3 
REMARK    2  A    between atoms: C11_19  and  N12_2 
REMARK    3  A    between atoms: C13_3  and  C14_20 
REMARK    4  A    between atoms: C26_8  and  C27_28 
REMARK    5  A    between atoms: C27_28  and  C28_9 
REMARK    6  A    between atoms: C28_9  and  O29_29 
REMARK    7  A    between atoms: C02_11  and  C01_10 
REMARK    8  A    between atoms: C03_12  and  C02_11 
REMARK    9  A    between atoms: C09_18  and  N21_25 
REMARK   10  A    between atoms: N18_22  and  O20_24 
ROOT
ATOM      1  C10 1QK d   1      34.998  24.821  -7.141  0.00  0.00     0.005 A 
ATOM      2  C03 1QK d   1      37.203  21.904  -8.929  0.00  0.00     0.009 A 
ATOM      3  C04 1QK d   1      38.073  22.764  -9.613  0.00  0.00     0.032 A 
ATOM      4  N05 1QK d   1      37.845  24.043  -9.352  0.00  0.00    -0.176 NA
ATOM      5  N06 1QK d   1      36.783  24.027  -8.475  0.00  0.00    -0.199 N 
ATOM      6  C07 1QK d   1      36.369  22.745  -8.202  0.00  0.00     0.163 A 
ATOM      7  N08 1QK d   1      35.306  22.477  -7.423  0.00  0.00    -0.211 NA
ATOM      8  C09 1QK d   1      34.600  23.477  -6.916  0.00  0.00     0.132 A 
ATOM      9  C11 1QK d   1      36.108  25.086  -7.920  0.00  0.00     0.131 A 
ATOM     10  H1  1QK d   1      34.431  25.640  -6.701  0.00  0.00     0.095 H 
ATOM     11  H19 1QK d   1      38.854  22.418 -10.288  0.00  0.00     0.118 H 
ENDROOT
BRANCH   8  12
ATOM     12  N21 1QK d   1      33.434  23.110  -6.261  0.00  0.00    -0.361 N 
ATOM     13  C22 1QK d   1      32.502  24.142  -5.777  0.00  0.00    -0.003 C 
ATOM     14  C23 1QK d   1      32.135  23.903  -4.322  0.00  0.00    -0.050 C 
ATOM     15  H7  1QK d   1      31.587  24.116  -6.388  0.00  0.00     0.064 H 
ATOM     16  H8  1QK d   1      32.978  25.129  -5.871  0.00  0.00     0.064 H 
ATOM     17  C24 1QK d   1      31.676  22.465  -4.100  0.00  0.00    -0.062 C 
ATOM     18  H24 1QK d   1      31.321  24.587  -4.040  0.00  0.00     0.035 H 
ATOM     19  H25 1QK d   1      33.015  24.100  -3.692  0.00  0.00     0.035 H 
ATOM     20  C25 1QK d   1      32.724  21.459  -4.581  0.00  0.00    -0.046 C 
ATOM     21  H9  1QK d   1      30.741  22.299  -4.655  0.00  0.00     0.033 H 
ATOM     22  H10 1QK d   1      31.498  22.309  -3.026  0.00  0.00     0.033 H 
ATOM     23  C26 1QK d   1      33.094  21.688  -6.042  0.00  0.00     0.015 C 
ATOM     24  H26 1QK d   1      32.319  20.442  -4.471  0.00  0.00     0.036 H 
ATOM     25  H27 1QK d   1      33.628  21.563  -3.963  0.00  0.00     0.036 H 
ATOM     26  H11 1QK d   1      34.007  21.108  -6.243  0.00  0.00     0.072 H 
BRANCH  23  27
ATOM     27  C27 1QK d   1      32.018  21.146  -6.989  0.00  0.00    -0.026 C 
ATOM     28  H28 1QK d   1      31.094  21.717  -6.818  0.00  0.00     0.039 H 
ATOM     29  H29 1QK d   1      31.847  20.088  -6.741  0.00  0.00     0.039 H 
BRANCH  27  30
ATOM     30  C28 1QK d   1      32.357  21.233  -8.461  0.00  0.00     0.019 C 
ATOM     31  H12 1QK d   1      32.723  22.246  -8.684  0.00  0.00     0.074 H 
ATOM     32  H13 1QK d   1      31.449  21.033  -9.049  0.00  0.00     0.074 H 
BRANCH  30  33
ATOM     33  O29 1QK d   1      33.362  20.287  -8.825  0.00  0.00    -0.401 OA
ATOM     34  H30 1QK d   1      34.151  20.457  -8.324  0.00  0.00     0.209 HD
ENDBRANCH  30  33
ENDBRANCH  27  30
ENDBRANCH  23  27
ENDBRANCH   8  12
BRANCH   9  35
ATOM     35  N12 1QK d   1      36.606  26.324  -8.178  0.00  0.00    -0.371 N 
ATOM     36  H2  1QK d   1      37.459  26.388  -8.752  0.00  0.00     0.161 HD
BRANCH  35  37
ATOM     37  C13 1QK d   1      36.022  27.557  -7.702  0.00  0.00     0.015 C 
ATOM     38  H3  1QK d   1      34.956  27.385  -7.491  0.00  0.00     0.070 H 
ATOM     39  H4  1QK d   1      36.121  28.322  -8.487  0.00  0.00     0.070 H 
BRANCH  37  40
ATOM     40  C14 1QK d   1      36.679  28.052  -6.468  0.00  0.00    -0.047 C 
ATOM     41  C15 1QK d   1      37.953  27.800  -6.142  0.00  0.00    -0.077 C 
ATOM     42  C16 1QK d   1      38.494  28.207  -4.897  0.00  0.00    -0.070 C 
ATOM     43  H5  1QK d   1      38.588  27.270  -6.850  0.00  0.00     0.084 H 
ATOM     44  C17 1QK d   1      37.725  28.852  -3.994  0.00  0.00    -0.016 C 
ATOM     45  H20 1QK d   1      39.538  27.998  -4.667  0.00  0.00     0.085 H 
ATOM     46  N18 1QK d   1      36.423  29.123  -4.209  0.00  0.00    -0.172 NA
ATOM     47  H6  1QK d   1      38.175  29.166  -3.054  0.00  0.00     0.105 H 
ATOM     48  C19 1QK d   1      35.810  28.837  -5.515  0.00  0.00     0.029 C 
ATOM     49  H21 1QK d   1      34.888  28.262  -5.341  0.00  0.00     0.066 H 
ATOM     50  H22 1QK d   1      35.560  29.796  -5.992  0.00  0.00     0.066 H 
BRANCH  46  51
ATOM     51  O20 1QK d   1      35.614  28.509  -3.205  0.00  0.00    -0.309 OA
ATOM     52  H23 1QK d   1      35.990  28.680  -2.349  0.00  0.00     0.237 HD
ENDBRANCH  46  51
ENDBRANCH  37  40
ENDBRANCH  35  37
ENDBRANCH   9  35
BRANCH   2  53
ATOM     53  C02 1QK d   1      37.161  20.395  -8.971  0.00  0.00    -0.039 C 
ATOM     54  H17 1QK d   1      38.160  20.013  -8.712  0.00  0.00     0.039 H 
ATOM     55  H18 1QK d   1      36.431  20.048  -8.225  0.00  0.00     0.039 H 
BRANCH  53  56
ATOM     56  C01 1QK d   1      36.776  19.841 -10.299  0.00  0.00    -0.072 C 
ATOM     57  H14 1QK d   1      36.768  18.742 -10.249  0.00  0.00     0.028 H 
ATOM     58  H15 1QK d   1      37.502  20.169 -11.057  0.00  0.00     0.028 H 
ATOM     59  H16 1QK d   1      35.773  20.203 -10.571  0.00  0.00     0.028 H 
ENDBRANCH  53  56
ENDBRANCH   2  53
TORSDOF 10
