REMARK  8 active torsions:
REMARK  status: ('A' for Active; 'I' for Inactive)
REMARK    1  A    between atoms: C23_9  and  N38_38 
REMARK    2  A    between atoms: C1_12  and  C11_10 
REMARK    3  A    between atoms: C8_19  and  C9_20 
REMARK    4  A    between atoms: C10_21  and  N12_22 
REMARK    5  A    between atoms: N12_22  and  C14_23 
REMARK    6  A    between atoms: N25_26  and  C37_37 
REMARK    7  A    between atoms: C28_28  and  C39_39 
REMARK    8  A    between atoms: C39_39  and  C41_41 
ROOT
ATOM      1  C13 70D d   1       7.363  38.021  24.309  0.00  0.00     0.247 C 
ATOM      2  C27 70D d   1       6.066  39.631  21.961  0.00  0.00    -0.030 A 
ATOM      3  C1  70D d   1       1.353  35.955  25.465  0.00  0.00    -0.010 C 
ATOM      4  C2  70D d   1       0.614  37.155  24.801  0.00  0.00     0.037 C 
ATOM      5  C3  70D d   1       2.873  36.157  25.534  0.00  0.00    -0.046 A 
ATOM      6  C4  70D d   1       3.421  36.906  26.575  0.00  0.00    -0.075 A 
ATOM      7  C5  70D d   1       4.773  37.204  26.602  0.00  0.00    -0.074 A 
ATOM      8  C6  70D d   1       5.616  36.773  25.590  0.00  0.00    -0.026 A 
ATOM      9  C7  70D d   1       5.075  36.009  24.561  0.00  0.00    -0.068 A 
ATOM     10  C8  70D d   1       3.721  35.682  24.518  0.00  0.00    -0.055 A 
ATOM     11  C10 70D d   1       7.084  37.177  25.556  0.00  0.00     0.113 C 
ATOM     12  O24 70D d   1       7.863  37.471  23.336  0.00  0.00    -0.271 OA
ATOM     13  N25 70D d   1       6.994  39.321  24.253  0.00  0.00    -0.350 N 
ATOM     14  C26 70D d   1       7.138  39.998  22.964  0.00  0.00     0.021 C 
ATOM     15  C28 70D d   1       6.217  39.863  20.581  0.00  0.00    -0.031 A 
ATOM     16  C29 70D d   1       5.141  39.570  19.744  0.00  0.00    -0.073 A 
ATOM     17  C30 70D d   1       3.962  39.028  20.229  0.00  0.00    -0.057 A 
ATOM     18  C31 70D d   1       3.796  38.831  21.590  0.00  0.00     0.037 A 
ATOM     19  C32 70D d   1       4.862  39.105  22.444  0.00  0.00    -0.049 A 
ATOM     20  N33 70D d   1       2.562  38.302  22.054  0.00  0.00    -0.303 N 
ATOM     21  O34 70D d   1       1.133  37.369  23.465  0.00  0.00    -0.303 OA
ATOM     22  C35 70D d   1       2.112  38.290  23.331  0.00  0.00     0.365 C 
ATOM     23  O36 70D d   1       2.463  39.047  24.205  0.00  0.00    -0.238 OA
ATOM     24  H8  70D d   1       1.183  35.072  24.832  0.00  0.00     0.050 H 
ATOM     25  H9  70D d   1       0.772  38.061  25.404  0.00  0.00     0.076 H 
ATOM     26  H10 70D d   1      -0.462  36.936  24.744  0.00  0.00     0.076 H 
ATOM     27  H11 70D d   1       2.780  37.260  27.374  0.00  0.00     0.084 H 
ATOM     28  H12 70D d   1       5.177  37.782  27.425  0.00  0.00     0.084 H 
ATOM     29  H13 70D d   1       5.726  35.657  23.769  0.00  0.00     0.085 H 
ATOM     30  H17 70D d   1       7.314  37.757  26.462  0.00  0.00     0.095 H 
ATOM     31  H19 70D d   1       7.096  41.084  23.136  0.00  0.00     0.071 H 
ATOM     32  H20 70D d   1       8.117  39.731  22.539  0.00  0.00     0.071 H 
ATOM     33  H21 70D d   1       5.230  39.772  18.683  0.00  0.00     0.084 H 
ATOM     34  H22 70D d   1       3.168  38.758  19.542  0.00  0.00     0.086 H 
ATOM     35  H23 70D d   1       4.757  38.907  23.505  0.00  0.00     0.087 H 
ATOM     36  H24 70D d   1       1.962  37.895  21.365  0.00  0.00     0.171 HD
ENDROOT
BRANCH  11  37
ATOM     37  N12 70D d   1       7.967  36.029  25.480  0.00  0.00    -0.373 N 
ATOM     38  H18 70D d   1       8.314  35.756  24.549  0.00  0.00     0.161 HD
BRANCH  37  39
ATOM     39  C14 70D d   1       8.380  35.270  26.567  0.00  0.00     0.029 A 
ATOM     40  C15 70D d   1       8.184  35.672  27.874  0.00  0.00    -0.044 A 
ATOM     41  C16 70D d   1       8.630  34.865  28.951  0.00  0.00     0.020 A 
ATOM     42  H2  70D d   1       7.685  36.612  28.078  0.00  0.00     0.088 H 
ATOM     43  C17 70D d   1       9.284  33.621  28.665  0.00  0.00     0.023 A 
ATOM     44  C20 70D d   1       8.480  35.244  30.300  0.00  0.00     0.145 A 
ATOM     45  C18 70D d   1       9.467  33.260  27.306  0.00  0.00    -0.066 A 
ATOM     46  C23 70D d   1       9.761  32.830  29.782  0.00  0.00     0.132 A 
ATOM     47  C19 70D d   1       9.032  34.066  26.302  0.00  0.00    -0.057 A 
ATOM     48  H1  70D d   1       9.962  32.326  27.064  0.00  0.00     0.085 H 
ATOM     49  H3  70D d   1       9.195  33.767  25.273  0.00  0.00     0.086 H 
ATOM     50  N22 70D d   1       9.627  33.251  31.062  0.00  0.00    -0.240 NA
ATOM     51  C21 70D d   1       9.002  34.402  31.314  0.00  0.00     0.042 A 
ATOM     52  H4  70D d   1       8.887  34.709  32.347  0.00  0.00     0.119 H 
ATOM     53  F40 70D d   1       7.797  36.377  30.602  0.00  0.00    -0.204 F 
BRANCH  46  54
ATOM     54  N38 70D d   1      10.358  31.636  29.611  0.00  0.00    -0.383 N 
ATOM     55  H28 70D d   1      10.684  31.102  30.429  0.00  0.00     0.157 HD
ATOM     56  H29 70D d   1      10.489  31.257  28.662  0.00  0.00     0.157 HD
ENDBRANCH  46  54
ENDBRANCH  37  39
ENDBRANCH  11  37
BRANCH  13  57
ATOM     57  C37 70D d   1       6.404  40.097  25.345  0.00  0.00    -0.016 C 
ATOM     58  H25 70D d   1       6.353  39.475  26.251  0.00  0.00     0.056 H 
ATOM     59  H26 70D d   1       5.390  40.416  25.062  0.00  0.00     0.056 H 
ATOM     60  H27 70D d   1       7.025  40.983  25.543  0.00  0.00     0.056 H 
ENDBRANCH  13  57
BRANCH  10  61
ATOM     61  C9  70D d   1       3.238  34.766  23.404  0.00  0.00    -0.051 C 
ATOM     62  H14 70D d   1       2.155  34.604  23.506  0.00  0.00     0.033 H 
ATOM     63  H15 70D d   1       3.761  33.801  23.470  0.00  0.00     0.033 H 
ATOM     64  H16 70D d   1       3.449  35.231  22.430  0.00  0.00     0.033 H 
ENDBRANCH  10  61
BRANCH  15  65
ATOM     65  C39 70D d   1       7.537  40.349  19.944  0.00  0.00     0.076 C 
ATOM     66  C42 70D d   1       7.764  40.344  18.399  0.00  0.00    -0.044 C 
ATOM     67  C43 70D d   1       9.134  39.701  18.622  0.00  0.00    -0.062 C 
ATOM     68  H30 70D d   1       7.803  41.345  17.945  0.00  0.00     0.035 H 
ATOM     69  H31 70D d   1       7.055  39.715  17.840  0.00  0.00     0.035 H 
ATOM     70  C44 70D d   1       8.657  39.264  20.007  0.00  0.00    -0.044 C 
ATOM     71  H32 70D d   1       9.974  40.411  18.633  0.00  0.00     0.033 H 
ATOM     72  H33 70D d   1       9.364  38.871  17.937  0.00  0.00     0.033 H 
ATOM     73  H34 70D d   1       8.283  38.231  20.050  0.00  0.00     0.035 H 
ATOM     74  H35 70D d   1       9.394  39.421  20.809  0.00  0.00     0.035 H 
BRANCH  65  75
ATOM     75  C41 70D d   1       7.932  41.717  20.560  0.00  0.00     0.186 C 
ATOM     76  O45 70D d   1       6.974  42.587  20.564  0.00  0.00    -0.647 OA
ATOM     77  O46 70D d   1       9.050  41.952  20.989  0.00  0.00    -0.647 OA
ENDBRANCH  65  75
ENDBRANCH  15  65
BRANCH   3  78
ATOM     78  C11 70D d   1       0.707  35.670  26.830  0.00  0.00    -0.067 C 
ATOM     79  H5  70D d   1      -0.377  35.537  26.702  0.00  0.00     0.028 H 
ATOM     80  H6  70D d   1       0.895  36.515  27.508  0.00  0.00     0.028 H 
ATOM     81  H7  70D d   1       1.141  34.754  27.257  0.00  0.00     0.028 H 
ENDBRANCH   3  78
TORSDOF 8
