REMARK  8 active torsions:
REMARK  status: ('A' for Active; 'I' for Inactive)
REMARK    1  A    between atoms: C23_9  and  N38_38 
REMARK    2  A    between atoms: C1_12  and  C11_10 
REMARK    3  A    between atoms: C8_19  and  C9_20 
REMARK    4  A    between atoms: C10_21  and  N12_22 
REMARK    5  A    between atoms: N12_22  and  C14_23 
REMARK    6  A    between atoms: N25_26  and  C37_37 
REMARK    7  A    between atoms: C28_28  and  C39_39 
REMARK    8  A    between atoms: C39_39  and  C41_41 
ROOT
ATOM      1  C13 70C d   1       7.888  36.347  24.369  0.00  0.00     0.247 C 
ATOM      2  C27 70C d   1       6.396  37.998  22.187  0.00  0.00    -0.030 A 
ATOM      3  C1  70C d   1       2.052  34.246  26.071  0.00  0.00    -0.010 C 
ATOM      4  C2  70C d   1       1.223  35.429  25.438  0.00  0.00     0.037 C 
ATOM      5  C3  70C d   1       3.572  34.441  26.001  0.00  0.00    -0.046 A 
ATOM      6  C4  70C d   1       4.220  35.165  27.002  0.00  0.00    -0.075 A 
ATOM      7  C5  70C d   1       5.573  35.447  26.915  0.00  0.00    -0.074 A 
ATOM      8  C6  70C d   1       6.314  35.038  25.817  0.00  0.00    -0.026 A 
ATOM      9  C7  70C d   1       5.677  34.286  24.837  0.00  0.00    -0.068 A 
ATOM     10  C8  70C d   1       4.322  33.974  24.908  0.00  0.00    -0.055 A 
ATOM     11  C10 70C d   1       7.755  35.490  25.617  0.00  0.00     0.113 C 
ATOM     12  O24 70C d   1       8.328  35.828  23.349  0.00  0.00    -0.271 OA
ATOM     13  N25 70C d   1       7.510  37.647  24.382  0.00  0.00    -0.350 N 
ATOM     14  C26 70C d   1       7.531  38.376  23.115  0.00  0.00     0.021 C 
ATOM     15  C28 70C d   1       6.436  38.213  20.795  0.00  0.00    -0.031 A 
ATOM     16  C29 70C d   1       5.331  37.820  20.043  0.00  0.00    -0.073 A 
ATOM     17  C30 70C d   1       4.226  37.222  20.613  0.00  0.00    -0.057 A 
ATOM     18  C31 70C d   1       4.155  37.067  21.985  0.00  0.00     0.037 A 
ATOM     19  C32 70C d   1       5.257  37.425  22.757  0.00  0.00    -0.049 A 
ATOM     20  N33 70C d   1       2.952  36.568  22.542  0.00  0.00    -0.303 N 
ATOM     21  O34 70C d   1       1.616  35.650  24.057  0.00  0.00    -0.303 OA
ATOM     22  C35 70C d   1       2.604  36.552  23.853  0.00  0.00     0.365 C 
ATOM     23  O36 70C d   1       3.063  37.269  24.713  0.00  0.00    -0.238 OA
ATOM     24  H8  70C d   1       1.826  33.342  25.487  0.00  0.00     0.050 H 
ATOM     25  H9  70C d   1       1.404  36.347  26.016  0.00  0.00     0.076 H 
ATOM     26  H10 70C d   1       0.152  35.179  25.473  0.00  0.00     0.076 H 
ATOM     27  H11 70C d   1       3.656  35.512  27.860  0.00  0.00     0.084 H 
ATOM     28  H12 70C d   1       6.059  35.994  27.715  0.00  0.00     0.084 H 
ATOM     29  H13 70C d   1       6.253  33.931  23.990  0.00  0.00     0.085 H 
ATOM     30  H17 70C d   1       8.053  36.078  26.497  0.00  0.00     0.095 H 
ATOM     31  H19 70C d   1       7.462  39.452  23.331  0.00  0.00     0.071 H 
ATOM     32  H20 70C d   1       8.483  38.164  22.606  0.00  0.00     0.071 H 
ATOM     33  H21 70C d   1       5.340  37.990  18.972  0.00  0.00     0.084 H 
ATOM     34  H22 70C d   1       3.414  36.874  19.985  0.00  0.00     0.086 H 
ATOM     35  H23 70C d   1       5.230  37.255  23.827  0.00  0.00     0.087 H 
ATOM     36  H24 70C d   1       2.288  36.186  21.899  0.00  0.00     0.171 HD
ENDROOT
BRANCH  11  37
ATOM     37  N12 70C d   1       8.682  34.387  25.453  0.00  0.00    -0.373 N 
ATOM     38  H18 70C d   1       8.972  34.139  24.497  0.00  0.00     0.161 HD
BRANCH  37  39
ATOM     39  C14 70C d   1       9.203  33.644  26.505  0.00  0.00     0.029 A 
ATOM     40  C15 70C d   1       9.107  34.051  27.821  0.00  0.00    -0.044 A 
ATOM     41  C16 70C d   1       9.578  33.221  28.867  0.00  0.00     0.020 A 
ATOM     42  H2  70C d   1       8.668  35.014  28.055  0.00  0.00     0.088 H 
ATOM     43  C17 70C d   1      10.173  31.960  28.542  0.00  0.00     0.023 A 
ATOM     44  C20 70C d   1       9.498  33.590  30.238  0.00  0.00     0.145 A 
ATOM     45  C18 70C d   1      10.256  31.594  27.176  0.00  0.00    -0.066 A 
ATOM     46  C23 70C d   1      10.692  31.152  29.627  0.00  0.00     0.132 A 
ATOM     47  C19 70C d   1       9.800  32.425  26.200  0.00  0.00    -0.057 A 
ATOM     48  H1  70C d   1      10.689  30.638  26.904  0.00  0.00     0.085 H 
ATOM     49  H3  70C d   1       9.904  32.131  25.162  0.00  0.00     0.086 H 
ATOM     50  N22 70C d   1      10.606  31.556  30.920  0.00  0.00    -0.240 NA
ATOM     51  C21 70C d   1      10.026  32.726  31.207  0.00  0.00     0.042 A 
ATOM     52  H4  70C d   1       9.960  33.023  32.248  0.00  0.00     0.119 H 
ATOM     53  F40 70C d   1       8.839  34.707  30.617  0.00  0.00    -0.204 F 
BRANCH  46  54
ATOM     54  N38 70C d   1      11.302  29.965  29.412  0.00  0.00    -0.383 N 
ATOM     55  H28 70C d   1      11.659  29.418  30.208  0.00  0.00     0.157 HD
ATOM     56  H29 70C d   1      11.410  29.608  28.452  0.00  0.00     0.157 HD
ENDBRANCH  46  54
ENDBRANCH  37  39
ENDBRANCH  11  37
BRANCH  13  57
ATOM     57  C37 70C d   1       6.989  38.373  25.540  0.00  0.00    -0.016 C 
ATOM     58  H25 70C d   1       7.025  37.723  26.427  0.00  0.00     0.056 H 
ATOM     59  H26 70C d   1       5.949  38.673  25.347  0.00  0.00     0.056 H 
ATOM     60  H27 70C d   1       7.602  39.269  25.717  0.00  0.00     0.056 H 
ENDBRANCH  13  57
BRANCH  10  61
ATOM     61  C9  70C d   1       3.718  33.162  23.786  0.00  0.00    -0.051 C 
ATOM     62  H14 70C d   1       2.648  32.999  23.986  0.00  0.00     0.033 H 
ATOM     63  H15 70C d   1       4.230  32.191  23.719  0.00  0.00     0.033 H 
ATOM     64  H16 70C d   1       3.835  33.705  22.836  0.00  0.00     0.033 H 
ENDBRANCH  10  61
BRANCH  15  65
ATOM     65  C39 70C d   1       7.662  38.793  20.062  0.00  0.00     0.076 C 
ATOM     66  C42 70C d   1       7.384  39.258  18.612  0.00  0.00    -0.044 C 
ATOM     67  C43 70C d   1       8.636  39.752  17.907  0.00  0.00    -0.064 C 
ATOM     68  H30 70C d   1       6.649  40.076  18.639  0.00  0.00     0.035 H 
ATOM     69  H31 70C d   1       6.970  38.412  18.044  0.00  0.00     0.035 H 
ATOM     70  C44 70C d   1       9.682  38.650  17.827  0.00  0.00    -0.065 C 
ATOM     71  H32 70C d   1       9.052  40.604  18.465  0.00  0.00     0.033 H 
ATOM     72  H33 70C d   1       8.373  40.074  16.889  0.00  0.00     0.033 H 
ATOM     73  C45 70C d   1      10.008  38.096  19.207  0.00  0.00    -0.064 C 
ATOM     74  H34 70C d   1      10.600  39.059  17.379  0.00  0.00     0.033 H 
ATOM     75  H35 70C d   1       9.297  37.836  17.196  0.00  0.00     0.033 H 
ATOM     76  C46 70C d   1       8.754  37.692  19.976  0.00  0.00    -0.044 C 
ATOM     77  H36 70C d   1      10.543  38.867  19.781  0.00  0.00     0.033 H 
ATOM     78  H37 70C d   1      10.652  37.212  19.091  0.00  0.00     0.033 H 
ATOM     79  H38 70C d   1       8.316  36.813  19.480  0.00  0.00     0.035 H 
ATOM     80  H39 70C d   1       9.052  37.424  21.000  0.00  0.00     0.035 H 
BRANCH  65  81
ATOM     81  C41 70C d   1       8.084  40.109  20.858  0.00  0.00     0.186 C 
ATOM     82  O47 70C d   1       9.322  40.173  21.237  0.00  0.00    -0.647 OA
ATOM     83  O48 70C d   1       7.281  40.980  21.153  0.00  0.00    -0.647 OA
ENDBRANCH  65  81
ENDBRANCH  15  65
BRANCH   3  84
ATOM     84  C11 70C d   1       1.556  34.004  27.508  0.00  0.00    -0.067 C 
ATOM     85  H5  70C d   1       0.464  33.871  27.502  0.00  0.00     0.028 H 
ATOM     86  H6  70C d   1       1.816  34.869  28.136  0.00  0.00     0.028 H 
ATOM     87  H7  70C d   1       2.033  33.099  27.913  0.00  0.00     0.028 H 
ENDBRANCH   3  84
TORSDOF 8
