REMARK  15 active torsions:
REMARK  status: ('A' for Active; 'I' for Inactive)
REMARK    1  A    between atoms: C2_2  and  NAN_14 
REMARK    2  A    between atoms: C6_6  and  NAM_13 
REMARK    3  A    between atoms: CAD_8  and  OAL_12 
REMARK    4  A    between atoms: CAE_9  and  OAK_11 
REMARK    5  A    between atoms: OAK_11  and  CBJ_35 
REMARK    6  A    between atoms: OAL_12  and  CBI_34 
REMARK    7  A    between atoms: NAM_13  and  CAV_21 
REMARK    8  A    between atoms: NAN_14  and  CAO_15 
REMARK    9  A    between atoms: CAO_15  and  CAP_16 
REMARK   10  A    between atoms: CAP_16  and  CAQ_17 
REMARK   11  A    between atoms: CAQ_17  and  NAR_18 
REMARK   12  A    between atoms: NAR_18  and  CAS_19 
REMARK   13  A    between atoms: NAR_18  and  CAU_20 
REMARK   14  A    between atoms: NAY_24  and  CBB_27 
REMARK   15  A    between atoms: CBB_27  and  CBC_28 
ROOT
ATOM      1  N1  E11 d   1      -1.857  47.394  82.704  0.00  0.00    -0.045 NA
ATOM      2  C2  E11 d   1      -1.300  47.544  83.926  0.00  0.00     0.725 A 
ATOM      3  N3  E11 d   1      -0.581  46.551  84.501  0.00  0.00    -0.062 NA
ATOM      4  C4  E11 d   1      -0.437  45.388  83.805  0.00  0.00     0.092 A 
ATOM      5  C5  E11 d   1      -1.019  45.240  82.531  0.00  0.00     0.042 A 
ATOM      6  C6  E11 d   1      -1.742  46.287  81.968  0.00  0.00     0.155 A 
ATOM      7  CAC E11 d   1       0.300  44.338  84.370  0.00  0.00    -0.019 A 
ATOM      8  CAD E11 d   1       0.466  43.129  83.674  0.00  0.00     0.103 A 
ATOM      9  CAE E11 d   1      -0.126  42.992  82.408  0.00  0.00     0.102 A 
ATOM     10  CAF E11 d   1      -0.862  44.051  81.848  0.00  0.00    -0.032 A 
ATOM     11  H1  E11 d   1       0.745  44.460  85.351  0.00  0.00     0.091 H 
ATOM     12  H2  E11 d   1      -1.311  43.932  80.869  0.00  0.00     0.089 H 
ENDROOT
BRANCH   6  13
ATOM     13  NAM E11 d   1      -2.348  46.241  80.751  0.00  0.00    -0.369 N 
ATOM     14  H3  E11 d   1      -2.259  45.392  80.174  0.00  0.00     0.161 HD
BRANCH  13  15
ATOM     15  CAV E11 d   1      -3.123  47.374  80.246  0.00  0.00     0.014 C 
ATOM     16  CAW E11 d   1      -3.247  47.205  78.743  0.00  0.00    -0.023 C 
ATOM     17  CAX E11 d   1      -4.265  48.180  78.134  0.00  0.00     0.086 C 
ATOM     18  H19 E11 d   1      -3.569  46.176  78.527  0.00  0.00     0.038 H 
ATOM     19  H20 E11 d   1      -2.264  47.386  78.284  0.00  0.00     0.038 H 
ATOM     20  NAY E11 d   1      -5.579  48.291  78.815  0.00  0.00    -0.067 N 
ATOM     21  H21 E11 d   1      -4.453  47.860  77.099  0.00  0.00     0.076 H 
ATOM     22  H22 E11 d   1      -3.807  49.180  78.131  0.00  0.00     0.076 H 
ATOM     23  CAZ E11 d   1      -5.676  47.252  79.874  0.00  0.00     0.086 C 
ATOM     24  H23 E11 d   1      -5.618  49.186  79.278  0.00  0.00     0.280 HD
ATOM     25  CBA E11 d   1      -4.521  47.370  80.886  0.00  0.00    -0.023 C 
ATOM     26  H24 E11 d   1      -5.640  46.258  79.404  0.00  0.00     0.076 H 
ATOM     27  H25 E11 d   1      -6.631  47.372  80.406  0.00  0.00     0.076 H 
ATOM     28  H26 E11 d   1      -4.647  48.308  81.446  0.00  0.00     0.038 H 
ATOM     29  H27 E11 d   1      -4.581  46.518  81.579  0.00  0.00     0.038 H 
ATOM     30  H18 E11 d   1      -2.611  48.319  80.480  0.00  0.00     0.072 H 
BRANCH  20  31
ATOM     31  CBB E11 d   1      -6.681  48.281  77.788  0.00  0.00     0.107 C 
ATOM     32  H28 E11 d   1      -6.679  47.301  77.289  0.00  0.00     0.083 H 
ATOM     33  H29 E11 d   1      -6.472  49.069  77.049  0.00  0.00     0.083 H 
BRANCH  31  34
ATOM     34  CBC E11 d   1      -8.072  48.522  78.363  0.00  0.00    -0.033 A 
ATOM     35  CBD E11 d   1      -9.164  47.753  77.908  0.00  0.00    -0.075 A 
ATOM     36  CBE E11 d   1     -10.450  47.934  78.450  0.00  0.00    -0.082 A 
ATOM     37  H30 E11 d   1      -9.010  47.013  77.131  0.00  0.00     0.084 H 
ATOM     38  CBF E11 d   1     -10.653  48.886  79.457  0.00  0.00    -0.083 A 
ATOM     39  H31 E11 d   1     -11.281  47.339  78.089  0.00  0.00     0.083 H 
ATOM     40  CBG E11 d   1      -9.570  49.651  79.915  0.00  0.00    -0.082 A 
ATOM     41  H32 E11 d   1     -11.641  49.031  79.880  0.00  0.00     0.083 H 
ATOM     42  CBH E11 d   1      -8.284  49.475  79.374  0.00  0.00    -0.075 A 
ATOM     43  H33 E11 d   1      -9.726  50.387  80.695  0.00  0.00     0.083 H 
ATOM     44  H34 E11 d   1      -7.457  50.074  79.737  0.00  0.00     0.084 H 
ENDBRANCH  31  34
ENDBRANCH  20  31
ENDBRANCH  13  15
ENDBRANCH   6  13
BRANCH   2  45
ATOM     45  NAN E11 d   1      -1.484  48.724  84.545  0.00  0.00    -0.222 N 
ATOM     46  H4  E11 d   1      -1.081  48.897  85.477  0.00  0.00     0.177 HD
BRANCH  45  47
ATOM     47  CAO E11 d   1      -2.264  49.753  83.871  0.00  0.00     0.011 C 
ATOM     48  H5  E11 d   1      -3.331  49.648  84.115  0.00  0.00     0.064 H 
ATOM     49  H6  E11 d   1      -2.128  49.686  82.781  0.00  0.00     0.064 H 
BRANCH  47  50
ATOM     50  CAP E11 d   1      -1.732  51.067  84.389  0.00  0.00    -0.027 C 
ATOM     51  H7  E11 d   1      -2.047  51.880  83.719  0.00  0.00     0.037 H 
ATOM     52  H8  E11 d   1      -0.633  51.029  84.428  0.00  0.00     0.037 H 
BRANCH  50  53
ATOM     53  CAQ E11 d   1      -2.284  51.320  85.794  0.00  0.00     0.084 C 
ATOM     54  H9  E11 d   1      -1.709  50.730  86.522  0.00  0.00     0.076 H 
ATOM     55  H10 E11 d   1      -3.341  51.017  85.829  0.00  0.00     0.076 H 
BRANCH  53  56
ATOM     56  NAR E11 d   1      -2.176  52.749  86.132  0.00  0.00    -0.079 N 
ATOM     57  H11 E11 d   1      -2.510  52.844  87.078  0.00  0.00     0.278 HD
BRANCH  56  58
ATOM     58  CAS E11 d   1      -3.109  53.581  85.302  0.00  0.00     0.066 C 
ATOM     59  H12 E11 d   1      -3.002  54.640  85.580  0.00  0.00     0.068 H 
ATOM     60  H13 E11 d   1      -4.145  53.258  85.480  0.00  0.00     0.068 H 
ATOM     61  H14 E11 d   1      -2.864  53.455  84.237  0.00  0.00     0.068 H 
ENDBRANCH  56  58
BRANCH  56  62
ATOM     62  CAU E11 d   1      -0.738  53.172  86.176  0.00  0.00     0.066 C 
ATOM     63  H15 E11 d   1      -0.172  52.479  86.816  0.00  0.00     0.068 H 
ATOM     64  H16 E11 d   1      -0.668  54.190  86.586  0.00  0.00     0.068 H 
ATOM     65  H17 E11 d   1      -0.320  53.157  85.159  0.00  0.00     0.068 H 
ENDBRANCH  56  62
ENDBRANCH  53  56
ENDBRANCH  50  53
ENDBRANCH  47  50
ENDBRANCH  45  47
ENDBRANCH   2  45
BRANCH   9  66
ATOM     66  OAK E11 d   1       0.034  41.814  81.716  0.00  0.00    -0.353 OA
BRANCH  66  67
ATOM     67  CBJ E11 d   1      -0.683  41.452  80.515  0.00  0.00     0.010 C 
ATOM     68  H38 E11 d   1      -0.356  40.457  80.178  0.00  0.00     0.066 H 
ATOM     69  H39 E11 d   1      -0.476  42.192  79.728  0.00  0.00     0.066 H 
ATOM     70  H40 E11 d   1      -1.763  41.431  80.725  0.00  0.00     0.066 H 
ENDBRANCH  66  67
ENDBRANCH   9  66
BRANCH   8  71
ATOM     71  OAL E11 d   1       1.180  42.081  84.212  0.00  0.00    -0.353 OA
BRANCH  71  72
ATOM     72  CBI E11 d   1       2.224  42.250  85.178  0.00  0.00     0.010 C 
ATOM     73  H35 E11 d   1       2.636  41.267  85.448  0.00  0.00     0.066 H 
ATOM     74  H36 E11 d   1       1.817  42.737  86.076  0.00  0.00     0.066 H 
ATOM     75  H37 E11 d   1       3.021  42.876  84.751  0.00  0.00     0.066 H 
ENDBRANCH  71  72
ENDBRANCH   8  71
TORSDOF 15
