REMARK WARNING: 32 MAX_TORS EXCEEDED!!!
REMARK  42 active torsions:
REMARK  status: ('A' for Active; 'I' for Inactive)
REMARK    1  A    between atoms: CAA_1  and  CAB_2 
REMARK    2  A    between atoms: CAB_2  and  CAC_3 
REMARK    3  A    between atoms: CAC_3  and  CAD_4 
REMARK    4  A    between atoms: CAC_3  and  CAE_5 
REMARK    5  A    between atoms: CAE_5  and  CAF_6 
REMARK    6  A    between atoms: CAF_6  and  CAG_7 
REMARK    7  A    between atoms: CAG_7  and  CAH_8 
REMARK    8  A    between atoms: CAH_8  and  CAI_9 
REMARK       I    between atoms: CAI_9  and  N_11 
REMARK    9  A    between atoms: N_11  and  CA_12 
REMARK   10  A    between atoms: CA_12  and  C_13 
REMARK   11  A    between atoms: CA_12  and  CB_15 
REMARK       I    between atoms: C_13  and  N_18 
REMARK   12  A    between atoms: CB_15  and  CG_16 
REMARK   13  A    between atoms: CG_16  and  NZ_17 
REMARK   14  A    between atoms: N_18  and  CA_19 
REMARK   15  A    between atoms: CA_19  and  CB_20 
REMARK   16  A    between atoms: CA_19  and  C_23 
REMARK   17  A    between atoms: CB_20  and  CG2_21 
REMARK   18  A    between atoms: CB_20  and  OG1_22 
REMARK       I    between atoms: C_23  and  N_25 
REMARK   19  A    between atoms: N_25  and  CA_26 
REMARK   20  A    between atoms: CA_26  and  C_27 
REMARK   21  A    between atoms: CA_26  and  CB_29 
REMARK       I    between atoms: C_27  and  N_32 
REMARK   22  A    between atoms: CB_29  and  CG_30 
REMARK   23  A    between atoms: CG_30  and  NZ_31 
REMARK   24  A    between atoms: N_32  and  CA_33 
REMARK   25  A    between atoms: CA_40  and  CB_43 
REMARK   26  A    between atoms: CB_43  and  CG_44 
REMARK   27  A    between atoms: CG_44  and  ND_45 
REMARK   28  A    between atoms: CA_47  and  CB_50 
REMARK   29  A    between atoms: CB_50  and  CG_51 
REMARK   30  A    between atoms: CA_58  and  CB_61 
REMARK   31  A    between atoms: CB_61  and  CG_62 
REMARK   32  A    between atoms: CG_62  and  CD1_63 
REMARK   33  A    between atoms: CG_62  and  CD2_64 
REMARK   34  A    between atoms: CA_66  and  CB_69 
REMARK   35  A    between atoms: CB_69  and  CG_70 
REMARK   36  A    between atoms: CG_70  and  ND_71 
REMARK   37  A    between atoms: CA_73  and  CB_76 
REMARK   38  A    between atoms: CB_76  and  CG_77 
REMARK   39  A    between atoms: CG_77  and  ND_78 
REMARK   40  A    between atoms: CA_80  and  CB_81 
REMARK   41  A    between atoms: CB_81  and  CG2_82 
REMARK   42  A    between atoms: CB_81  and  OG1_83 
ROOT
ATOM      1  CA  NON d   1       2.502 -43.796 -33.472  0.00  0.00     0.091 C 
ATOM      2  C   NON d   1       3.897 -43.791 -33.519  0.00  0.00     0.241 C 
ATOM      3  O   NON d   1       4.487 -44.742 -34.024  0.00  0.00    -0.271 OA
ATOM      4  CB  NON d   1       1.970 -45.228 -33.440  0.00  0.00    -0.023 C 
ATOM      5  CG  NON d   1       2.195 -45.974 -32.123  0.00  0.00    -0.003 C 
ATOM      6  NZ  NON d   1       1.012 -46.014 -31.258  0.00  0.00    -0.359 N 
ATOM      7  N   NON d   1       4.612 -42.697 -32.995  0.00  0.00    -0.346 N 
ATOM      8  CA  NON d   1       6.069 -42.594 -33.014  0.00  0.00     0.091 C 
ATOM      9  C   NON d   1       6.611 -42.998 -34.226  0.00  0.00     0.241 C 
ATOM     10  O   NON d   1       6.849 -42.191 -35.120  0.00  0.00    -0.271 OA
ATOM     11  N   NON d   1       6.873 -44.347 -34.435  0.00  0.00    -0.346 N 
ATOM     12  CA  NON d   1       7.456 -44.755 -35.690  0.00  0.00     0.093 C 
ATOM     13  C   NON d   1       6.925 -45.994 -36.052  0.00  0.00     0.241 C 
ATOM     14  O   NON d   1       6.027 -46.048 -36.890  0.00  0.00    -0.271 OA
ATOM     15  N   NON d   1       7.430 -47.176 -35.488  0.00  0.00    -0.346 N 
ATOM     16  CA  NON d   1       6.927 -48.488 -35.875  0.00  0.00     0.089 C 
ATOM     17  C   NON d   1       6.389 -49.178 -34.778  0.00  0.00     0.241 C 
ATOM     18  O   NON d   1       6.523 -50.397 -34.696  0.00  0.00    -0.271 OA
ATOM     19  N   NON d   1       5.658 -48.522 -33.768  0.00  0.00    -0.346 N 
ATOM     20  CA  NON d   1       5.157 -49.295 -32.634  0.00  0.00     0.091 C 
ATOM     21  C   NON d   1       3.969 -49.984 -32.918  0.00  0.00     0.241 C 
ATOM     22  O   NON d   1       3.596 -50.156 -34.077  0.00  0.00    -0.271 OA
ATOM     23  N   NON d   1       3.230 -50.543 -31.861  0.00  0.00    -0.346 N 
ATOM     24  CA  NON d   1       2.019 -51.311 -32.094  0.00  0.00     0.091 C 
ATOM     25  C   NON d   1       0.955 -50.434 -32.237  0.00  0.00     0.241 C 
ATOM     26  O   NON d   1      -0.084 -50.810 -32.784  0.00  0.00    -0.271 OA
ATOM     27  N   NON d   1       1.086 -49.103 -31.800  0.00  0.00    -0.344 N 
ATOM     28  CA  NON d   1      -0.029 -48.191 -31.988  0.00  0.00     0.113 C 
ATOM     29  C   NON d   1       0.022 -47.038 -31.183  0.00  0.00     0.243 C 
ATOM     30  O   NON d   1      -0.898 -46.883 -30.379  0.00  0.00    -0.271 OA
ATOM     31  H44 NON d   1       2.130 -43.323 -34.393  0.00  0.00     0.087 H 
ATOM     32  H45 NON d   1       2.467 -45.794 -34.242  0.00  0.00     0.039 H 
ATOM     33  H46 NON d   1       0.887 -45.194 -33.632  0.00  0.00     0.039 H 
ATOM     34  H47 NON d   1       3.008 -45.475 -31.576  0.00  0.00     0.064 H 
ATOM     35  H48 NON d   1       2.490 -47.008 -32.356  0.00  0.00     0.064 H 
ATOM     36  H49 NON d   1       0.884 -45.231 -30.649  0.00  0.00     0.162 HD
ATOM     37  H50 NON d   1       4.092 -41.947 -32.586  0.00  0.00     0.163 HD
ATOM     38  H51 NON d   1       6.325 -41.535 -32.866  0.00  0.00     0.087 H 
ATOM     39  H59 NON d   1       6.661 -45.022 -33.728  0.00  0.00     0.163 HD
ATOM     40  H60 NON d   1       7.200 -44.023 -36.471  0.00  0.00     0.088 H 
ATOM     41  H68 NON d   1       8.155 -47.116 -34.802  0.00  0.00     0.163 HD
ATOM     42  H69 NON d   1       6.138 -48.355 -36.630  0.00  0.00     0.087 H 
ATOM     43  H79 NON d   1       5.484 -47.539 -33.827  0.00  0.00     0.163 HD
ATOM     44  H80 NON d   1       5.918 -50.058 -32.416  0.00  0.00     0.087 H 
ATOM     45  H88 NON d   1       3.547 -50.408 -30.922  0.00  0.00     0.163 HD
ATOM     46  H89 NON d   1       2.137 -51.887 -33.024  0.00  0.00     0.087 H 
ATOM     47  H97 NON d   1       1.932 -48.790 -31.368  0.00  0.00     0.163 HD
ATOM     48  H98 NON d   1      -0.925 -48.740 -31.662  0.00  0.00     0.091 H 
ENDROOT
BRANCH   1  49
ATOM     49  N   NON d   1       2.022 -43.008 -32.346  0.00  0.00    -0.346 N 
ATOM     50  C   NON d   1       0.894 -42.266 -32.373  0.00  0.00     0.241 C 
ATOM     51  O   NON d   1       0.510 -41.597 -31.412  0.00  0.00    -0.271 OA
ATOM     52  H43 NON d   1       2.559 -43.017 -31.503  0.00  0.00     0.163 HD
BRANCH  50  53
ATOM     53  CA  NON d   1       0.056 -42.339 -33.656  0.00  0.00     0.091 C 
ATOM     54  H35 NON d   1       0.165 -43.360 -34.050  0.00  0.00     0.087 H 
BRANCH  53  55
ATOM     55  N   NON d   1       0.464 -41.427 -34.733  0.00  0.00    -0.346 N 
ATOM     56  C   NON d   1       1.587 -40.681 -34.816  0.00  0.00     0.243 C 
ATOM     57  O   NON d   1       2.471 -40.611 -33.964  0.00  0.00    -0.271 OA
ATOM     58  H34 NON d   1      -0.170 -41.349 -35.502  0.00  0.00     0.163 HD
BRANCH  56  59
ATOM     59  CA  NON d   1       1.715 -39.882 -36.106  0.00  0.00     0.113 C 
ATOM     60  H28 NON d   1       0.952 -40.225 -36.820  0.00  0.00     0.091 H 
BRANCH  59  61
ATOM     61  N   NON d   1       3.031 -40.098 -36.683  0.00  0.00    -0.344 N 
ATOM     62  C   NON d   1       3.252 -41.155 -37.474  0.00  0.00     0.241 C 
ATOM     63  O   NON d   1       2.381 -41.976 -37.741  0.00  0.00    -0.271 OA
ATOM     64  H27 NON d   1       3.773 -39.456 -36.489  0.00  0.00     0.163 HD
BRANCH  62  65
ATOM     65  CA  NON d   1       4.667 -41.309 -38.008  0.00  0.00     0.091 C 
ATOM     66  H19 NON d   1       5.327 -40.602 -37.484  0.00  0.00     0.087 H 
BRANCH  65  67
ATOM     67  N   NON d   1       4.721 -41.044 -39.434  0.00  0.00    -0.348 N 
ATOM     68  CAI NON d   1       5.874 -40.700 -40.023  0.00  0.00     0.218 C 
ATOM     69  OAJ NON d   1       6.932 -40.566 -39.419  0.00  0.00    -0.274 OA
ATOM     70  H18 NON d   1       3.888 -41.119 -39.983  0.00  0.00     0.163 HD
BRANCH  68  71
ATOM     71  CAH NON d   1       5.810 -40.474 -41.521  0.00  0.00     0.009 C 
ATOM     72  H16 NON d   1       5.125 -41.206 -41.975  0.00  0.00     0.047 H 
ATOM     73  H17 NON d   1       5.446 -39.456 -41.725  0.00  0.00     0.047 H 
BRANCH  71  74
ATOM     74  CAG NON d   1       7.202 -40.645 -42.110  0.00  0.00    -0.057 C 
ATOM     75  H14 NON d   1       7.910 -40.889 -41.304  0.00  0.00     0.033 H 
ATOM     76  H15 NON d   1       7.187 -41.463 -42.845  0.00  0.00     0.033 H 
BRANCH  74  77
ATOM     77  CAF NON d   1       7.646 -39.361 -42.796  0.00  0.00    -0.064 C 
ATOM     78  H12 NON d   1       8.716 -39.433 -43.040  0.00  0.00     0.033 H 
ATOM     79  H13 NON d   1       7.067 -39.226 -43.722  0.00  0.00     0.033 H 
BRANCH  77  80
ATOM     80  CAE NON d   1       7.419 -38.162 -41.884  0.00  0.00    -0.062 C 
ATOM     81  H10 NON d   1       6.817 -37.411 -42.418  0.00  0.00     0.033 H 
ATOM     82  H11 NON d   1       6.880 -38.491 -40.983  0.00  0.00     0.033 H 
BRANCH  80  83
ATOM     83  CAC NON d   1       8.747 -37.538 -41.473  0.00  0.00    -0.058 C 
ATOM     84  H6  NON d   1       8.562 -36.524 -41.090  0.00  0.00     0.039 H 
BRANCH  83  85
ATOM     85  CAB NON d   1       9.680 -37.452 -42.672  0.00  0.00    -0.065 C 
ATOM     86  H4  NON d   1       9.859 -38.462 -43.069  0.00  0.00     0.033 H 
ATOM     87  H5  NON d   1       9.218 -36.828 -43.451  0.00  0.00     0.033 H 
BRANCH  85  88
ATOM     88  CAA NON d   1      11.003 -36.834 -42.248  0.00  0.00    -0.076 C 
ATOM     89  H1  NON d   1      11.675 -36.773 -43.117  0.00  0.00     0.027 H 
ATOM     90  H2  NON d   1      11.466 -37.458 -41.469  0.00  0.00     0.027 H 
ATOM     91  H3  NON d   1      10.825 -35.824 -41.851  0.00  0.00     0.027 H 
ENDBRANCH  85  88
ENDBRANCH  83  85
BRANCH  83  92
ATOM     92  CAD NON d   1       9.394 -38.371 -40.378  0.00  0.00    -0.073 C 
ATOM     93  H7  NON d   1       8.716 -38.430 -39.514  0.00  0.00     0.028 H 
ATOM     94  H8  NON d   1      10.340 -37.901 -40.071  0.00  0.00     0.028 H 
ATOM     95  H9  NON d   1       9.594 -39.384 -40.758  0.00  0.00     0.028 H 
ENDBRANCH  83  92
ENDBRANCH  80  83
ENDBRANCH  77  80
ENDBRANCH  74  77
ENDBRANCH  71  74
ENDBRANCH  68  71
ENDBRANCH  65  67
BRANCH  65  96
ATOM     96  CB  NON d   1       5.145 -42.733 -37.760  0.00  0.00    -0.016 C 
ATOM     97  H20 NON d   1       4.742 -43.089 -36.801  0.00  0.00     0.039 H 
ATOM     98  H21 NON d   1       6.244 -42.746 -37.723  0.00  0.00     0.039 H 
BRANCH  96  99
ATOM     99  CG  NON d   1       4.669 -43.651 -38.877  0.00  0.00     0.082 C 
ATOM    100  H22 NON d   1       5.026 -43.258 -39.840  0.00  0.00     0.075 H 
ATOM    101  H23 NON d   1       3.569 -43.677 -38.876  0.00  0.00     0.075 H 
BRANCH  99 102
ATOM    102  NZ  NON d   1       5.173 -44.998 -38.701  0.00  0.00    -0.079 N 
ATOM    103  H24 NON d   1       4.842 -45.581 -39.453  0.00  0.00     0.274 HD
ATOM    104  H25 NON d   1       4.846 -45.367 -37.822  0.00  0.00     0.274 HD
ATOM    105  H26 NON d   1       6.181 -44.983 -38.706  0.00  0.00     0.274 HD
ENDBRANCH  99 102
ENDBRANCH  96  99
ENDBRANCH  65  96
ENDBRANCH  62  65
ENDBRANCH  59  61
BRANCH  59 106
ATOM    106  CB  NON d   1       1.491 -38.410 -35.816  0.00  0.00     0.060 C 
ATOM    107  H29 NON d   1       1.242 -37.883 -36.749  0.00  0.00     0.086 H 
BRANCH 106 108
ATOM    108  CG2 NON d   1       2.745 -37.798 -35.213  0.00  0.00    -0.050 C 
ATOM    109  H30 NON d   1       2.570 -36.732 -35.007  0.00  0.00     0.031 H 
ATOM    110  H31 NON d   1       3.581 -37.903 -35.920  0.00  0.00     0.031 H 
ATOM    111  H32 NON d   1       2.991 -38.317 -34.275  0.00  0.00     0.031 H 
ENDBRANCH 106 108
BRANCH 106 112
ATOM    112  OG1 NON d   1       0.404 -38.296 -34.894  0.00  0.00    -0.393 OA
ATOM    113  H33 NON d   1      -0.376 -38.680 -35.277  0.00  0.00     0.210 HD
ENDBRANCH 106 112
ENDBRANCH  59 106
ENDBRANCH  56  59
ENDBRANCH  53  55
BRANCH  53 114
ATOM    114  CB  NON d   1      -1.413 -42.126 -33.306  0.00  0.00    -0.016 C 
ATOM    115  H36 NON d   1      -2.004 -42.037 -34.230  0.00  0.00     0.039 H 
ATOM    116  H37 NON d   1      -1.522 -41.207 -32.711  0.00  0.00     0.039 H 
BRANCH 114 117
ATOM    117  CG  NON d   1      -1.904 -43.319 -32.498  0.00  0.00     0.082 C 
ATOM    118  H38 NON d   1      -1.187 -43.519 -31.688  0.00  0.00     0.075 H 
ATOM    119  H39 NON d   1      -1.964 -44.196 -33.160  0.00  0.00     0.075 H 
BRANCH 117 120
ATOM    120  NZ  NON d   1      -3.211 -43.079 -31.918  0.00  0.00    -0.079 N 
ATOM    121  H40 NON d   1      -3.499 -43.890 -31.393  0.00  0.00     0.274 HD
ATOM    122  H41 NON d   1      -3.877 -42.900 -32.653  0.00  0.00     0.274 HD
ATOM    123  H42 NON d   1      -3.165 -42.280 -31.305  0.00  0.00     0.274 HD
ENDBRANCH 117 120
ENDBRANCH 114 117
ENDBRANCH  53 114
ENDBRANCH  50  53
ENDBRANCH   1  49
BRANCH   8 124
ATOM    124  CB  NON d   1       6.707 -43.393 -31.890  0.00  0.00    -0.016 C 
ATOM    125  H52 NON d   1       7.616 -43.892 -32.257  0.00  0.00     0.039 H 
ATOM    126  H53 NON d   1       5.998 -44.149 -31.521  0.00  0.00     0.039 H 
BRANCH 124 127
ATOM    127  CG  NON d   1       7.065 -42.434 -30.768  0.00  0.00     0.082 C 
ATOM    128  H54 NON d   1       8.000 -41.913 -31.020  0.00  0.00     0.075 H 
ATOM    129  H55 NON d   1       7.200 -43.000 -29.835  0.00  0.00     0.075 H 
BRANCH 127 130
ATOM    130  ND  NON d   1       6.007 -41.460 -30.588  0.00  0.00    -0.079 N 
ATOM    131  H56 NON d   1       6.255 -40.829 -29.842  0.00  0.00     0.274 HD
ATOM    132  H57 NON d   1       5.149 -41.935 -30.356  0.00  0.00     0.274 HD
ATOM    133  H58 NON d   1       5.882 -40.938 -31.441  0.00  0.00     0.274 HD
ENDBRANCH 127 130
ENDBRANCH 124 127
ENDBRANCH   8 124
BRANCH  28 134
ATOM    134  CB  NON d   1      -0.241 -47.869 -33.461  0.00  0.00     0.060 C 
ATOM    135  H99 NON d   1       0.733 -47.695 -33.941  0.00  0.00     0.086 H 
BRANCH 134 136
ATOM    136  CG2 NON d   1      -1.089 -46.618 -33.601  0.00  0.00    -0.050 C 
ATOM    137 0H10 NON d   1      -1.237 -46.393 -34.667  0.00  0.00     0.031 H 
ATOM    138 1H10 NON d   1      -0.579 -45.773 -33.115  0.00  0.00     0.031 H 
ATOM    139 2H10 NON d   1      -2.066 -46.781 -33.122  0.00  0.00     0.031 H 
ENDBRANCH 134 136
BRANCH 134 140
ATOM    140  OG1 NON d   1      -0.879 -48.987 -34.082  0.00  0.00    -0.393 OA
ATOM    141 3H10 NON d   1      -0.332 -49.758 -33.983  0.00  0.00     0.210 HD
ENDBRANCH 134 140
ENDBRANCH  28 134
BRANCH  12 142
ATOM    142  CB  NON d   1       8.969 -44.777 -35.518  0.00  0.00    -0.014 C 
ATOM    143  H61 NON d   1       9.225 -45.590 -34.822  0.00  0.00     0.043 H 
ATOM    144  H62 NON d   1       9.281 -43.814 -35.088  0.00  0.00     0.043 H 
BRANCH 142 145
ATOM    145  CG  NON d   1       9.679 -44.977 -36.705  0.00  0.00    -0.056 A 
ATOM    146  CD1 NON d   1      11.063 -45.070 -36.638  0.00  0.00    -0.077 A 
ATOM    147  CE1 NON d   1      11.812 -45.278 -37.791  0.00  0.00    -0.082 A 
ATOM    148  H63 NON d   1      11.563 -44.980 -35.680  0.00  0.00     0.084 H 
ATOM    149  CZ  NON d   1      11.181 -45.393 -39.020  0.00  0.00    -0.083 A 
ATOM    150  H65 NON d   1      12.892 -45.350 -37.729  0.00  0.00     0.083 H 
ATOM    151  CE2 NON d   1       9.799 -45.300 -39.094  0.00  0.00    -0.082 A 
ATOM    152  H67 NON d   1      11.765 -45.555 -39.919  0.00  0.00     0.083 H 
ATOM    153  CD2 NON d   1       9.052 -45.085 -37.944  0.00  0.00    -0.077 A 
ATOM    154  H66 NON d   1       9.301 -45.395 -40.052  0.00  0.00     0.083 H 
ATOM    155  H64 NON d   1       7.973 -45.001 -38.011  0.00  0.00     0.084 H 
ENDBRANCH 142 145
ENDBRANCH  12 142
BRANCH  24 156
ATOM    156  CB  NON d   1       1.754 -52.283 -30.953  0.00  0.00    -0.016 C 
ATOM    157  H90 NON d   1       1.163 -51.779 -30.174  0.00  0.00     0.039 H 
ATOM    158  H91 NON d   1       2.712 -52.617 -30.528  0.00  0.00     0.039 H 
BRANCH 156 159
ATOM    159  CG  NON d   1       0.983 -53.490 -31.471  0.00  0.00     0.082 C 
ATOM    160  H92 NON d   1       1.438 -54.407 -31.068  0.00  0.00     0.075 H 
ATOM    161  H93 NON d   1       1.038 -53.506 -32.569  0.00  0.00     0.075 H 
BRANCH 159 162
ATOM    162  ND  NON d   1      -0.409 -53.437 -31.068  0.00  0.00    -0.079 N 
ATOM    163  H94 NON d   1      -0.893 -54.246 -31.424  0.00  0.00     0.274 HD
ATOM    164  H95 NON d   1      -0.834 -52.601 -31.438  0.00  0.00     0.274 HD
ATOM    165  H96 NON d   1      -0.467 -53.426 -30.062  0.00  0.00     0.274 HD
ENDBRANCH 159 162
ENDBRANCH 156 159
ENDBRANCH  24 156
BRANCH  16 166
ATOM    166  CB  NON d   1       8.066 -49.307 -36.478  0.00  0.00    -0.035 C 
ATOM    167  H70 NON d   1       7.681 -50.293 -36.777  0.00  0.00     0.037 H 
ATOM    168  H71 NON d   1       8.856 -49.435 -35.724  0.00  0.00     0.037 H 
BRANCH 166 169
ATOM    169  CG  NON d   1       8.652 -48.608 -37.701  0.00  0.00    -0.059 C 
ATOM    170  H72 NON d   1       8.590 -47.519 -37.562  0.00  0.00     0.038 H 
BRANCH 169 171
ATOM    171  CD1 NON d   1      10.106 -49.014 -37.889  0.00  0.00    -0.073 C 
ATOM    172  H73 NON d   1      10.518 -48.505 -38.773  0.00  0.00     0.028 H 
ATOM    173  H74 NON d   1      10.167 -50.103 -38.032  0.00  0.00     0.028 H 
ATOM    174  H75 NON d   1      10.685 -48.728 -36.998  0.00  0.00     0.028 H 
ENDBRANCH 169 171
BRANCH 169 175
ATOM    175  CD2 NON d   1       7.870 -49.009 -38.941  0.00  0.00    -0.073 C 
ATOM    176  H76 NON d   1       6.816 -48.721 -38.819  0.00  0.00     0.028 H 
ATOM    177  H77 NON d   1       7.939 -50.098 -39.082  0.00  0.00     0.028 H 
ATOM    178  H78 NON d   1       8.290 -48.498 -39.820  0.00  0.00     0.028 H 
ENDBRANCH 169 175
ENDBRANCH 166 169
ENDBRANCH  16 166
BRANCH  20 179
ATOM    179  CB  NON d   1       5.016 -48.438 -31.374  0.00  0.00    -0.016 C 
ATOM    180  H81 NON d   1       4.530 -49.028 -30.582  0.00  0.00     0.039 H 
ATOM    181  H82 NON d   1       4.404 -47.553 -31.600  0.00  0.00     0.039 H 
BRANCH 179 182
ATOM    182  CG  NON d   1       6.396 -47.994 -30.902  0.00  0.00     0.082 C 
ATOM    183  H83 NON d   1       6.857 -47.372 -31.684  0.00  0.00     0.075 H 
ATOM    184  H84 NON d   1       7.017 -48.885 -30.729  0.00  0.00     0.075 H 
BRANCH 182 185
ATOM    185  ND  NON d   1       6.324 -47.226 -29.672  0.00  0.00    -0.079 N 
ATOM    186  H85 NON d   1       7.253 -46.951 -29.393  0.00  0.00     0.274 HD
ATOM    187  H86 NON d   1       5.908 -47.790 -28.948  0.00  0.00     0.274 HD
ATOM    188  H87 NON d   1       5.761 -46.403 -29.822  0.00  0.00     0.274 HD
ENDBRANCH 182 185
ENDBRANCH 179 182
ENDBRANCH  20 179
TORSDOF 42
