REMARK WARNING: 32 MAX_TORS EXCEEDED!!!
REMARK  43 active torsions:
REMARK  status: ('A' for Active; 'I' for Inactive)
REMARK    1  A    between atoms: CAB_1  and  CAC_2 
REMARK    2  A    between atoms: CAC_2  and  CAD_3 
REMARK    3  A    between atoms: CAC_2  and  CAE_4 
REMARK    4  A    between atoms: CAE_4  and  CAF_5 
REMARK    5  A    between atoms: CAF_5  and  CAG_6 
REMARK    6  A    between atoms: CAG_6  and  CAH_7 
REMARK    7  A    between atoms: CAH_7  and  CAI_8 
REMARK       I    between atoms: CAI_8  and  N_10 
REMARK    8  A    between atoms: N_10  and  CA_11 
REMARK    9  A    between atoms: CA_11  and  C_12 
REMARK   10  A    between atoms: CA_11  and  CB_14 
REMARK       I    between atoms: C_12  and  N_17 
REMARK   11  A    between atoms: CB_14  and  CG_15 
REMARK   12  A    between atoms: CG_15  and  NZ_16 
REMARK   13  A    between atoms: N_17  and  CA_18 
REMARK   14  A    between atoms: CA_18  and  CB_19 
REMARK   15  A    between atoms: CA_18  and  C_22 
REMARK   16  A    between atoms: CB_19  and  CG2_20 
REMARK   17  A    between atoms: CB_19  and  OG1_21 
REMARK       I    between atoms: C_22  and  N_24 
REMARK   18  A    between atoms: N_24  and  CA_25 
REMARK   19  A    between atoms: CA_25  and  C_26 
REMARK   20  A    between atoms: CA_25  and  CB_28 
REMARK       I    between atoms: C_26  and  N_31 
REMARK   21  A    between atoms: CB_28  and  CG_29 
REMARK   22  A    between atoms: CG_29  and  NZ_30 
REMARK   23  A    between atoms: N_31  and  CA_32 
REMARK   24  A    between atoms: CA_39  and  CB_42 
REMARK   25  A    between atoms: CB_42  and  CG_43 
REMARK   26  A    between atoms: CG_43  and  ND_44 
REMARK   27  A    between atoms: CA_46  and  CB_49 
REMARK   28  A    between atoms: CB_49  and  CG_50 
REMARK   29  A    between atoms: CG_50  and  CD1_51 
REMARK   30  A    between atoms: CG_50  and  CD2_52 
REMARK   31  A    between atoms: CA_54  and  CB_57 
REMARK   32  A    between atoms: CB_57  and  CG_58 
REMARK   33  A    between atoms: CG_58  and  CD1_59 
REMARK   34  A    between atoms: CG_58  and  CD2_60 
REMARK   35  A    between atoms: CA_62  and  CB_65 
REMARK   36  A    between atoms: CB_65  and  CG_66 
REMARK   37  A    between atoms: CG_66  and  ND_67 
REMARK   38  A    between atoms: CA_69  and  CB_72 
REMARK   39  A    between atoms: CB_72  and  CG_73 
REMARK   40  A    between atoms: CG_73  and  ND_74 
REMARK   41  A    between atoms: CA_76  and  CB_77 
REMARK   42  A    between atoms: CB_77  and  CG2_78 
REMARK   43  A    between atoms: CB_77  and  OG1_79 
ROOT
ATOM      1  CA  NON d   1       3.753 -43.134 -37.699  0.00  0.00     0.091 C 
ATOM      2  C   NON d   1       5.031 -43.478 -37.217  0.00  0.00     0.241 C 
ATOM      3  O   NON d   1       5.987 -43.502 -37.993  0.00  0.00    -0.271 OA
ATOM      4  CB  NON d   1       2.861 -42.646 -36.546  0.00  0.00    -0.023 C 
ATOM      5  CG  NON d   1       1.604 -43.505 -36.455  0.00  0.00    -0.003 C 
ATOM      6  NZ  NON d   1       1.269 -43.895 -35.089  0.00  0.00    -0.359 N 
ATOM      7  N   NON d   1       5.214 -43.778 -35.845  0.00  0.00    -0.346 N 
ATOM      8  CA  NON d   1       6.483 -44.084 -35.152  0.00  0.00     0.091 C 
ATOM      9  C   NON d   1       7.435 -44.893 -35.822  0.00  0.00     0.241 C 
ATOM     10  O   NON d   1       8.638 -44.600 -35.723  0.00  0.00    -0.271 OA
ATOM     11  N   NON d   1       7.002 -46.065 -36.503  0.00  0.00    -0.346 N 
ATOM     12  CA  NON d   1       7.794 -47.047 -37.286  0.00  0.00     0.089 C 
ATOM     13  C   NON d   1       7.331 -48.382 -37.138  0.00  0.00     0.241 C 
ATOM     14  O   NON d   1       7.262 -49.064 -38.164  0.00  0.00    -0.271 OA
ATOM     15  N   NON d   1       6.986 -48.949 -35.857  0.00  0.00    -0.346 N 
ATOM     16  CA  NON d   1       6.449 -50.319 -35.626  0.00  0.00     0.089 C 
ATOM     17  C   NON d   1       5.515 -50.303 -34.563  0.00  0.00     0.241 C 
ATOM     18  O   NON d   1       5.092 -51.353 -34.053  0.00  0.00    -0.271 OA
ATOM     19  N   NON d   1       5.012 -49.075 -34.076  0.00  0.00    -0.346 N 
ATOM     20  CA  NON d   1       4.006 -49.048 -33.012  0.00  0.00     0.091 C 
ATOM     21  C   NON d   1       2.751 -49.061 -33.632  0.00  0.00     0.241 C 
ATOM     22  O   NON d   1       2.653 -48.677 -34.798  0.00  0.00    -0.271 OA
ATOM     23  N   NON d   1       1.597 -49.509 -32.956  0.00  0.00    -0.346 N 
ATOM     24  CA  NON d   1       0.318 -49.477 -33.648  0.00  0.00     0.091 C 
ATOM     25  C   NON d   1      -0.022 -48.154 -34.014  0.00  0.00     0.241 C 
ATOM     26  O   NON d   1      -0.740 -48.013 -34.994  0.00  0.00    -0.271 OA
ATOM     27  N   NON d   1       0.470 -47.008 -33.307  0.00  0.00    -0.344 N 
ATOM     28  CA  NON d   1       0.223 -45.563 -33.597  0.00  0.00     0.113 C 
ATOM     29  C   NON d   1       0.589 -45.114 -34.900  0.00  0.00     0.243 C 
ATOM     30  O   NON d   1       0.335 -45.745 -35.924  0.00  0.00    -0.271 OA
ATOM     31  H42 NON d   1       3.287 -44.034 -38.126  0.00  0.00     0.087 H 
ATOM     32  H43 NON d   1       2.574 -41.599 -36.726  0.00  0.00     0.039 H 
ATOM     33  H44 NON d   1       3.418 -42.716 -35.600  0.00  0.00     0.039 H 
ATOM     34  H45 NON d   1       1.760 -44.417 -37.050  0.00  0.00     0.064 H 
ATOM     35  H46 NON d   1       0.761 -42.935 -36.872  0.00  0.00     0.064 H 
ATOM     36  H47 NON d   1       1.514 -43.315 -34.312  0.00  0.00     0.162 HD
ATOM     37  H48 NON d   1       4.389 -43.783 -35.280  0.00  0.00     0.163 HD
ATOM     38  H49 NON d   1       6.979 -43.116 -34.990  0.00  0.00     0.087 H 
ATOM     39  H57 NON d   1       6.022 -46.255 -36.446  0.00  0.00     0.163 HD
ATOM     40  H58 NON d   1       7.611 -46.777 -38.336  0.00  0.00     0.087 H 
ATOM     41  H68 NON d   1       7.119 -48.370 -35.052  0.00  0.00     0.163 HD
ATOM     42  H69 NON d   1       5.897 -50.588 -36.539  0.00  0.00     0.087 H 
ATOM     43  H79 NON d   1       5.347 -48.215 -34.462  0.00  0.00     0.163 HD
ATOM     44  H80 NON d   1       4.116 -49.955 -32.399  0.00  0.00     0.087 H 
ATOM     45  H88 NON d   1       1.657 -49.843 -32.016  0.00  0.00     0.163 HD
ATOM     46  H89 NON d   1       0.436 -50.057 -34.575  0.00  0.00     0.087 H 
ATOM     47  H97 NON d   1       1.054 -47.200 -32.518  0.00  0.00     0.163 HD
ATOM     48  H98 NON d   1       0.892 -45.021 -32.913  0.00  0.00     0.091 H 
ENDROOT
BRANCH   1  49
ATOM     49  N   NON d   1       3.896 -42.139 -38.779  0.00  0.00    -0.346 N 
ATOM     50  C   NON d   1       4.232 -40.844 -38.585  0.00  0.00     0.241 C 
ATOM     51  O   NON d   1       4.386 -40.336 -37.482  0.00  0.00    -0.271 OA
ATOM     52  H41 NON d   1       3.733 -42.443 -39.718  0.00  0.00     0.163 HD
BRANCH  50  53
ATOM     53  CA  NON d   1       4.379 -39.962 -39.819  0.00  0.00     0.091 C 
ATOM     54  H33 NON d   1       3.730 -40.349 -40.618  0.00  0.00     0.087 H 
BRANCH  53  55
ATOM     55  N   NON d   1       5.761 -39.957 -40.300  0.00  0.00    -0.346 N 
ATOM     56  C   NON d   1       6.842 -39.547 -39.598  0.00  0.00     0.243 C 
ATOM     57  O   NON d   1       6.798 -39.129 -38.441  0.00  0.00    -0.271 OA
ATOM     58  H32 NON d   1       5.920 -40.286 -41.231  0.00  0.00     0.163 HD
BRANCH  56  59
ATOM     59  CA  NON d   1       8.192 -39.646 -40.320  0.00  0.00     0.113 C 
ATOM     60  H26 NON d   1       8.651 -40.603 -40.029  0.00  0.00     0.091 H 
BRANCH  59  61
ATOM     61  N   NON d   1       9.094 -38.576 -39.885  0.00  0.00    -0.344 N 
ATOM     62  C   NON d   1       8.962 -37.265 -40.170  0.00  0.00     0.241 C 
ATOM     63  O   NON d   1       8.046 -36.784 -40.836  0.00  0.00    -0.271 OA
ATOM     64  H25 NON d   1       9.879 -38.843 -39.326  0.00  0.00     0.163 HD
BRANCH  62  65
ATOM     65  CA  NON d   1      10.034 -36.347 -39.579  0.00  0.00     0.091 C 
ATOM     66  H17 NON d   1       9.627 -35.325 -39.582  0.00  0.00     0.087 H 
BRANCH  65  67
ATOM     67  N   NON d   1      11.258 -36.328 -40.378  0.00  0.00    -0.348 N 
ATOM     68  CAI NON d   1      12.128 -37.348 -40.510  0.00  0.00     0.218 C 
ATOM     69  OAJ NON d   1      12.008 -38.453 -39.985  0.00  0.00    -0.274 OA
ATOM     70  H16 NON d   1      11.468 -35.483 -40.870  0.00  0.00     0.163 HD
BRANCH  68  71
ATOM     71  CAH NON d   1      13.333 -37.043 -41.389  0.00  0.00     0.009 C 
ATOM     72  H14 NON d   1      14.178 -37.679 -41.086  0.00  0.00     0.047 H 
ATOM     73  H15 NON d   1      13.080 -37.245 -42.440  0.00  0.00     0.047 H 
BRANCH  71  74
ATOM     74  CAG NON d   1      13.718 -35.580 -41.232  0.00  0.00    -0.057 C 
ATOM     75  H12 NON d   1      13.156 -34.975 -41.959  0.00  0.00     0.033 H 
ATOM     76  H13 NON d   1      13.476 -35.247 -40.212  0.00  0.00     0.033 H 
BRANCH  74  77
ATOM     77  CAF NON d   1      15.209 -35.406 -41.478  0.00  0.00    -0.064 C 
ATOM     78  H10 NON d   1      15.773 -36.036 -40.775  0.00  0.00     0.033 H 
ATOM     79  H11 NON d   1      15.448 -35.703 -42.510  0.00  0.00     0.033 H 
BRANCH  77  80
ATOM     80  CAE NON d   1      15.587 -33.947 -41.269  0.00  0.00    -0.062 C 
ATOM     81  H8  NON d   1      14.909 -33.308 -41.853  0.00  0.00     0.033 H 
ATOM     82  H9  NON d   1      15.498 -33.697 -40.202  0.00  0.00     0.033 H 
BRANCH  80  83
ATOM     83  CAC NON d   1      17.019 -33.711 -41.724  0.00  0.00    -0.061 C 
ATOM     84  H4  NON d   1      17.701 -34.329 -41.122  0.00  0.00     0.038 H 
BRANCH  83  85
ATOM     85  CAB NON d   1      17.371 -32.243 -41.544  0.00  0.00    -0.073 C 
ATOM     86  H1  NON d   1      18.407 -32.071 -41.873  0.00  0.00     0.028 H 
ATOM     87  H2  NON d   1      17.273 -31.970 -40.483  0.00  0.00     0.028 H 
ATOM     88  H3  NON d   1      16.688 -31.626 -42.146  0.00  0.00     0.028 H 
ENDBRANCH  83  85
BRANCH  83  89
ATOM     89  CAD NON d   1      17.156 -34.086 -43.191  0.00  0.00    -0.073 C 
ATOM     90  H5  NON d   1      16.902 -35.148 -43.323  0.00  0.00     0.028 H 
ATOM     91  H6  NON d   1      18.192 -33.914 -43.518  0.00  0.00     0.028 H 
ATOM     92  H7  NON d   1      16.474 -33.468 -43.793  0.00  0.00     0.028 H 
ENDBRANCH  83  89
ENDBRANCH  80  83
ENDBRANCH  77  80
ENDBRANCH  74  77
ENDBRANCH  71  74
ENDBRANCH  68  71
ENDBRANCH  65  67
BRANCH  65  93
ATOM     93  CB  NON d   1      10.328 -36.721 -38.131  0.00  0.00    -0.016 C 
ATOM     94  H18 NON d   1      10.701 -37.755 -38.089  0.00  0.00     0.039 H 
ATOM     95  H19 NON d   1       9.405 -36.639 -37.538  0.00  0.00     0.039 H 
BRANCH  93  96
ATOM     96  CG  NON d   1      11.380 -35.780 -37.563  0.00  0.00     0.082 C 
ATOM     97  H20 NON d   1      12.373 -36.100 -37.911  0.00  0.00     0.075 H 
ATOM     98  H21 NON d   1      11.345 -35.824 -36.465  0.00  0.00     0.075 H 
BRANCH  96  99
ATOM     99  NZ  NON d   1      11.148 -34.413 -37.989  0.00  0.00    -0.079 N 
ATOM    100  H22 NON d   1      11.858 -33.814 -37.598  0.00  0.00     0.274 HD
ATOM    101  H23 NON d   1      10.241 -34.111 -37.669  0.00  0.00     0.274 HD
ATOM    102  H24 NON d   1      11.183 -34.364 -38.995  0.00  0.00     0.274 HD
ENDBRANCH  96  99
ENDBRANCH  93  96
ENDBRANCH  65  93
ENDBRANCH  62  65
ENDBRANCH  59  61
BRANCH  59 103
ATOM    103  CB  NON d   1       8.030 -39.666 -41.841  0.00  0.00     0.060 C 
ATOM    104  H27 NON d   1       7.150 -39.069 -42.121  0.00  0.00     0.086 H 
BRANCH 103 105
ATOM    105  CG2 NON d   1       7.851 -41.096 -42.329  0.00  0.00    -0.050 C 
ATOM    106  H28 NON d   1       7.736 -41.098 -43.423  0.00  0.00     0.031 H 
ATOM    107  H29 NON d   1       6.954 -41.532 -41.865  0.00  0.00     0.031 H 
ATOM    108  H30 NON d   1       8.734 -41.691 -42.052  0.00  0.00     0.031 H 
ENDBRANCH 103 105
BRANCH 103 109
ATOM    109  OG1 NON d   1       9.198 -39.119 -42.460  0.00  0.00    -0.393 OA
ATOM    110  H31 NON d   1       9.323 -38.225 -42.164  0.00  0.00     0.210 HD
ENDBRANCH 103 109
ENDBRANCH  59 103
ENDBRANCH  56  59
ENDBRANCH  53  55
BRANCH  53 111
ATOM    111  CB  NON d   1       3.933 -38.553 -39.449  0.00  0.00    -0.016 C 
ATOM    112  H34 NON d   1       4.410 -38.262 -38.501  0.00  0.00     0.039 H 
ATOM    113  H35 NON d   1       2.840 -38.542 -39.328  0.00  0.00     0.039 H 
BRANCH 111 114
ATOM    114  CG  NON d   1       4.323 -37.555 -40.528  0.00  0.00     0.082 C 
ATOM    115  H36 NON d   1       3.486 -37.438 -41.232  0.00  0.00     0.075 H 
ATOM    116  H37 NON d   1       5.205 -37.931 -41.066  0.00  0.00     0.075 H 
BRANCH 114 117
ATOM    117  NZ  NON d   1       4.636 -36.266 -39.942  0.00  0.00    -0.079 N 
ATOM    118  H38 NON d   1       4.892 -35.619 -40.671  0.00  0.00     0.274 HD
ATOM    119  H39 NON d   1       5.405 -36.367 -39.298  0.00  0.00     0.274 HD
ATOM    120  H40 NON d   1       3.829 -35.916 -39.450  0.00  0.00     0.274 HD
ENDBRANCH 114 117
ENDBRANCH 111 114
ENDBRANCH  53 111
ENDBRANCH  50  53
ENDBRANCH   1  49
BRANCH   8 121
ATOM    121  CB  NON d   1       6.162 -44.671 -33.779  0.00  0.00    -0.016 C 
ATOM    122  H50 NON d   1       6.867 -44.270 -33.036  0.00  0.00     0.039 H 
ATOM    123  H51 NON d   1       6.255 -45.766 -33.819  0.00  0.00     0.039 H 
BRANCH 121 124
ATOM    124  CG  NON d   1       4.733 -44.297 -33.377  0.00  0.00     0.082 C 
ATOM    125  H52 NON d   1       4.121 -45.211 -33.359  0.00  0.00     0.075 H 
ATOM    126  H53 NON d   1       4.328 -43.598 -34.124  0.00  0.00     0.075 H 
BRANCH 124 127
ATOM    127  ND  NON d   1       4.670 -43.668 -32.067  0.00  0.00    -0.079 N 
ATOM    128  H54 NON d   1       3.712 -43.442 -31.849  0.00  0.00     0.274 HD
ATOM    129  H55 NON d   1       5.222 -42.825 -32.072  0.00  0.00     0.274 HD
ATOM    130  H56 NON d   1       5.032 -44.302 -31.372  0.00  0.00     0.274 HD
ENDBRANCH 124 127
ENDBRANCH 121 124
ENDBRANCH   8 121
BRANCH  28 131
ATOM    131  CB  NON d   1      -1.201 -45.122 -33.219  0.00  0.00     0.060 C 
ATOM    132  H99 NON d   1      -1.906 -45.569 -33.935  0.00  0.00     0.086 H 
BRANCH 131 133
ATOM    133  CG2 NON d   1      -1.342 -43.603 -33.279  0.00  0.00    -0.050 C 
ATOM    134 0H10 NON d   1      -2.369 -43.319 -33.004  0.00  0.00     0.031 H 
ATOM    135 1H10 NON d   1      -1.126 -43.255 -34.300  0.00  0.00     0.031 H 
ATOM    136 2H10 NON d   1      -0.633 -43.141 -32.576  0.00  0.00     0.031 H 
ENDBRANCH 131 133
BRANCH 131 137
ATOM    137  OG1 NON d   1      -1.530 -45.580 -31.898  0.00  0.00    -0.393 OA
ATOM    138 3H10 NON d   1      -0.940 -45.181 -31.270  0.00  0.00     0.210 HD
ENDBRANCH 131 137
ENDBRANCH  28 131
BRANCH  12 139
ATOM    139  CB  NON d   1       9.314 -47.004 -37.119  0.00  0.00    -0.035 C 
ATOM    140  H59 NON d   1       9.636 -47.864 -36.513  0.00  0.00     0.037 H 
ATOM    141  H60 NON d   1       9.596 -46.071 -36.610  0.00  0.00     0.037 H 
BRANCH 139 142
ATOM    142  CG  NON d   1      10.002 -47.062 -38.480  0.00  0.00    -0.059 C 
ATOM    143  H61 NON d   1       9.307 -46.693 -39.249  0.00  0.00     0.038 H 
BRANCH 142 144
ATOM    144  CD1 NON d   1      11.230 -46.154 -38.452  0.00  0.00    -0.073 C 
ATOM    145  H62 NON d   1      11.734 -46.188 -39.429  0.00  0.00     0.028 H 
ATOM    146  H63 NON d   1      11.923 -46.498 -37.670  0.00  0.00     0.028 H 
ATOM    147  H64 NON d   1      10.918 -45.121 -38.237  0.00  0.00     0.028 H 
ENDBRANCH 142 144
BRANCH 142 148
ATOM    148  CD2 NON d   1      10.381 -48.509 -38.821  0.00  0.00    -0.073 C 
ATOM    149  H65 NON d   1       9.475 -49.132 -38.832  0.00  0.00     0.028 H 
ATOM    150  H66 NON d   1      11.081 -48.893 -38.064  0.00  0.00     0.028 H 
ATOM    151  H67 NON d   1      10.859 -48.539 -39.811  0.00  0.00     0.028 H 
ENDBRANCH 142 148
ENDBRANCH 139 142
ENDBRANCH  12 139
BRANCH  24 152
ATOM    152  CB  NON d   1      -0.803 -50.133 -32.848  0.00  0.00    -0.016 C 
ATOM    153  H90 NON d   1      -1.690 -50.240 -33.490  0.00  0.00     0.039 H 
ATOM    154  H91 NON d   1      -1.050 -49.497 -31.985  0.00  0.00     0.039 H 
BRANCH 152 155
ATOM    155  CG  NON d   1      -0.382 -51.498 -32.354  0.00  0.00     0.082 C 
ATOM    156  H92 NON d   1       0.450 -51.879 -32.965  0.00  0.00     0.075 H 
ATOM    157  H93 NON d   1      -1.229 -52.197 -32.412  0.00  0.00     0.075 H 
BRANCH 155 158
ATOM    158  ND  NON d   1       0.040 -51.348 -30.985  0.00  0.00    -0.079 N 
ATOM    159  H94 NON d   1       0.329 -52.243 -30.622  0.00  0.00     0.274 HD
ATOM    160  H95 NON d   1      -0.726 -50.994 -30.434  0.00  0.00     0.274 HD
ATOM    161  H96 NON d   1       0.813 -50.702 -30.940  0.00  0.00     0.274 HD
ENDBRANCH 155 158
ENDBRANCH 152 155
ENDBRANCH  24 152
BRANCH  16 162
ATOM    162  CB  NON d   1       7.499 -51.437 -35.418  0.00  0.00    -0.035 C 
ATOM    163  H70 NON d   1       7.796 -51.442 -34.359  0.00  0.00     0.037 H 
ATOM    164  H71 NON d   1       8.375 -51.211 -36.043  0.00  0.00     0.037 H 
BRANCH 162 165
ATOM    165  CG  NON d   1       6.986 -52.847 -35.788  0.00  0.00    -0.059 C 
ATOM    166  H72 NON d   1       5.958 -52.751 -36.167  0.00  0.00     0.038 H 
BRANCH 165 167
ATOM    167  CD1 NON d   1       7.847 -53.492 -36.869  0.00  0.00    -0.073 C 
ATOM    168  H73 NON d   1       7.452 -54.491 -37.105  0.00  0.00     0.028 H 
ATOM    169  H74 NON d   1       8.882 -53.583 -36.508  0.00  0.00     0.028 H 
ATOM    170  H75 NON d   1       7.828 -52.867 -37.774  0.00  0.00     0.028 H 
ENDBRANCH 165 167
BRANCH 165 171
ATOM    171  CD2 NON d   1       6.976 -53.759 -34.561  0.00  0.00    -0.073 C 
ATOM    172  H76 NON d   1       6.358 -53.306 -33.772  0.00  0.00     0.028 H 
ATOM    173  H77 NON d   1       8.004 -53.889 -34.192  0.00  0.00     0.028 H 
ATOM    174  H78 NON d   1       6.559 -54.739 -34.836  0.00  0.00     0.028 H 
ENDBRANCH 165 171
ENDBRANCH 162 165
ENDBRANCH  16 162
BRANCH  20 175
ATOM    175  CB  NON d   1       4.139 -47.830 -32.085  0.00  0.00    -0.016 C 
ATOM    176  H81 NON d   1       3.567 -46.990 -32.505  0.00  0.00     0.039 H 
ATOM    177  H82 NON d   1       5.199 -47.548 -32.006  0.00  0.00     0.039 H 
BRANCH 175 178
ATOM    178  CG  NON d   1       3.598 -48.162 -30.689  0.00  0.00     0.082 C 
ATOM    179  H83 NON d   1       4.443 -48.212 -29.987  0.00  0.00     0.075 H 
ATOM    180  H84 NON d   1       3.097 -49.140 -30.729  0.00  0.00     0.075 H 
BRANCH 178 181
ATOM    181  ND  NON d   1       2.650 -47.174 -30.206  0.00  0.00    -0.079 N 
ATOM    182  H85 NON d   1       2.327 -47.439 -29.289  0.00  0.00     0.274 HD
ATOM    183  H86 NON d   1       1.866 -47.124 -30.837  0.00  0.00     0.274 HD
ATOM    184  H87 NON d   1       3.099 -46.273 -30.157  0.00  0.00     0.274 HD
ENDBRANCH 178 181
ENDBRANCH 175 178
ENDBRANCH  20 175
TORSDOF 43
