REMARK  4 active torsions:
REMARK  status: ('A' for Active; 'I' for Inactive)
REMARK    1  A    between atoms: C4_2  and  C2_1 
REMARK       I    between atoms: N6_15  and  C4_2 
REMARK    2  A    between atoms: C7_3  and  N6_15 
REMARK    3  A    between atoms: C12_5  and  N13_6 
REMARK       I    between atoms: N13_6  and  C14_19 
REMARK    4  A    between atoms: C14_19  and  C16_7 
ROOT
ATOM      1  C7  6G9 d   1     -10.795  22.602  24.478  0.00  0.00     0.036 A 
ATOM      2  C8  6G9 d   1     -10.495  23.173  23.213  0.00  0.00    -0.055 A 
ATOM      3  C12 6G9 d   1     -12.537  19.455  21.428  0.00  0.00     0.174 A 
ATOM      4  C24 6G9 d   1     -11.807  20.768  23.335  0.00  0.00     0.039 A 
ATOM      5  C9  6G9 d   1     -10.840  22.553  22.047  0.00  0.00    -0.052 A 
ATOM      6  C10 6G9 d   1     -11.521  21.319  22.083  0.00  0.00     0.077 A 
ATOM      7  N11 6G9 d   1     -11.957  20.546  21.081  0.00  0.00    -0.223 NA
ATOM      8  S23 6G9 d   1     -12.642  19.259  23.162  0.00  0.00    -0.050 SA
ATOM      9  C25 6G9 d   1     -11.453  21.384  24.508  0.00  0.00    -0.038 A 
ATOM     10  H1  6G9 d   1      -9.979  24.125  23.172  0.00  0.00     0.087 H 
ATOM     11  H6  6G9 d   1     -10.591  23.008  21.095  0.00  0.00     0.087 H 
ATOM     12  H7  6G9 d   1     -11.688  20.918  25.458  0.00  0.00     0.089 H 
ENDROOT
BRANCH   3  13
ATOM     13  N13 6G9 d   1     -13.069  18.550  20.561  0.00  0.00    -0.300 N 
ATOM     14  C14 6G9 d   1     -13.411  17.300  20.946  0.00  0.00     0.274 C 
ATOM     15  O15 6G9 d   1     -13.285  16.844  22.071  0.00  0.00    -0.266 OA
ATOM     16  H2  6G9 d   1     -13.211  18.819  19.608  0.00  0.00     0.171 HD
BRANCH  14  17
ATOM     17  C16 6G9 d   1     -14.003  16.447  19.955  0.00  0.00     0.103 A 
ATOM     18  C17 6G9 d   1     -13.905  16.579  18.595  0.00  0.00    -0.032 A 
ATOM     19  C18 6G9 d   1     -14.656  15.555  18.054  0.00  0.00     0.047 A 
ATOM     20  H3  6G9 d   1     -13.347  17.339  18.050  0.00  0.00     0.089 H 
ATOM     21 BR1  6G9 d   1     -14.815  15.308  16.197  0.00  0.00    -0.048 Br
ATOM     22  C20 6G9 d   1     -15.199  14.842  19.079  0.00  0.00     0.098 A 
ATOM     23  N22 6G9 d   1     -14.808  15.387  20.242  0.00  0.00    -0.345 N 
ATOM     24 BR2  6G9 d   1     -16.316  13.335  18.991  0.00  0.00    -0.030 Br
ATOM     25  H4  6G9 d   1     -15.070  15.061  21.183  0.00  0.00     0.167 HD
ENDBRANCH  14  17
ENDBRANCH   3  13
BRANCH   1  26
ATOM     26  N6  6G9 d   1     -10.411  23.261  25.662  0.00  0.00    -0.318 N 
ATOM     27  C4  6G9 d   1     -10.828  23.067  26.965  0.00  0.00     0.322 C 
ATOM     28  O5  6G9 d   1     -11.618  22.185  27.253  0.00  0.00    -0.261 OA
ATOM     29  H5  6G9 d   1      -9.729  23.983  25.541  0.00  0.00     0.169 HD
BRANCH  27  30
ATOM     30  C2  6G9 d   1     -10.391  23.852  28.151  0.00  0.00     0.270 C 
ATOM     31  O1  6G9 d   1     -11.115  24.725  28.581  0.00  0.00    -0.640 OA
ATOM     32  O3  6G9 d   1      -9.231  23.570  28.769  0.00  0.00    -0.640 OA
ENDBRANCH  27  30
ENDBRANCH   1  26
TORSDOF 4
