REMARK  17 active torsions:
REMARK  status: ('A' for Active; 'I' for Inactive)
REMARK    1  A    between atoms: CBD_3  and  OAI_4 
REMARK    2  A    between atoms: CBF_7  and  CAV_8 
REMARK    3  A    between atoms: CAV_8  and  CBI_9 
REMARK    4  A    between atoms: CBI_9  and  PBK_10 
REMARK    5  A    between atoms: CBI_9  and  NAY_14 
REMARK       I    between atoms: NAY_14  and  C_15 
REMARK    6  A    between atoms: C_15  and  CA_17 
REMARK    7  A    between atoms: CA_17  and  N_18 
REMARK    8  A    between atoms: CA_17  and  CB_30 
REMARK       I    between atoms: N_18  and  CBB_19 
REMARK    9  A    between atoms: CBB_19  and  CBJ_21 
REMARK   10  A    between atoms: CBJ_21  and  CBG_22 
REMARK   11  A    between atoms: CBJ_21  and  NAX_26 
REMARK   12  A    between atoms: CBG_22  and  CAC_23 
REMARK   13  A    between atoms: CBG_22  and  CAT_24 
REMARK   14  A    between atoms: CAT_24  and  CAA_25 
REMARK       I    between atoms: NAX_26  and  CAZ_27 
REMARK   15  A    between atoms: CAZ_27  and  CAB_28 
REMARK   16  A    between atoms: CB_30  and  CG_31 
REMARK   17  A    between atoms: CZ_34  and  OH_35 
ROOT
ATOM      1  CA  K26 d   1      -0.467  19.822  23.616  0.00  0.00     0.093 C 
ATOM      2  H10 K26 d   1       0.006  19.979  24.597  0.00  0.00     0.088 H 
ENDROOT
BRANCH   1   3
ATOM      3  C   K26 d   1      -0.366  21.099  22.806  0.00  0.00     0.241 C 
ATOM      4  NAY K26 d   1       0.549  22.008  23.245  0.00  0.00    -0.342 N 
ATOM      5  H9  K26 d   1       1.143  21.745  24.006  0.00  0.00     0.163 HD
ATOM      6  O   K26 d   1      -1.063  21.212  21.799  0.00  0.00    -0.271 OA
BRANCH   4   7
ATOM      7  CBI K26 d   1       0.718  23.345  22.674  0.00  0.00     0.124 C 
ATOM      8  H8  K26 d   1      -0.212  23.631  22.161  0.00  0.00     0.095 H 
BRANCH   7   9
ATOM      9  CAV K26 d   1       0.963  24.344  23.812  0.00  0.00    -0.010 C 
ATOM     10  H6  K26 d   1       1.734  23.913  24.467  0.00  0.00     0.044 H 
ATOM     11  H7  K26 d   1       1.343  25.272  23.359  0.00  0.00     0.044 H 
BRANCH   9  12
ATOM     12  CBF K26 d   1      -0.153  24.696  24.638  0.00  0.00    -0.055 A 
ATOM     13  CAR K26 d   1       0.046  25.708  25.583  0.00  0.00    -0.074 A 
ATOM     14  CAN K26 d   1      -0.940  26.181  26.466  0.00  0.00    -0.051 A 
ATOM     15  H1  K26 d   1       1.030  26.159  25.638  0.00  0.00     0.084 H 
ATOM     16  CBD K26 d   1      -2.206  25.599  26.414  0.00  0.00     0.065 A 
ATOM     17  H2  K26 d   1      -0.722  26.977  27.169  0.00  0.00     0.087 H 
ATOM     18  CAO K26 d   1      -2.438  24.574  25.493  0.00  0.00    -0.051 A 
ATOM     19  CAS K26 d   1      -1.432  24.120  24.624  0.00  0.00    -0.074 A 
ATOM     20  H4  K26 d   1      -3.420  24.117  25.448  0.00  0.00     0.087 H 
ATOM     21  H5  K26 d   1      -1.647  23.313  23.933  0.00  0.00     0.084 H 
BRANCH  16  22
ATOM     22  OAI K26 d   1      -3.201  26.018  27.267  0.00  0.00    -0.361 OA
ATOM     23  H3  K26 d   1      -3.992  25.520  27.098  0.00  0.00     0.217 HD
ENDBRANCH  16  22
ENDBRANCH   9  12
ENDBRANCH   7   9
BRANCH   7  24
ATOM     24  PBK K26 d   1       2.101  23.328  21.399  0.00  0.00     0.283 P 
ATOM     25  OAJ K26 d   1       1.628  22.490  20.286  0.00  0.00    -0.638 OA
ATOM     26  OAK K26 d   1       2.290  24.757  21.132  0.00  0.00    -0.638 OA
ATOM     27  OAG K26 d   1       3.368  22.821  21.969  0.00  0.00    -0.638 OA
ENDBRANCH   7  24
ENDBRANCH   4   7
ENDBRANCH   1   3
BRANCH   1  28
ATOM     28  N   K26 d   1      -1.909  19.530  23.807  0.00  0.00    -0.346 N 
ATOM     29  CBB K26 d   1      -2.458  19.336  25.026  0.00  0.00     0.241 C 
ATOM     30  OAF K26 d   1      -1.835  19.378  26.088  0.00  0.00    -0.271 OA
ATOM     31  H11 K26 d   1      -2.498  19.475  23.001  0.00  0.00     0.163 HD
BRANCH  29  32
ATOM     32  CBJ K26 d   1      -3.950  18.969  25.027  0.00  0.00     0.092 C 
ATOM     33  H12 K26 d   1      -4.279  18.767  23.997  0.00  0.00     0.088 H 
BRANCH  32  34
ATOM     34  CBG K26 d   1      -4.800  20.101  25.587  0.00  0.00    -0.030 C 
ATOM     35  H13 K26 d   1      -4.546  20.299  26.639  0.00  0.00     0.043 H 
BRANCH  34  36
ATOM     36  CAC K26 d   1      -4.553  21.358  24.731  0.00  0.00    -0.071 C 
ATOM     37  H14 K26 d   1      -5.159  22.190  25.119  0.00  0.00     0.028 H 
ATOM     38  H15 K26 d   1      -4.837  21.153  23.688  0.00  0.00     0.028 H 
ATOM     39  H16 K26 d   1      -3.488  21.628  24.775  0.00  0.00     0.028 H 
ENDBRANCH  34  36
BRANCH  34  40
ATOM     40  CAT K26 d   1      -6.246  19.669  25.462  0.00  0.00    -0.063 C 
ATOM     41  H17 K26 d   1      -6.352  18.614  25.754  0.00  0.00     0.033 H 
ATOM     42  H18 K26 d   1      -6.591  19.799  24.426  0.00  0.00     0.033 H 
BRANCH  40  43
ATOM     43  CAA K26 d   1      -7.066  20.565  26.410  0.00  0.00    -0.076 C 
ATOM     44  H19 K26 d   1      -8.128  20.285  26.352  0.00  0.00     0.027 H 
ATOM     45  H20 K26 d   1      -6.947  21.618  26.114  0.00  0.00     0.027 H 
ATOM     46  H21 K26 d   1      -6.708  20.432  27.442  0.00  0.00     0.027 H 
ENDBRANCH  40  43
ENDBRANCH  34  40
ENDBRANCH  32  34
BRANCH  32  47
ATOM     47  NAX K26 d   1      -4.068  17.731  25.832  0.00  0.00    -0.348 N 
ATOM     48  CAZ K26 d   1      -4.447  16.583  25.241  0.00  0.00     0.214 C 
ATOM     49  OAD K26 d   1      -4.728  16.494  24.043  0.00  0.00    -0.274 OA
ATOM     50  H22 K26 d   1      -3.867  17.748  26.811  0.00  0.00     0.163 HD
BRANCH  48  51
ATOM     51  CAB K26 d   1      -4.458  15.349  26.121  0.00  0.00    -0.003 C 
ATOM     52  H23 K26 d   1      -4.782  14.480  25.530  0.00  0.00     0.040 H 
ATOM     53  H24 K26 d   1      -5.154  15.503  26.959  0.00  0.00     0.040 H 
ATOM     54  H25 K26 d   1      -3.446  15.169  26.512  0.00  0.00     0.040 H 
ENDBRANCH  48  51
ENDBRANCH  32  47
ENDBRANCH  29  32
ENDBRANCH   1  28
BRANCH   1  55
ATOM     55  CB  K26 d   1       0.232  18.658  22.923  0.00  0.00    -0.014 C 
ATOM     56  H26 K26 d   1       1.308  18.856  22.809  0.00  0.00     0.043 H 
ATOM     57  H27 K26 d   1      -0.211  18.464  21.935  0.00  0.00     0.043 H 
BRANCH  55  58
ATOM     58  CG  K26 d   1       0.004  17.562  23.811  0.00  0.00    -0.056 A 
ATOM     59  CD1 K26 d   1       0.764  17.449  24.967  0.00  0.00    -0.074 A 
ATOM     60  CE1 K26 d   1       0.531  16.404  25.871  0.00  0.00    -0.051 A 
ATOM     61  H28 K26 d   1       1.543  18.174  25.172  0.00  0.00     0.084 H 
ATOM     62  CZ  K26 d   1      -0.456  15.445  25.613  0.00  0.00     0.065 A 
ATOM     63  H29 K26 d   1       1.120  16.337  26.778  0.00  0.00     0.087 H 
ATOM     64  CE2 K26 d   1      -1.224  15.564  24.466  0.00  0.00    -0.051 A 
ATOM     65  CD2 K26 d   1      -1.001  16.609  23.566  0.00  0.00    -0.074 A 
ATOM     66  H31 K26 d   1      -2.005  14.840  24.265  0.00  0.00     0.087 H 
ATOM     67  H32 K26 d   1      -1.608  16.686  22.671  0.00  0.00     0.084 H 
BRANCH  62  68
ATOM     68  OH  K26 d   1      -0.696  14.423  26.487  0.00  0.00    -0.361 OA
ATOM     69  H30 K26 d   1      -1.395  13.876  26.148  0.00  0.00     0.217 HD
ENDBRANCH  62  68
ENDBRANCH  55  58
ENDBRANCH   1  55
TORSDOF 17
