REMARK  7 active torsions:
REMARK  status: ('A' for Active; 'I' for Inactive)
REMARK    1  A    between atoms: C1_1  and  C12_10 
REMARK    2  A    between atoms: C1_1  and  C14_12 
REMARK    3  A    between atoms: C12_10  and  C13_11 
REMARK    4  A    between atoms: C14_12  and  C15_13 
REMARK    5  A    between atoms: C14_12  and  C16_14 
REMARK    6  A    between atoms: C16_14  and  C17_15 
REMARK    7  A    between atoms: C17_15  and  C18_16 
ROOT
ATOM      1  C1  EDP d   1      64.552 -26.453  57.460  0.00  0.00     0.125 A 
ATOM      2  C2  EDP d   1      63.624 -25.330  57.028  0.00  0.00     0.242 A 
ATOM      3  N3  EDP d   1      62.865 -25.535  55.906  0.00  0.00    -0.302 N 
ATOM      4  C4  EDP d   1      62.851 -26.643  55.118  0.00  0.00     0.181 A 
ATOM      5  N5  EDP d   1      63.674 -27.660  55.486  0.00  0.00    -0.302 N 
ATOM      6  C6  EDP d   1      64.509 -27.693  56.571  0.00  0.00     0.242 A 
ATOM      7  O7  EDP d   1      65.140 -28.710  56.827  0.00  0.00    -0.272 OA
ATOM      8  O8  EDP d   1      63.581 -24.260  57.617  0.00  0.00    -0.272 OA
ATOM      9  S9  EDP d   1      61.860 -26.755  53.773  0.00  0.00    -0.040 SA
ATOM     10  H1  EDP d   1      62.255 -24.789  55.638  0.00  0.00     0.171 HD
ATOM     11  H2  EDP d   1      63.669 -28.471  54.902  0.00  0.00     0.171 HD
ENDROOT
BRANCH   1  12
ATOM     12  C12 EDP d   1      65.925 -25.737  57.352  0.00  0.00    -0.044 C 
ATOM     13  H3  EDP d   1      65.966 -24.968  58.137  0.00  0.00     0.035 H 
ATOM     14  H4  EDP d   1      65.977 -25.256  56.364  0.00  0.00     0.035 H 
BRANCH  12  15
ATOM     15  C13 EDP d   1      67.137 -26.610  57.501  0.00  0.00    -0.075 C 
ATOM     16  H5  EDP d   1      68.045 -25.996  57.407  0.00  0.00     0.027 H 
ATOM     17  H6  EDP d   1      67.132 -27.381  56.716  0.00  0.00     0.027 H 
ATOM     18  H7  EDP d   1      67.122 -27.093  58.489  0.00  0.00     0.027 H 
ENDBRANCH  12  15
ENDBRANCH   1  12
BRANCH   1  19
ATOM     19  C14 EDP d   1      64.209 -26.978  58.905  0.00  0.00    -0.033 C 
ATOM     20  H8  EDP d   1      64.536 -28.028  58.921  0.00  0.00     0.042 H 
BRANCH  19  21
ATOM     21  C15 EDP d   1      62.708 -26.968  59.183  0.00  0.00    -0.071 C 
ATOM     22  H9  EDP d   1      62.521 -27.342  60.200  0.00  0.00     0.028 H 
ATOM     23  H10 EDP d   1      62.196 -27.614  58.455  0.00  0.00     0.028 H 
ATOM     24  H11 EDP d   1      62.325 -25.941  59.094  0.00  0.00     0.028 H 
ENDBRANCH  19  21
BRANCH  19  25
ATOM     25  C16 EDP d   1      64.920 -26.285  60.091  0.00  0.00    -0.061 C 
ATOM     26  H12 EDP d   1      64.205 -25.600  60.571  0.00  0.00     0.033 H 
ATOM     27  H13 EDP d   1      65.771 -25.710  59.697  0.00  0.00     0.033 H 
BRANCH  25  28
ATOM     28  C17 EDP d   1      65.441 -27.248  61.145  0.00  0.00    -0.068 C 
ATOM     29  H14 EDP d   1      66.033 -28.028  60.643  0.00  0.00     0.032 H 
ATOM     30  H15 EDP d   1      64.581 -27.710  61.652  0.00  0.00     0.032 H 
BRANCH  28  31
ATOM     31  C18 EDP d   1      66.308 -26.583  62.184  0.00  0.00    -0.077 C 
ATOM     32  H16 EDP d   1      66.649 -27.334  62.912  0.00  0.00     0.027 H 
ATOM     33  H17 EDP d   1      65.728 -25.806  62.703  0.00  0.00     0.027 H 
ATOM     34  H18 EDP d   1      67.180 -26.124  61.695  0.00  0.00     0.027 H 
ENDBRANCH  28  31
ENDBRANCH  25  28
ENDBRANCH  19  25
ENDBRANCH   1  19
TORSDOF 7
