REMARK  4 active torsions:
REMARK  status: ('A' for Active; 'I' for Inactive)
REMARK    1  A    between atoms: C1_5  and  C_1 
REMARK    2  A    between atoms: C2_6  and  C1_5 
REMARK    3  A    between atoms: C3_7  and  C2_6 
REMARK    4  A    between atoms: C3_7  and  C4_8 
ROOT
ATOM      1  O   6JW d   1      61.937 -24.790  53.565  0.00  0.00    -0.272 OA
ATOM      2  N   6JW d   1      62.375 -24.047  55.629  0.00  0.00    -0.278 N 
ATOM      3  C2  6JW d   1      61.160 -26.186  55.344  0.00  0.00     0.122 A 
ATOM      4  C5  6JW d   1      61.885 -24.987  54.768  0.00  0.00     0.243 A 
ATOM      5  C6  6JW d   1      62.213 -24.025  56.987  0.00  0.00     0.329 A 
ATOM      6  C7  6JW d   1      60.943 -26.107  56.846  0.00  0.00     0.243 A 
ATOM      7  O2  6JW d   1      60.324 -26.969  57.454  0.00  0.00    -0.272 OA
ATOM      8  N1  6JW d   1      61.492 -25.056  57.527  0.00  0.00    -0.278 N 
ATOM      9  O1  6JW d   1      62.650 -23.110  57.673  0.00  0.00    -0.247 OA
ATOM     10  H4  6JW d   1      62.905 -23.300  55.227  0.00  0.00     0.173 HD
ATOM     11  H11 6JW d   1      61.353 -25.039  58.517  0.00  0.00     0.173 HD
ENDROOT
BRANCH   3  12
ATOM     12  C1  6JW d   1      62.026 -27.437  55.068  0.00  0.00    -0.044 C 
ATOM     13  H5  6JW d   1      62.575 -27.685  55.989  0.00  0.00     0.035 H 
ATOM     14  H6  6JW d   1      61.355 -28.268  54.805  0.00  0.00     0.035 H 
BRANCH  12  15
ATOM     15  C   6JW d   1      63.033 -27.268  53.947  0.00  0.00    -0.075 C 
ATOM     16  H1  6JW d   1      63.602 -28.201  53.821  0.00  0.00     0.027 H 
ATOM     17  H2  6JW d   1      63.724 -26.449  54.195  0.00  0.00     0.027 H 
ATOM     18  H3  6JW d   1      62.504 -27.032  53.012  0.00  0.00     0.027 H 
ENDBRANCH  12  15
ENDBRANCH   3  12
BRANCH   3  19
ATOM     19  C3  6JW d   1      59.795 -26.263  54.623  0.00  0.00    -0.033 C 
ATOM     20  H7  6JW d   1      59.358 -25.255  54.567  0.00  0.00     0.036 H 
ATOM     21  H8  6JW d   1      59.123 -26.924  55.190  0.00  0.00     0.036 H 
BRANCH  19  22
ATOM     22  C4  6JW d   1      59.966 -26.809  53.226  0.00  0.00    -0.012 C 
ATOM     23 BR   6JW d   1      59.073 -25.956  51.665  0.00  0.00    -0.096 Br
ATOM     24  H9  6JW d   1      61.045 -26.791  53.015  0.00  0.00     0.049 H 
ATOM     25  H10 6JW d   1      59.615 -27.851  53.254  0.00  0.00     0.049 H 
ENDBRANCH  19  22
ENDBRANCH   3  19
TORSDOF 4
