REMARK  10 active torsions:
REMARK  status: ('A' for Active; 'I' for Inactive)
REMARK    1  A    between atoms: C8_1  and  C12_9 
REMARK    2  A    between atoms: C5_2  and  N3_6 
REMARK    3  A    between atoms: N3_6  and  C6_3 
REMARK    4  A    between atoms: N_19  and  C2_5 
REMARK    5  A    between atoms: C16_21  and  O2_22 
REMARK    6  A    between atoms: C17_23  and  O3_24 
REMARK    7  A    between atoms: C1_25  and  C_26 
REMARK    8  A    between atoms: C_26  and  O_27 
REMARK    9  A    between atoms: O_27  and  S_28 
REMARK   10  A    between atoms: S_28  and  N5_31 
ROOT
ATOM      1  C13 6O2 d   1      -2.160  27.571  -8.995  0.00  0.00    -0.149 C 
ATOM      2  C12 6O2 d   1      -3.282  27.826  -9.543  0.00  0.00    -0.078 C 
ATOM      3  H4  6O2 d   1      -1.230  27.360  -8.541  0.00  0.00     0.166 H 
ENDROOT
BRANCH   2   4
ATOM      4  C8  6O2 d   1      -4.428  28.077 -10.074  0.00  0.00     0.019 A 
ATOM      5  C7  6O2 d   1      -5.215  26.966 -10.354  0.00  0.00    -0.039 A 
ATOM      6  C6  6O2 d   1      -6.505  27.013 -10.882  0.00  0.00     0.035 A 
ATOM      7  H5  6O2 d   1      -4.794  25.989 -10.146  0.00  0.00     0.089 H 
ATOM      8  C11 6O2 d   1      -7.007  28.281 -11.104  0.00  0.00    -0.057 A 
ATOM      9  C10 6O2 d   1      -6.220  29.392 -10.831  0.00  0.00    -0.079 A 
ATOM     10  H8  6O2 d   1      -8.012  28.408 -11.490  0.00  0.00     0.086 H 
ATOM     11  C9  6O2 d   1      -4.935  29.316 -10.307  0.00  0.00    -0.065 A 
ATOM     12  H7  6O2 d   1      -6.631  30.373 -11.038  0.00  0.00     0.083 H 
ATOM     13  H6  6O2 d   1      -4.360  30.210 -10.093  0.00  0.00     0.085 H 
BRANCH   6  14
ATOM     14  N3  6O2 d   1      -7.065  25.792 -11.160  0.00  0.00    -0.339 N 
ATOM     15  H2  6O2 d   1      -6.579  24.978 -10.758  0.00  0.00     0.167 HD
BRANCH  14  16
ATOM     16  C5  6O2 d   1      -8.170  25.510 -11.891  0.00  0.00     0.162 A 
ATOM     17  N2  6O2 d   1      -8.821  24.410 -11.545  0.00  0.00    -0.222 NA
ATOM     18  C4  6O2 d   1      -9.976  24.067 -12.129  0.00  0.00     0.091 A 
ATOM     19  N1  6O2 d   1     -10.527  24.765 -13.105  0.00  0.00    -0.222 NA
ATOM     20  H3  6O2 d   1     -10.483  23.173 -11.784  0.00  0.00     0.146 H 
ATOM     21  C3  6O2 d   1      -9.886  25.847 -13.540  0.00  0.00     0.167 A 
ATOM     22  C14 6O2 d   1      -8.699  26.251 -12.955  0.00  0.00     0.150 A 
ATOM     23  N   6O2 d   1     -10.226  26.737 -14.447  0.00  0.00    -0.294 N 
ATOM     24  N4  6O2 d   1      -8.329  27.379 -13.587  0.00  0.00    -0.236 NA
ATOM     25  C15 6O2 d   1      -9.291  27.677 -14.474  0.00  0.00     0.071 A 
ATOM     26  H9  6O2 d   1      -9.302  28.556 -15.117  0.00  0.00     0.144 H 
BRANCH  23  27
ATOM     27  C2  6O2 d   1     -11.414  26.641 -15.297  0.00  0.00     0.139 C 
ATOM     28  O1  6O2 d   1     -10.984  26.327 -16.635  0.00  0.00    -0.353 OA
ATOM     29  C1  6O2 d   1     -11.972  26.782 -17.541  0.00  0.00     0.090 C 
ATOM     30  C17 6O2 d   1     -12.885  27.759 -16.792  0.00  0.00     0.091 C 
ATOM     31  H14 6O2 d   1     -12.572  25.919 -17.867  0.00  0.00     0.090 H 
ATOM     32  C16 6O2 d   1     -12.229  27.905 -15.406  0.00  0.00     0.105 C 
ATOM     33  H12 6O2 d   1     -12.927  28.739 -17.289  0.00  0.00     0.091 H 
ATOM     34  H10 6O2 d   1     -11.594  28.803 -15.365  0.00  0.00     0.093 H 
ATOM     35  H1  6O2 d   1     -12.056  25.838 -14.906  0.00  0.00     0.122 H 
BRANCH  29  36
ATOM     36  C   6O2 d   1     -11.352  27.432 -18.803  0.00  0.00     0.066 C 
ATOM     37  H15 6O2 d   1     -10.518  26.813 -19.165  0.00  0.00     0.080 H 
ATOM     38  H16 6O2 d   1     -10.982  28.438 -18.556  0.00  0.00     0.080 H 
BRANCH  36  39
ATOM     39  O   6O2 d   1     -12.369  27.528 -19.834  0.00  0.00    -0.257 OA
BRANCH  39  40
ATOM     40  S   6O2 d   1     -12.515  28.831 -20.642  0.00  0.00     0.355 S 
ATOM     41  O4  6O2 d   1     -13.679  28.741 -21.481  0.00  0.00    -0.176 OA
ATOM     42  O5  6O2 d   1     -12.444  30.044 -19.914  0.00  0.00    -0.176 OA
BRANCH  40  43
ATOM     43  N5  6O2 d   1     -11.197  28.846 -21.543  0.00  0.00    -0.306 N 
ATOM     44  H17 6O2 d   1     -11.034  29.601 -22.178  0.00  0.00     0.171 HD
ATOM     45  H18 6O2 d   1     -10.534  28.101 -21.472  0.00  0.00     0.171 HD
ENDBRANCH  40  43
ENDBRANCH  39  40
ENDBRANCH  36  39
ENDBRANCH  29  36
BRANCH  30  46
ATOM     46  O3  6O2 d   1     -14.184  27.169 -16.795  0.00  0.00    -0.390 OA
ATOM     47  H13 6O2 d   1     -14.134  26.295 -16.427  0.00  0.00     0.210 HD
ENDBRANCH  30  46
BRANCH  32  48
ATOM     48  O2  6O2 d   1     -13.171  27.942 -14.350  0.00  0.00    -0.388 OA
ATOM     49  H11 6O2 d   1     -13.743  27.186 -14.411  0.00  0.00     0.210 HD
ENDBRANCH  32  48
ENDBRANCH  23  27
ENDBRANCH  14  16
ENDBRANCH   6  14
ENDBRANCH   2   4
TORSDOF 10
