REMARK  8 active torsions:
REMARK  status: ('A' for Active; 'I' for Inactive)
REMARK    1  A    between atoms: N7_23  and  C4_1 
REMARK    2  A    between atoms: C6_3  and  C8_4 
REMARK    3  A    between atoms: C8_4  and  O27_27 
REMARK    4  A    between atoms: N18_18  and  C17_8 
REMARK    5  A    between atoms: C1_17  and  N18_18 
REMARK    6  A    between atoms: C2_25  and  O9_26 
REMARK    7  A    between atoms: O27_27  and  S28_28 
REMARK    8  A    between atoms: S28_28  and  N31_31 
ROOT
ATOM      1  C10 B39 d   1      -8.868  27.858 -12.960  0.00  0.00    -0.051 A 
ATOM      2  C13 B39 d   1     -10.291  26.050 -12.783  0.00  0.00     0.145 A 
ATOM      3  C15 B39 d   1     -10.257  24.360 -11.185  0.00  0.00     0.091 A 
ATOM      4  C17 B39 d   1      -8.533  26.026 -10.958  0.00  0.00     0.139 A 
ATOM      5  N16 B39 d   1      -9.172  24.890 -10.566  0.00  0.00    -0.224 NA
ATOM      6  N14 B39 d   1     -10.810  24.909 -12.268  0.00  0.00    -0.223 NA
ATOM      7  C12 B39 d   1      -9.111  26.701 -12.169  0.00  0.00     0.057 A 
ATOM      8  C11 B39 d   1      -9.818  27.880 -13.967  0.00  0.00    -0.017 A 
ATOM      9  N7  B39 d   1     -10.643  26.816 -13.835  0.00  0.00    -0.336 N 
ATOM     10  H7  B39 d   1      -8.079  28.592 -12.802  0.00  0.00     0.087 H 
ATOM     11  H8  B39 d   1     -10.693  23.453 -10.783  0.00  0.00     0.146 H 
ATOM     12  H19 B39 d   1      -9.890  28.638 -14.746  0.00  0.00     0.111 H 
ENDROOT
BRANCH   9  13
ATOM     13  C4  B39 d   1     -11.806  26.507 -14.712  0.00  0.00     0.021 C 
ATOM     14  C5  B39 d   1     -11.401  26.350 -16.162  0.00  0.00    -0.038 C 
ATOM     15  C6  B39 d   1     -11.868  27.617 -16.836  0.00  0.00    -0.005 C 
ATOM     16  H2  B39 d   1     -11.891  25.472 -16.608  0.00  0.00     0.036 H 
ATOM     17  H3  B39 d   1     -10.310  26.245 -16.250  0.00  0.00     0.036 H 
ATOM     18  C2  B39 d   1     -13.124  28.052 -16.087  0.00  0.00     0.043 C 
ATOM     19  H4  B39 d   1     -11.100  28.391 -16.689  0.00  0.00     0.047 H 
ATOM     20  C3  B39 d   1     -12.848  27.635 -14.663  0.00  0.00    -0.021 C 
ATOM     21  H22 B39 d   1     -13.256  29.142 -16.158  0.00  0.00     0.083 H 
ATOM     22  H20 B39 d   1     -12.454  28.488 -14.091  0.00  0.00     0.039 H 
ATOM     23  H21 B39 d   1     -13.773  27.273 -14.191  0.00  0.00     0.039 H 
ATOM     24  H1  B39 d   1     -12.264  25.571 -14.361  0.00  0.00     0.073 H 
BRANCH  15  25
ATOM     25  C8  B39 d   1     -12.043  27.456 -18.338  0.00  0.00     0.045 C 
ATOM     26  H5  B39 d   1     -12.834  26.730 -18.579  0.00  0.00     0.077 H 
ATOM     27  H6  B39 d   1     -11.105  27.151 -18.825  0.00  0.00     0.077 H 
BRANCH  25  28
ATOM     28  O27 B39 d   1     -12.415  28.773 -18.700  0.00  0.00    -0.259 OA
BRANCH  28  29
ATOM     29  S28 B39 d   1     -12.657  29.295 -20.111  0.00  0.00     0.355 S 
ATOM     30  O29 B39 d   1     -13.871  28.775 -20.680  0.00  0.00    -0.176 OA
ATOM     31  O30 B39 d   1     -12.707  30.729 -19.992  0.00  0.00    -0.176 OA
BRANCH  29  32
ATOM     32  N31 B39 d   1     -11.439  28.845 -21.039  0.00  0.00    -0.306 N 
ATOM     33  H24 B39 d   1     -11.426  29.100 -22.006  0.00  0.00     0.171 HD
ATOM     34  H25 B39 d   1     -10.688  28.308 -20.654  0.00  0.00     0.171 HD
ENDBRANCH  29  32
ENDBRANCH  28  29
ENDBRANCH  25  28
ENDBRANCH  15  25
BRANCH  18  35
ATOM     35  O9  B39 d   1     -14.300  27.405 -16.577  0.00  0.00    -0.395 OA
ATOM     36  H23 B39 d   1     -14.177  26.463 -16.548  0.00  0.00     0.210 HD
ENDBRANCH  18  35
ENDBRANCH   9  13
BRANCH   4  37
ATOM     37  N18 B39 d   1      -7.455  26.431 -10.211  0.00  0.00    -0.365 N 
ATOM     38  H18 B39 d   1      -7.199  25.845  -9.403  0.00  0.00     0.162 HD
BRANCH  37  39
ATOM     39  C1  B39 d   1      -6.632  27.623 -10.457  0.00  0.00     0.037 C 
ATOM     40  C20 B39 d   1      -7.202  28.963  -9.932  0.00  0.00    -0.038 C 
ATOM     41  C19 B39 d   1      -6.031  29.928  -9.627  0.00  0.00    -0.038 C 
ATOM     42  H9  B39 d   1      -7.857  29.409 -10.695  0.00  0.00     0.036 H 
ATOM     43  H10 B39 d   1      -7.779  28.783  -9.013  0.00  0.00     0.036 H 
ATOM     44  C22 B39 d   1      -4.900  28.965  -9.369  0.00  0.00    -0.050 A 
ATOM     45  H13 B39 d   1      -6.241  30.546  -8.742  0.00  0.00     0.040 H 
ATOM     46  H14 B39 d   1      -5.814  30.580 -10.486  0.00  0.00     0.040 H 
ATOM     47  C21 B39 d   1      -5.271  27.619  -9.835  0.00  0.00    -0.029 A 
ATOM     48  C23 B39 d   1      -3.671  29.209  -8.754  0.00  0.00    -0.076 A 
ATOM     49  C26 B39 d   1      -4.361  26.576  -9.670  0.00  0.00    -0.074 A 
ATOM     50  C25 B39 d   1      -3.130  26.854  -9.058  0.00  0.00    -0.082 A 
ATOM     51  H12 B39 d   1      -4.599  25.574 -10.007  0.00  0.00     0.084 H 
ATOM     52  C24 B39 d   1      -2.785  28.139  -8.606  0.00  0.00    -0.082 A 
ATOM     53  H16 B39 d   1      -2.418  26.047  -8.929  0.00  0.00     0.083 H 
ATOM     54  H11 B39 d   1      -1.821  28.302  -8.137  0.00  0.00     0.083 H 
ATOM     55  H15 B39 d   1      -3.411  30.201  -8.401  0.00  0.00     0.084 H 
ATOM     56  H17 B39 d   1      -6.520  27.692 -11.549  0.00  0.00     0.080 H 
ENDBRANCH  37  39
ENDBRANCH   4  37
TORSDOF 8
