REMARK  11 active torsions:
REMARK  status: ('A' for Active; 'I' for Inactive)
REMARK    1  A    between atoms: C17_15  and  O3_1 
REMARK    2  A    between atoms: O2_3  and  S_18 
REMARK    3  A    between atoms: C_20  and  O2_3 
REMARK    4  A    between atoms: C18_16  and  O4_4 
REMARK    5  A    between atoms: C9_9  and  C10_10 
REMARK    6  A    between atoms: C14_12  and  S1_31 
REMARK    7  A    between atoms: S1_31  and  C16_14 
REMARK    8  A    between atoms: S_18  and  N_19 
REMARK    9  A    between atoms: C1_21  and  C_20 
REMARK   10  A    between atoms: N1_24  and  C3_23 
REMARK   11  A    between atoms: N1_24  and  C4_25 
ROOT
ATOM      1  C5  61T d   1     -10.617  25.002 -13.439  0.00  0.00    -0.022 A 
ATOM      2  C6  61T d   1     -10.113  23.960 -12.477  0.00  0.00     0.008 A 
ATOM      3  C7  61T d   1      -8.601  25.443 -11.684  0.00  0.00     0.154 A 
ATOM      4  C8  61T d   1      -7.601  26.007 -10.979  0.00  0.00    -0.006 A 
ATOM      5  C9  61T d   1      -7.450  27.396 -11.433  0.00  0.00     0.091 A 
ATOM      6  C4  61T d   1     -10.025  26.214 -13.419  0.00  0.00     0.129 A 
ATOM      7  N2  61T d   1      -9.117  24.213 -11.617  0.00  0.00    -0.241 NA
ATOM      8  N4  61T d   1      -9.033  26.375 -12.541  0.00  0.00    -0.199 N 
ATOM      9  N3  61T d   1      -8.362  27.584 -12.436  0.00  0.00    -0.164 NA
ATOM     10  H3  61T d   1     -11.432  24.785 -14.128  0.00  0.00     0.091 H 
ATOM     11  H4  61T d   1     -10.571  22.972 -12.480  0.00  0.00     0.115 H 
ATOM     12  H5  61T d   1      -7.008  25.518 -10.207  0.00  0.00     0.093 H 
ENDROOT
BRANCH   6  13
ATOM     13  N1  61T d   1     -10.387  27.344 -14.275  0.00  0.00    -0.367 N 
ATOM     14  H18 61T d   1      -9.906  28.249 -14.175  0.00  0.00     0.161 HD
BRANCH  13  15
ATOM     15  C3  61T d   1     -11.423  27.175 -15.258  0.00  0.00     0.038 C 
ATOM     16  C17 61T d   1     -12.507  28.181 -15.376  0.00  0.00     0.080 C 
ATOM     17  C18 61T d   1     -13.075  27.954 -16.783  0.00  0.00     0.068 C 
ATOM     18  H8  61T d   1     -12.083  29.194 -15.321  0.00  0.00     0.090 H 
ATOM     19  C1  61T d   1     -12.052  27.084 -17.512  0.00  0.00    -0.003 C 
ATOM     20  H9  61T d   1     -13.160  28.935 -17.273  0.00  0.00     0.087 H 
ATOM     21  C2  61T d   1     -10.937  26.685 -16.563  0.00  0.00    -0.036 C 
ATOM     22  H14 61T d   1     -12.556  26.173 -17.867  0.00  0.00     0.047 H 
ATOM     23  H15 61T d   1      -9.989  27.170 -16.840  0.00  0.00     0.036 H 
ATOM     24  H16 61T d   1     -10.800  25.594 -16.550  0.00  0.00     0.036 H 
ATOM     25  H17 61T d   1     -11.967  26.307 -14.857  0.00  0.00     0.076 H 
BRANCH  16  26
ATOM     26  O3  61T d   1     -13.454  28.048 -14.304  0.00  0.00    -0.391 OA
ATOM     27  H1  61T d   1     -13.817  27.170 -14.311  0.00  0.00     0.210 HD
ENDBRANCH  16  26
BRANCH  17  28
ATOM     28  O4  61T d   1     -14.337  27.291 -16.914  0.00  0.00    -0.392 OA
ATOM     29  H2  61T d   1     -14.278  26.422 -16.534  0.00  0.00     0.210 HD
ENDBRANCH  17  28
BRANCH  19  30
ATOM     30  C   61T d   1     -11.482  27.817 -18.708  0.00  0.00     0.045 C 
ATOM     31  H12 61T d   1     -11.086  28.793 -18.392  0.00  0.00     0.077 H 
ATOM     32  H13 61T d   1     -10.674  27.222 -19.159  0.00  0.00     0.077 H 
BRANCH  30  33
ATOM     33  O2  61T d   1     -12.531  28.006 -19.659  0.00  0.00    -0.259 OA
BRANCH  33  34
ATOM     34  S   61T d   1     -12.505  29.179 -20.681  0.00  0.00     0.355 S 
ATOM     35  O1  61T d   1     -12.544  30.441 -19.992  0.00  0.00    -0.176 OA
ATOM     36  O   61T d   1     -13.636  29.077 -21.550  0.00  0.00    -0.176 OA
BRANCH  34  37
ATOM     37  N   61T d   1     -11.117  29.189 -21.495  0.00  0.00    -0.306 N 
ATOM     38  H10 61T d   1     -10.951  29.887 -22.191  0.00  0.00     0.171 HD
ATOM     39  H11 61T d   1     -10.421  28.497 -21.305  0.00  0.00     0.171 HD
ENDBRANCH  34  37
ENDBRANCH  33  34
ENDBRANCH  30  33
ENDBRANCH  19  30
ENDBRANCH  13  15
ENDBRANCH   6  13
BRANCH   5  40
ATOM     40  C10 61T d   1      -6.520  28.431 -10.974  0.00  0.00    -0.004 A 
ATOM     41  C15 61T d   1      -5.603  28.150  -9.955  0.00  0.00    -0.054 A 
ATOM     42  C14 61T d   1      -4.705  29.117  -9.488  0.00  0.00     0.009 A 
ATOM     43  H7  61T d   1      -5.588  27.159  -9.516  0.00  0.00     0.086 H 
ATOM     44  C13 61T d   1      -4.682  30.394 -10.038  0.00  0.00    -0.066 A 
ATOM     45  C12 61T d   1      -5.592  30.678 -11.060  0.00  0.00    -0.081 A 
ATOM     46  H6  61T d   1      -3.982  31.143  -9.686  0.00  0.00     0.085 H 
ATOM     47  C11 61T d   1      -6.497  29.719 -11.525  0.00  0.00    -0.071 A 
ATOM     48  H20 61T d   1      -5.596  31.667 -11.504  0.00  0.00     0.083 H 
ATOM     49  H19 61T d   1      -7.188  29.975 -12.320  0.00  0.00     0.084 H 
BRANCH  42  50
ATOM     50  S1  61T d   1      -3.670  28.632  -8.252  0.00  0.00    -0.016 SA
BRANCH  50  51
ATOM     51  C16 61T d   1      -2.334  27.649  -8.866  0.00  0.00     0.448 C 
ATOM     52  F2  61T d   1      -1.413  27.464  -7.935  0.00  0.00    -0.160 F 
ATOM     53  F   61T d   1      -1.748  28.340  -9.817  0.00  0.00    -0.160 F 
ATOM     54  F1  61T d   1      -2.788  26.480  -9.311  0.00  0.00    -0.160 F 
ENDBRANCH  50  51
ENDBRANCH  42  50
ENDBRANCH   5  40
TORSDOF 11
