REMARK  4 active torsions:
REMARK  status: ('A' for Active; 'I' for Inactive)
REMARK    1  A    between atoms: N3_18  and  C3_3 
REMARK    2  A    between atoms: C10_7  and  C14_11 
REMARK    3  A    between atoms: C14_11  and  C15_12 
REMARK    4  A    between atoms: C6_17  and  N3_18 
ROOT
ATOM      1  C7  6P6 d   1      15.473   3.201  -6.167  0.00  0.00     0.039 A 
ATOM      2  C8  6P6 d   1      15.014   4.334  -6.884  0.00  0.00    -0.066 A 
ATOM      3  C9  6P6 d   1      15.887   5.235  -7.415  0.00  0.00    -0.069 A 
ATOM      4  C10 6P6 d   1      17.268   5.084  -7.248  0.00  0.00     0.011 A 
ATOM      5  C11 6P6 d   1      17.750   3.991  -6.558  0.00  0.00    -0.041 A 
ATOM      6  C12 6P6 d   1      16.870   3.036  -6.000  0.00  0.00     0.073 A 
ATOM      7  C13 6P6 d   1      16.519   1.123  -4.808  0.00  0.00     0.089 A 
ATOM      8  N1  6P6 d   1      17.408   1.980  -5.312  0.00  0.00    -0.241 NA
ATOM      9  N2  6P6 d   1      15.181   1.158  -4.885  0.00  0.00    -0.224 NA
ATOM     10  C6  6P6 d   1      14.644   2.184  -5.559  0.00  0.00     0.142 A 
ATOM     11  H3  6P6 d   1      13.948   4.487  -7.012  0.00  0.00     0.085 H 
ATOM     12  H4  6P6 d   1      15.506   6.081  -7.975  0.00  0.00     0.085 H 
ATOM     13  H5  6P6 d   1      18.820   3.863  -6.442  0.00  0.00     0.088 H 
ATOM     14  H6  6P6 d   1      16.935   0.284  -4.262  0.00  0.00     0.146 H 
ENDROOT
BRANCH  10  15
ATOM     15  N3  6P6 d   1      13.290   2.260  -5.668  0.00  0.00    -0.340 N 
ATOM     16  H11 6P6 d   1      12.943   2.982  -6.315  0.00  0.00     0.167 HD
BRANCH  15  17
ATOM     17  C3  6P6 d   1      12.293   1.499  -5.029  0.00  0.00     0.033 A 
ATOM     18  C2  6P6 d   1      11.566   0.561  -5.754  0.00  0.00    -0.057 A 
ATOM     19  C1  6P6 d   1      10.572  -0.176  -5.130  0.00  0.00    -0.081 A 
ATOM     20  H2  6P6 d   1      11.777   0.406  -6.806  0.00  0.00     0.086 H 
ATOM     21  C16 6P6 d   1      10.288   0.024  -3.793  0.00  0.00    -0.083 A 
ATOM     22  H1  6P6 d   1      10.014  -0.914  -5.695  0.00  0.00     0.083 H 
ATOM     23  C5  6P6 d   1      11.007   0.959  -3.071  0.00  0.00    -0.081 A 
ATOM     24  H10 6P6 d   1       9.504  -0.550  -3.312  0.00  0.00     0.083 H 
ATOM     25  C4  6P6 d   1      12.004   1.701  -3.683  0.00  0.00    -0.057 A 
ATOM     26  H13 6P6 d   1      10.789   1.112  -2.020  0.00  0.00     0.083 H 
ATOM     27  H12 6P6 d   1      12.559   2.438  -3.114  0.00  0.00     0.086 H 
ENDBRANCH  15  17
ENDBRANCH  10  15
BRANCH   4  28
ATOM     28  C14 6P6 d   1      18.117   6.145  -7.872  0.00  0.00     0.155 C 
ATOM     29  O1  6P6 d   1      17.620   7.141  -8.368  0.00  0.00    -0.293 OA
BRANCH  28  30
ATOM     30  C15 6P6 d   1      19.617   5.952  -7.890  0.00  0.00    -0.017 C 
ATOM     31  H7  6P6 d   1      20.092   6.815  -8.380  0.00  0.00     0.038 H 
ATOM     32  H8  6P6 d   1      19.862   5.034  -8.445  0.00  0.00     0.038 H 
ATOM     33  H9  6P6 d   1      19.988   5.867  -6.858  0.00  0.00     0.038 H 
ENDBRANCH  28  30
ENDBRANCH   4  28
TORSDOF 4
