REMARK  4 active torsions:
REMARK  status: ('A' for Active; 'I' for Inactive)
REMARK    1  A    between atoms: N4_19  and  C3_3 
REMARK    2  A    between atoms: C10_7  and  N3_15 
REMARK    3  A    between atoms: C14_11  and  C15_12 
REMARK       I    between atoms: N3_15  and  C14_11 
REMARK    4  A    between atoms: C6_18  and  N4_19 
ROOT
ATOM      1  C7  6P8 d   1      15.444   0.117  -9.241  0.00  0.00     0.039 A 
ATOM      2  C8  6P8 d   1      14.853   1.174  -9.988  0.00  0.00    -0.065 A 
ATOM      3  C9  6P8 d   1      15.622   2.164 -10.528  0.00  0.00    -0.056 A 
ATOM      4  C10 6P8 d   1      17.001   2.208 -10.307  0.00  0.00     0.036 A 
ATOM      5  C11 6P8 d   1      17.611   1.179  -9.622  0.00  0.00    -0.028 A 
ATOM      6  C12 6P8 d   1      16.849   0.134  -9.054  0.00  0.00     0.074 A 
ATOM      7  C13 6P8 d   1      16.736  -1.792  -7.848  0.00  0.00     0.089 A 
ATOM      8  N1  6P8 d   1      17.508  -0.835  -8.345  0.00  0.00    -0.241 NA
ATOM      9  N2  6P8 d   1      15.407  -1.927  -7.929  0.00  0.00    -0.224 NA
ATOM     10  C6  6P8 d   1      14.747  -0.988  -8.620  0.00  0.00     0.142 A 
ATOM     11  H3  6P8 d   1      13.778   1.193 -10.130  0.00  0.00     0.085 H 
ATOM     12  H4  6P8 d   1      15.155   2.929 -11.138  0.00  0.00     0.086 H 
ATOM     13  H5  6P8 d   1      18.690   1.172  -9.518  0.00  0.00     0.090 H 
ATOM     14  H6  6P8 d   1      17.253  -2.572  -7.301  0.00  0.00     0.146 H 
ENDROOT
BRANCH  10  15
ATOM     15  N4  6P8 d   1      13.395  -1.107  -8.751  0.00  0.00    -0.340 N 
ATOM     16  H12 6P8 d   1      12.953  -0.519  -9.472  0.00  0.00     0.167 HD
BRANCH  15  17
ATOM     17  C3  6P8 d   1      12.534  -1.942  -8.013  0.00  0.00     0.033 A 
ATOM     18  C2  6P8 d   1      12.243  -1.630  -6.690  0.00  0.00    -0.057 A 
ATOM     19  C1  6P8 d   1      11.381  -2.435  -5.962  0.00  0.00    -0.081 A 
ATOM     20  H2  6P8 d   1      12.690  -0.757  -6.228  0.00  0.00     0.086 H 
ATOM     21  C16 6P8 d   1      10.792  -3.537  -6.549  0.00  0.00    -0.083 A 
ATOM     22  H1  6P8 d   1      11.168  -2.198  -4.926  0.00  0.00     0.083 H 
ATOM     23  C5  6P8 d   1      11.086  -3.855  -7.860  0.00  0.00    -0.081 A 
ATOM     24  H10 6P8 d   1      10.101  -4.151  -5.982  0.00  0.00     0.083 H 
ATOM     25  C4  6P8 d   1      11.940  -3.053  -8.602  0.00  0.00    -0.057 A 
ATOM     26  H14 6P8 d   1      10.647  -4.737  -8.312  0.00  0.00     0.083 H 
ATOM     27  H13 6P8 d   1      12.144  -3.292  -9.639  0.00  0.00     0.086 H 
ENDBRANCH  15  17
ENDBRANCH  10  15
BRANCH   4  28
ATOM     28  N3  6P8 d   1      17.873   3.162 -10.891  0.00  0.00    -0.327 N 
ATOM     29  C14 6P8 d   1      17.592   4.310 -11.559  0.00  0.00     0.218 C 
ATOM     30  O1  6P8 d   1      16.472   4.798 -11.672  0.00  0.00    -0.274 OA
ATOM     31  H11 6P8 d   1      18.847   2.957 -10.796  0.00  0.00     0.169 HD
BRANCH  29  32
ATOM     32  C15 6P8 d   1      18.801   4.996 -12.159  0.00  0.00    -0.003 C 
ATOM     33  H7  6P8 d   1      19.702   4.402 -11.948  0.00  0.00     0.040 H 
ATOM     34  H8  6P8 d   1      18.911   5.998 -11.718  0.00  0.00     0.040 H 
ATOM     35  H9  6P8 d   1      18.669   5.087 -13.247  0.00  0.00     0.040 H 
ENDBRANCH  29  32
ENDBRANCH   4  28
TORSDOF 4
