REMARK  9 active torsions:
REMARK  status: ('A' for Active; 'I' for Inactive)
REMARK    1  A    between atoms: C5_4  and  N1_1 
REMARK    2  A    between atoms: N1_1  and  S_27 
REMARK    3  A    between atoms: C15_10  and  N3_2 
REMARK    4  A    between atoms: S_27  and  C6_5 
REMARK    5  A    between atoms: C7_6  and  C3_24 
REMARK    6  A    between atoms: N2_19  and  C13_9 
REMARK    7  A    between atoms: C14_14  and  C15_10 
REMARK       I    between atoms: C14_14  and  N2_19 
REMARK    8  A    between atoms: C1_30  and  O_31 
REMARK    9  A    between atoms: O_31  and  C_32 
ROOT
ATOM      1  C7  6PF d   1      -8.708 -30.062  24.124  0.00  0.00    -0.021 A 
ATOM      2  C8  6PF d   1      -8.360 -29.095  25.068  0.00  0.00    -0.059 A 
ATOM      3  C10 6PF d   1      -6.563 -28.217  26.748  0.00  0.00     0.029 C 
ATOM      4  C13 6PF d   1      -6.525 -31.069  24.451  0.00  0.00     0.048 A 
ATOM      5  C20 6PF d   1      -7.765 -31.047  23.808  0.00  0.00    -0.045 A 
ATOM      6  C12 6PF d   1      -6.208 -30.131  25.446  0.00  0.00     0.025 A 
ATOM      7  C11 6PF d   1      -5.082 -30.014  26.428  0.00  0.00     0.031 C 
ATOM      8  O3  6PF d   1      -5.287 -28.760  27.072  0.00  0.00    -0.333 OA
ATOM      9  C9  6PF d   1      -7.132 -29.129  25.718  0.00  0.00     0.001 A 
ATOM     10  H7  6PF d   1      -9.062 -28.302  25.299  0.00  0.00     0.086 H 
ATOM     11  H8  6PF d   1      -7.025 -27.323  27.165  0.00  0.00     0.124 H 
ATOM     12  H13 6PF d   1      -7.998 -31.797  23.061  0.00  0.00     0.088 H 
ATOM     13  H21 6PF d   1      -4.282 -30.731  26.610  0.00  0.00     0.124 H 
ENDROOT
BRANCH   1  14
ATOM     14  C3  6PF d   1     -10.060 -30.065  23.505  0.00  0.00    -0.006 A 
ATOM     15  C4  6PF d   1     -10.226 -30.475  22.183  0.00  0.00    -0.040 A 
ATOM     16  C5  6PF d   1     -11.483 -30.433  21.601  0.00  0.00     0.096 A 
ATOM     17  H3  6PF d   1      -9.374 -30.826  21.612  0.00  0.00     0.088 H 
ATOM     18  C1  6PF d   1     -12.566 -29.917  22.408  0.00  0.00     0.191 A 
ATOM     19  N   6PF d   1     -12.426 -29.567  23.679  0.00  0.00    -0.234 NA
ATOM     20  C2  6PF d   1     -11.194 -29.645  24.203  0.00  0.00     0.016 A 
ATOM     21  H22 6PF d   1     -11.070 -29.362  25.242  0.00  0.00     0.116 H 
BRANCH  16  22
ATOM     22  N1  6PF d   1     -11.633 -30.916  20.279  0.00  0.00    -0.281 N 
ATOM     23  H1  6PF d   1     -11.836 -30.230  19.580  0.00  0.00     0.179 HD
BRANCH  22  24
ATOM     24  S   6PF d   1     -11.515 -32.452  19.760  0.00  0.00     0.227 S 
ATOM     25  O1  6PF d   1     -12.584 -32.667  18.834  0.00  0.00    -0.206 OA
ATOM     26  O2  6PF d   1     -10.167 -32.616  19.315  0.00  0.00    -0.206 OA
BRANCH  24  27
ATOM     27  C6  6PF d   1     -11.770 -33.489  21.149  0.00  0.00     0.033 C 
ATOM     28  H4  6PF d   1     -11.698 -34.542  20.839  0.00  0.00     0.051 H 
ATOM     29  H5  6PF d   1     -12.768 -33.299  21.570  0.00  0.00     0.051 H 
ATOM     30  H6  6PF d   1     -11.004 -33.278  21.910  0.00  0.00     0.051 H 
ENDBRANCH  24  27
ENDBRANCH  22  24
ENDBRANCH  16  22
BRANCH  18  31
ATOM     31  O   6PF d   1     -13.710 -29.669  21.726  0.00  0.00    -0.338 OA
BRANCH  31  32
ATOM     32  C   6PF d   1     -14.564 -28.634  22.212  0.00  0.00     0.012 C 
ATOM     33  H23 6PF d   1     -15.446 -28.550  21.560  0.00  0.00     0.067 H 
ATOM     34  H24 6PF d   1     -14.018 -27.679  22.215  0.00  0.00     0.067 H 
ATOM     35  H25 6PF d   1     -14.886 -28.875  23.236  0.00  0.00     0.067 H 
ENDBRANCH  31  32
ENDBRANCH  18  31
ENDBRANCH   1  14
BRANCH   4  36
ATOM     36  N2  6PF d   1      -5.474 -31.960  24.123  0.00  0.00    -0.325 N 
ATOM     37  C14 6PF d   1      -5.467 -32.976  23.241  0.00  0.00     0.248 C 
ATOM     38  O4  6PF d   1      -6.455 -33.346  22.608  0.00  0.00    -0.271 OA
ATOM     39  H20 6PF d   1      -4.617 -31.813  24.616  0.00  0.00     0.169 HD
BRANCH  37  40
ATOM     40  C15 6PF d   1      -4.127 -33.685  23.115  0.00  0.00     0.156 C 
ATOM     41  H9  6PF d   1      -3.405 -33.001  22.646  0.00  0.00     0.090 H 
ATOM     42  H10 6PF d   1      -3.773 -33.959  24.120  0.00  0.00     0.090 H 
BRANCH  40  43
ATOM     43  N3  6PF d   1      -4.231 -34.894  22.303  0.00  0.00    -0.059 N 
ATOM     44  C19 6PF d   1      -3.424 -34.819  21.081  0.00  0.00     0.103 C 
ATOM     45  C18 6PF d   1      -3.697 -36.034  20.222  0.00  0.00     0.042 C 
ATOM     46  H14 6PF d   1      -2.357 -34.790  21.347  0.00  0.00     0.079 H 
ATOM     47  H15 6PF d   1      -3.687 -33.908  20.523  0.00  0.00     0.079 H 
ATOM     48  O5  6PF d   1      -3.432 -37.258  20.931  0.00  0.00    -0.388 OA
ATOM     49  H16 6PF d   1      -3.054 -35.992  19.331  0.00  0.00     0.076 H 
ATOM     50  H17 6PF d   1      -4.753 -36.022  19.913  0.00  0.00     0.076 H 
ATOM     51  C17 6PF d   1      -4.150 -37.312  22.184  0.00  0.00     0.042 C 
ATOM     52  C16 6PF d   1      -3.875 -36.100  23.047  0.00  0.00     0.103 C 
ATOM     53  H11 6PF d   1      -3.842 -38.215  22.731  0.00  0.00     0.076 H 
ATOM     54  H12 6PF d   1      -5.229 -37.361  21.974  0.00  0.00     0.076 H 
ATOM     55  H18 6PF d   1      -4.477 -36.157  23.966  0.00  0.00     0.079 H 
ATOM     56  H19 6PF d   1      -2.807 -36.069  23.310  0.00  0.00     0.079 H 
ATOM     57  H2  6PF d   1      -5.196 -34.981  22.026  0.00  0.00     0.280 HD
ENDBRANCH  40  43
ENDBRANCH  37  40
ENDBRANCH   4  36
TORSDOF 9
