REMARK WARNING: 32 MAX_TORS EXCEEDED!!!
REMARK  53 active torsions:
REMARK  status: ('A' for Active; 'I' for Inactive)
REMARK       I    between atoms: N2_1  and  C22_7 
REMARK    1  A    between atoms: C23_8  and  N2_1 
REMARK    2  A    between atoms: C2_2  and  S1_64 
REMARK    3  A    between atoms: N3_4  and  C46_57 
REMARK    4  A    between atoms: C22_7  and  C21_21 
REMARK    5  A    between atoms: C24_9  and  C23_8 
REMARK    6  A    between atoms: C25_10  and  C24_9 
REMARK    7  A    between atoms: O8_11  and  C25_10 
REMARK    8  A    between atoms: C26_12  and  O8_11 
REMARK    9  A    between atoms: C27_13  and  C26_12 
REMARK   10  A    between atoms: O9_14  and  C27_13 
REMARK   11  A    between atoms: C28_15  and  O9_14 
REMARK   12  A    between atoms: C29_16  and  C28_15 
REMARK   13  A    between atoms: O10_17  and  C29_16 
REMARK   14  A    between atoms: C30_18  and  O10_17 
REMARK   15  A    between atoms: C31_19  and  C30_18 
REMARK   16  A    between atoms: C32_20  and  C31_19 
REMARK   17  A    between atoms: N4_125  and  C32_20 
REMARK   18  A    between atoms: C21_21  and  C20_22 
REMARK   19  A    between atoms: C20_22  and  C19_23 
REMARK   20  A    between atoms: C19_23  and  C18_24 
REMARK   21  A    between atoms: C18_24  and  N1_25 
REMARK   22  A    between atoms: C39_30  and  S4_31 
REMARK   23  A    between atoms: C37_36  and  S3_37 
REMARK   24  A    between atoms: C43_44  and  C44_45 
REMARK   25  A    between atoms: C43_44  and  C45_46 
REMARK   26  A    between atoms: C17_47  and  C16_48 
REMARK   27  A    between atoms: C16_48  and  C15_49 
REMARK   28  A    between atoms: C15_49  and  C14_50 
REMARK   29  A    between atoms: C14_50  and  C13_51 
REMARK   30  A    between atoms: C13_51  and  C12_52 
REMARK   31  A    between atoms: C12_52  and  C11_53 
REMARK   32  A    between atoms: C8_54  and  C10_55 
REMARK   33  A    between atoms: C8_54  and  C9_56 
REMARK   34  A    between atoms: C46_57  and  C47_58 
REMARK   35  A    between atoms: C4_68  and  S2_70 
REMARK   36  A    between atoms: C25_77  and  C17_78 
REMARK       I    between atoms: N2_107  and  C25_77 
REMARK   37  A    between atoms: C17_78  and  C16_79 
REMARK   38  A    between atoms: C17_78  and  C18_96 
REMARK   39  A    between atoms: C16_79  and  C15_88 
REMARK   40  A    between atoms: C13_81  and  C12_82 
REMARK   41  A    between atoms: C7_85  and  C6_95 
REMARK   42  A    between atoms: C18_96  and  P1_97 
REMARK   43  A    between atoms: P1_97  and  C19_100 
REMARK   44  A    between atoms: C26_108  and  N2_107 
REMARK   45  A    between atoms: C30_109  and  C26_108 
REMARK   46  A    between atoms: C26_108  and  C27_111 
REMARK       I    between atoms: N3_116  and  C30_109 
REMARK   47  A    between atoms: C27_111  and  C28_112 
REMARK   48  A    between atoms: C28_112  and  C29_113 
REMARK   49  A    between atoms: C31_117  and  N3_116 
REMARK   50  A    between atoms: C35_118  and  C31_117 
REMARK   51  A    between atoms: C31_117  and  C32_120 
REMARK       I    between atoms: C35_118  and  N4_125 
REMARK   52  A    between atoms: C32_120  and  C33_121 
REMARK   53  A    between atoms: C33_121  and  C34_122 
ROOT
ATOM      1  C25 6PJ d   1      10.320  -1.587  24.482  0.00  0.00     0.021 C 
ATOM      2  H6  6PJ d   1      10.201  -1.162  25.490  0.00  0.00     0.074 H 
ATOM      3  H7  6PJ d   1      11.273  -2.134  24.424  0.00  0.00     0.074 H 
ENDROOT
BRANCH   1   4
ATOM      4  C24 6PJ d   1      10.328  -0.454  23.457  0.00  0.00    -0.030 C 
ATOM      5  H4  6PJ d   1      10.082  -0.871  22.469  0.00  0.00     0.038 H 
ATOM      6  H5  6PJ d   1       9.565   0.285  23.743  0.00  0.00     0.038 H 
BRANCH   4   7
ATOM      7  C23 6PJ d   1      11.683   0.252  23.367  0.00  0.00    -0.003 C 
ATOM      8  H2  6PJ d   1      11.945   0.597  24.378  0.00  0.00     0.064 H 
ATOM      9  H3  6PJ d   1      12.422  -0.490  23.030  0.00  0.00     0.064 H 
BRANCH   7  10
ATOM     10  N2  6PJ d   1      11.777   1.421  22.457  0.00  0.00    -0.361 N 
ATOM     11  C22 6PJ d   1      12.177   1.276  21.166  0.00  0.00     0.217 C 
ATOM     12  O7  6PJ d   1      13.133   1.911  20.738  0.00  0.00    -0.274 OA
ATOM     13  H1  6PJ d   1      11.542   2.331  22.799  0.00  0.00     0.162 HD
BRANCH  11  14
ATOM     14  C21 6PJ d   1      11.573   0.149  20.312  0.00  0.00     0.009 C 
ATOM     15  H22 6PJ d   1      10.601   0.492  19.927  0.00  0.00     0.047 H 
ATOM     16  H23 6PJ d   1      11.422  -0.729  20.957  0.00  0.00     0.047 H 
BRANCH  14  17
ATOM     17  C20 6PJ d   1      12.438  -0.275  19.121  0.00  0.00    -0.056 C 
ATOM     18  H24 6PJ d   1      13.498  -0.111  19.366  0.00  0.00     0.033 H 
ATOM     19  H25 6PJ d   1      12.167   0.330  18.243  0.00  0.00     0.033 H 
BRANCH  17  20
ATOM     20  C19 6PJ d   1      12.220  -1.748  18.802  0.00  0.00    -0.049 C 
ATOM     21  H26 6PJ d   1      12.653  -1.979  17.817  0.00  0.00     0.035 H 
ATOM     22  H27 6PJ d   1      11.142  -1.966  18.789  0.00  0.00     0.035 H 
BRANCH  20  23
ATOM     23  C18 6PJ d   1      12.898  -2.596  19.868  0.00  0.00    -0.000 C 
ATOM     24  H28 6PJ d   1      12.384  -2.445  20.829  0.00  0.00     0.064 H 
ATOM     25  H29 6PJ d   1      13.949  -2.284  19.961  0.00  0.00     0.064 H 
BRANCH  23  26
ATOM     26  N1  6PJ d   1      12.849  -4.014  19.517  0.00  0.00    -0.352 N 
ATOM     27  C33 6PJ d   1      13.867  -4.668  18.930  0.00  0.00     0.042 A 
ATOM     28  C42 6PJ d   1      13.504  -6.013  18.760  0.00  0.00    -0.006 A 
ATOM     29  C34 6PJ d   1      15.115  -4.213  18.516  0.00  0.00    -0.056 A 
ATOM     30  C41 6PJ d   1      14.414  -6.914  18.162  0.00  0.00    -0.013 A 
ATOM     31  C43 6PJ d   1      12.118  -6.302  19.278  0.00  0.00     0.022 A 
ATOM     32  C40 6PJ d   1      14.099  -8.267  17.969  0.00  0.00    -0.048 A 
ATOM     33  C36 6PJ d   1      15.680  -6.439  17.740  0.00  0.00    -0.001 A 
ATOM     34  C39 6PJ d   1      15.015  -9.127  17.368  0.00  0.00     0.083 A 
ATOM     35  H30 6PJ d   1      13.136  -8.646  18.290  0.00  0.00     0.087 H 
ATOM     36  C38 6PJ d   1      16.252  -8.648  16.961  0.00  0.00    -0.035 A 
ATOM     37  C37 6PJ d   1      16.604  -7.314  17.136  0.00  0.00     0.093 A 
ATOM     38  H31 6PJ d   1      16.958  -9.327  16.497  0.00  0.00     0.088 H 
ATOM     39  C35 6PJ d   1      16.008  -5.088  17.931  0.00  0.00    -0.069 A 
ATOM     40  H32 6PJ d   1      16.979  -4.725  17.614  0.00  0.00     0.085 H 
ATOM     41  C17 6PJ d   1      11.840  -4.896  19.739  0.00  0.00     0.005 A 
ATOM     42  H33 6PJ d   1      15.386  -3.172  18.653  0.00  0.00     0.087 H 
BRANCH  34  43
ATOM     43  S4  6PJ d   1      14.647 -10.668  17.139  0.00  0.00     0.137 S 
ATOM     44  O16 6PJ d   1      13.198 -10.751  16.373  0.00  0.00    -0.591 OA
ATOM     45  O15 6PJ d   1      14.593 -11.410  18.597  0.00  0.00    -0.591 OA
ATOM     46  O14 6PJ d   1      15.748 -11.425  16.183  0.00  0.00    -0.591 OA
ENDBRANCH  34  43
BRANCH  37  47
ATOM     47  S3  6PJ d   1      18.064  -6.869  16.616  0.00  0.00     0.138 S 
ATOM     48  O13 6PJ d   1      18.910  -8.116  15.967  0.00  0.00    -0.591 OA
ATOM     49  O12 6PJ d   1      17.903  -5.751  15.424  0.00  0.00    -0.591 OA
ATOM     50  O11 6PJ d   1      18.944  -6.270  17.859  0.00  0.00    -0.591 OA
ENDBRANCH  37  47
BRANCH  31  51
ATOM     51  C44 6PJ d   1      11.148  -6.734  18.172  0.00  0.00    -0.060 C 
ATOM     52  H34 6PJ d   1      11.381  -7.763  17.861  0.00  0.00     0.029 H 
ATOM     53  H35 6PJ d   1      11.251  -6.059  17.310  0.00  0.00     0.029 H 
ATOM     54  H36 6PJ d   1      10.116  -6.690  18.551  0.00  0.00     0.029 H 
ENDBRANCH  31  51
BRANCH  31  55
ATOM     55  C45 6PJ d   1      12.144  -7.256  20.487  0.00  0.00    -0.060 C 
ATOM     56  H37 6PJ d   1      12.859  -6.882  21.234  0.00  0.00     0.029 H 
ATOM     57  H38 6PJ d   1      12.451  -8.259  20.156  0.00  0.00     0.029 H 
ATOM     58  H39 6PJ d   1      11.140  -7.309  20.934  0.00  0.00     0.029 H 
ENDBRANCH  31  55
BRANCH  41  59
ATOM     59  C16 6PJ d   1      10.570  -4.435  20.387  0.00  0.00    -0.014 C 
ATOM     60  H40 6PJ d   1      10.202  -3.613  19.755  0.00  0.00     0.047 H 
ATOM     61  H41 6PJ d   1      10.870  -4.037  21.368  0.00  0.00     0.047 H 
BRANCH  59  62
ATOM     62  C15 6PJ d   1       9.404  -5.274  20.650  0.00  0.00    -0.098 C 
ATOM     63  H42 6PJ d   1       9.486  -6.354  20.540  0.00  0.00     0.077 H 
BRANCH  62  64
ATOM     64  C14 6PJ d   1       8.234  -4.737  21.025  0.00  0.00    -0.086 C 
ATOM     65  H43 6PJ d   1       8.064  -3.662  21.061  0.00  0.00     0.083 H 
BRANCH  64  66
ATOM     66  C13 6PJ d   1       7.217  -5.702  21.378  0.00  0.00    -0.081 C 
ATOM     67  H44 6PJ d   1       7.157  -6.715  20.984  0.00  0.00     0.083 H 
BRANCH  66  68
ATOM     68  C12 6PJ d   1       6.353  -5.168  22.265  0.00  0.00    -0.060 C 
ATOM     69  H45 6PJ d   1       6.529  -4.114  22.474  0.00  0.00     0.086 H 
BRANCH  68  70
ATOM     70  C11 6PJ d   1       5.205  -5.749  23.011  0.00  0.00     0.024 A 
ATOM     71  N3  6PJ d   1       4.121  -5.039  23.374  0.00  0.00    -0.349 N 
ATOM     72  C48 6PJ d   1       3.279  -5.883  24.033  0.00  0.00     0.043 A 
ATOM     73  C7  6PJ d   1       3.881  -7.160  24.130  0.00  0.00    -0.006 A 
ATOM     74  C49 6PJ d   1       2.005  -5.677  24.582  0.00  0.00    -0.056 A 
ATOM     75  C8  6PJ d   1       5.236  -7.179  23.482  0.00  0.00     0.025 A 
ATOM     76  C6  6PJ d   1       3.232  -8.245  24.773  0.00  0.00    -0.013 A 
ATOM     77  C1  6PJ d   1       1.938  -8.013  25.338  0.00  0.00    -0.001 A 
ATOM     78  C5  6PJ d   1       3.800  -9.545  24.878  0.00  0.00    -0.048 A 
ATOM     79  C2  6PJ d   1       1.250  -9.077  25.978  0.00  0.00     0.093 A 
ATOM     80  C50 6PJ d   1       1.341  -6.728  25.214  0.00  0.00    -0.069 A 
ATOM     81  C3  6PJ d   1       1.847 -10.346  26.071  0.00  0.00    -0.035 A 
ATOM     82  C4  6PJ d   1       3.110 -10.595  25.530  0.00  0.00     0.083 A 
ATOM     83  H59 6PJ d   1       1.317 -11.147  26.573  0.00  0.00     0.088 H 
ATOM     84  H58 6PJ d   1       0.349  -6.562  25.619  0.00  0.00     0.085 H 
ATOM     85  H60 6PJ d   1       4.778  -9.735  24.451  0.00  0.00     0.087 H 
ATOM     86  H57 6PJ d   1       1.537  -4.702  24.515  0.00  0.00     0.087 H 
BRANCH  71  87
ATOM     87  C46 6PJ d   1       3.876  -3.602  23.124  0.00  0.00    -0.003 C 
ATOM     88  H52 6PJ d   1       4.840  -3.072  23.109  0.00  0.00     0.064 H 
ATOM     89  H53 6PJ d   1       3.248  -3.200  23.933  0.00  0.00     0.064 H 
BRANCH  87  90
ATOM     90  C47 6PJ d   1       3.187  -3.388  21.826  0.00  0.00    -0.061 C 
ATOM     91  H54 6PJ d   1       3.021  -2.312  21.672  0.00  0.00     0.029 H 
ATOM     92  H55 6PJ d   1       2.219  -3.911  21.834  0.00  0.00     0.029 H 
ATOM     93  H56 6PJ d   1       3.811  -3.783  21.010  0.00  0.00     0.029 H 
ENDBRANCH  87  90
ENDBRANCH  71  87
BRANCH  75  94
ATOM     94  C10 6PJ d   1       6.365  -7.429  24.503  0.00  0.00    -0.060 C 
ATOM     95  H46 6PJ d   1       7.335  -7.434  23.983  0.00  0.00     0.029 H 
ATOM     96  H47 6PJ d   1       6.207  -8.401  24.994  0.00  0.00     0.029 H 
ATOM     97  H48 6PJ d   1       6.359  -6.630  25.259  0.00  0.00     0.029 H 
ENDBRANCH  75  94
BRANCH  75  98
ATOM     98  C9  6PJ d   1       5.218  -8.183  22.294  0.00  0.00    -0.060 C 
ATOM     99  H49 6PJ d   1       4.387  -7.935  21.617  0.00  0.00     0.029 H 
ATOM    100  H50 6PJ d   1       5.085  -9.205  22.679  0.00  0.00     0.029 H 
ATOM    101  H51 6PJ d   1       6.169  -8.119  21.745  0.00  0.00     0.029 H 
ENDBRANCH  75  98
BRANCH  79 102
ATOM    102  S1  6PJ d   1      -0.228  -8.857  26.648  0.00  0.00     0.138 S 
ATOM    103  O2  6PJ d   1      -1.226  -8.458  25.656  0.00  0.00    -0.591 OA
ATOM    104  O3  6PJ d   1      -0.013  -7.875  27.675  0.00  0.00    -0.591 OA
ATOM    105  O1  6PJ d   1      -0.701 -10.251  27.446  0.00  0.00    -0.591 OA
ENDBRANCH  79 102
BRANCH  82 106
ATOM    106  S2  6PJ d   1       3.787 -12.106  25.714  0.00  0.00     0.137 S 
ATOM    107  O4  6PJ d   1       4.884 -12.228  24.765  0.00  0.00    -0.591 OA
ATOM    108  O5  6PJ d   1       2.802 -13.134  25.588  0.00  0.00    -0.591 OA
ATOM    109  O6  6PJ d   1       4.270 -12.262  27.282  0.00  0.00    -0.591 OA
ENDBRANCH  82 106
ENDBRANCH  68  70
ENDBRANCH  66  68
ENDBRANCH  64  66
ENDBRANCH  62  64
ENDBRANCH  59  62
ENDBRANCH  41  59
ENDBRANCH  23  26
ENDBRANCH  20  23
ENDBRANCH  17  20
ENDBRANCH  14  17
ENDBRANCH  11  14
ENDBRANCH   7  10
ENDBRANCH   4   7
ENDBRANCH   1   4
BRANCH   1 110
ATOM    110  O8  6PJ d   1       9.236  -2.496  24.221  0.00  0.00    -0.389 OA
BRANCH 110 111
ATOM    111  C26 6PJ d   1       7.918  -1.945  24.398  0.00  0.00     0.039 C 
ATOM    112  H8  6PJ d   1       7.272  -2.295  23.579  0.00  0.00     0.077 H 
ATOM    113  H9  6PJ d   1       7.983  -0.847  24.370  0.00  0.00     0.077 H 
BRANCH 111 114
ATOM    114  C27 6PJ d   1       7.307  -2.371  25.727  0.00  0.00     0.039 C 
ATOM    115  H10 6PJ d   1       7.110  -3.453  25.724  0.00  0.00     0.077 H 
ATOM    116  H11 6PJ d   1       6.367  -1.827  25.904  0.00  0.00     0.077 H 
BRANCH 114 117
ATOM    117  O9  6PJ d   1       8.255  -2.049  26.732  0.00  0.00    -0.387 OA
BRANCH 117 118
ATOM    118  C28 6PJ d   1       7.787  -1.124  27.685  0.00  0.00     0.039 C 
ATOM    119  H12 6PJ d   1       7.013  -1.597  28.307  0.00  0.00     0.077 H 
ATOM    120  H13 6PJ d   1       7.361  -0.250  27.170  0.00  0.00     0.077 H 
BRANCH 118 121
ATOM    121  C29 6PJ d   1       8.939  -0.682  28.562  0.00  0.00     0.039 C 
ATOM    122  H14 6PJ d   1       8.629   0.187  29.161  0.00  0.00     0.077 H 
ATOM    123  H15 6PJ d   1       9.794  -0.405  27.928  0.00  0.00     0.077 H 
BRANCH 121 124
ATOM    124  O10 6PJ d   1       9.323  -1.753  29.440  0.00  0.00    -0.389 OA
BRANCH 124 125
ATOM    125  C30 6PJ d   1      10.712  -2.172  29.386  0.00  0.00     0.021 C 
ATOM    126  H16 6PJ d   1      11.260  -1.497  28.713  0.00  0.00     0.074 H 
ATOM    127  H17 6PJ d   1      10.758  -3.198  28.993  0.00  0.00     0.074 H 
BRANCH 125 128
ATOM    128  C31 6PJ d   1      11.374  -2.141  30.759  0.00  0.00    -0.030 C 
ATOM    129  H18 6PJ d   1      11.463  -1.091  31.075  0.00  0.00     0.038 H 
ATOM    130  H19 6PJ d   1      12.377  -2.583  30.667  0.00  0.00     0.038 H 
BRANCH 128 131
ATOM    131  C32 6PJ d   1      10.622  -2.895  31.832  0.00  0.00    -0.003 C 
ATOM    132  H20 6PJ d   1      10.121  -3.728  31.317  0.00  0.00     0.064 H 
ATOM    133  H21 6PJ d   1       9.867  -2.194  32.217  0.00  0.00     0.064 H 
BRANCH 131 134
ATOM    134  N4  6PJ d   1      11.188  -3.415  32.878  0.00  0.00    -0.359 N 
ATOM    135  C35 6PJ d   1      10.827  -4.573  33.400  0.00  0.00     0.240 C 
ATOM    136  O10 6PJ d   1       9.773  -5.108  33.004  0.00  0.00    -0.271 OA
ATOM    137  H91 6PJ d   1      11.936  -2.913  33.311  0.00  0.00     0.162 HD
BRANCH 135 138
ATOM    138  C31 6PJ d   1      11.727  -5.339  34.387  0.00  0.00     0.090 C 
ATOM    139  H86 6PJ d   1      12.459  -4.672  34.865  0.00  0.00     0.087 H 
BRANCH 138 140
ATOM    140  N3  6PJ d   1      10.730  -5.803  35.311  0.00  0.00    -0.346 N 
ATOM    141  C30 6PJ d   1      10.188  -5.023  36.236  0.00  0.00     0.241 C 
ATOM    142  O7  6PJ d   1      10.478  -3.884  36.400  0.00  0.00    -0.271 OA
ATOM    143  H85 6PJ d   1      10.432  -6.756  35.254  0.00  0.00     0.163 HD
BRANCH 141 144
ATOM    144  C26 6PJ d   1       9.104  -5.628  36.967  0.00  0.00     0.090 C 
ATOM    145  H80 6PJ d   1       9.290  -6.712  36.986  0.00  0.00     0.087 H 
BRANCH 144 146
ATOM    146  N2  6PJ d   1       8.844  -5.227  38.345  0.00  0.00    -0.347 N 
ATOM    147  C25 6PJ d   1       9.194  -5.999  39.359  0.00  0.00     0.223 C 
ATOM    148  O4  6PJ d   1       9.764  -7.036  39.197  0.00  0.00    -0.273 OA
ATOM    149  H79 6PJ d   1       8.393  -4.353  38.526  0.00  0.00     0.163 HD
BRANCH 147 150
ATOM    150  C17 6PJ d   1       8.751  -5.591  40.728  0.00  0.00     0.038 C 
ATOM    151  H61 6PJ d   1       8.330  -4.575  40.723  0.00  0.00     0.056 H 
BRANCH 150 152
ATOM    152  C16 6PJ d   1       9.898  -5.679  41.681  0.00  0.00    -0.006 C 
ATOM    153  H62 6PJ d   1      10.408  -6.639  41.513  0.00  0.00     0.044 H 
ATOM    154  H63 6PJ d   1       9.494  -5.652  42.704  0.00  0.00     0.044 H 
BRANCH 152 155
ATOM    155  C15 6PJ d   1      10.915  -4.584  41.554  0.00  0.00     0.082 A 
ATOM    156  O1  6PJ d   1      12.216  -4.729  41.878  0.00  0.00    -0.217 OA
ATOM    157  N1  6PJ d   1      12.942  -3.612  41.756  0.00  0.00    -0.128 NA
ATOM    158  C13 6PJ d   1      12.096  -2.689  41.331  0.00  0.00     0.097 A 
ATOM    159  C14 6PJ d   1      10.785  -3.242  41.230  0.00  0.00    -0.021 A 
ATOM    160  H64 6PJ d   1       9.871  -2.718  40.955  0.00  0.00     0.091 H 
BRANCH 158 161
ATOM    161  C12 6PJ d   1      12.552  -1.300  41.132  0.00  0.00    -0.005 A 
ATOM    162  C11 6PJ d   1      11.707  -0.330  40.742  0.00  0.00    -0.070 A 
ATOM    163  C10 6PJ d   1      12.139   0.974  40.603  0.00  0.00    -0.071 A 
ATOM    164  H65 6PJ d   1      10.672  -0.575  40.534  0.00  0.00     0.084 H 
ATOM    165  C7  6PJ d   1      13.466   1.304  40.859  0.00  0.00    -0.026 A 
ATOM    166  H66 6PJ d   1      11.441   1.744  40.293  0.00  0.00     0.084 H 
ATOM    167  C8  6PJ d   1      14.376   0.315  41.233  0.00  0.00    -0.071 A 
ATOM    168  C9  6PJ d   1      13.941  -0.994  41.400  0.00  0.00    -0.070 A 
ATOM    169  H67 6PJ d   1      15.418   0.567  41.393  0.00  0.00     0.084 H 
ATOM    170  H68 6PJ d   1      14.627  -1.769  41.724  0.00  0.00     0.084 H 
BRANCH 165 171
ATOM    171  C6  6PJ d   1      13.898   2.694  40.636  0.00  0.00    -0.024 A 
ATOM    172  C2  6PJ d   1      15.281   2.971  40.481  0.00  0.00    -0.051 A 
ATOM    173  C1  NON d   1      15.679   4.270  40.261  0.00  0.00     0.034 A 
ATOM    174  H69 6PJ d   1      16.012   2.172  40.535  0.00  0.00     0.087 H 
ATOM    175 CL1  NON d   1      17.422   4.564  40.058  0.00  0.00    -0.084 Cl
ATOM    176  C3  NON d   1      14.769   5.286  40.204  0.00  0.00    -0.062 A 
ATOM    177  C4  NON d   1      13.433   5.020  40.352  0.00  0.00    -0.081 A 
ATOM    178  H70 NON d   1      15.104   6.304  40.041  0.00  0.00     0.086 H 
ATOM    179  C5  6PJ d   1      12.992   3.735  40.533  0.00  0.00    -0.072 A 
ATOM    180  H71 NON d   1      12.718   5.834  40.326  0.00  0.00     0.083 H 
ATOM    181  H72 6PJ d   1      11.929   3.533  40.596  0.00  0.00     0.084 H 
ENDBRANCH 165 171
ENDBRANCH 158 161
ENDBRANCH 152 155
ENDBRANCH 150 152
BRANCH 150 182
ATOM    182  C18 6PJ d   1       7.713  -6.620  41.136  0.00  0.00     0.023 C 
ATOM    183  H73 6PJ d   1       8.223  -7.569  41.358  0.00  0.00     0.050 H 
ATOM    184  H74 6PJ d   1       7.013  -6.767  40.300  0.00  0.00     0.050 H 
BRANCH 182 185
ATOM    185  P1  6PJ d   1       6.779  -6.109  42.591  0.00  0.00     0.141 P 
ATOM    186  O2  6PJ d   1       7.567  -6.312  43.957  0.00  0.00    -0.664 OA
ATOM    187  O3  6PJ d   1       6.368  -4.704  42.403  0.00  0.00    -0.664 OA
BRANCH 185 188
ATOM    188  C19 6PJ d   1       5.289  -7.078  42.615  0.00  0.00     0.030 A 
ATOM    189  C20 6PJ d   1       4.107  -6.479  42.947  0.00  0.00    -0.066 A 
ATOM    190  C21 6PJ d   1       2.916  -7.208  42.989  0.00  0.00    -0.065 A 
ATOM    191  H75 6PJ d   1       4.093  -5.421  43.182  0.00  0.00     0.085 H 
ATOM    192  C22 6PJ d   1       2.920  -8.590  42.727  0.00  0.00     0.011 A 
ATOM    193  H76 6PJ d   1       1.984  -6.706  43.225  0.00  0.00     0.085 H 
ATOM    194 BR1  6PJ d   1       1.279  -9.580  42.857  0.00  0.00    -0.051 Br
ATOM    195  C23 6PJ d   1       4.114  -9.236  42.412  0.00  0.00    -0.065 A 
ATOM    196  C24 6PJ d   1       5.335  -8.464  42.337  0.00  0.00    -0.066 A 
ATOM    197  H77 6PJ d   1       4.128 -10.304  42.225  0.00  0.00     0.085 H 
ATOM    198  H78 6PJ d   1       6.272  -8.941  42.072  0.00  0.00     0.085 H 
ENDBRANCH 185 188
ENDBRANCH 182 185
ENDBRANCH 150 182
ENDBRANCH 147 150
ENDBRANCH 144 146
BRANCH 144 199
ATOM    199  C27 6PJ d   1       7.836  -5.333  36.123  0.00  0.00    -0.029 C 
ATOM    200  H81 6PJ d   1       7.900  -5.887  35.175  0.00  0.00     0.037 H 
ATOM    201  H82 6PJ d   1       7.787  -4.254  35.915  0.00  0.00     0.037 H 
BRANCH 199 202
ATOM    202  C28 6PJ d   1       6.574  -5.753  36.857  0.00  0.00     0.018 C 
ATOM    203  H83 6PJ d   1       6.672  -5.456  37.912  0.00  0.00     0.049 H 
ATOM    204  H84 6PJ d   1       6.483  -6.847  36.791  0.00  0.00     0.049 H 
BRANCH 202 205
ATOM    205  C29 6PJ d   1       5.331  -5.147  36.314  0.00  0.00     0.172 C 
ATOM    206  O5  6PJ d   1       4.698  -5.822  35.489  0.00  0.00    -0.648 OA
ATOM    207  O6  6PJ d   1       4.944  -3.937  36.778  0.00  0.00    -0.648 OA
ENDBRANCH 202 205
ENDBRANCH 199 202
ENDBRANCH 144 199
ENDBRANCH 141 144
ENDBRANCH 138 140
BRANCH 138 208
ATOM    208  C32 6PJ d   1      12.442  -6.502  33.771  0.00  0.00    -0.029 C 
ATOM    209  H87 6PJ d   1      11.747  -7.350  33.680  0.00  0.00     0.037 H 
ATOM    210  H88 6PJ d   1      13.289  -6.789  34.412  0.00  0.00     0.037 H 
BRANCH 208 211
ATOM    211  C33 6PJ d   1      12.964  -6.125  32.382  0.00  0.00     0.018 C 
ATOM    212  H89 6PJ d   1      13.360  -5.099  32.409  0.00  0.00     0.049 H 
ATOM    213  H90 6PJ d   1      12.139  -6.181  31.656  0.00  0.00     0.049 H 
BRANCH 211 214
ATOM    214  C34 6PJ d   1      14.069  -7.079  31.961  0.00  0.00     0.172 C 
ATOM    215  O8  6PJ d   1      14.519  -6.994  30.828  0.00  0.00    -0.648 OA
ATOM    216  O9  6PJ d   1      14.579  -7.992  32.776  0.00  0.00    -0.648 OA
ENDBRANCH 211 214
ENDBRANCH 208 211
ENDBRANCH 138 208
ENDBRANCH 135 138
ENDBRANCH 131 134
ENDBRANCH 128 131
ENDBRANCH 125 128
ENDBRANCH 124 125
ENDBRANCH 121 124
ENDBRANCH 118 121
ENDBRANCH 117 118
ENDBRANCH 114 117
ENDBRANCH 111 114
ENDBRANCH 110 111
ENDBRANCH   1 110
TORSDOF 53
