REMARK  6 active torsions:
REMARK  status: ('A' for Active; 'I' for Inactive)
REMARK    1  A    between atoms: CAX_10  and  CAQ_11 
REMARK    2  A    between atoms: CAQ_11  and  NAU_12 
REMARK       I    between atoms: NAU_12  and  CAW_13 
REMARK    3  A    between atoms: CAW_13  and  CBA_15 
REMARK    4  A    between atoms: NBH_19  and  CAA_20 
REMARK    5  A    between atoms: NBG_24  and  CAR_25 
REMARK    6  A    between atoms: CAR_25  and  CAY_26 
ROOT
ATOM      1  CBA 6RD d   1      15.764   3.304  12.705  0.00  0.00     0.154 A 
ATOM      2  CAZ 6RD d   1      16.372   2.338  13.548  0.00  0.00     0.028 A 
ATOM      3  CAS 6RD d   1      16.174   1.979  14.981  0.00  0.00     0.112 C 
ATOM      4  NAT 6RD d   1      16.289   3.238  11.472  0.00  0.00    -0.167 NA
ATOM      5  NBH 6RD d   1      17.215   2.259  11.516  0.00  0.00    -0.277 N 
ATOM      6  CBB 6RD d   1      17.286   1.696  12.750  0.00  0.00     0.042 A 
ATOM      7  CAO 6RD d   1      18.188   0.601  13.201  0.00  0.00    -0.002 C 
ATOM      8  CAP 6RD d   1      17.675   0.054  14.513  0.00  0.00     0.089 C 
ATOM      9  NBG 6RD d   1      17.225   1.102  15.409  0.00  0.00    -0.063 N 
ATOM     10  H11 6RD d   1      15.204   1.474  15.101  0.00  0.00     0.083 H 
ATOM     11  H12 6RD d   1      16.189   2.893  15.592  0.00  0.00     0.083 H 
ATOM     12  H16 6RD d   1      19.206   0.994  13.338  0.00  0.00     0.044 H 
ATOM     13  H17 6RD d   1      18.202  -0.200  12.447  0.00  0.00     0.044 H 
ATOM     14  H18 6RD d   1      18.485  -0.507  15.003  0.00  0.00     0.076 H 
ATOM     15  H19 6RD d   1      16.832  -0.623  14.309  0.00  0.00     0.076 H 
ATOM     16  H20 6RD d   1      18.015   1.728  15.407  0.00  0.00     0.280 HD
ENDROOT
BRANCH   1  17
ATOM     17  CAW 6RD d   1      14.770   4.300  13.042  0.00  0.00     0.272 C 
ATOM     18  NAU 6RD d   1      14.451   5.167  12.054  0.00  0.00    -0.351 N 
ATOM     19  H10 6RD d   1      14.946   5.100  11.188  0.00  0.00     0.163 HD
ATOM     20  OAB 6RD d   1      14.170   4.123  14.114  0.00  0.00    -0.266 OA
BRANCH  18  21
ATOM     21  CAQ 6RD d   1      13.426   6.193  12.183  0.00  0.00     0.020 C 
ATOM     22  H8  6RD d   1      13.346   6.471  13.244  0.00  0.00     0.071 H 
ATOM     23  H9  6RD d   1      13.738   7.070  11.597  0.00  0.00     0.071 H 
BRANCH  21  24
ATOM     24  CAX 6RD d   1      12.053   5.755  11.697  0.00  0.00    -0.029 A 
ATOM     25  CAH 6RD d   1      11.819   4.416  11.409  0.00  0.00    -0.074 A 
ATOM     26  CAG 6RD d   1      10.560   4.012  10.917  0.00  0.00    -0.082 A 
ATOM     27  H1  6RD d   1      12.603   3.683  11.562  0.00  0.00     0.084 H 
ATOM     28  CAJ 6RD d   1       9.567   4.908  10.720  0.00  0.00    -0.072 A 
ATOM     29  H2  6RD d   1      10.386   2.966  10.693  0.00  0.00     0.083 H 
ATOM     30  CBC 6RD d   1       9.779   6.303  10.993  0.00  0.00    -0.025 A 
ATOM     31  H3  6RD d   1       8.604   4.572  10.353  0.00  0.00     0.084 H 
ATOM     32  CAI 6RD d   1       8.757   7.254  10.751  0.00  0.00    -0.072 A 
ATOM     33  CBE 6RD d   1      11.031   6.729  11.525  0.00  0.00    -0.018 A 
ATOM     34  CAC 6RD d   1       8.980   8.560  11.024  0.00  0.00    -0.082 A 
ATOM     35  H4  6RD d   1       7.801   6.937  10.349  0.00  0.00     0.084 H 
ATOM     36  CAE 6RD d   1      10.207   8.994  11.562  0.00  0.00    -0.082 A 
ATOM     37  H5  6RD d   1       8.200   9.286  10.825  0.00  0.00     0.083 H 
ATOM     38  CAL 6RD d   1      11.232   8.115  11.811  0.00  0.00    -0.072 A 
ATOM     39  H6  6RD d   1      10.345  10.046  11.785  0.00  0.00     0.083 H 
ATOM     40  H7  6RD d   1      12.175   8.465  12.216  0.00  0.00     0.084 H 
ENDBRANCH  21  24
ENDBRANCH  18  21
ENDBRANCH   1  17
BRANCH   5  41
ATOM     41  CAA 6RD d   1      18.020   1.918  10.341  0.00  0.00     0.003 C 
ATOM     42  H13 6RD d   1      18.708   1.098  10.594  0.00  0.00     0.059 H 
ATOM     43  H14 6RD d   1      18.599   2.798  10.025  0.00  0.00     0.059 H 
ATOM     44  H15 6RD d   1      17.358   1.601   9.522  0.00  0.00     0.059 H 
ENDBRANCH   5  41
BRANCH   9  45
ATOM     45  CAR 6RD d   1      17.170   0.672  16.806  0.00  0.00     0.109 C 
ATOM     46  H21 6RD d   1      16.984   1.548  17.444  0.00  0.00     0.083 H 
ATOM     47  H22 6RD d   1      18.133   0.217  17.080  0.00  0.00     0.083 H 
BRANCH  45  48
ATOM     48  CAY 6RD d   1      16.064  -0.342  17.023  0.00  0.00    -0.005 A 
ATOM     49  CBF 6RD d   1      16.107  -1.780  16.889  0.00  0.00    -0.000 A 
ATOM     50  CAM 6RD d   1      17.116  -2.686  16.541  0.00  0.00    -0.070 A 
ATOM     51  CBD 6RD d   1      14.854  -2.269  17.229  0.00  0.00     0.043 A 
ATOM     52  CAF 6RD d   1      16.793  -4.057  16.553  0.00  0.00    -0.082 A 
ATOM     53  H23 6RD d   1      18.109  -2.345  16.272  0.00  0.00     0.084 H 
ATOM     54  CAD 6RD d   1      15.539  -4.539  16.842  0.00  0.00    -0.081 A 
ATOM     55  H24 6RD d   1      17.576  -4.770  16.322  0.00  0.00     0.083 H 
ATOM     56  CAK 6RD d   1      14.553  -3.642  17.200  0.00  0.00    -0.056 A 
ATOM     57  H25 6RD d   1      15.329  -5.601  16.790  0.00  0.00     0.083 H 
ATOM     58  H26 6RD d   1      13.559  -3.992  17.456  0.00  0.00     0.086 H 
ATOM     59  NAV 6RD d   1      14.066  -1.184  17.552  0.00  0.00    -0.365 N 
ATOM     60  CAN 6RD d   1      14.827  -0.024  17.442  0.00  0.00    -0.014 A 
ATOM     61  H27 6RD d   1      13.075  -1.226  17.830  0.00  0.00     0.165 HD
ATOM     62  H28 6RD d   1      14.476   0.983  17.661  0.00  0.00     0.112 H 
ENDBRANCH  45  48
ENDBRANCH   9  45
TORSDOF 6
