REMARK  3 active torsions:
REMARK  status: ('A' for Active; 'I' for Inactive)
REMARK    1  A    between atoms: C7_4  and  C8_5 
REMARK    2  A    between atoms: C11_6  and  N12_12 
REMARK    3  A    between atoms: C2_7  and  C1_8 
ROOT
ATOM      1  C4  6RQ d   1      59.818  -5.895  57.117  0.00  0.00     0.079 A 
ATOM      2  C5  6RQ d   1      58.933  -6.467  58.028  0.00  0.00     0.103 A 
ATOM      3  C6  6RQ d   1      57.944  -7.354  57.632  0.00  0.00    -0.046 A 
ATOM      4  C7  6RQ d   1      57.850  -7.671  56.283  0.00  0.00    -0.054 A 
ATOM      5  C11 6RQ d   1      60.357  -5.115  59.066  0.00  0.00     0.699 A 
ATOM      6  C2  6RQ d   1      58.750  -7.095  55.343  0.00  0.00    -0.054 A 
ATOM      7  C3  6RQ d   1      59.726  -6.205  55.764  0.00  0.00    -0.048 A 
ATOM      8  N9  6RQ d   1      59.304  -5.947  59.255  0.00  0.00    -0.063 NA
ATOM      9  N10 6RQ d   1      60.692  -5.054  57.791  0.00  0.00    -0.188 N 
ATOM     10  H1  6RQ d   1      57.263  -7.788  58.355  0.00  0.00     0.088 H 
ATOM     11  H8  6RQ d   1      60.407  -5.757  55.050  0.00  0.00     0.087 H 
ATOM     12  H9  6RQ d   1      61.451  -4.494  57.378  0.00  0.00     0.184 HD
ENDROOT
BRANCH   4  13
ATOM     13  C8  6RQ d   1      56.784  -8.632  55.825  0.00  0.00    -0.051 C 
ATOM     14  H2  6RQ d   1      56.194  -8.965  56.691  0.00  0.00     0.033 H 
ATOM     15  H3  6RQ d   1      57.256  -9.503  55.346  0.00  0.00     0.033 H 
ATOM     16  H4  6RQ d   1      56.123  -8.130  55.103  0.00  0.00     0.033 H 
ENDBRANCH   4  13
BRANCH   6  17
ATOM     17  C1  6RQ d   1      58.647  -7.437  53.875  0.00  0.00    -0.051 C 
ATOM     18  H5  6RQ d   1      59.425  -6.895  53.317  0.00  0.00     0.033 H 
ATOM     19  H6  6RQ d   1      57.655  -7.145  53.499  0.00  0.00     0.033 H 
ATOM     20  H7  6RQ d   1      58.786  -8.520  53.740  0.00  0.00     0.033 H 
ENDBRANCH   6  17
BRANCH   5  21
ATOM     21  N12 6RQ d   1      60.996  -4.417  60.128  0.00  0.00    -0.233 N 
ATOM     22  H10 6RQ d   1      60.660  -4.530  61.095  0.00  0.00     0.174 HD
ATOM     23  H11 6RQ d   1      61.795  -3.798  59.930  0.00  0.00     0.174 HD
ENDBRANCH   5  21
TORSDOF 3
