REMARK  10 active torsions:
REMARK  status: ('A' for Active; 'I' for Inactive)
REMARK    1  A    between atoms: C3_3  and  O3_4 
REMARK    2  A    between atoms: C7_8  and  O7_9 
REMARK    3  A    between atoms: C10_12  and  C19_22 
REMARK    4  A    between atoms: C12_14  and  O12_15 
REMARK    5  A    between atoms: C13_16  and  C18_21 
REMARK    6  A    between atoms: C17_20  and  C20_23 
REMARK    7  A    between atoms: C20_23  and  C21_24 
REMARK    8  A    between atoms: C20_23  and  C22_25 
REMARK    9  A    between atoms: C22_25  and  C23_26 
REMARK   10  A    between atoms: C23_26  and  C24_28 
ROOT
ATOM      1  C1  CHD d   1      65.706   6.563  73.833  0.00  0.00    -0.055 C 
ATOM      2  C2  CHD d   1      67.162   6.352  73.463  0.00  0.00    -0.040 C 
ATOM      3  C3  CHD d   1      67.275   5.933  72.008  0.00  0.00     0.036 C 
ATOM      4  C4  CHD d   1      66.418   4.701  71.708  0.00  0.00    -0.037 C 
ATOM      5  C5  CHD d   1      64.967   4.825  72.204  0.00  0.00    -0.042 C 
ATOM      6  C6  CHD d   1      64.213   3.510  71.928  0.00  0.00    -0.037 C 
ATOM      7  C7  CHD d   1      64.334   2.406  72.991  0.00  0.00     0.040 C 
ATOM      8  C8  CHD d   1      64.287   2.920  74.435  0.00  0.00    -0.021 C 
ATOM      9  C9  CHD d   1      65.241   4.121  74.595  0.00  0.00    -0.038 C 
ATOM     10  C10 CHD d   1      64.851   5.301  73.664  0.00  0.00    -0.036 C 
ATOM     11  C11 CHD d   1      65.487   4.531  76.058  0.00  0.00    -0.036 C 
ATOM     12  C12 CHD d   1      65.687   3.388  77.059  0.00  0.00     0.043 C 
ATOM     13  C13 CHD d   1      64.622   2.298  76.915  0.00  0.00    -0.010 C 
ATOM     14  C14 CHD d   1      64.630   1.836  75.459  0.00  0.00    -0.038 C 
ATOM     15  C15 CHD d   1      63.764   0.587  75.449  0.00  0.00    -0.060 C 
ATOM     16  C16 CHD d   1      64.054  -0.047  76.809  0.00  0.00    -0.060 C 
ATOM     17  C17 CHD d   1      64.892   0.959  77.618  0.00  0.00    -0.041 C 
ATOM     18  H1  CHD d   1      65.293   7.354  73.190  0.00  0.00     0.034 H 
ATOM     19  H2  CHD d   1      65.655   6.882  74.885  0.00  0.00     0.034 H 
ATOM     20  H3  CHD d   1      67.590   5.566  74.102  0.00  0.00     0.036 H 
ATOM     21  H4  CHD d   1      67.716   7.290  73.615  0.00  0.00     0.036 H 
ATOM     22  H5  CHD d   1      66.946   6.761  71.363  0.00  0.00     0.082 H 
ATOM     23  H7  CHD d   1      66.879   3.829  72.196  0.00  0.00     0.037 H 
ATOM     24  H8  CHD d   1      66.401   4.546  70.619  0.00  0.00     0.037 H 
ATOM     25  H9  CHD d   1      64.487   5.603  71.591  0.00  0.00     0.041 H 
ATOM     26  H10 CHD d   1      64.592   3.102  70.980  0.00  0.00     0.037 H 
ATOM     27  H11 CHD d   1      63.146   3.754  71.822  0.00  0.00     0.037 H 
ATOM     28  H12 CHD d   1      63.484   1.720  72.861  0.00  0.00     0.083 H 
ATOM     29  H14 CHD d   1      63.261   3.262  74.638  0.00  0.00     0.045 H 
ATOM     30  H15 CHD d   1      66.217   3.770  74.229  0.00  0.00     0.042 H 
ATOM     31  H16 CHD d   1      64.620   5.120  76.391  0.00  0.00     0.037 H 
ATOM     32  H17 CHD d   1      66.389   5.160  76.083  0.00  0.00     0.037 H 
ATOM     33  H18 CHD d   1      65.594   3.805  78.073  0.00  0.00     0.084 H 
ATOM     34  H20 CHD d   1      65.656   1.523  75.216  0.00  0.00     0.042 H 
ATOM     35  H21 CHD d   1      64.053  -0.087  74.629  0.00  0.00     0.033 H 
ATOM     36  H22 CHD d   1      62.699   0.846  75.353  0.00  0.00     0.033 H 
ATOM     37  H23 CHD d   1      64.617  -0.983  76.675  0.00  0.00     0.033 H 
ATOM     38  H24 CHD d   1      63.111  -0.258  77.334  0.00  0.00     0.033 H 
ATOM     39  H25 CHD d   1      65.957   0.728  77.469  0.00  0.00     0.042 H 
ENDROOT
BRANCH  17  40
ATOM     40  C20 CHD d   1      64.652   0.824  79.139  0.00  0.00    -0.053 C 
ATOM     41  H32 CHD d   1      63.585   1.018  79.326  0.00  0.00     0.040 H 
BRANCH  40  42
ATOM     42  C21 CHD d   1      65.432   1.852  79.973  0.00  0.00    -0.072 C 
ATOM     43  H33 CHD d   1      65.215   1.699  81.040  0.00  0.00     0.028 H 
ATOM     44  H34 CHD d   1      65.129   2.868  79.680  0.00  0.00     0.028 H 
ATOM     45  H35 CHD d   1      66.510   1.725  79.796  0.00  0.00     0.028 H 
ENDBRANCH  40  42
BRANCH  40  46
ATOM     46  C22 CHD d   1      64.932  -0.639  79.532  0.00  0.00    -0.053 C 
ATOM     47  H36 CHD d   1      65.697  -1.024  78.841  0.00  0.00     0.034 H 
ATOM     48  H37 CHD d   1      63.996  -1.201  79.393  0.00  0.00     0.034 H 
BRANCH  46  49
ATOM     49  C23 CHD d   1      65.421  -0.913  80.950  0.00  0.00     0.016 C 
ATOM     50  H38 CHD d   1      64.704  -0.512  81.681  0.00  0.00     0.049 H 
ATOM     51  H39 CHD d   1      66.405  -0.447  81.108  0.00  0.00     0.049 H 
BRANCH  49  52
ATOM     52  C24 CHD d   1      65.528  -2.408  81.096  0.00  0.00     0.172 C 
ATOM     53  O25 CHD d   1      64.498  -3.054  81.396  0.00  0.00    -0.648 OA
ATOM     54  O26 CHD d   1      66.642  -2.933  80.890  0.00  0.00    -0.648 OA
ENDBRANCH  49  52
ENDBRANCH  46  49
ENDBRANCH  40  46
ENDBRANCH  17  40
BRANCH  13  55
ATOM     55  C18 CHD d   1      63.260   2.865  77.368  0.00  0.00    -0.066 C 
ATOM     56  H26 CHD d   1      63.075   3.823  76.860  0.00  0.00     0.028 H 
ATOM     57  H27 CHD d   1      63.272   3.023  78.457  0.00  0.00     0.028 H 
ATOM     58  H28 CHD d   1      62.462   2.153  77.110  0.00  0.00     0.028 H 
ENDBRANCH  13  55
BRANCH  12  59
ATOM     59  O12 CHD d   1      67.020   2.863  76.915  0.00  0.00    -0.395 OA
ATOM     60  H19 CHD d   1      67.651   3.552  77.086  0.00  0.00     0.210 HD
ENDBRANCH  12  59
BRANCH   7  61
ATOM     61  O7  CHD d   1      65.543   1.678  72.747  0.00  0.00    -0.395 OA
ATOM     62  H13 CHD d   1      65.634   0.990  73.396  0.00  0.00     0.210 HD
ENDBRANCH   7  61
BRANCH  10  63
ATOM     63  C19 CHD d   1      63.422   5.808  73.911  0.00  0.00    -0.068 C 
ATOM     64  H29 CHD d   1      63.205   6.640  73.225  0.00  0.00     0.028 H 
ATOM     65  H30 CHD d   1      63.331   6.156  74.950  0.00  0.00     0.028 H 
ATOM     66  H31 CHD d   1      62.707   4.991  73.734  0.00  0.00     0.028 H 
ENDBRANCH  10  63
BRANCH   3  67
ATOM     67  O3  CHD d   1      68.646   5.639  71.753  0.00  0.00    -0.396 OA
ATOM     68  H6  CHD d   1      68.930   4.935  72.325  0.00  0.00     0.210 HD
ENDBRANCH   3  67
TORSDOF 10
