REMARK  3 active torsions:
REMARK  status: ('A' for Active; 'I' for Inactive)
REMARK    1  A    between atoms: C02_6  and  C01_5 
REMARK    2  A    between atoms: N04_8  and  C03_7 
REMARK    3  A    between atoms: N04_8  and  C05_9 
ROOT
ATOM      1  O10 6RR d   1     -30.700  -7.852  -1.039  0.00  0.00    -0.228 OA
ATOM      2  C12 6RR d   1     -28.955  -9.710  -1.273  0.00  0.00     0.047 C 
ATOM      3  C05 6RR d   1     -28.953  -9.919   0.230  0.00  0.00     0.022 C 
ATOM      4  C06 6RR d   1     -30.047 -11.025   0.709  0.00  0.00    -0.044 C 
ATOM      5  C07 6RR d   1     -31.375 -11.212  -0.221  0.00  0.00    -0.051 C 
ATOM      6  C08 6RR d   1     -31.706 -10.149  -1.278  0.00  0.00     0.029 C 
ATOM      7  S09 6RR d   1     -30.467  -9.099  -1.722  0.00  0.00     0.146 S 
ATOM      8  O11 6RR d   1     -30.471  -8.899  -3.137  0.00  0.00    -0.228 OA
ATOM      9  H3  6RR d   1     -28.775 -10.668  -1.782  0.00  0.00     0.059 H 
ATOM     10  H4  6RR d   1     -28.167  -8.994  -1.550  0.00  0.00     0.059 H 
ATOM     11  H9  6RR d   1     -29.229  -8.963   0.698  0.00  0.00     0.073 H 
ATOM     12  H10 6RR d   1     -30.386 -10.741   1.716  0.00  0.00     0.036 H 
ATOM     13  H11 6RR d   1     -29.536 -11.998   0.755  0.00  0.00     0.036 H 
ATOM     14  H12 6RR d   1     -32.238 -11.268   0.459  0.00  0.00     0.034 H 
ATOM     15  H13 6RR d   1     -31.263 -12.169  -0.752  0.00  0.00     0.034 H 
ATOM     16  H14 6RR d   1     -32.533  -9.539  -0.887  0.00  0.00     0.056 H 
ATOM     17  H15 6RR d   1     -32.036 -10.675  -2.186  0.00  0.00     0.056 H 
ENDROOT
BRANCH   3  18
ATOM     18  N04 6RR d   1     -27.608 -10.268   0.686  0.00  0.00    -0.383 N 
ATOM     19  H8  6RR d   1     -27.375 -11.225   0.989  0.00  0.00     0.160 HD
BRANCH  18  20
ATOM     20  C03 6RR d   1     -26.598  -9.189   0.694  0.00  0.00     0.052 A 
ATOM     21  C02 6RR d   1     -25.195  -9.496   0.715  0.00  0.00     0.056 A 
ATOM     22  N16 6RR d   1     -24.282  -8.560   0.712  0.00  0.00    -0.264 NA
ATOM     23  C15 6RR d   1     -24.599  -7.251   0.692  0.00  0.00     0.003 A 
ATOM     24  C14 6RR d   1     -25.966  -6.835   0.671  0.00  0.00    -0.064 A 
ATOM     25  H1  6RR d   1     -23.811  -6.507   0.692  0.00  0.00     0.114 H 
ATOM     26  C13 6RR d   1     -26.978  -7.811   0.670  0.00  0.00    -0.054 A 
ATOM     27  H2  6RR d   1     -26.219  -5.781   0.656  0.00  0.00     0.085 H 
ATOM     28  H16 6RR d   1     -28.023  -7.525   0.651  0.00  0.00     0.087 H 
BRANCH  21  29
ATOM     29  C01 6RR d   1     -24.759 -11.009   0.748  0.00  0.00    -0.033 C 
ATOM     30  H5  6RR d   1     -23.661 -11.074   0.761  0.00  0.00     0.035 H 
ATOM     31  H6  6RR d   1     -25.146 -11.522  -0.145  0.00  0.00     0.035 H 
ATOM     32  H7  6RR d   1     -25.166 -11.488   1.651  0.00  0.00     0.035 H 
ENDBRANCH  21  29
ENDBRANCH  18  20
ENDBRANCH   3  18
TORSDOF 3
