REMARK  5 active torsions:
REMARK  status: ('A' for Active; 'I' for Inactive)
REMARK    1  A    between atoms: C13_4  and  S14_14 
REMARK    2  A    between atoms: C02_6  and  C01_5 
REMARK    3  A    between atoms: N08_12  and  C03_7 
REMARK    4  A    between atoms: N08_12  and  C09_13 
REMARK    5  A    between atoms: S14_14  and  C17_17 
ROOT
ATOM      1  C10 6RW d   1     -30.430 -10.235   1.603  0.00  0.00    -0.084 C 
ATOM      2  C11 6RW d   1     -31.504 -11.069   1.599  0.00  0.00    -0.103 C 
ATOM      3  C12 6RW d   1     -31.326 -11.959   0.286  0.00  0.00    -0.032 C 
ATOM      4  C13 6RW d   1     -30.727 -10.846  -0.745  0.00  0.00     0.070 C 
ATOM      5  C09 6RW d   1     -29.813 -10.137   0.018  0.00  0.00     0.043 C 
ATOM      6  H1  6RW d   1     -30.031  -9.716   2.474  0.00  0.00     0.079 H 
ATOM      7  H2  6RW d   1     -32.309 -11.119   2.331  0.00  0.00     0.076 H 
ATOM      8  H3  6RW d   1     -32.287 -12.363  -0.065  0.00  0.00     0.040 H 
ATOM      9  H4  6RW d   1     -30.619 -12.786   0.448  0.00  0.00     0.040 H 
ATOM     10  H5  6RW d   1     -31.536 -10.135  -0.970  0.00  0.00     0.068 H 
ATOM     11  H13 6RW d   1     -29.845  -9.092  -0.325  0.00  0.00     0.080 H 
ENDROOT
BRANCH   5  12
ATOM     12  N08 6RW d   1     -28.458 -10.505   0.030  0.00  0.00    -0.379 N 
ATOM     13  H12 6RW d   1     -28.155 -11.473  -0.148  0.00  0.00     0.160 HD
BRANCH  12  14
ATOM     14  C03 6RW d   1     -27.519  -9.453   0.305  0.00  0.00     0.053 A 
ATOM     15  C02 6RW d   1     -26.199  -9.685   0.705  0.00  0.00     0.056 A 
ATOM     16  N07 6RW d   1     -25.370  -8.656   0.951  0.00  0.00    -0.264 NA
ATOM     17  C06 6RW d   1     -25.783  -7.381   0.824  0.00  0.00     0.003 A 
ATOM     18  C05 6RW d   1     -27.081  -7.101   0.440  0.00  0.00    -0.064 A 
ATOM     19  H11 6RW d   1     -25.093  -6.569   1.024  0.00  0.00     0.114 H 
ATOM     20  C04 6RW d   1     -27.963  -8.137   0.172  0.00  0.00    -0.054 A 
ATOM     21  H10 6RW d   1     -27.409  -6.072   0.348  0.00  0.00     0.085 H 
ATOM     22  H9  6RW d   1     -28.981  -7.928  -0.136  0.00  0.00     0.087 H 
BRANCH  15  23
ATOM     23  C01 6RW d   1     -25.649 -11.084   0.873  0.00  0.00    -0.033 C 
ATOM     24  H6  6RW d   1     -24.598 -11.029   1.191  0.00  0.00     0.035 H 
ATOM     25  H7  6RW d   1     -25.714 -11.621  -0.085  0.00  0.00     0.035 H 
ATOM     26  H8  6RW d   1     -26.235 -11.619   1.635  0.00  0.00     0.035 H 
ENDBRANCH  15  23
ENDBRANCH  12  14
ENDBRANCH   5  12
BRANCH   4  27
ATOM     27  S14 6RW d   1     -30.289 -11.565  -2.404  0.00  0.00     0.147 S 
ATOM     28  O15 6RW d   1     -30.731 -10.711  -3.473  0.00  0.00    -0.228 OA
ATOM     29  O16 6RW d   1     -31.091 -12.733  -2.649  0.00  0.00    -0.228 OA
BRANCH  27  30
ATOM     30  C17 6RW d   1     -28.574 -11.940  -2.600  0.00  0.00     0.016 C 
ATOM     31  H14 6RW d   1     -28.402 -12.358  -3.603  0.00  0.00     0.048 H 
ATOM     32  H15 6RW d   1     -28.270 -12.674  -1.839  0.00  0.00     0.048 H 
ATOM     33  H16 6RW d   1     -27.982 -11.021  -2.480  0.00  0.00     0.048 H 
ENDBRANCH  27  30
ENDBRANCH   4  27
TORSDOF 5
