REMARK  5 active torsions:
REMARK  status: ('A' for Active; 'I' for Inactive)
REMARK    1  A    between atoms: C01_1  and  C02_2 
REMARK    2  A    between atoms: C02_2  and  N03_3 
REMARK    3  A    between atoms: C02_2  and  C11_11 
REMARK    4  A    between atoms: N03_3  and  C04_4 
REMARK    5  A    between atoms: C05_5  and  C06_6 
ROOT
ATOM      1  C02 6RY d   1     -28.698 -10.202  -0.883  0.00  0.00     0.032 C 
ATOM      2  H4  6RY d   1     -28.520  -9.405  -1.621  0.00  0.00     0.079 H 
ENDROOT
BRANCH   1   3
ATOM      3  C01 6RY d   1     -29.076 -11.459  -1.609  0.00  0.00    -0.053 C 
ATOM      4  H1  6RY d   1     -29.986 -11.281  -2.201  0.00  0.00     0.030 H 
ATOM      5  H2  6RY d   1     -29.264 -12.261  -0.880  0.00  0.00     0.030 H 
ATOM      6  H3  6RY d   1     -28.255 -11.757  -2.278  0.00  0.00     0.030 H 
ENDBRANCH   1   3
BRANCH   1   7
ATOM      7  N03 6RY d   1     -27.500 -10.404  -0.091  0.00  0.00    -0.380 N 
ATOM      8  H5  6RY d   1     -27.236 -11.357   0.196  0.00  0.00     0.160 HD
BRANCH   7   9
ATOM      9  C04 6RY d   1     -26.682  -9.301   0.296  0.00  0.00     0.053 A 
ATOM     10  C05 6RY d   1     -25.354  -9.479   0.784  0.00  0.00     0.056 A 
ATOM     11  N07 6RY d   1     -24.602  -8.483   1.139  0.00  0.00    -0.264 NA
ATOM     12  C08 6RY d   1     -25.057  -7.204   1.047  0.00  0.00     0.003 A 
ATOM     13  C09 6RY d   1     -26.330  -6.906   0.587  0.00  0.00    -0.064 A 
ATOM     14  H9  6RY d   1     -24.403  -6.392   1.343  0.00  0.00     0.114 H 
ATOM     15  C10 6RY d   1     -27.174  -7.958   0.200  0.00  0.00    -0.054 A 
ATOM     16  H10 6RY d   1     -26.668  -5.878   0.527  0.00  0.00     0.085 H 
ATOM     17  H11 6RY d   1     -28.176  -7.760  -0.164  0.00  0.00     0.087 H 
BRANCH  10  18
ATOM     18  C06 6RY d   1     -24.771 -10.865   0.917  0.00  0.00    -0.033 C 
ATOM     19  H6  6RY d   1     -23.745 -10.795   1.307  0.00  0.00     0.035 H 
ATOM     20  H7  6RY d   1     -24.756 -11.353  -0.069  0.00  0.00     0.035 H 
ATOM     21  H8  6RY d   1     -25.387 -11.457   1.610  0.00  0.00     0.035 H 
ENDBRANCH  10  18
ENDBRANCH   7   9
ENDBRANCH   1   7
BRANCH   1  22
ATOM     22  C11 6RY d   1     -29.793  -9.782   0.055  0.00  0.00    -0.033 A 
ATOM     23  C12 6RY d   1     -30.765  -8.878  -0.328  0.00  0.00    -0.040 A 
ATOM     24  C13 6RY d   1     -31.807  -8.486   0.633  0.00  0.00     0.102 A 
ATOM     25  H12 6RY d   1     -30.760  -8.461  -1.329  0.00  0.00     0.088 H 
ATOM     26  C14 6RY d   1     -31.803  -9.010   1.892  0.00  0.00     0.102 A 
ATOM     27  O18 6RY d   1     -32.824  -7.543   0.212  0.00  0.00    -0.346 OA
ATOM     28  O15 6RY d   1     -32.770  -8.690   2.888  0.00  0.00    -0.346 OA
ATOM     29  C19 6RY d   1     -30.786  -9.944   2.294  0.00  0.00    -0.047 A 
ATOM     30  C16 6RY d   1     -33.916  -8.073   2.377  0.00  0.00     0.046 C 
ATOM     31  C17 6RY d   1     -33.607  -7.023   1.290  0.00  0.00     0.046 C 
ATOM     32  H13 6RY d   1     -34.443  -7.575   3.204  0.00  0.00     0.078 H 
ATOM     33  H14 6RY d   1     -34.565  -8.847   1.941  0.00  0.00     0.078 H 
ATOM     34  H15 6RY d   1     -33.056  -6.192   1.753  0.00  0.00     0.078 H 
ATOM     35  H16 6RY d   1     -34.559  -6.650   0.883  0.00  0.00     0.078 H 
ATOM     36  C20 6RY d   1     -29.790 -10.321   1.381  0.00  0.00    -0.072 A 
ATOM     37  H17 6RY d   1     -30.789 -10.354   3.297  0.00  0.00     0.087 H 
ATOM     38  H18 6RY d   1     -29.018 -11.021   1.680  0.00  0.00     0.084 H 
ENDBRANCH   1  22
TORSDOF 5
