REMARK  5 active torsions:
REMARK  status: ('A' for Active; 'I' for Inactive)
REMARK    1  A    between atoms: C01_1  and  C02_2 
REMARK    2  A    between atoms: C02_2  and  N03_3 
REMARK    3  A    between atoms: C02_2  and  C11_11 
REMARK    4  A    between atoms: N03_3  and  C04_4 
REMARK    5  A    between atoms: C05_5  and  C06_6 
ROOT
ATOM      1  C02 6S0 d   1     -29.352 -10.353  -0.658  0.00  0.00     0.033 C 
ATOM      2  H4  6S0 d   1     -29.060  -9.740  -1.523  0.00  0.00     0.079 H 
ENDROOT
BRANCH   1   3
ATOM      3  C01 6S0 d   1     -29.804 -11.721  -1.143  0.00  0.00    -0.053 C 
ATOM      4  H1  6S0 d   1     -30.675 -11.606  -1.805  0.00  0.00     0.030 H 
ATOM      5  H2  6S0 d   1     -30.080 -12.344  -0.279  0.00  0.00     0.030 H 
ATOM      6  H3  6S0 d   1     -28.984 -12.203  -1.696  0.00  0.00     0.030 H 
ENDBRANCH   1   3
BRANCH   1   7
ATOM      7  N03 6S0 d   1     -28.222 -10.502   0.201  0.00  0.00    -0.380 N 
ATOM      8  H5  6S0 d   1     -28.059 -11.405   0.669  0.00  0.00     0.160 HD
BRANCH   7   9
ATOM      9  C04 6S0 d   1     -27.293  -9.399   0.428  0.00  0.00     0.053 A 
ATOM     10  C05 6S0 d   1     -25.905  -9.631   0.826  0.00  0.00     0.056 A 
ATOM     11  N07 6S0 d   1     -25.057  -8.643   1.041  0.00  0.00    -0.264 NA
ATOM     12  C08 6S0 d   1     -25.428  -7.372   0.896  0.00  0.00     0.003 A 
ATOM     13  C09 6S0 d   1     -26.732  -7.025   0.522  0.00  0.00    -0.064 A 
ATOM     14  H9  6S0 d   1     -24.702  -6.586   1.072  0.00  0.00     0.114 H 
ATOM     15  C10 6S0 d   1     -27.698  -8.083   0.278  0.00  0.00    -0.054 A 
ATOM     16  H10 6S0 d   1     -27.016  -5.984   0.416  0.00  0.00     0.085 H 
ATOM     17  H11 6S0 d   1     -28.715  -7.847  -0.015  0.00  0.00     0.087 H 
BRANCH  10  18
ATOM     18  C06 6S0 d   1     -25.383 -11.070   1.018  0.00  0.00    -0.033 C 
ATOM     19  H6  6S0 d   1     -24.324 -11.039   1.315  0.00  0.00     0.035 H 
ATOM     20  H7  6S0 d   1     -25.483 -11.625   0.074  0.00  0.00     0.035 H 
ATOM     21  H8  6S0 d   1     -25.970 -11.571   1.802  0.00  0.00     0.035 H 
ENDBRANCH  10  18
ENDBRANCH   7   9
ENDBRANCH   1   7
BRANCH   1  22
ATOM     22  C11 6S0 d   1     -30.494  -9.682   0.048  0.00  0.00    -0.017 A 
ATOM     23  C12 6S0 d   1     -30.712  -9.859   1.431  0.00  0.00    -0.055 A 
ATOM     24  C13 6S0 d   1     -31.850  -9.162   2.037  0.00  0.00     0.034 A 
ATOM     25  H12 6S0 d   1     -30.060 -10.489   2.025  0.00  0.00     0.086 H 
ATOM     26  C14 6S0 d   1     -32.658  -8.367   1.242  0.00  0.00     0.074 A 
ATOM     27  S17 6S0 d   1     -32.439  -9.099   3.592  0.00  0.00    -0.100 SA
ATOM     28  C15 6S0 d   1     -33.797  -7.705   1.996  0.00  0.00    -0.048 A 
ATOM     29  N18 6S0 d   1     -32.417  -8.216  -0.102  0.00  0.00    -0.259 NA
ATOM     30  C16 6S0 d   1     -33.734  -8.088   3.373  0.00  0.00    -0.042 A 
ATOM     31  H13 6S0 d   1     -34.543  -7.044   1.558  0.00  0.00     0.087 H 
ATOM     32  H14 6S0 d   1     -34.425  -7.767   4.151  0.00  0.00     0.095 H 
ATOM     33  C19 6S0 d   1     -31.393  -8.835  -0.680  0.00  0.00     0.011 A 
ATOM     34  H15 6S0 d   1     -31.231  -8.694  -1.743  0.00  0.00     0.115 H 
ENDBRANCH   1  22
TORSDOF 5
