REMARK  16 active torsions:
REMARK  status: ('A' for Active; 'I' for Inactive)
REMARK    1  A    between atoms: C1_1  and  O1_2 
REMARK    2  A    between atoms: O1_2  and  C2_3 
REMARK    3  A    between atoms: C5_6  and  C6_7 
REMARK    4  A    between atoms: N2_9  and  C7_10 
REMARK    5  A    between atoms: C7_10  and  C8_11 
REMARK    6  A    between atoms: C7_10  and  C9_12 
REMARK    7  A    between atoms: C11_15  and  C12_16 
REMARK    8  A    between atoms: C11_15  and  C13_17 
REMARK    9  A    between atoms: C15_19  and  O3_20 
REMARK   10  A    between atoms: O3_20  and  C16_21 
REMARK   11  A    between atoms: C16_21  and  C17_22 
REMARK   12  A    between atoms: C17_22  and  C18_23 
REMARK   13  A    between atoms: C18_23  and  C19_24 
REMARK   14  A    between atoms: C19_24  and  O4_25 
REMARK   15  A    between atoms: O4_25  and  C20_26 
REMARK   16  A    between atoms: C23_29  and  C24_30 
ROOT
ATOM      1  C2  CVL d   1     140.580  11.881  -0.772  0.00  0.00     0.101 A 
ATOM      2  C3  CVL d   1     140.363  10.515  -0.712  0.00  0.00    -0.047 A 
ATOM      3  C4  CVL d   1     139.786   9.848  -1.782  0.00  0.00    -0.068 A 
ATOM      4  C5  CVL d   1     139.420  10.540  -2.936  0.00  0.00    -0.006 A 
ATOM      5  C14 CVL d   1     139.616  11.921  -2.993  0.00  0.00    -0.036 A 
ATOM      6  C15 CVL d   1     140.202  12.591  -1.929  0.00  0.00     0.102 A 
ATOM      7  H4  CVL d   1     140.646   9.963   0.177  0.00  0.00     0.087 H 
ATOM      8  H5  CVL d   1     139.618   8.779  -1.721  0.00  0.00     0.085 H 
ATOM      9  H19 CVL d   1     139.309  12.473  -3.874  0.00  0.00     0.089 H 
ENDROOT
BRANCH   6  10
ATOM     10  O3  CVL d   1     140.431  13.942  -1.955  0.00  0.00    -0.348 OA
BRANCH  10  11
ATOM     11  C16 CVL d   1     141.263  14.466  -3.005  0.00  0.00     0.026 C 
ATOM     12  H20 CVL d   1     141.143  13.862  -3.916  0.00  0.00     0.075 H 
ATOM     13  H21 CVL d   1     142.317  14.451  -2.692  0.00  0.00     0.075 H 
BRANCH  11  14
ATOM     14  C17 CVL d   1     140.824  15.887  -3.267  0.00  0.00    -0.043 C 
ATOM     15  H22 CVL d   1     141.590  16.555  -2.846  0.00  0.00     0.036 H 
ATOM     16  H23 CVL d   1     139.871  16.043  -2.740  0.00  0.00     0.036 H 
BRANCH  14  17
ATOM     17  C18 CVL d   1     140.616  16.285  -4.722  0.00  0.00    -0.043 C 
ATOM     18  H24 CVL d   1     140.732  15.387  -5.346  0.00  0.00     0.036 H 
ATOM     19  H25 CVL d   1     141.387  17.021  -4.992  0.00  0.00     0.036 H 
BRANCH  17  20
ATOM     20  C19 CVL d   1     139.265  16.888  -5.007  0.00  0.00     0.026 C 
ATOM     21  H26 CVL d   1     139.204  17.194  -6.062  0.00  0.00     0.075 H 
ATOM     22  H27 CVL d   1     139.099  17.763  -4.361  0.00  0.00     0.075 H 
BRANCH  20  23
ATOM     23  O4  CVL d   1     138.282  15.877  -4.730  0.00  0.00    -0.351 OA
BRANCH  23  24
ATOM     24  C20 CVL d   1     136.997  16.038  -5.185  0.00  0.00     0.068 A 
ATOM     25  C21 CVL d   1     136.323  17.245  -5.102  0.00  0.00    -0.050 A 
ATOM     26  C22 CVL d   1     135.023  17.341  -5.570  0.00  0.00    -0.067 A 
ATOM     27  H28 CVL d   1     136.811  18.112  -4.672  0.00  0.00     0.087 H 
ATOM     28  C23 CVL d   1     134.381  16.239  -6.130  0.00  0.00     0.013 A 
ATOM     29  H29 CVL d   1     134.498  18.287  -5.500  0.00  0.00     0.085 H 
ATOM     30  C25 CVL d   1     135.069  15.036  -6.208  0.00  0.00    -0.067 A 
ATOM     31  C26 CVL d   1     136.369  14.936  -5.745  0.00  0.00    -0.050 A 
ATOM     32  H31 CVL d   1     134.583  14.166  -6.636  0.00  0.00     0.085 H 
ATOM     33  H32 CVL d   1     136.898  13.993  -5.820  0.00  0.00     0.087 H 
BRANCH  28  34
ATOM     34  C24 CVL d   1     133.007  16.340  -6.622  0.00  0.00     0.179 A 
ATOM     35  N3  CVL d   1     132.353  17.461  -6.896  0.00  0.00    -0.239 N 
ATOM     36  N4  CVL d   1     131.111  17.089  -7.305  0.00  0.00    -0.046 NA
ATOM     37  H30 CVL d   1     132.714  18.422  -6.815  0.00  0.00     0.192 HD
ATOM     38  N5  CVL d   1     131.001  15.802  -7.285  0.00  0.00    -0.023 NA
ATOM     39  N6  CVL d   1     132.180  15.317  -6.861  0.00  0.00    -0.108 NA
ENDBRANCH  28  34
ENDBRANCH  23  24
ENDBRANCH  20  23
ENDBRANCH  17  20
ENDBRANCH  14  17
ENDBRANCH  11  14
ENDBRANCH  10  11
ENDBRANCH   6  10
BRANCH   1  40
ATOM     40  O1  CVL d   1     141.119  12.646   0.224  0.00  0.00    -0.353 OA
BRANCH  40  41
ATOM     41  C1  CVL d   1     142.010  12.036   1.158  0.00  0.00     0.010 C 
ATOM     42  H1  CVL d   1     142.348  12.788   1.886  0.00  0.00     0.066 H 
ATOM     43  H2  CVL d   1     142.879  11.627   0.622  0.00  0.00     0.066 H 
ATOM     44  H3  CVL d   1     141.489  11.223   1.685  0.00  0.00     0.066 H 
ENDBRANCH  40  41
ENDBRANCH   1  40
BRANCH   4  45
ATOM     45  C6  CVL d   1     138.787   9.854  -4.066  0.00  0.00     0.082 C 
ATOM     46  N1  CVL d   1     137.925  10.476  -4.798  0.00  0.00    -0.172 NA
ATOM     47  N2  CVL d   1     137.763   9.738  -5.940  0.00  0.00    -0.233 N 
ATOM     48  C10 CVL d   1     138.322   8.496  -5.853  0.00  0.00     0.254 C 
ATOM     49  O2  CVL d   1     138.303   7.586  -6.650  0.00  0.00    -0.270 OA
ATOM     50  C11 CVL d   1     138.995   8.419  -4.496  0.00  0.00     0.082 C 
BRANCH  47  51
ATOM     51  C7  CVL d   1     137.004  10.369  -7.064  0.00  0.00     0.031 C 
ATOM     52  H6  CVL d   1     137.578  11.239  -7.416  0.00  0.00     0.074 H 
BRANCH  51  53
ATOM     53  C8  CVL d   1     136.835   9.431  -8.249  0.00  0.00    -0.056 C 
ATOM     54  H7  CVL d   1     136.273   9.942  -9.044  0.00  0.00     0.030 H 
ATOM     55  H8  CVL d   1     136.285   8.533  -7.930  0.00  0.00     0.030 H 
ATOM     56  H9  CVL d   1     137.825   9.139  -8.630  0.00  0.00     0.030 H 
ENDBRANCH  51  53
BRANCH  51  57
ATOM     57  C9  CVL d   1     135.675  10.871  -6.527  0.00  0.00    -0.056 C 
ATOM     58  H10 CVL d   1     135.103  11.339  -7.342  0.00  0.00     0.030 H 
ATOM     59  H11 CVL d   1     135.856  11.612  -5.734  0.00  0.00     0.030 H 
ATOM     60  H12 CVL d   1     135.103  10.026  -6.116  0.00  0.00     0.030 H 
ENDBRANCH  51  57
ENDBRANCH  47  51
BRANCH  50  61
ATOM     61  C12 CVL d   1     138.251   7.426  -3.590  0.00  0.00    -0.056 C 
ATOM     62  H13 CVL d   1     138.749   7.380  -2.610  0.00  0.00     0.029 H 
ATOM     63  H14 CVL d   1     138.261   6.428  -4.054  0.00  0.00     0.029 H 
ATOM     64  H15 CVL d   1     137.211   7.759  -3.458  0.00  0.00     0.029 H 
ENDBRANCH  50  61
BRANCH  50  65
ATOM     65  C13 CVL d   1     140.471   8.024  -4.643  0.00  0.00    -0.056 C 
ATOM     66  H16 CVL d   1     140.981   8.748  -5.295  0.00  0.00     0.029 H 
ATOM     67  H17 CVL d   1     140.539   7.020  -5.087  0.00  0.00     0.029 H 
ATOM     68  H18 CVL d   1     140.950   8.021  -3.653  0.00  0.00     0.029 H 
ENDBRANCH  50  65
ENDBRANCH   4  45
TORSDOF 16
