REMARK  7 active torsions:
REMARK  status: ('A' for Active; 'I' for Inactive)
REMARK    1  A    between atoms: C8_7  and  C6_5 
REMARK    2  A    between atoms: C15_8  and  C16_9 
REMARK    3  A    between atoms: N14_21  and  C15_8 
REMARK    4  A    between atoms: C16_9  and  C17_10 
REMARK    5  A    between atoms: C16_9  and  C18_11 
REMARK    6  A    between atoms: C16_9  and  C19_12 
REMARK    7  A    between atoms: C10_18  and  N12_19 
ROOT
ATOM      1  C8  6SK d   1      -5.520  11.355  -1.406  0.00  0.00     0.046 C 
ATOM      2  C21 6SK d   1      -5.074  13.612  -0.360  0.00  0.00     0.015 A 
ATOM      3  C23 6SK d   1      -4.462  15.793  -1.185  0.00  0.00    -0.061 A 
ATOM      4  C24 6SK d   1      -3.571  15.975  -0.133  0.00  0.00     0.036 A 
ATOM      5  C27 6SK d   1      -4.180  13.787   0.692  0.00  0.00     0.045 A 
ATOM      6  C10 6SK d   1      -6.519  10.195  -1.144  0.00  0.00     0.133 C 
ATOM      7  C13 6SK d   1      -7.682  10.905  -0.428  0.00  0.00     0.112 C 
ATOM      8  N14 6SK d   1      -7.192  12.286  -0.108  0.00  0.00    -0.045 N 
ATOM      9  C20 6SK d   1      -5.700  12.248  -0.165  0.00  0.00     0.246 A 
ATOM     10  C22 6SK d   1      -5.216  14.624  -1.294  0.00  0.00    -0.070 A 
ATOM     11 CL2  6SK d   1      -2.616  17.422   0.037  0.00  0.00    -0.084 Cl
ATOM     12  C26 6SK d   1      -3.434  14.968   0.806  0.00  0.00    -0.036 A 
ATOM     13  N28 6SK d   1      -4.190  12.671   1.513  0.00  0.00    -0.324 N 
ATOM     14  C29 6SK d   1      -5.044  11.723   1.094  0.00  0.00     0.264 A 
ATOM     15  O30 6SK d   1      -5.221  10.661   1.649  0.00  0.00    -0.270 OA
ATOM     16  H5  6SK d   1      -5.846  11.914  -2.296  0.00  0.00     0.055 H 
ATOM     17  H17 6SK d   1      -4.572  16.571  -1.932  0.00  0.00     0.086 H 
ATOM     18  H18 6SK d   1      -6.069   9.420  -0.506  0.00  0.00     0.087 H 
ATOM     19  H22 6SK d   1      -7.945  10.370   0.496  0.00  0.00     0.079 H 
ATOM     20  H23 6SK d   1      -8.562  10.955  -1.086  0.00  0.00     0.079 H 
ATOM     21  H24 6SK d   1      -7.481  12.874  -0.874  0.00  0.00     0.281 HD
ATOM     22  H25 6SK d   1      -5.916  14.508  -2.114  0.00  0.00     0.084 H 
ATOM     23  H26 6SK d   1      -2.746  15.093   1.634  0.00  0.00     0.089 H 
ATOM     24  H27 6SK d   1      -3.622  12.581   2.331  0.00  0.00     0.169 HD
ENDROOT
BRANCH   8  25
ATOM     25  C15 6SK d   1      -7.816  12.903   1.086  0.00  0.00     0.091 C 
ATOM     26  H6  6SK d   1      -8.101  12.110   1.793  0.00  0.00     0.077 H 
ATOM     27  H7  6SK d   1      -7.089  13.576   1.564  0.00  0.00     0.077 H 
BRANCH  25  28
ATOM     28  C16 6SK d   1      -9.067  13.706   0.701  0.00  0.00    -0.027 C 
BRANCH  28  29
ATOM     29  C17 6SK d   1     -10.187  12.798   0.181  0.00  0.00    -0.068 C 
ATOM     30  H8  6SK d   1     -11.062  13.410  -0.083  0.00  0.00     0.028 H 
ATOM     31  H9  6SK d   1     -10.466  12.076   0.963  0.00  0.00     0.028 H 
ATOM     32  H10 6SK d   1      -9.836  12.256  -0.710  0.00  0.00     0.028 H 
ENDBRANCH  28  29
BRANCH  28  33
ATOM     33  C18 6SK d   1      -9.580  14.411   1.949  0.00  0.00    -0.068 C 
ATOM     34  H11 6SK d   1      -8.795  15.072   2.346  0.00  0.00     0.028 H 
ATOM     35  H12 6SK d   1      -9.848  13.662   2.709  0.00  0.00     0.028 H 
ATOM     36  H13 6SK d   1     -10.468  15.008   1.694  0.00  0.00     0.028 H 
ENDBRANCH  28  33
BRANCH  28  37
ATOM     37  C19 6SK d   1      -8.718  14.783  -0.330  0.00  0.00    -0.068 C 
ATOM     38  H14 6SK d   1      -8.343  14.305  -1.247  0.00  0.00     0.028 H 
ATOM     39  H15 6SK d   1      -7.943  15.447   0.081  0.00  0.00     0.028 H 
ATOM     40  H16 6SK d   1      -9.617  15.371  -0.565  0.00  0.00     0.028 H 
ENDBRANCH  28  37
ENDBRANCH  25  28
ENDBRANCH   8  25
BRANCH   6  41
ATOM     41  N12 6SK d   1      -6.982   9.593  -2.399  0.00  0.00    -0.073 N 
ATOM     42  H19 6SK d   1      -7.627   8.846  -2.195  0.00  0.00     0.274 HD
ATOM     43  H20 6SK d   1      -6.192   9.226  -2.907  0.00  0.00     0.274 HD
ATOM     44  H21 6SK d   1      -7.445  10.293  -2.957  0.00  0.00     0.274 HD
ENDBRANCH   6  41
BRANCH   1  45
ATOM     45  C6  6SK d   1      -4.091  10.905  -1.675  0.00  0.00    -0.047 A 
ATOM     46  C5  6SK d   1      -3.473   9.811  -1.057  0.00  0.00    -0.076 A 
ATOM     47  C4  6SK d   1      -2.161   9.478  -1.379  0.00  0.00    -0.081 A 
ATOM     48  H3  6SK d   1      -4.017   9.223  -0.327  0.00  0.00     0.084 H 
ATOM     49  C3  6SK d   1      -1.457  10.219  -2.319  0.00  0.00    -0.062 A 
ATOM     50  H2  6SK d   1      -1.685   8.634  -0.893  0.00  0.00     0.083 H 
ATOM     51  C2  6SK d   1      -2.064  11.304  -2.928  0.00  0.00     0.034 A 
ATOM     52  H1  6SK d   1      -0.439   9.950  -2.574  0.00  0.00     0.086 H 
ATOM     53  C7  6SK d   1      -3.372  11.632  -2.614  0.00  0.00    -0.055 A 
ATOM     54 CL1  6SK d   1      -1.230  12.242  -4.107  0.00  0.00    -0.084 Cl
ATOM     55  H4  6SK d   1      -3.844  12.472  -3.111  0.00  0.00     0.086 H 
ENDBRANCH   1  45
TORSDOF 7
