REMARK  5 active torsions:
REMARK  status: ('A' for Active; 'I' for Inactive)
REMARK    1  A    between atoms: C8_5  and  C6_3 
REMARK    2  A    between atoms: N12_7  and  C33_30 
REMARK    3  A    between atoms: C18_20  and  N17_19 
REMARK    4  A    between atoms: C18_20  and  C19_21 
REMARK    5  A    between atoms: C33_30  and  C34_31 
ROOT
ATOM      1  C8  6SJ d   1      -7.392  10.959  -1.113  0.00  0.00     0.047 C 
ATOM      2  C10 6SJ d   1      -8.467   9.860  -0.980  0.00  0.00     0.142 C 
ATOM      3  N12 6SJ d   1      -9.271   9.610  -2.233  0.00  0.00    -0.054 N 
ATOM      4  C13 6SJ d   1     -10.345  10.622  -2.240  0.00  0.00     0.086 C 
ATOM      5  C15 6SJ d   1      -9.484  10.465   0.037  0.00  0.00     0.135 C 
ATOM      6  C22 6SJ d   1      -7.449  11.689   0.254  0.00  0.00     0.246 A 
ATOM      7  C26 6SJ d   1      -5.809  13.036   1.242  0.00  0.00     0.045 A 
ATOM      8  C28 6SJ d   1      -5.173  15.296   0.637  0.00  0.00     0.036 A 
ATOM      9  C14 6SJ d   1     -10.800  10.617  -0.781  0.00  0.00    -0.013 C 
ATOM     10  N17 6SJ d   1      -8.919  11.788   0.447  0.00  0.00    -0.042 N 
ATOM     11  C23 6SJ d   1      -6.732  10.972   1.408  0.00  0.00     0.264 A 
ATOM     12  O24 6SJ d   1      -6.921   9.828   1.758  0.00  0.00    -0.270 OA
ATOM     13  N25 6SJ d   1      -5.816  11.802   1.916  0.00  0.00    -0.324 N 
ATOM     14  C27 6SJ d   1      -5.017  14.173   1.441  0.00  0.00    -0.036 A 
ATOM     15 CL2  6SJ d   1      -4.172  16.701   0.845  0.00  0.00    -0.084 Cl
ATOM     16  C30 6SJ d   1      -6.116  15.274  -0.389  0.00  0.00    -0.061 A 
ATOM     17  C31 6SJ d   1      -6.912  14.157  -0.599  0.00  0.00    -0.070 A 
ATOM     18  C32 6SJ d   1      -6.770  13.032   0.200  0.00  0.00     0.015 A 
ATOM     19  H4  6SJ d   1      -7.690  11.653  -1.913  0.00  0.00     0.056 H 
ATOM     20  H5  6SJ d   1      -8.018   8.922  -0.621  0.00  0.00     0.089 H 
ATOM     21  H6  6SJ d   1      -9.699   8.701  -2.152  0.00  0.00     0.281 HD
ATOM     22  H7  6SJ d   1     -11.164  10.331  -2.914  0.00  0.00     0.076 H 
ATOM     23  H8  6SJ d   1      -9.961  11.610  -2.535  0.00  0.00     0.076 H 
ATOM     24  H9  6SJ d   1      -9.635   9.818   0.913  0.00  0.00     0.088 H 
ATOM     25  H15 6SJ d   1     -11.478   9.772  -0.588  0.00  0.00     0.038 H 
ATOM     26  H16 6SJ d   1     -11.308  11.560  -0.529  0.00  0.00     0.038 H 
ATOM     27  H17 6SJ d   1      -9.252  12.470  -0.216  0.00  0.00     0.282 HD
ATOM     28  H21 6SJ d   1      -5.212  11.574   2.679  0.00  0.00     0.169 HD
ATOM     29  H22 6SJ d   1      -4.274  14.178   2.231  0.00  0.00     0.089 H 
ATOM     30  H23 6SJ d   1      -6.229  16.140  -1.031  0.00  0.00     0.086 H 
ATOM     31  H24 6SJ d   1      -7.650  14.164  -1.393  0.00  0.00     0.084 H 
ENDROOT
BRANCH   1  32
ATOM     32  C6  6SJ d   1      -5.992  10.464  -1.446  0.00  0.00    -0.047 A 
ATOM     33  C5  6SJ d   1      -5.442   9.259  -0.973  0.00  0.00    -0.076 A 
ATOM     34  C4  6SJ d   1      -4.134   8.880  -1.323  0.00  0.00    -0.081 A 
ATOM     35  H2  6SJ d   1      -6.033   8.615  -0.332  0.00  0.00     0.084 H 
ATOM     36  C3  6SJ d   1      -3.352   9.706  -2.109  0.00  0.00    -0.062 A 
ATOM     37  H1  6SJ d   1      -3.736   7.934  -0.974  0.00  0.00     0.083 H 
ATOM     38  C2  6SJ d   1      -3.886  10.895  -2.576  0.00  0.00     0.034 A 
ATOM     39  H14 6SJ d   1      -2.334   9.426  -2.356  0.00  0.00     0.086 H 
ATOM     40  C7  6SJ d   1      -5.184  11.285  -2.240  0.00  0.00    -0.055 A 
ATOM     41 CL1  6SJ d   1      -2.911  11.929  -3.575  0.00  0.00    -0.084 Cl
ATOM     42  H3  6SJ d   1      -5.569  12.233  -2.598  0.00  0.00     0.086 H 
ENDBRANCH   1  32
BRANCH  10  43
ATOM     43  C18 6SJ d   1      -9.389  12.278   1.774  0.00  0.00     0.089 C 
ATOM     44  H18 6SJ d   1      -8.632  12.960   2.189  0.00  0.00     0.076 H 
ATOM     45  H19 6SJ d   1      -9.514  11.416   2.446  0.00  0.00     0.076 H 
BRANCH  43  46
ATOM     46  C19 6SJ d   1     -10.729  13.027   1.672  0.00  0.00    -0.031 A 
ATOM     47  C20 6SJ d   1     -10.849  14.328   2.479  0.00  0.00    -0.060 A 
ATOM     48  C21 6SJ d   1     -10.700  14.367   0.951  0.00  0.00    -0.060 A 
ATOM     49  H10 6SJ d   1     -11.806  14.601   2.947  0.00  0.00     0.033 H 
ATOM     50  H11 6SJ d   1     -10.020  14.656   3.123  0.00  0.00     0.033 H 
ATOM     51  H12 6SJ d   1      -9.764  14.727   0.499  0.00  0.00     0.033 H 
ATOM     52  H13 6SJ d   1     -11.551  14.672   0.324  0.00  0.00     0.033 H 
ATOM     53  H20 6SJ d   1     -11.575  12.332   1.567  0.00  0.00     0.042 H 
ENDBRANCH  43  46
ENDBRANCH  10  43
BRANCH   3  54
ATOM     54  C33 6SJ d   1      -8.460   9.586  -3.482  0.00  0.00     0.162 C 
ATOM     55  H25 6SJ d   1      -7.588   8.933  -3.328  0.00  0.00     0.093 H 
ATOM     56  H26 6SJ d   1      -8.118  10.608  -3.704  0.00  0.00     0.093 H 
BRANCH  54  57
ATOM     57  C34 6SJ d   1      -9.246   9.076  -4.647  0.00  0.00     0.199 C 
ATOM     58  O35 6SJ d   1     -10.485   8.589  -4.495  0.00  0.00    -0.647 OA
ATOM     59  O36 6SJ d   1      -8.757   9.096  -5.741  0.00  0.00    -0.647 OA
ENDBRANCH  54  57
ENDBRANCH   3  54
TORSDOF 5
