REMARK WARNING: 32 MAX_TORS EXCEEDED!!!
REMARK  54 active torsions:
REMARK  status: ('A' for Active; 'I' for Inactive)
REMARK    1  A    between atoms: N_1  and  CA_2 
REMARK    2  A    between atoms: CA_2  and  C_3 
REMARK    3  A    between atoms: CA_2  and  CB_5 
REMARK       I    between atoms: C_3  and  N_7 
REMARK    4  A    between atoms: CB_5  and  OG_6 
REMARK    5  A    between atoms: N_7  and  CA_8 
REMARK    6  A    between atoms: CA_8  and  C_9 
REMARK    7  A    between atoms: CA_8  and  CB_11 
REMARK       I    between atoms: C_9  and  N_16 
REMARK    8  A    between atoms: CB_11  and  CG_12 
REMARK    9  A    between atoms: CG_12  and  CD_13 
REMARK   10  A    between atoms: CD_13  and  CE_14 
REMARK   11  A    between atoms: CE_14  and  NZ_15 
REMARK   12  A    between atoms: N_16  and  CA_17 
REMARK   13  A    between atoms: CA_17  and  C_18 
REMARK       I    between atoms: C_18  and  N_20 
REMARK   14  A    between atoms: N_20  and  CA_21 
REMARK   15  A    between atoms: CA_21  and  C_22 
REMARK   16  A    between atoms: CA_21  and  CB_24 
REMARK       I    between atoms: C_22  and  N_28 
REMARK   17  A    between atoms: CB_24  and  CG_25 
REMARK   18  A    between atoms: CG_25  and  CD1_26 
REMARK   19  A    between atoms: CG_25  and  CD2_27 
REMARK   20  A    between atoms: N_28  and  CA_29 
REMARK   21  A    between atoms: CA_29  and  C_30 
REMARK   22  A    between atoms: CA_29  and  CB_32 
REMARK       I    between atoms: C_30  and  N_39 
REMARK   23  A    between atoms: CB_32  and  CG_33 
REMARK   24  A    between atoms: N_39  and  CA_40 
REMARK   25  A    between atoms: CA_40  and  C_41 
REMARK   26  A    between atoms: CA_40  and  CB_43 
REMARK       I    between atoms: C_41  and  N_50 
REMARK   27  A    between atoms: CB_43  and  CG_44 
REMARK   28  A    between atoms: CG_44  and  CD_45 
REMARK   29  A    between atoms: CD_45  and  NE_46 
REMARK       I    between atoms: NE_46  and  CZ_47 
REMARK       I    between atoms: CZ_47  and  NH1_48 
REMARK   30  A    between atoms: N_50  and  CA_51 
REMARK   31  A    between atoms: CA_51  and  C_52 
REMARK   32  A    between atoms: CA_51  and  CB_54 
REMARK       I    between atoms: C_52  and  N_55 
REMARK   33  A    between atoms: N_55  and  CA_56 
REMARK   34  A    between atoms: CA_56  and  C_57 
REMARK   35  A    between atoms: CA_56  and  CB_59 
REMARK       I    between atoms: C_57  and  N_60 
REMARK   36  A    between atoms: N_60  and  CA_61 
REMARK   37  A    between atoms: CA_61  and  C_62 
REMARK   38  A    between atoms: CA_61  and  CB_64 
REMARK       I    between atoms: C_62  and  N_67 
REMARK   39  A    between atoms: CB_64  and  CG1_65 
REMARK   40  A    between atoms: CB_64  and  CG2_66 
REMARK   41  A    between atoms: CA_68  and  C_69 
REMARK       I    between atoms: C_69  and  N_74 
REMARK   42  A    between atoms: N_74  and  CA_75 
REMARK   43  A    between atoms: CA_75  and  C_76 
REMARK   44  A    between atoms: CA_75  and  CB_78 
REMARK       I    between atoms: C_76  and  N_80 
REMARK   45  A    between atoms: CB_78  and  OG_79 
REMARK   46  A    between atoms: N_80  and  CA_81 
REMARK   47  A    between atoms: CA_81  and  C_82 
REMARK       I    between atoms: C_82  and  N_84 
REMARK   48  A    between atoms: N_84  and  CA_85 
REMARK   49  A    between atoms: CA_85  and  C_86 
REMARK   50  A    between atoms: CA_85  and  CB_88 
REMARK       I    between atoms: C_86  and  N_89 
REMARK   51  A    between atoms: N_89  and  CA_90 
REMARK   52  A    between atoms: CA_90  and  C_91 
REMARK   53  A    between atoms: CA_90  and  CB_93 
REMARK   54  A    between atoms: CB_93  and  OG_94 
ROOT
ATOM      1  CA  ARG d   1     -43.578   7.586 -23.143  0.00  0.00     0.089 C 
ATOM      2  H45 ARG d   1     -44.044   7.235 -24.075  0.00  0.00     0.087 H 
ENDROOT
BRANCH   1   3
ATOM      3  N   ARG d   1     -43.486   6.478 -22.203  0.00  0.00    -0.346 N 
ATOM      4  C   PHE d   1     -43.501   5.205 -22.587  0.00  0.00     0.241 C 
ATOM      5  O   PHE d   1     -43.656   4.856 -23.751  0.00  0.00    -0.271 OA
ATOM      6  H44 ARG d   1     -43.408   6.683 -21.227  0.00  0.00     0.163 HD
BRANCH   4   7
ATOM      7  CA  PHE d   1     -43.321   4.161 -21.500  0.00  0.00     0.093 C 
ATOM      8  H36 PHE d   1     -43.474   4.631 -20.517  0.00  0.00     0.088 H 
BRANCH   7   9
ATOM      9  N   PHE d   1     -44.315   3.085 -21.669  0.00  0.00    -0.346 N 
ATOM     10  C   LEU d   1     -45.609   3.253 -21.377  0.00  0.00     0.241 C 
ATOM     11  O   LEU d   1     -46.047   4.292 -20.890  0.00  0.00    -0.271 OA
ATOM     12  H35 PHE d   1     -44.010   2.197 -22.015  0.00  0.00     0.163 HD
BRANCH  10  13
ATOM     13  CA  LEU d   1     -46.556   2.073 -21.679  0.00  0.00     0.089 C 
ATOM     14  H25 LEU d   1     -45.947   1.220 -22.013  0.00  0.00     0.087 H 
BRANCH  13  15
ATOM     15  N   LEU d   1     -47.330   1.653 -20.501  0.00  0.00    -0.346 N 
ATOM     16  C   GLY d   1     -47.099   0.515 -19.845  0.00  0.00     0.236 C 
ATOM     17  O   GLY d   1     -46.205  -0.251 -20.161  0.00  0.00    -0.272 OA
ATOM     18  H24 LEU d   1     -48.064   2.249 -20.177  0.00  0.00     0.163 HD
BRANCH  16  19
ATOM     19  CA  GLY d   1     -47.997   0.207 -18.644  0.00  0.00     0.069 C 
ATOM     20  H22 GLY d   1     -47.559   0.703 -17.765  0.00  0.00     0.078 H 
ATOM     21  H23 GLY d   1     -48.988   0.637 -18.851  0.00  0.00     0.078 H 
BRANCH  19  22
ATOM     22  N   GLY d   1     -48.190  -1.215 -18.304  0.00  0.00    -0.351 N 
ATOM     23  C   LYS d   1     -49.134  -1.998 -18.836  0.00  0.00     0.240 C 
ATOM     24  O   LYS d   1     -49.997  -1.599 -19.630  0.00  0.00    -0.271 OA
ATOM     25  H21 GLY d   1     -47.573  -1.621 -17.630  0.00  0.00     0.163 HD
BRANCH  23  26
ATOM     26  CA  LYS d   1     -49.105  -3.470 -18.383  0.00  0.00     0.089 C 
ATOM     27  H9  LYS d   1     -48.106  -3.677 -17.972  0.00  0.00     0.087 H 
BRANCH  26  28
ATOM     28  N   LYS d   1     -50.100  -3.715 -17.321  0.00  0.00    -0.346 N 
ATOM     29  C   SER d   1     -49.783  -4.001 -16.049  0.00  0.00     0.251 C 
ATOM     30  O   SER d   1     -48.659  -4.299 -15.682  0.00  0.00    -0.271 OA
ATOM     31  H8  LYS d   1     -51.069  -3.665 -17.564  0.00  0.00     0.163 HD
BRANCH  29  32
ATOM     32  CA  SER d   1     -50.899  -3.995 -15.009  0.00  0.00     0.195 C 
ATOM     33  H4  SER d   1     -50.433  -3.822 -14.027  0.00  0.00     0.102 H 
BRANCH  32  34
ATOM     34  N   SER d   1     -51.887  -2.890 -15.227  0.00  0.00    -0.064 N 
ATOM     35  H1  SER d   1     -52.600  -2.932 -14.516  0.00  0.00     0.275 HD
ATOM     36  H2  SER d   1     -52.312  -2.994 -16.135  0.00  0.00     0.275 HD
ATOM     37  H3  SER d   1     -51.414  -2.001 -15.177  0.00  0.00     0.275 HD
ENDBRANCH  32  34
BRANCH  32  38
ATOM     38  CB  SER d   1     -51.577  -5.361 -14.964  0.00  0.00     0.051 C 
ATOM     39  H5  SER d   1     -52.132  -5.515 -15.901  0.00  0.00     0.077 H 
ATOM     40  H6  SER d   1     -52.276  -5.384 -14.115  0.00  0.00     0.077 H 
BRANCH  38  41
ATOM     41  OG  SER d   1     -50.639  -6.403 -14.812  0.00  0.00    -0.398 OA
ATOM     42  H7  SER d   1     -50.034  -6.392 -15.544  0.00  0.00     0.209 HD
ENDBRANCH  38  41
ENDBRANCH  32  38
ENDBRANCH  29  32
ENDBRANCH  26  28
BRANCH  26  43
ATOM     43  CB  LYS d   1     -49.345  -4.431 -19.563  0.00  0.00    -0.038 C 
ATOM     44  H10 LYS d   1     -50.431  -4.494 -19.729  0.00  0.00     0.036 H 
ATOM     45  H11 LYS d   1     -48.961  -5.420 -19.273  0.00  0.00     0.036 H 
BRANCH  43  46
ATOM     46  CG  LYS d   1     -48.694  -4.049 -20.887  0.00  0.00    -0.061 C 
ATOM     47  H12 LYS d   1     -47.629  -3.834 -20.713  0.00  0.00     0.033 H 
ATOM     48  H13 LYS d   1     -49.190  -3.151 -21.283  0.00  0.00     0.033 H 
BRANCH  46  49
ATOM     49  CD  LYS d   1     -48.812  -5.168 -21.906  0.00  0.00    -0.043 C 
ATOM     50  H14 LYS d   1     -49.835  -5.176 -22.310  0.00  0.00     0.035 H 
ATOM     51  H15 LYS d   1     -48.606  -6.127 -21.408  0.00  0.00     0.035 H 
BRANCH  49  52
ATOM     52  CE  LYS d   1     -47.833  -4.988 -23.051  0.00  0.00     0.080 C 
ATOM     53  H16 LYS d   1     -46.827  -4.812 -22.641  0.00  0.00     0.075 H 
ATOM     54  H17 LYS d   1     -48.139  -4.121 -23.655  0.00  0.00     0.075 H 
BRANCH  52  55
ATOM     55  NZ  LYS d   1     -47.803  -6.197 -23.915  0.00  0.00    -0.079 N 
ATOM     56  H18 LYS d   1     -47.148  -6.056 -24.668  0.00  0.00     0.274 HD
ATOM     57  H19 LYS d   1     -48.722  -6.361 -24.296  0.00  0.00     0.274 HD
ATOM     58  H20 LYS d   1     -47.519  -6.994 -23.367  0.00  0.00     0.274 HD
ENDBRANCH  52  55
ENDBRANCH  49  52
ENDBRANCH  46  49
ENDBRANCH  43  46
ENDBRANCH  26  43
ENDBRANCH  23  26
ENDBRANCH  19  22
ENDBRANCH  16  19
ENDBRANCH  13  15
BRANCH  13  59
ATOM     59  CB  LEU d   1     -47.507   2.463 -22.795  0.00  0.00    -0.035 C 
ATOM     60  H26 LEU d   1     -48.110   3.309 -22.434  0.00  0.00     0.037 H 
ATOM     61  H27 LEU d   1     -48.163   1.601 -22.987  0.00  0.00     0.037 H 
BRANCH  59  62
ATOM     62  CG  LEU d   1     -46.890   2.876 -24.131  0.00  0.00    -0.059 C 
ATOM     63  H28 LEU d   1     -46.329   3.810 -23.976  0.00  0.00     0.038 H 
BRANCH  62  64
ATOM     64  CD1 LEU d   1     -45.927   1.820 -24.645  0.00  0.00    -0.073 C 
ATOM     65  H29 LEU d   1     -45.502   2.148 -25.605  0.00  0.00     0.028 H 
ATOM     66  H30 LEU d   1     -46.465   0.871 -24.787  0.00  0.00     0.028 H 
ATOM     67  H31 LEU d   1     -45.117   1.677 -23.915  0.00  0.00     0.028 H 
ENDBRANCH  62  64
BRANCH  62  68
ATOM     68  CD2 LEU d   1     -47.971   3.130 -25.161  0.00  0.00    -0.073 C 
ATOM     69  H32 LEU d   1     -48.665   3.895 -24.783  0.00  0.00     0.028 H 
ATOM     70  H33 LEU d   1     -48.522   2.197 -25.352  0.00  0.00     0.028 H 
ATOM     71  H34 LEU d   1     -47.511   3.482 -26.096  0.00  0.00     0.028 H 
ENDBRANCH  62  68
ENDBRANCH  59  62
ENDBRANCH  13  59
ENDBRANCH  10  13
ENDBRANCH   7   9
BRANCH   7  72
ATOM     72  CB  PHE d   1     -41.887   3.616 -21.572  0.00  0.00    -0.014 C 
ATOM     73  H37 PHE d   1     -41.219   4.442 -21.858  0.00  0.00     0.043 H 
ATOM     74  H38 PHE d   1     -41.855   2.834 -22.345  0.00  0.00     0.043 H 
BRANCH  72  75
ATOM     75  CG  PHE d   1     -41.382   3.027 -20.285  0.00  0.00    -0.056 A 
ATOM     76  CD1 PHE d   1     -41.187   3.828 -19.172  0.00  0.00    -0.077 A 
ATOM     77  CE1 PHE d   1     -40.707   3.307 -17.977  0.00  0.00    -0.082 A 
ATOM     78  H39 PHE d   1     -41.414   4.886 -19.235  0.00  0.00     0.084 H 
ATOM     79  CZ  PHE d   1     -40.398   1.969 -17.895  0.00  0.00    -0.083 A 
ATOM     80  H41 PHE d   1     -40.577   3.951 -17.115  0.00  0.00     0.083 H 
ATOM     81  CE2 PHE d   1     -40.577   1.154 -19.009  0.00  0.00    -0.082 A 
ATOM     82  H43 PHE d   1     -40.018   1.552 -16.969  0.00  0.00     0.083 H 
ATOM     83  CD2 PHE d   1     -41.064   1.686 -20.195  0.00  0.00    -0.077 A 
ATOM     84  H42 PHE d   1     -40.335   0.099 -18.950  0.00  0.00     0.083 H 
ATOM     85  H40 PHE d   1     -41.196   1.043 -21.058  0.00  0.00     0.084 H 
ENDBRANCH  72  75
ENDBRANCH   7  72
ENDBRANCH   4   7
ENDBRANCH   1   3
BRANCH   1  86
ATOM     86  C   ARG d   1     -42.201   8.172 -23.447  0.00  0.00     0.241 C 
ATOM     87  O   ARG d   1     -41.404   8.392 -22.530  0.00  0.00    -0.271 OA
ATOM     88  N   ALA d   1     -41.937   8.434 -24.728  0.00  0.00    -0.346 N 
ATOM     89  H57 ALA d   1     -42.621   8.190 -25.416  0.00  0.00     0.163 HD
BRANCH  88  90
ATOM     90  CA  ALA d   1     -40.694   9.061 -25.171  0.00  0.00     0.086 C 
ATOM     91  H58 ALA d   1     -39.880   8.775 -24.489  0.00  0.00     0.086 H 
BRANCH  90  92
ATOM     92  C   ALA d   1     -40.850  10.559 -25.170  0.00  0.00     0.240 C 
ATOM     93  O   ALA d   1     -41.837  11.059 -25.690  0.00  0.00    -0.271 OA
ATOM     94  N   ALA d   1     -39.883  11.280 -24.610  0.00  0.00    -0.346 N 
ATOM     95  H62 ALA d   1     -39.217  10.824 -24.020  0.00  0.00     0.163 HD
BRANCH  94  96
ATOM     96  CA  ALA d   1     -39.764  12.725 -24.833  0.00  0.00     0.086 C 
ATOM     97  H63 ALA d   1     -40.767  13.174 -24.797  0.00  0.00     0.086 H 
BRANCH  96  98
ATOM     98  C   ALA d   1     -39.167  12.960 -26.221  0.00  0.00     0.240 C 
ATOM     99  O   ALA d   1     -38.378  12.147 -26.689  0.00  0.00    -0.271 OA
ATOM    100  N   VAL d   1     -39.545  14.065 -26.872  0.00  0.00    -0.346 N 
ATOM    101  H67 VAL d   1     -40.083  14.751 -26.382  0.00  0.00     0.163 HD
BRANCH 100 102
ATOM    102  CA  VAL d   1     -39.202  14.311 -28.276  0.00  0.00     0.092 C 
ATOM    103  H68 VAL d   1     -38.703  13.414 -28.671  0.00  0.00     0.088 H 
BRANCH 102 104
ATOM    104  C   VAL d   1     -38.235  15.488 -28.382  0.00  0.00     0.243 C 
ATOM    105  O   VAL d   1     -38.475  16.525 -27.787  0.00  0.00    -0.271 OA
ATOM    106  N   PRO d   1     -37.138  15.333 -29.137  0.00  0.00    -0.337 N 
ATOM    107  CA  PRO d   1     -36.268  16.474 -29.385  0.00  0.00     0.091 C 
ATOM    108  CD  PRO d   1     -36.595  14.103 -29.742  0.00  0.00    -0.001 C 
ATOM    109  CB  PRO d   1     -34.984  15.825 -29.922  0.00  0.00    -0.036 C 
ATOM    110  H76 PRO d   1     -36.076  17.023 -28.452  0.00  0.00     0.087 H 
ATOM    111  CG  PRO d   1     -35.454  14.589 -30.587  0.00  0.00    -0.048 C 
ATOM    112  H77 PRO d   1     -34.293  15.587 -29.099  0.00  0.00     0.036 H 
ATOM    113  H78 PRO d   1     -34.483  16.489 -30.642  0.00  0.00     0.036 H 
ATOM    114  H79 PRO d   1     -34.651  13.838 -30.620  0.00  0.00     0.035 H 
ATOM    115  H80 PRO d   1     -35.796  14.806 -31.610  0.00  0.00     0.035 H 
ATOM    116  H81 PRO d   1     -37.355  13.603 -30.361  0.00  0.00     0.064 H 
ATOM    117  H82 PRO d   1     -36.239  13.409 -28.966  0.00  0.00     0.064 H 
BRANCH 107 118
ATOM    118  C   PRO d   1     -36.835  17.434 -30.427  0.00  0.00     0.241 C 
ATOM    119  O   PRO d   1     -37.466  16.995 -31.382  0.00  0.00    -0.271 OA
ATOM    120  N   SER d   1     -36.574  18.722 -30.240  0.00  0.00    -0.344 N 
ATOM    121  H83 SER d   1     -36.027  18.987 -29.446  0.00  0.00     0.163 HD
BRANCH 120 122
ATOM    122  CA  SER d   1     -37.048  19.769 -31.138  0.00  0.00     0.109 C 
ATOM    123  H84 SER d   1     -38.030  19.480 -31.542  0.00  0.00     0.090 H 
BRANCH 122 124
ATOM    124  C   SER d   1     -36.075  19.957 -32.286  0.00  0.00     0.242 C 
ATOM    125  O   SER d   1     -34.879  19.728 -32.122  0.00  0.00    -0.271 OA
ATOM    126  N   GLY d   1     -36.595  20.369 -33.442  0.00  0.00    -0.350 N 
ATOM    127  H88 GLY d   1     -37.586  20.482 -33.509  0.00  0.00     0.163 HD
BRANCH 126 128
ATOM    128  CA  GLY d   1     -35.774  20.663 -34.618  0.00  0.00     0.069 C 
ATOM    129  H89 GLY d   1     -36.419  20.700 -35.508  0.00  0.00     0.078 H 
ATOM    130  H90 GLY d   1     -35.023  19.869 -34.742  0.00  0.00     0.078 H 
BRANCH 128 131
ATOM    131  C   GLY d   1     -35.066  22.000 -34.459  0.00  0.00     0.236 C 
ATOM    132  O   GLY d   1     -35.692  23.004 -34.096  0.00  0.00    -0.272 OA
ATOM    133  N   ALA d   1     -33.765  22.018 -34.724  0.00  0.00    -0.347 N 
ATOM    134  H91 ALA d   1     -33.333  21.193 -35.089  0.00  0.00     0.163 HD
BRANCH 133 135
ATOM    135  CA  ALA d   1     -32.944  23.208 -34.499  0.00  0.00     0.086 C 
ATOM    136  H92 ALA d   1     -33.215  23.625 -33.518  0.00  0.00     0.086 H 
BRANCH 135 137
ATOM    137  C   ALA d   1     -33.171  24.294 -35.549  0.00  0.00     0.240 C 
ATOM    138  O   ALA d   1     -33.761  24.043 -36.598  0.00  0.00    -0.271 OA
ATOM    139  N   SER d   1     -32.676  25.495 -35.246  0.00  0.00    -0.343 N 
ATOM    140  H96 SER d   1     -32.320  25.640 -34.323  0.00  0.00     0.163 HD
BRANCH 139 141
ATOM    141  CA  SER d   1     -32.626  26.615 -36.194  0.00  0.00     0.116 C 
ATOM    142  H97 SER d   1     -33.497  26.556 -36.863  0.00  0.00     0.093 H 
BRANCH 141 143
ATOM    143  C   SER d   1     -31.343  26.542 -37.040  0.00  0.00     0.198 C 
ATOM    144  O   SER d   1     -30.405  25.878 -36.630  0.00  0.00    -0.646 OA
ATOM    145  OXT SER d   1     -31.165  27.124 -38.116  0.00  0.00    -0.646 OA
ENDBRANCH 141 143
BRANCH 141 146
ATOM    146  CB  SER d   1     -32.674  27.942 -35.426  0.00  0.00     0.045 C 
ATOM    147  H98 SER d   1     -33.371  27.838 -34.581  0.00  0.00     0.077 H 
ATOM    148  H99 SER d   1     -33.034  28.731 -36.103  0.00  0.00     0.077 H 
BRANCH 146 149
ATOM    149  OG  SER d   1     -31.406  28.314 -34.927  0.00  0.00    -0.398 OA
ATOM    150 0H10 SER d   1     -31.480  29.138 -34.460  0.00  0.00     0.209 HD
ENDBRANCH 146 149
ENDBRANCH 141 146
ENDBRANCH 139 141
ENDBRANCH 135 137
BRANCH 135 151
ATOM    151  CB  ALA d   1     -31.472  22.820 -34.470  0.00  0.00    -0.049 C 
ATOM    152  H93 ALA d   1     -30.860  23.718 -34.301  0.00  0.00     0.030 H 
ATOM    153  H94 ALA d   1     -31.194  22.363 -35.431  0.00  0.00     0.030 H 
ATOM    154  H95 ALA d   1     -31.299  22.099 -33.657  0.00  0.00     0.030 H 
ENDBRANCH 135 151
ENDBRANCH 133 135
ENDBRANCH 128 131
ENDBRANCH 126 128
ENDBRANCH 122 124
BRANCH 122 155
ATOM    155  CB  SER d   1     -37.186  21.075 -30.369  0.00  0.00     0.044 C 
ATOM    156  H85 SER d   1     -37.619  21.841 -31.029  0.00  0.00     0.077 H 
ATOM    157  H86 SER d   1     -36.193  21.403 -30.029  0.00  0.00     0.077 H 
BRANCH 155 158
ATOM    158  OG  SER d   1     -38.026  20.895 -29.250  0.00  0.00    -0.398 OA
ATOM    159  H87 SER d   1     -38.104  21.716 -28.779  0.00  0.00     0.209 HD
ENDBRANCH 155 158
ENDBRANCH 122 155
ENDBRANCH 120 122
ENDBRANCH 107 118
ENDBRANCH 102 104
BRANCH 102 160
ATOM    160  CB  VAL d   1     -40.469  14.578 -29.133  0.00  0.00    -0.033 C 
ATOM    161  H69 VAL d   1     -41.008  15.431 -28.693  0.00  0.00     0.042 H 
BRANCH 160 162
ATOM    162  CG1 VAL d   1     -40.109  14.927 -30.579  0.00  0.00    -0.071 C 
ATOM    163  H70 VAL d   1     -41.030  15.109 -31.152  0.00  0.00     0.028 H 
ATOM    164  H71 VAL d   1     -39.555  14.091 -31.031  0.00  0.00     0.028 H 
ATOM    165  H72 VAL d   1     -39.484  15.832 -30.593  0.00  0.00     0.028 H 
ENDBRANCH 160 162
BRANCH 160 166
ATOM    166  CG2 VAL d   1     -41.388  13.363 -29.121  0.00  0.00    -0.071 C 
ATOM    167  H73 VAL d   1     -41.648  13.110 -28.082  0.00  0.00     0.028 H 
ATOM    168  H74 VAL d   1     -40.874  12.510 -29.588  0.00  0.00     0.028 H 
ATOM    169  H75 VAL d   1     -42.305  13.591 -29.683  0.00  0.00     0.028 H 
ENDBRANCH 160 166
ENDBRANCH 102 160
ENDBRANCH 100 102
ENDBRANCH  96  98
BRANCH  96 170
ATOM    170  CB  ALA d   1     -38.905  13.376 -23.754  0.00  0.00    -0.049 C 
ATOM    171  H64 ALA d   1     -38.833  14.457 -23.945  0.00  0.00     0.030 H 
ATOM    172  H65 ALA d   1     -37.898  12.933 -23.770  0.00  0.00     0.030 H 
ATOM    173  H66 ALA d   1     -39.364  13.208 -22.769  0.00  0.00     0.030 H 
ENDBRANCH  96 170
ENDBRANCH  94  96
ENDBRANCH  90  92
BRANCH  90 174
ATOM    174  CB  ALA d   1     -40.357   8.610 -26.582  0.00  0.00    -0.049 C 
ATOM    175  H59 ALA d   1     -39.420   9.087 -26.906  0.00  0.00     0.030 H 
ATOM    176  H60 ALA d   1     -41.170   8.899 -27.264  0.00  0.00     0.030 H 
ATOM    177  H61 ALA d   1     -40.236   7.517 -26.599  0.00  0.00     0.030 H 
ENDBRANCH  90 174
ENDBRANCH  88  90
ENDBRANCH   1  86
BRANCH   1 178
ATOM    178  CB  ARG d   1     -44.430   8.707 -22.513  0.00  0.00    -0.036 C 
ATOM    179  H46 ARG d   1     -43.783   9.282 -21.834  0.00  0.00     0.036 H 
ATOM    180  H47 ARG d   1     -45.239   8.234 -21.936  0.00  0.00     0.036 H 
BRANCH 178 181
ATOM    181  CG  ARG d   1     -45.064   9.683 -23.493  0.00  0.00    -0.048 C 
ATOM    182  H48 ARG d   1     -45.702   9.123 -24.192  0.00  0.00     0.035 H 
ATOM    183  H49 ARG d   1     -44.267  10.195 -24.053  0.00  0.00     0.035 H 
BRANCH 181 184
ATOM    184  CD  ARG d   1     -45.908  10.720 -22.780  0.00  0.00     0.009 C 
ATOM    185  H50 ARG d   1     -45.268  11.325 -22.120  0.00  0.00     0.064 H 
ATOM    186  H51 ARG d   1     -46.681  10.217 -22.181  0.00  0.00     0.064 H 
BRANCH 184 187
ATOM    187  NE  ARG d   1     -46.547  11.589 -23.775  0.00  0.00    -0.227 N 
ATOM    188  CZ  ARG d   1     -47.667  11.303 -24.455  0.00  0.00     0.665 C 
ATOM    189  NH1 ARG d   1     -48.325  10.145 -24.300  0.00  0.00    -0.235 N 
ATOM    190  NH2 ARG d   1     -48.135  12.197 -25.328  0.00  0.00    -0.235 N 
ATOM    191  H53 ARG d   1     -49.182   9.963 -24.841  0.00  0.00     0.174 HD
ATOM    192  H54 ARG d   1     -47.973   9.437 -23.640  0.00  0.00     0.174 HD
ATOM    193  H55 ARG d   1     -47.644  13.092 -25.462  0.00  0.00     0.174 HD
ATOM    194  H56 ARG d   1     -48.987  11.992 -25.868  0.00  0.00     0.174 HD
ATOM    195  H52 ARG d   1     -46.097  12.495 -23.967  0.00  0.00     0.177 HD
ENDBRANCH 184 187
ENDBRANCH 181 184
ENDBRANCH 178 181
ENDBRANCH   1 178
TORSDOF 54
