REMARK  8 active torsions:
REMARK  status: ('A' for Active; 'I' for Inactive)
REMARK    1  A    between atoms: C7_6  and  C6_5 
REMARK    2  A    between atoms: C12_7  and  C14_24 
REMARK    3  A    between atoms: C16_8  and  C17_9 
REMARK    4  A    between atoms: N15_25  and  C16_8 
REMARK    5  A    between atoms: C21_12  and  O22_27 
REMARK    6  A    between atoms: C23_13  and  C24_14 
REMARK    7  A    between atoms: O22_27  and  C23_13 
REMARK    8  A    between atoms: C9_22  and  N11_23 
ROOT
ATOM      1  C7  6SS d   1       2.567 -26.010  10.800  0.00  0.00     0.049 C 
ATOM      2  C12 6SS d   1       4.180 -25.865  12.583  0.00  0.00     0.130 C 
ATOM      3  C27 6SS d   1       4.202 -25.803   8.899  0.00  0.00     0.015 A 
ATOM      4  C30 6SS d   1       4.734 -25.315   6.226  0.00  0.00     0.036 A 
ATOM      5  C32 6SS d   1       4.697 -26.614   6.686  0.00  0.00    -0.036 A 
ATOM      6  C33 6SS d   1       4.427 -26.870   8.031  0.00  0.00     0.045 A 
ATOM      7  C35 6SS d   1       4.092 -27.900  10.030  0.00  0.00     0.264 A 
ATOM      8  C9  6SS d   1       2.730 -26.346  12.307  0.00  0.00     0.137 C 
ATOM      9  N15 6SS d   1       4.871 -25.837  11.252  0.00  0.00    -0.038 N 
ATOM     10  C26 6SS d   1       3.947 -26.415  10.245  0.00  0.00     0.247 A 
ATOM     11  C28 6SS d   1       4.245 -24.502   8.431  0.00  0.00    -0.070 A 
ATOM     12  C29 6SS d   1       4.506 -24.258   7.092  0.00  0.00    -0.061 A 
ATOM     13 CL2  6SS d   1       5.067 -25.006   4.559  0.00  0.00    -0.084 Cl
ATOM     14  N34 6SS d   1       4.352 -28.073   8.724  0.00  0.00    -0.324 N 
ATOM     15  O36 6SS d   1       3.976 -28.783  10.850  0.00  0.00    -0.270 OA
ATOM     16  H4  6SS d   1       2.437 -24.923  10.696  0.00  0.00     0.056 H 
ATOM     17  H5  6SS d   1       4.687 -26.563  13.265  0.00  0.00     0.087 H 
ATOM     18  H15 6SS d   1       4.878 -27.436   6.003  0.00  0.00     0.089 H 
ATOM     19  H16 6SS d   1       2.635 -27.428  12.482  0.00  0.00     0.088 H 
ATOM     20  H23 6SS d   1       4.949 -24.861  11.011  0.00  0.00     0.282 HD
ATOM     21  H26 6SS d   1       4.075 -23.675   9.111  0.00  0.00     0.084 H 
ATOM     22  H27 6SS d   1       4.532 -23.239   6.722  0.00  0.00     0.086 H 
ATOM     23  H28 6SS d   1       4.478 -28.968   8.297  0.00  0.00     0.169 HD
ENDROOT
BRANCH   9  24
ATOM     24  C16 6SS d   1       6.269 -26.315  11.232  0.00  0.00     0.109 C 
ATOM     25  H6  6SS d   1       6.351 -27.240  11.822  0.00  0.00     0.083 H 
ATOM     26  H7  6SS d   1       6.576 -26.513  10.194  0.00  0.00     0.083 H 
BRANCH  24  27
ATOM     27  C17 6SS d   1       7.158 -25.255  11.829  0.00  0.00    -0.030 A 
ATOM     28  C18 6SS d   1       7.254 -24.026  11.194  0.00  0.00    -0.075 A 
ATOM     29  C19 6SS d   1       8.063 -23.034  11.719  0.00  0.00    -0.080 A 
ATOM     30  H8  6SS d   1       6.694 -23.842  10.284  0.00  0.00     0.084 H 
ATOM     31  C20 6SS d   1       8.779 -23.264  12.886  0.00  0.00    -0.051 A 
ATOM     32  H9  6SS d   1       8.138 -22.076  11.218  0.00  0.00     0.083 H 
ATOM     33  C21 6SS d   1       8.695 -24.504  13.534  0.00  0.00     0.069 A 
ATOM     34  H24 6SS d   1       9.406 -22.481  13.298  0.00  0.00     0.087 H 
ATOM     35  C25 6SS d   1       7.871 -25.493  12.994  0.00  0.00    -0.043 A 
ATOM     36  H25 6SS d   1       7.788 -26.454  13.489  0.00  0.00     0.088 H 
BRANCH  33  37
ATOM     37  O22 6SS d   1       9.369 -24.774  14.697  0.00  0.00    -0.352 OA
BRANCH  37  38
ATOM     38  C23 6SS d   1      10.703 -24.312  14.929  0.00  0.00     0.023 C 
ATOM     39  H10 6SS d   1      11.357 -24.672  14.121  0.00  0.00     0.074 H 
ATOM     40  H11 6SS d   1      10.708 -23.212  14.942  0.00  0.00     0.074 H 
BRANCH  38  41
ATOM     41  C24 6SS d   1      11.225 -24.835  16.272  0.00  0.00    -0.056 C 
ATOM     42  H12 6SS d   1      12.250 -24.471  16.434  0.00  0.00     0.030 H 
ATOM     43  H13 6SS d   1      11.224 -25.935  16.263  0.00  0.00     0.030 H 
ATOM     44  H14 6SS d   1      10.575 -24.475  17.083  0.00  0.00     0.030 H 
ENDBRANCH  38  41
ENDBRANCH  37  38
ENDBRANCH  33  37
ENDBRANCH  24  27
ENDBRANCH   9  24
BRANCH   2  45
ATOM     45  C14 6SS d   1       4.190 -24.457  13.191  0.00  0.00    -0.047 C 
ATOM     46  H20 6SS d   1       5.229 -24.144  13.375  0.00  0.00     0.030 H 
ATOM     47  H21 6SS d   1       3.635 -24.464  14.141  0.00  0.00     0.030 H 
ATOM     48  H22 6SS d   1       3.713 -23.753  12.493  0.00  0.00     0.030 H 
ENDBRANCH   2  45
BRANCH   8  49
ATOM     49  N11 6SS d   1       1.744 -25.639  13.139  0.00  0.00    -0.072 N 
ATOM     50  H17 6SS d   1       0.820 -25.981  12.928  0.00  0.00     0.274 HD
ATOM     51  H18 6SS d   1       1.789 -24.651  12.946  0.00  0.00     0.274 HD
ATOM     52  H19 6SS d   1       1.948 -25.801  14.113  0.00  0.00     0.274 HD
ENDBRANCH   8  49
BRANCH   1  53
ATOM     53  C6  6SS d   1       1.397 -26.655  10.057  0.00  0.00    -0.008 A 
ATOM     54  C5  6SS d   1       0.884 -27.920  10.370  0.00  0.00    -0.073 A 
ATOM     55  C4  6SS d   1      -0.184 -28.462   9.653  0.00  0.00    -0.081 A 
ATOM     56  H3  6SS d   1       1.323 -28.488  11.182  0.00  0.00     0.084 H 
ATOM     57  C3  6SS d   1      -0.760 -27.752   8.614  0.00  0.00    -0.059 A 
ATOM     58  H2  6SS d   1      -0.564 -29.444   9.911  0.00  0.00     0.083 H 
ATOM     59  C2  6SS d   1      -0.263 -26.500   8.294  0.00  0.00     0.073 A 
ATOM     60  H1  6SS d   1      -1.590 -28.171   8.057  0.00  0.00     0.086 H 
ATOM     61  C37 6SS d   1       0.804 -25.951   9.001  0.00  0.00     0.144 A 
ATOM     62 CL1  6SS d   1      -0.959 -25.591   6.996  0.00  0.00    -0.081 Cl
ATOM     63  F38 6SS d   1       1.242 -24.722   8.636  0.00  0.00    -0.204 F 
ENDBRANCH   1  53
TORSDOF 8
