REMARK  5 active torsions:
REMARK  status: ('A' for Active; 'I' for Inactive)
REMARK    1  A    between atoms: C4_2  and  C2_1 
REMARK    2  A    between atoms: C10_23  and  C7_5 
REMARK    3  A    between atoms: C18_9  and  C20_26 
REMARK    4  A    between atoms: N39_36  and  C40_19 
REMARK    5  A    between atoms: C40_19  and  C41_37 
ROOT
ATOM      1  C12 6ST d   1     -10.217  10.143  -1.089  0.00  0.00    -0.005 C 
ATOM      2  C15 6ST d   1      -7.800   9.580  -0.966  0.00  0.00     0.141 C 
ATOM      3  C18 6ST d   1      -6.764  10.733  -0.959  0.00  0.00     0.050 C 
ATOM      4  C32 6ST d   1      -5.570  12.957   1.442  0.00  0.00     0.045 A 
ATOM      5  C33 6ST d   1      -4.895  14.151   1.661  0.00  0.00    -0.036 A 
ATOM      6  C34 6ST d   1      -5.089  15.248   0.839  0.00  0.00     0.036 A 
ATOM      7  C36 6ST d   1      -5.953  15.170  -0.212  0.00  0.00    -0.061 A 
ATOM      8  C37 6ST d   1      -6.659  13.989  -0.456  0.00  0.00    -0.070 A 
ATOM      9  C38 6ST d   1      -6.501  12.882   0.368  0.00  0.00     0.015 A 
ATOM     10  C10 6ST d   1      -9.537  10.149  -2.491  0.00  0.00     0.129 C 
ATOM     11  C13 6ST d   1      -8.966  10.165  -0.124  0.00  0.00     0.136 C 
ATOM     12  N17 6ST d   1      -8.366   9.249  -2.302  0.00  0.00    -0.060 N 
ATOM     13  C28 6ST d   1      -7.059  11.492   0.366  0.00  0.00     0.246 A 
ATOM     14  C29 6ST d   1      -6.426  10.826   1.580  0.00  0.00     0.264 A 
ATOM     15  O30 6ST d   1      -6.630   9.674   1.941  0.00  0.00    -0.270 OA
ATOM     16  N31 6ST d   1      -5.578  11.746   2.128  0.00  0.00    -0.324 N 
ATOM     17 CL3  6ST d   1      -4.239  16.689   1.134  0.00  0.00    -0.084 Cl
ATOM     18  N39 6ST d   1      -8.573  11.496   0.308  0.00  0.00    -0.042 N 
ATOM     19  H4  6ST d   1     -10.822   9.236  -0.941  0.00  0.00     0.039 H 
ATOM     20  H5  6ST d   1     -10.849  11.032  -0.946  0.00  0.00     0.039 H 
ATOM     21  H6  6ST d   1      -7.371   8.675  -0.511  0.00  0.00     0.088 H 
ATOM     22  H7  6ST d   1      -6.989  11.410  -1.796  0.00  0.00     0.056 H 
ATOM     23  H10 6ST d   1      -4.203  14.225   2.492  0.00  0.00     0.089 H 
ATOM     24  H11 6ST d   1      -6.093  16.027  -0.861  0.00  0.00     0.086 H 
ATOM     25  H12 6ST d   1      -7.338  13.936  -1.299  0.00  0.00     0.084 H 
ATOM     26  H16 6ST d   1      -9.199  11.168  -2.731  0.00  0.00     0.092 H 
ATOM     27  H17 6ST d   1      -9.167   9.542   0.760  0.00  0.00     0.088 H 
ATOM     28  H18 6ST d   1      -8.659   8.285  -2.329  0.00  0.00     0.278 HD
ATOM     29  H19 6ST d   1      -7.680   9.412  -3.022  0.00  0.00     0.278 HD
ATOM     30  H21 6ST d   1      -5.020  11.568   2.939  0.00  0.00     0.169 HD
ATOM     31  H22 6ST d   1      -8.870  12.152  -0.397  0.00  0.00     0.282 HD
ENDROOT
BRANCH  10  32
ATOM     32  C7  6ST d   1     -10.406   9.677  -3.611  0.00  0.00    -0.028 A 
ATOM     33  C6  6ST d   1     -11.775   9.535  -3.472  0.00  0.00    -0.074 A 
ATOM     34  C5  6ST d   1     -12.518   9.086  -4.508  0.00  0.00    -0.066 A 
ATOM     35  H2  6ST d   1     -12.252   9.784  -2.531  0.00  0.00     0.084 H 
ATOM     36  C4  6ST d   1     -11.893   8.758  -5.718  0.00  0.00     0.040 A 
ATOM     37  H1  6ST d   1     -13.592   8.980  -4.403  0.00  0.00     0.085 H 
ATOM     38  C9  6ST d   1     -10.518   8.921  -5.872  0.00  0.00    -0.066 A 
ATOM     39  C8  6ST d   1      -9.786   9.357  -4.807  0.00  0.00    -0.074 A 
ATOM     40  H15 6ST d   1     -10.039   8.705  -6.820  0.00  0.00     0.085 H 
ATOM     41  H3  6ST d   1      -8.710   9.454  -4.898  0.00  0.00     0.084 H 
BRANCH  36  42
ATOM     42  C2  6ST d   1     -12.718   8.306  -6.848  0.00  0.00     0.209 C 
ATOM     43  O1  6ST d   1     -14.003   7.997  -6.649  0.00  0.00    -0.644 OA
ATOM     44  O3  6ST d   1     -12.212   8.216  -7.945  0.00  0.00    -0.644 OA
ENDBRANCH  36  42
ENDBRANCH  10  32
BRANCH  18  45
ATOM     45  C40 6ST d   1      -9.164  11.956   1.614  0.00  0.00     0.089 C 
ATOM     46  H13 6ST d   1      -8.488  12.688   2.079  0.00  0.00     0.076 H 
ATOM     47  H14 6ST d   1      -9.283  11.090   2.282  0.00  0.00     0.076 H 
BRANCH  45  48
ATOM     48  C41 6ST d   1     -10.529  12.606   1.385  0.00  0.00    -0.031 A 
ATOM     49  C42 6ST d   1     -10.855  13.673   2.415  0.00  0.00    -0.060 A 
ATOM     50  C43 6ST d   1     -10.549  14.067   0.956  0.00  0.00    -0.060 A 
ATOM     51  H24 6ST d   1     -10.134  13.908   3.212  0.00  0.00     0.033 H 
ATOM     52  H25 6ST d   1     -11.878  13.765   2.808  0.00  0.00     0.033 H 
ATOM     53  H26 6ST d   1     -11.354  14.440   0.305  0.00  0.00     0.033 H 
ATOM     54  H27 6ST d   1      -9.609  14.582   0.709  0.00  0.00     0.033 H 
ATOM     55  H23 6ST d   1     -11.275  11.889   1.012  0.00  0.00     0.042 H 
ENDBRANCH  45  48
ENDBRANCH  18  45
BRANCH   3  56
ATOM     56  C20 6ST d   1      -5.321  10.268  -1.165  0.00  0.00    -0.008 A 
ATOM     57  C21 6ST d   1      -4.786   9.088  -0.602  0.00  0.00    -0.073 A 
ATOM     58  C22 6ST d   1      -3.501   8.709  -0.854  0.00  0.00    -0.081 A 
ATOM     59  H8  6ST d   1      -5.407   8.474   0.041  0.00  0.00     0.084 H 
ATOM     60  C23 6ST d   1      -2.685   9.528  -1.619  0.00  0.00    -0.059 A 
ATOM     61  H20 6ST d   1      -3.120   7.774  -0.459  0.00  0.00     0.083 H 
ATOM     62  C24 6ST d   1      -3.181  10.688  -2.178  0.00  0.00     0.073 A 
ATOM     63  H9  6ST d   1      -1.648   9.255  -1.779  0.00  0.00     0.086 H 
ATOM     64 CL2  6ST d   1      -2.161  11.745  -3.159  0.00  0.00    -0.081 Cl
ATOM     65  C26 6ST d   1      -4.474  11.076  -1.896  0.00  0.00     0.144 A 
ATOM     66  F27 6ST d   1      -4.901  12.227  -2.439  0.00  0.00    -0.204 F 
ENDBRANCH   3  56
TORSDOF 5
