REMARK  14 active torsions:
REMARK  status: ('A' for Active; 'I' for Inactive)
REMARK    1  A    between atoms: N_1  and  CA_2 
REMARK    2  A    between atoms: CA_2  and  C_3 
REMARK    3  A    between atoms: CA_2  and  CB_5 
REMARK       I    between atoms: C_3  and  N_7 
REMARK    4  A    between atoms: CB_5  and  OG_6 
REMARK    5  A    between atoms: N_7  and  CA_8 
REMARK    6  A    between atoms: CA_8  and  C_9 
REMARK    7  A    between atoms: CA_8  and  CB_11 
REMARK       I    between atoms: C_9  and  N_18 
REMARK    8  A    between atoms: CB_11  and  CG_12 
REMARK    9  A    between atoms: N_18  and  CA_19 
REMARK   10  A    between atoms: CA_19  and  C_20 
REMARK   11  A    between atoms: CA_19  and  CB_22 
REMARK   12  A    between atoms: CB_22  and  CG_23 
REMARK   13  A    between atoms: CG_23  and  CD1_24 
REMARK   14  A    between atoms: CG_23  and  CD2_25 
ROOT
ATOM      1  CA  PHE d   1     109.624 174.761  57.546  0.00  0.00     0.093 C 
ATOM      2  H9  PHE d   1     109.721 175.851  57.431  0.00  0.00     0.088 H 
ENDROOT
BRANCH   1   3
ATOM      3  N   PHE d   1     109.562 174.488  58.976  0.00  0.00    -0.346 N 
ATOM      4  C   SER d   1     109.438 175.455  59.884  0.00  0.00     0.251 C 
ATOM      5  O   SER d   1     109.301 176.644  59.588  0.00  0.00    -0.271 OA
ATOM      6  H8  PHE d   1     109.615 173.539  59.288  0.00  0.00     0.163 HD
BRANCH   4   7
ATOM      7  CA  SER d   1     109.471 175.013  61.342  0.00  0.00     0.195 C 
ATOM      8  H4  SER d   1     108.713 175.586  61.895  0.00  0.00     0.102 H 
BRANCH   7   9
ATOM      9  N   SER d   1     109.153 173.594  61.470  0.00  0.00    -0.064 N 
ATOM     10  H1  SER d   1     109.182 173.330  62.442  0.00  0.00     0.275 HD
ATOM     11  H2  SER d   1     109.827 173.051  60.954  0.00  0.00     0.275 HD
ATOM     12  H3  SER d   1     108.230 173.422  61.102  0.00  0.00     0.275 HD
ENDBRANCH   7   9
BRANCH   7  13
ATOM     13  CB  SER d   1     110.845 175.317  61.946  0.00  0.00     0.051 C 
ATOM     14  H5  SER d   1     111.085 176.377  61.777  0.00  0.00     0.077 H 
ATOM     15  H6  SER d   1     111.601 174.687  61.454  0.00  0.00     0.077 H 
BRANCH  13  16
ATOM     16  OG  SER d   1     110.862 175.056  63.338  0.00  0.00    -0.398 OA
ATOM     17  H7  SER d   1     111.724 175.253  63.685  0.00  0.00     0.209 HD
ENDBRANCH  13  16
ENDBRANCH   7  13
ENDBRANCH   4   7
ENDBRANCH   1   3
BRANCH   1  18
ATOM     18  C   PHE d   1     108.359 174.353  56.806  0.00  0.00     0.241 C 
ATOM     19  O   PHE d   1     108.329 174.401  55.572  0.00  0.00    -0.271 OA
ATOM     20  N   LEU d   1     107.318 173.955  57.528  0.00  0.00    -0.345 N 
ATOM     21  H17 LEU d   1     107.432 173.797  58.509  0.00  0.00     0.163 HD
BRANCH  20  22
ATOM     22  CA  LEU d   1     106.019 173.746  56.918  0.00  0.00     0.096 C 
ATOM     23  H18 LEU d   1     106.112 173.002  56.113  0.00  0.00     0.089 H 
BRANCH  22  24
ATOM     24  C   LEU d   1     105.549 175.069  56.325  0.00  0.00     0.196 C 
ATOM     25  O   LEU d   1     105.387 176.059  57.040  0.00  0.00    -0.646 OA
ATOM     26  OXT LEU d   1     105.322 175.175  55.119  0.00  0.00    -0.646 OA
ENDBRANCH  22  24
BRANCH  22  27
ATOM     27  CB  LEU d   1     105.019 173.228  57.953  0.00  0.00    -0.034 C 
ATOM     28  H19 LEU d   1     104.020 173.236  57.492  0.00  0.00     0.037 H 
ATOM     29  H20 LEU d   1     105.032 173.916  58.811  0.00  0.00     0.037 H 
BRANCH  27  30
ATOM     30  CG  LEU d   1     105.285 171.817  58.477  0.00  0.00    -0.059 C 
ATOM     31  H21 LEU d   1     106.258 171.814  58.990  0.00  0.00     0.038 H 
BRANCH  30  32
ATOM     32  CD1 LEU d   1     104.216 171.412  59.477  0.00  0.00    -0.073 C 
ATOM     33  H22 LEU d   1     104.423 170.396  59.843  0.00  0.00     0.028 H 
ATOM     34  H23 LEU d   1     103.231 171.432  58.989  0.00  0.00     0.028 H 
ATOM     35  H24 LEU d   1     104.221 172.115  60.323  0.00  0.00     0.028 H 
ENDBRANCH  30  32
BRANCH  30  36
ATOM     36  CD2 LEU d   1     105.348 170.828  57.325  0.00  0.00    -0.073 C 
ATOM     37  H25 LEU d   1     106.128 171.141  56.615  0.00  0.00     0.028 H 
ATOM     38  H26 LEU d   1     104.375 170.800  56.812  0.00  0.00     0.028 H 
ATOM     39  H27 LEU d   1     105.587 169.827  57.714  0.00  0.00     0.028 H 
ENDBRANCH  30  36
ENDBRANCH  27  30
ENDBRANCH  22  27
ENDBRANCH  20  22
ENDBRANCH   1  18
BRANCH   1  40
ATOM     40  CB  PHE d   1     110.873 174.127  56.932  0.00  0.00    -0.014 C 
ATOM     41  H10 PHE d   1     110.811 174.218  55.838  0.00  0.00     0.043 H 
ATOM     42  H11 PHE d   1     110.900 173.063  57.210  0.00  0.00     0.043 H 
BRANCH  40  43
ATOM     43  CG  PHE d   1     112.140 174.772  57.393  0.00  0.00    -0.056 A 
ATOM     44  CD1 PHE d   1     112.709 174.418  58.604  0.00  0.00    -0.077 A 
ATOM     45  CE1 PHE d   1     113.863 175.023  59.044  0.00  0.00    -0.082 A 
ATOM     46  H12 PHE d   1     112.239 173.654  59.213  0.00  0.00     0.084 H 
ATOM     47  CZ  PHE d   1     114.459 176.002  58.277  0.00  0.00    -0.083 A 
ATOM     48  H14 PHE d   1     114.303 174.731  59.991  0.00  0.00     0.083 H 
ATOM     49  CE2 PHE d   1     113.894 176.377  57.073  0.00  0.00    -0.082 A 
ATOM     50  H16 PHE d   1     115.371 176.478  58.619  0.00  0.00     0.083 H 
ATOM     51  CD2 PHE d   1     112.739 175.768  56.639  0.00  0.00    -0.077 A 
ATOM     52  H15 PHE d   1     114.360 177.149  56.472  0.00  0.00     0.083 H 
ATOM     53  H13 PHE d   1     112.293 176.070  55.698  0.00  0.00     0.084 H 
ENDBRANCH  40  43
ENDBRANCH   1  40
TORSDOF 14
