REMARK  12 active torsions:
REMARK  status: ('A' for Active; 'I' for Inactive)
REMARK    1  A    between atoms: C2_1  and  N1_2 
REMARK    2  A    between atoms: N1_2  and  C1_3 
REMARK    3  A    between atoms: N1_2  and  C3_4 
REMARK    4  A    between atoms: C3_4  and  C4_5 
REMARK    5  A    between atoms: C4_5  and  C5_6 
REMARK    6  A    between atoms: C5_6  and  N2_7 
REMARK    7  A    between atoms: C7_10  and  N4_11 
REMARK    8  A    between atoms: N4_11  and  C8_12 
REMARK    9  A    between atoms: C25_17  and  O2_18 
REMARK   10  A    between atoms: O2_18  and  C26_19 
REMARK   11  A    between atoms: C23_20  and  O1_22 
REMARK   12  A    between atoms: O1_22  and  C24_23 
ROOT
ATOM      1  N2  767 d   1     -60.626 -41.084 -32.798  0.00  0.00    -0.222 N 
ATOM      2  C6  767 d   1     -60.488 -42.189 -33.576  0.00  0.00     0.725 A 
ATOM      3  N3  767 d   1     -60.998 -42.241 -34.850  0.00  0.00    -0.045 NA
ATOM      4  C7  767 d   1     -60.879 -43.321 -35.669  0.00  0.00     0.155 A 
ATOM      5  N6  767 d   1     -59.824 -43.253 -33.072  0.00  0.00    -0.062 NA
ATOM      6  C20 767 d   1     -59.678 -44.365 -33.836  0.00  0.00     0.092 A 
ATOM      7  C21 767 d   1     -60.202 -44.410 -35.143  0.00  0.00     0.042 A 
ATOM      8  C27 767 d   1     -58.997 -45.484 -33.329  0.00  0.00    -0.019 A 
ATOM      9  C25 767 d   1     -58.836 -46.644 -34.112  0.00  0.00     0.103 A 
ATOM     10  C23 767 d   1     -59.363 -46.664 -35.406  0.00  0.00     0.102 A 
ATOM     11  C22 767 d   1     -60.038 -45.549 -35.916  0.00  0.00    -0.032 A 
ATOM     12  H14 767 d   1     -60.228 -41.075 -31.848  0.00  0.00     0.177 HD
ATOM     13  H19 767 d   1     -58.591 -45.455 -32.324  0.00  0.00     0.091 H 
ATOM     14  H23 767 d   1     -60.436 -45.576 -36.924  0.00  0.00     0.089 H 
ENDROOT
BRANCH   1  15
ATOM     15  C5  767 d   1     -61.332 -39.912 -33.296  0.00  0.00     0.011 C 
ATOM     16  H12 767 d   1     -61.364 -39.928 -34.395  0.00  0.00     0.064 H 
ATOM     17  H13 767 d   1     -62.358 -39.891 -32.899  0.00  0.00     0.064 H 
BRANCH  15  18
ATOM     18  C4  767 d   1     -60.559 -38.694 -32.813  0.00  0.00    -0.027 C 
ATOM     19  H10 767 d   1     -59.495 -38.959 -32.727  0.00  0.00     0.037 H 
ATOM     20  H11 767 d   1     -60.677 -37.883 -33.547  0.00  0.00     0.037 H 
BRANCH  18  21
ATOM     21  C3  767 d   1     -61.059 -38.208 -31.456  0.00  0.00     0.084 C 
ATOM     22  H8  767 d   1     -62.076 -38.598 -31.300  0.00  0.00     0.076 H 
ATOM     23  H9  767 d   1     -60.391 -38.604 -30.677  0.00  0.00     0.076 H 
BRANCH  21  24
ATOM     24  N1  767 d   1     -61.099 -36.734 -31.333  0.00  0.00    -0.079 N 
ATOM     25  H4  767 d   1     -61.367 -36.547 -30.379  0.00  0.00     0.278 HD
BRANCH  24  26
ATOM     26  C2  767 d   1     -62.168 -36.118 -32.167  0.00  0.00     0.066 C 
ATOM     27  H1  767 d   1     -62.151 -35.026 -32.037  0.00  0.00     0.068 H 
ATOM     28  H2  767 d   1     -63.148 -36.509 -31.855  0.00  0.00     0.068 H 
ATOM     29  H3  767 d   1     -61.995 -36.364 -33.225  0.00  0.00     0.068 H 
ENDBRANCH  24  26
BRANCH  24  30
ATOM     30  C1  767 d   1     -59.752 -36.118 -31.491  0.00  0.00     0.066 C 
ATOM     31  H5  767 d   1     -59.033 -36.636 -30.840  0.00  0.00     0.068 H 
ATOM     32  H6  767 d   1     -59.800 -35.055 -31.212  0.00  0.00     0.068 H 
ATOM     33  H7  767 d   1     -59.428 -36.208 -32.538  0.00  0.00     0.068 H 
ENDBRANCH  24  30
ENDBRANCH  21  24
ENDBRANCH  18  21
ENDBRANCH  15  18
ENDBRANCH   1  15
BRANCH   4  34
ATOM     34  N4  767 d   1     -61.374 -43.396 -36.941  0.00  0.00    -0.378 N 
ATOM     35  H15 767 d   1     -61.216 -44.273 -37.457  0.00  0.00     0.160 HD
BRANCH  34  36
ATOM     36  C8  767 d   1     -62.103 -42.345 -37.627  0.00  0.00    -0.020 C 
ATOM     37  H16 767 d   1     -62.376 -42.687 -38.636  0.00  0.00     0.056 H 
ATOM     38  H17 767 d   1     -61.470 -41.449 -37.702  0.00  0.00     0.056 H 
ATOM     39  H18 767 d   1     -63.016 -42.103 -37.062  0.00  0.00     0.056 H 
ENDBRANCH  34  36
ENDBRANCH   4  34
BRANCH   9  40
ATOM     40  O2  767 d   1     -58.163 -47.751 -33.633  0.00  0.00    -0.353 OA
BRANCH  40  41
ATOM     41  C26 767 d   1     -56.861 -47.641 -33.047  0.00  0.00     0.010 C 
ATOM     42  H20 767 d   1     -56.514 -48.637 -32.736  0.00  0.00     0.066 H 
ATOM     43  H21 767 d   1     -56.908 -46.978 -32.170  0.00  0.00     0.066 H 
ATOM     44  H22 767 d   1     -56.161 -47.223 -33.785  0.00  0.00     0.066 H 
ENDBRANCH  40  41
ENDBRANCH   9  40
BRANCH  10  45
ATOM     45  O1  767 d   1     -59.246 -47.778 -36.196  0.00  0.00    -0.353 OA
BRANCH  45  46
ATOM     46  C24 767 d   1     -60.347 -48.180 -37.021  0.00  0.00     0.010 C 
ATOM     47  H24 767 d   1     -60.074 -49.087 -37.580  0.00  0.00     0.066 H 
ATOM     48  H25 767 d   1     -60.590 -47.373 -37.728  0.00  0.00     0.066 H 
ATOM     49  H26 767 d   1     -61.222 -48.389 -36.388  0.00  0.00     0.066 H 
ENDBRANCH  45  46
ENDBRANCH  10  45
TORSDOF 12
