REMARK  14 active torsions:
REMARK  status: ('A' for Active; 'I' for Inactive)
REMARK    1  A    between atoms: C22_2  and  C25_3 
REMARK       I    between atoms: C22_2  and  N21_9 
REMARK    2  A    between atoms: N21_9  and  C18_10 
REMARK    3  A    between atoms: C18_10  and  C20_11 
REMARK    4  A    between atoms: C18_10  and  C17_20 
REMARK    5  A    between atoms: C20_11  and  C31_12 
REMARK    6  A    between atoms: C34_15  and  C37_16 
REMARK    7  A    between atoms: C37_16  and  N38_17 
REMARK       I    between atoms: C17_20  and  N2_22 
REMARK    8  A    between atoms: N2_22  and  C1_23 
REMARK    9  A    between atoms: C1_23  and  B4_24 
REMARK   10  A    between atoms: C1_23  and  C3_27 
REMARK   11  A    between atoms: C3_27  and  C11_28 
REMARK   12  A    between atoms: C11_28  and  C12_29 
REMARK   13  A    between atoms: C12_29  and  N13_30 
REMARK       I    between atoms: N13_30  and  C14_31 
REMARK       I    between atoms: C14_31  and  N15_32 
REMARK   14  A    between atoms: C5_36  and  O2_37 
ROOT
ATOM      1  C18 6T8 d   1      82.196  52.492 152.892  0.00  0.00     0.093 C 
ATOM      2  H7  6T8 d   1      83.226  52.351 152.532  0.00  0.00     0.088 H 
ENDROOT
BRANCH   1   3
ATOM      3  N21 6T8 d   1      81.317  51.625 152.148  0.00  0.00    -0.343 N 
ATOM      4  C22 6T8 d   1      81.562  50.329 151.941  0.00  0.00     0.252 C 
ATOM      5  O24 6T8 d   1      82.675  49.861 152.088  0.00  0.00    -0.268 OA
ATOM      6  H6  6T8 d   1      80.479  52.015 151.767  0.00  0.00     0.163 HD
BRANCH   4   7
ATOM      7  C25 6T8 d   1      80.434  49.351 151.767  0.00  0.00     0.032 A 
ATOM      8  C30 6T8 d   1      80.711  48.042 151.447  0.00  0.00    -0.068 A 
ATOM      9  C29 6T8 d   1      79.719  47.082 151.348  0.00  0.00    -0.082 A 
ATOM     10  H1  6T8 d   1      81.740  47.753 151.267  0.00  0.00     0.085 H 
ATOM     11  C28 6T8 d   1      78.413  47.422 151.569  0.00  0.00    -0.083 A 
ATOM     12  H2  6T8 d   1      79.977  46.060 151.095  0.00  0.00     0.083 H 
ATOM     13  C27 6T8 d   1      78.093  48.722 151.865  0.00  0.00    -0.082 A 
ATOM     14  H3  6T8 d   1      77.636  46.669 151.511  0.00  0.00     0.083 H 
ATOM     15  C26 6T8 d   1      79.094  49.689 152.016  0.00  0.00    -0.068 A 
ATOM     16  H4  6T8 d   1      77.053  49.004 151.983  0.00  0.00     0.083 H 
ATOM     17  H5  6T8 d   1      78.835  50.696 152.324  0.00  0.00     0.085 H 
ENDBRANCH   4   7
ENDBRANCH   1   3
BRANCH   1  18
ATOM     18  C20 6T8 d   1      81.765  53.946 152.703  0.00  0.00    -0.014 C 
ATOM     19  H8  6T8 d   1      82.391  54.571 153.357  0.00  0.00     0.043 H 
ATOM     20  H9  6T8 d   1      80.713  54.029 153.014  0.00  0.00     0.043 H 
BRANCH  18  21
ATOM     21  C31 6T8 d   1      81.876  54.493 151.294  0.00  0.00    -0.056 A 
ATOM     22  C36 6T8 d   1      81.234  55.708 151.102  0.00  0.00    -0.076 A 
ATOM     23  C35 6T8 d   1      81.253  56.339 149.875  0.00  0.00    -0.075 A 
ATOM     24  H10 6T8 d   1      80.708  56.169 151.930  0.00  0.00     0.084 H 
ATOM     25  C34 6T8 d   1      81.923  55.764 148.810  0.00  0.00    -0.033 A 
ATOM     26  H11 6T8 d   1      80.742  57.286 149.745  0.00  0.00     0.084 H 
ATOM     27  C33 6T8 d   1      82.582  54.533 148.985  0.00  0.00    -0.075 A 
ATOM     28  C32 6T8 d   1      82.559  53.894 150.226  0.00  0.00    -0.076 A 
ATOM     29  H17 6T8 d   1      83.109  54.079 148.154  0.00  0.00     0.084 H 
ATOM     30  H18 6T8 d   1      83.064  52.945 150.363  0.00  0.00     0.084 H 
BRANCH  25  31
ATOM     31  C37 6T8 d   1      81.870  56.572 147.536  0.00  0.00     0.103 C 
ATOM     32  H12 6T8 d   1      82.394  57.525 147.701  0.00  0.00     0.082 H 
ATOM     33  H13 6T8 d   1      80.817  56.771 147.289  0.00  0.00     0.082 H 
BRANCH  31  34
ATOM     34  N38 6T8 d   1      82.494  55.884 146.406  0.00  0.00    -0.075 N 
ATOM     35  H14 6T8 d   1      82.432  56.464 145.584  0.00  0.00     0.274 HD
ATOM     36  H15 6T8 d   1      82.017  55.012 146.239  0.00  0.00     0.274 HD
ATOM     37  H16 6T8 d   1      83.463  55.702 146.617  0.00  0.00     0.274 HD
ENDBRANCH  31  34
ENDBRANCH  25  31
ENDBRANCH  18  21
ENDBRANCH   1  18
BRANCH   1  38
ATOM     38  C17 6T8 d   1      82.136  52.228 154.389  0.00  0.00     0.240 C 
ATOM     39  O19 6T8 d   1      81.105  52.506 154.945  0.00  0.00    -0.271 OA
ATOM     40  N2  6T8 d   1      83.218  51.815 155.078  0.00  0.00    -0.358 N 
ATOM     41  H19 6T8 d   1      83.978  51.400 154.578  0.00  0.00     0.162 HD
BRANCH  40  42
ATOM     42  C1  6T8 d   1      83.323  51.952 156.538  0.00  0.00     0.046 C 
ATOM     43  H20 6T8 d   1      82.306  51.969 156.958  0.00  0.00     0.064 H 
BRANCH  42  44
ATOM     44  B4  6T8 d   1      84.068  53.317 156.870  0.00  0.00     0.519 B 
ATOM     45  O1  6T8 d   1      84.105  53.716 158.230  0.00  0.00    -0.423 OA
ATOM     46  C4  6T8 d   1      83.593  54.999 158.612  0.00  0.00     0.029 C 
ATOM     47  C5  6T8 d   1      82.606  55.455 157.577  0.00  0.00     0.073 C 
ATOM     48  H37 6T8 d   1      84.419  55.722 158.678  0.00  0.00     0.075 H 
ATOM     49  H38 6T8 d   1      83.094  54.922 159.589  0.00  0.00     0.075 H 
ATOM     50  C2  6T8 d   1      83.404  55.639 156.334  0.00  0.00     0.029 C 
ATOM     51  H39 6T8 d   1      82.122  56.393 157.885  0.00  0.00     0.089 H 
ATOM     52  O3  6T8 d   1      83.975  54.389 155.943  0.00  0.00    -0.423 OA
ATOM     53  H35 6T8 d   1      82.751  56.011 155.531  0.00  0.00     0.075 H 
ATOM     54  H36 6T8 d   1      84.208  56.367 156.519  0.00  0.00     0.075 H 
BRANCH  47  55
ATOM     55  O2  6T8 d   1      81.621  54.448 157.332  0.00  0.00    -0.391 OA
ATOM     56  H40 6T8 d   1      82.048  53.658 157.021  0.00  0.00     0.210 HD
ENDBRANCH  47  55
ENDBRANCH  42  44
BRANCH  42  57
ATOM     57  C3  6T8 d   1      84.103  50.825 157.214  0.00  0.00    -0.047 C 
ATOM     58  H24 6T8 d   1      84.786  51.259 157.959  0.00  0.00     0.035 H 
ATOM     59  H25 6T8 d   1      84.685  50.285 156.453  0.00  0.00     0.035 H 
BRANCH  57  60
ATOM     60  C11 6T8 d   1      83.173  49.851 157.906  0.00  0.00    -0.049 C 
ATOM     61  H26 6T8 d   1      82.219  50.353 158.125  0.00  0.00     0.035 H 
ATOM     62  H27 6T8 d   1      83.634  49.514 158.846  0.00  0.00     0.035 H 
BRANCH  60  63
ATOM     63  C12 6T8 d   1      82.916  48.653 157.018  0.00  0.00     0.009 C 
ATOM     64  H28 6T8 d   1      83.670  47.880 157.224  0.00  0.00     0.064 H 
ATOM     65  H29 6T8 d   1      82.984  48.961 155.964  0.00  0.00     0.064 H 
BRANCH  63  66
ATOM     66  N13 6T8 d   1      81.593  48.113 157.275  0.00  0.00    -0.227 N 
ATOM     67  C14 6T8 d   1      81.319  46.878 157.675  0.00  0.00     0.665 C 
ATOM     68  N15 6T8 d   1      82.247  45.982 158.027  0.00  0.00    -0.235 N 
ATOM     69  N16 6T8 d   1      80.101  46.543 157.662  0.00  0.00    -0.235 N 
ATOM     70  H31 6T8 d   1      81.964  45.039 158.328  0.00  0.00     0.174 HD
ATOM     71  H32 6T8 d   1      83.245  46.235 157.997  0.00  0.00     0.174 HD
ATOM     72  H33 6T8 d   1      79.381  47.228 157.392  0.00  0.00     0.174 HD
ATOM     73  H34 6T8 d   1      79.828  45.584 157.922  0.00  0.00     0.174 HD
ATOM     74  H30 6T8 d   1      80.794  48.747 157.134  0.00  0.00     0.177 HD
ENDBRANCH  63  66
ENDBRANCH  60  63
ENDBRANCH  57  60
ENDBRANCH  42  57
ENDBRANCH  40  42
ENDBRANCH   1  38
TORSDOF 14
