REMARK  3 active torsions:
REMARK  status: ('A' for Active; 'I' for Inactive)
REMARK    1  A    between atoms: C02_2  and  C04_4 
REMARK    2  A    between atoms: N10_10  and  C14_14 
REMARK    3  A    between atoms: C18_18  and  C20_20 
ROOT
ATOM      1  C04 B06 d   1     -10.978  25.741 -18.423  0.00  0.00     0.057 A 
ATOM      2  C05 B06 d   1     -11.717  25.810 -17.248  0.00  0.00    -0.065 A 
ATOM      3  C06 B06 d   1     -11.110  26.233 -16.062  0.00  0.00    -0.081 A 
ATOM      4  C07 B06 d   1      -9.765  26.586 -16.052  0.00  0.00    -0.074 A 
ATOM      5  C08 B06 d   1      -9.020  26.519 -17.239  0.00  0.00    -0.023 A 
ATOM      6  C09 B06 d   1      -7.550  26.832 -17.553  0.00  0.00     0.028 A 
ATOM      7  N10 B06 d   1      -7.330  26.563 -18.953  0.00  0.00    -0.309 N 
ATOM      8  C11 B06 d   1      -8.576  26.124 -19.535  0.00  0.00     0.260 A 
ATOM      9  O12 B06 d   1      -8.764  25.825 -20.665  0.00  0.00    -0.267 OA
ATOM     10  C13 B06 d   1      -9.625  26.099 -18.414  0.00  0.00     0.057 A 
ATOM     11  H1  B06 d   1     -12.766  25.535 -17.251  0.00  0.00     0.085 H 
ATOM     12  H2  B06 d   1     -11.689  26.286 -15.147  0.00  0.00     0.083 H 
ATOM     13  H3  B06 d   1      -9.294  26.911 -15.131  0.00  0.00     0.084 H 
ATOM     14  H4  B06 d   1      -6.893  26.195 -16.942  0.00  0.00     0.072 H 
ATOM     15  H5  B06 d   1      -7.339  27.890 -17.338  0.00  0.00     0.072 H 
ENDROOT
BRANCH   7  16
ATOM     16  C14 B06 d   1      -6.094  26.784 -19.662  0.00  0.00     0.038 A 
ATOM     17  C15 B06 d   1      -4.879  26.836 -19.003  0.00  0.00    -0.057 A 
ATOM     18  C16 B06 d   1      -3.723  27.098 -19.724  0.00  0.00    -0.080 A 
ATOM     19  H6  B06 d   1      -4.830  26.673 -17.932  0.00  0.00     0.086 H 
ATOM     20  C17 B06 d   1      -3.788  27.329 -21.089  0.00  0.00    -0.068 A 
ATOM     21  H7  B06 d   1      -2.765  27.122 -19.218  0.00  0.00     0.083 H 
ATOM     22  C18 B06 d   1      -5.011  27.299 -21.741  0.00  0.00     0.050 A 
ATOM     23  H8  B06 d   1      -2.882  27.533 -21.647  0.00  0.00     0.084 H 
ATOM     24  C19 B06 d   1      -6.163  27.040 -21.022  0.00  0.00    -0.042 A 
ATOM     25  H9  B06 d   1      -7.124  27.037 -21.524  0.00  0.00     0.088 H 
BRANCH  22  26
ATOM     26  C20 B06 d   1      -5.105  27.565 -23.243  0.00  0.00     0.417 C 
ATOM     27  F21 B06 d   1      -3.895  27.330 -23.831  0.00  0.00    -0.166 F 
ATOM     28  F22 B06 d   1      -5.469  28.866 -23.442  0.00  0.00    -0.166 F 
ATOM     29  F23 B06 d   1      -6.061  26.775 -23.807  0.00  0.00    -0.166 F 
ENDBRANCH  22  26
ENDBRANCH   7  16
BRANCH   1  30
ATOM     30  C02 B06 d   1     -11.618  25.304 -19.737  0.00  0.00     0.210 C 
ATOM     31  O01 B06 d   1     -12.137  26.190 -20.468  0.00  0.00    -0.644 OA
ATOM     32  O03 B06 d   1     -11.625  24.100 -20.103  0.00  0.00    -0.644 OA
ENDBRANCH   1  30
TORSDOF 3
