REMARK  9 active torsions:
REMARK  status: ('A' for Active; 'I' for Inactive)
REMARK       I    between atoms: C8_6  and  N1_4 
REMARK    1  A    between atoms: C_16  and  C8_6 
REMARK       I    between atoms: C13_12  and  N2_7 
REMARK    2  A    between atoms: N2_7  and  C14_13 
REMARK    3  A    between atoms: C12_11  and  C13_12 
REMARK    4  A    between atoms: C14_13  and  C15_14 
REMARK    5  A    between atoms: C1_17  and  C_16 
REMARK    6  A    between atoms: C_16  and  N_20 
REMARK    7  A    between atoms: C1_17  and  C2_18 
REMARK    8  A    between atoms: C20_22  and  C21_23 
REMARK    9  A    between atoms: C21_23  and  O_24 
ROOT
ATOM      1  N1  MOL d   1      17.876 -12.833  21.394  0.00  0.00    -0.337 N 
ATOM      2  C8  MOL d   1      17.126 -13.283  22.414  0.00  0.00     0.251 C 
ATOM      3  C9  MOL d   1      19.006 -13.517  20.741  0.00  0.00    -0.001 C 
ATOM      4  C10 MOL d   1      19.660 -12.419  19.938  0.00  0.00    -0.048 C 
ATOM      5  C11 MOL d   1      18.516 -11.490  19.568  0.00  0.00    -0.036 C 
ATOM      6  C12 MOL d   1      17.589 -11.525  20.790  0.00  0.00     0.091 C 
ATOM      7  O2  MOL d   1      16.210 -12.624  22.867  0.00  0.00    -0.271 OA
ATOM      8  H10 MOL d   1      18.651 -14.326  20.086  0.00  0.00     0.064 H 
ATOM      9  H11 MOL d   1      19.702 -13.928  21.487  0.00  0.00     0.064 H 
ATOM     10  H12 MOL d   1      20.137 -12.828  19.035  0.00  0.00     0.035 H 
ATOM     11  H13 MOL d   1      20.412 -11.890  20.542  0.00  0.00     0.035 H 
ATOM     12  H14 MOL d   1      17.993 -11.854  18.672  0.00  0.00     0.036 H 
ATOM     13  H15 MOL d   1      18.885 -10.470  19.388  0.00  0.00     0.036 H 
ATOM     14  H16 MOL d   1      17.830 -10.710  21.488  0.00  0.00     0.087 H 
ENDROOT
BRANCH   2  15
ATOM     15  C   MOL d   1      17.435 -14.682  23.019  0.00  0.00     0.176 C 
ATOM     16  H19 MOL d   1      18.187 -15.206  22.410  0.00  0.00     0.099 H 
BRANCH  15  17
ATOM     17  C1  MOL d   1      17.977 -14.502  24.436  0.00  0.00    -0.027 C 
ATOM     18  H20 MOL d   1      18.056 -15.495  24.903  0.00  0.00     0.037 H 
ATOM     19  H21 MOL d   1      17.263 -13.886  25.002  0.00  0.00     0.037 H 
BRANCH  17  20
ATOM     20  C2  MOL d   1      19.347 -13.831  24.504  0.00  0.00    -0.052 C 
ATOM     21  C7  MOL d   1      19.687 -13.400  25.923  0.00  0.00    -0.062 C 
ATOM     22  C6  MOL d   1      21.044 -12.714  26.001  0.00  0.00    -0.065 C 
ATOM     23  H7  MOL d   1      18.915 -12.701  26.276  0.00  0.00     0.033 H 
ATOM     24  H8  MOL d   1      19.701 -14.289  26.570  0.00  0.00     0.033 H 
ATOM     25  C5  MOL d   1      22.139 -13.618  25.474  0.00  0.00    -0.065 C 
ATOM     26  H5  MOL d   1      21.017 -11.793  25.400  0.00  0.00     0.033 H 
ATOM     27  H6  MOL d   1      21.260 -12.461  27.050  0.00  0.00     0.033 H 
ATOM     28  C4  MOL d   1      21.830 -14.074  24.058  0.00  0.00    -0.065 C 
ATOM     29  H3  MOL d   1      23.092 -13.068  25.476  0.00  0.00     0.033 H 
ATOM     30  H4  MOL d   1      22.223 -14.500  26.126  0.00  0.00     0.033 H 
ATOM     31  C3  MOL d   1      20.456 -14.734  23.973  0.00  0.00    -0.062 C 
ATOM     32  H1  MOL d   1      22.595 -14.798  23.740  0.00  0.00     0.033 H 
ATOM     33  H2  MOL d   1      21.850 -13.201  23.389  0.00  0.00     0.033 H 
ATOM     34  H23 MOL d   1      20.471 -15.661  24.565  0.00  0.00     0.033 H 
ATOM     35  H24 MOL d   1      20.243 -14.974  22.921  0.00  0.00     0.033 H 
ATOM     36  H22 MOL d   1      19.308 -12.931  23.872  0.00  0.00     0.040 H 
ENDBRANCH  17  20
ENDBRANCH  15  17
BRANCH  15  37
ATOM     37  N   MOL d   1      16.168 -15.426  22.986  0.00  0.00    -0.066 N 
ATOM     38  H25 MOL d   1      15.856 -15.516  22.032  0.00  0.00     0.275 HD
ATOM     39  H26 MOL d   1      15.473 -14.930  23.521  0.00  0.00     0.275 HD
ATOM     40  H27 MOL d   1      16.306 -16.343  23.382  0.00  0.00     0.275 HD
ENDBRANCH  15  37
ENDBRANCH   2  15
BRANCH   6  41
ATOM     41  C13 MOL d   1      16.123 -11.419  20.377  0.00  0.00     0.240 C 
ATOM     42  N2  MOL d   1      15.489 -10.303  20.738  0.00  0.00    -0.355 N 
ATOM     43  H9  MOL d   1      15.989  -9.604  21.250  0.00  0.00     0.162 HD
ATOM     44  O1  MOL d   1      15.576 -12.333  19.762  0.00  0.00    -0.271 OA
BRANCH  42  45
ATOM     45  C14 MOL d   1      14.089 -10.072  20.409  0.00  0.00     0.019 C 
ATOM     46  H17 MOL d   1      13.757 -10.864  19.722  0.00  0.00     0.071 H 
ATOM     47  H18 MOL d   1      14.004  -9.095  19.911  0.00  0.00     0.071 H 
BRANCH  45  48
ATOM     48  C15 MOL d   1      13.184 -10.075  21.617  0.00  0.00    -0.030 A 
ATOM     49  C20 MOL d   1      12.407 -11.206  21.918  0.00  0.00    -0.027 A 
ATOM     50  C19 MOL d   1      11.557 -11.170  23.018  0.00  0.00    -0.073 A 
ATOM     51  C18 MOL d   1      11.467 -10.049  23.820  0.00  0.00    -0.061 A 
ATOM     52  H31 MOL d   1      10.953 -12.039  23.251  0.00  0.00     0.084 H 
ATOM     53  C17 MOL d   1      12.244  -8.958  23.519  0.00  0.00     0.034 A 
ATOM     54  H32 MOL d   1      10.796 -10.031  24.671  0.00  0.00     0.086 H 
ATOM     55 CL   MOL d   1      12.182  -7.553  24.543  0.00  0.00    -0.084 Cl
ATOM     56  C16 MOL d   1      13.093  -8.953  22.437  0.00  0.00    -0.054 A 
ATOM     57  H33 MOL d   1      13.692  -8.075  22.222  0.00  0.00     0.087 H 
BRANCH  49  58
ATOM     58  C21 MOL d   1      12.483 -12.453  21.070  0.00  0.00     0.041 C 
ATOM     59  H28 MOL d   1      13.034 -12.221  20.146  0.00  0.00     0.081 H 
ATOM     60  H29 MOL d   1      11.461 -12.773  20.817  0.00  0.00     0.081 H 
BRANCH  58  61
ATOM     61  O   MOL d   1      13.139 -13.511  21.737  0.00  0.00    -0.396 OA
ATOM     62  H30 MOL d   1      13.165 -14.273  21.171  0.00  0.00     0.209 HD
ENDBRANCH  58  61
ENDBRANCH  49  58
ENDBRANCH  45  48
ENDBRANCH  42  45
ENDBRANCH   6  41
TORSDOF 9
