REMARK  2 active torsions:
REMARK  status: ('A' for Active; 'I' for Inactive)
REMARK    1  A    between atoms: C02_2  and  C04_4 
REMARK    2  A    between atoms: N10_10  and  C14_14 
ROOT
ATOM      1  C04 6TJ d   1     -29.627  91.424  18.439  0.00  0.00     0.057 A 
ATOM      2  C05 6TJ d   1     -28.801  91.513  17.328  0.00  0.00    -0.065 A 
ATOM      3  C06 6TJ d   1     -29.322  91.928  16.100  0.00  0.00    -0.081 A 
ATOM      4  C07 6TJ d   1     -30.668  92.250  15.997  0.00  0.00    -0.074 A 
ATOM      5  C08 6TJ d   1     -31.497  92.169  17.116  0.00  0.00    -0.023 A 
ATOM      6  C09 6TJ d   1     -32.992  92.464  17.301  0.00  0.00     0.028 A 
ATOM      7  N10 6TJ d   1     -33.323  92.181  18.669  0.00  0.00    -0.309 N 
ATOM      8  C11 6TJ d   1     -32.117  91.769  19.360  0.00  0.00     0.260 A 
ATOM      9  O12 6TJ d   1     -32.006  91.468  20.504  0.00  0.00    -0.267 OA
ATOM     10  C13 6TJ d   1     -30.985  91.758  18.332  0.00  0.00     0.057 A 
ATOM     11  H1  6TJ d   1     -27.750  91.260  17.413  0.00  0.00     0.085 H 
ATOM     12  H2  6TJ d   1     -28.678  91.998  15.231  0.00  0.00     0.083 H 
ATOM     13  H3  6TJ d   1     -31.076  92.566  15.044  0.00  0.00     0.084 H 
ATOM     14  H4  6TJ d   1     -33.586  91.825  16.631  0.00  0.00     0.072 H 
ATOM     15  H5  6TJ d   1     -33.197  93.521  17.076  0.00  0.00     0.072 H 
ENDROOT
BRANCH   7  16
ATOM     16  C14 6TJ d   1     -34.631  92.387  19.242  0.00  0.00     0.037 A 
ATOM     17  C15 6TJ d   1     -35.694  92.762  18.433  0.00  0.00    -0.057 A 
ATOM     18  C16 6TJ d   1     -36.936  93.010  19.003  0.00  0.00    -0.081 A 
ATOM     19  H6  6TJ d   1     -35.556  92.861  17.362  0.00  0.00     0.086 H 
ATOM     20  C17 6TJ d   1     -37.093  92.902  20.372  0.00  0.00    -0.083 A 
ATOM     21  H7  6TJ d   1     -37.777  93.287  18.378  0.00  0.00     0.083 H 
ATOM     22  C18 6TJ d   1     -36.019  92.563  21.177  0.00  0.00    -0.081 A 
ATOM     23  H8  6TJ d   1     -38.064  93.084  20.818  0.00  0.00     0.083 H 
ATOM     24  C19 6TJ d   1     -34.784  92.314  20.609  0.00  0.00    -0.057 A 
ATOM     25  H9  6TJ d   1     -36.147  92.493  22.251  0.00  0.00     0.083 H 
ATOM     26  H10 6TJ d   1     -33.938  92.062  21.238  0.00  0.00     0.086 H 
ENDBRANCH   7  16
BRANCH   1  27
ATOM     27  C02 6TJ d   1     -29.034  90.991  19.771  0.00  0.00     0.210 C 
ATOM     28  O01 6TJ d   1     -28.327  91.835  20.376  0.00  0.00    -0.644 OA
ATOM     29  O03 6TJ d   1     -29.241  89.854  20.268  0.00  0.00    -0.644 OA
ENDBRANCH   1  27
TORSDOF 2
