REMARK  6 active torsions:
REMARK  status: ('A' for Active; 'I' for Inactive)
REMARK    1  A    between atoms: C13_2  and  C14_21 
REMARK    2  A    between atoms: C14_21  and  C15_3 
REMARK    3  A    between atoms: N12_20  and  C17_4 
REMARK    4  A    between atoms: C21_6  and  O23_24 
REMARK    5  A    between atoms: O23_24  and  C24_8 
REMARK    6  A    between atoms: C06_15  and  C07_16 
ROOT
ATOM      1  C10 6TU d   1      35.924 -62.331  51.420  0.00  0.00     0.260 A 
ATOM      2  C13 6TU d   1      37.678 -63.399  52.297  0.00  0.00     0.049 A 
ATOM      3  C01 6TU d   1      37.927 -62.068  48.175  0.00  0.00    -0.065 A 
ATOM      4  C02 6TU d   1      39.078 -62.705  48.640  0.00  0.00    -0.081 A 
ATOM      5  C03 6TU d   1      39.118 -63.169  49.952  0.00  0.00    -0.074 A 
ATOM      6  C04 6TU d   1      38.024 -62.990  50.786  0.00  0.00    -0.018 A 
ATOM      7  C05 6TU d   1      36.871 -62.348  50.327  0.00  0.00     0.058 A 
ATOM      8  C06 6TU d   1      36.848 -61.889  49.030  0.00  0.00     0.057 A 
ATOM      9  O11 6TU d   1      34.834 -61.841  51.332  0.00  0.00    -0.267 OA
ATOM     10  N12 6TU d   1      36.353 -62.905  52.566  0.00  0.00    -0.304 N 
ATOM     11  H1  6TU d   1      38.414 -62.993  53.006  0.00  0.00     0.081 H 
ATOM     12  H9  6TU d   1      37.876 -61.715  47.151  0.00  0.00     0.085 H 
ATOM     13  H10 6TU d   1      39.932 -62.837  47.986  0.00  0.00     0.083 H 
ATOM     14  H11 6TU d   1      40.005 -63.671  50.322  0.00  0.00     0.084 H 
ENDROOT
BRANCH  10  15
ATOM     15  C17 6TU d   1      35.681 -63.053  53.830  0.00  0.00     0.041 A 
ATOM     16  C22 6TU d   1      34.312 -63.236  53.902  0.00  0.00    -0.025 A 
ATOM     17  C21 6TU d   1      33.720 -63.378  55.149  0.00  0.00     0.070 A 
ATOM     18  H4  6TU d   1      33.712 -63.268  53.000  0.00  0.00     0.091 H 
ATOM     19  C20 6TU d   1      34.499 -63.351  56.295  0.00  0.00    -0.051 A 
ATOM     20  C19 6TU d   1      35.869 -63.175  56.213  0.00  0.00    -0.078 A 
ATOM     21  H3  6TU d   1      34.030 -63.469  57.265  0.00  0.00     0.087 H 
ATOM     22  C18 6TU d   1      36.462 -63.025  54.976  0.00  0.00    -0.057 A 
ATOM     23  H8  6TU d   1      36.472 -63.155  57.114  0.00  0.00     0.083 H 
ATOM     24  H16 6TU d   1      37.534 -62.886  54.900  0.00  0.00     0.086 H 
BRANCH  17  25
ATOM     25  O23 6TU d   1      32.344 -63.571  55.289  0.00  0.00    -0.356 OA
BRANCH  25  26
ATOM     26  C24 6TU d   1      31.512 -63.050  54.295  0.00  0.00     0.010 C 
ATOM     27  H5  6TU d   1      30.464 -63.278  54.538  0.00  0.00     0.066 H 
ATOM     28  H6  6TU d   1      31.770 -63.502  53.326  0.00  0.00     0.066 H 
ATOM     29  H7  6TU d   1      31.647 -61.960  54.238  0.00  0.00     0.066 H 
ENDBRANCH  25  26
ENDBRANCH  17  25
ENDBRANCH  10  15
BRANCH   2  30
ATOM     30  C14 6TU d   1      37.624 -64.854  52.358  0.00  0.00    -0.027 C 
ATOM     31  H12 6TU d   1      37.288 -65.147  53.364  0.00  0.00     0.042 H 
ATOM     32  H13 6TU d   1      38.636 -65.246  52.181  0.00  0.00     0.042 H 
BRANCH  30  33
ATOM     33  C15 6TU d   1      36.676 -65.481  51.330  0.00  0.00    -0.110 C 
ATOM     34  C16 6TU d   1      35.433 -65.768  51.655  0.00  0.00    -0.125 C 
ATOM     35  H14 6TU d   1      34.767 -66.213  50.918  0.00  0.00     0.066 H 
ATOM     36  H15 6TU d   1      35.071 -65.560  52.661  0.00  0.00     0.066 H 
ATOM     37  H2  6TU d   1      37.033 -65.691  50.323  0.00  0.00     0.075 H 
ENDBRANCH  30  33
ENDBRANCH   2  30
BRANCH   8  38
ATOM     38  C07 6TU d   1      35.566 -61.249  48.555  0.00  0.00     0.210 C 
ATOM     39  O08 6TU d   1      35.267 -60.058  48.801  0.00  0.00    -0.644 OA
ATOM     40  O09 6TU d   1      34.792 -62.025  47.923  0.00  0.00    -0.644 OA
ENDBRANCH   8  38
TORSDOF 6
