REMARK  13 active torsions:
REMARK  status: ('A' for Active; 'I' for Inactive)
REMARK    1  A    between atoms: N6_33  and  C5_4 
REMARK    2  A    between atoms: C7_5  and  N6_33 
REMARK    3  A    between atoms: C12_8  and  C11_7 
REMARK    4  A    between atoms: C14_10  and  C13_9 
REMARK    5  A    between atoms: C15_11  and  C14_10 
REMARK    6  A    between atoms: N16_36  and  C15_11 
REMARK    7  A    between atoms: C31_19  and  N32_20 
REMARK    8  A    between atoms: N32_20  and  C33_31 
REMARK    9  A    between atoms: C38_24  and  N39_29 
REMARK   10  A    between atoms: C40_25  and  C42_27 
REMARK       I    between atoms: N39_29  and  C40_25 
REMARK   11  A    between atoms: C42_27  and  C43_28 
REMARK       I    between atoms: C17_37  and  N16_36 
REMARK   12  A    between atoms: O19_39  and  C17_37 
REMARK   13  A    between atoms: O19_39  and  C20_40 
ROOT
ATOM      1  C7  6TS d   1      13.827   9.745  41.370  0.00  0.00     0.053 A 
ATOM      2  C8  6TS d   1      12.654  10.372  40.961  0.00  0.00    -0.040 A 
ATOM      3  C11 6TS d   1      15.027  11.539  40.337  0.00  0.00     0.111 A 
ATOM      4  C9  6TS d   1      12.725  11.557  40.256  0.00  0.00     0.006 A 
ATOM      5  N10 6TS d   1      13.890  12.145  39.941  0.00  0.00    -0.252 NA
ATOM      6  C29 6TS d   1      15.036  10.349  41.046  0.00  0.00    -0.021 A 
ATOM      7  H2  6TS d   1      11.691   9.933  41.194  0.00  0.00     0.089 H 
ATOM      8  H31 6TS d   1      11.802  12.032  39.944  0.00  0.00     0.114 H 
ATOM      9  H34 6TS d   1      15.974   9.895  41.344  0.00  0.00     0.091 H 
ENDROOT
BRANCH   3  10
ATOM     10  C12 6TS d   1      16.263  12.190  39.985  0.00  0.00    -0.047 C 
ATOM     11  C13 6TS d   1      17.299  12.713  39.704  0.00  0.00    -0.098 C 
BRANCH  11  12
ATOM     12  C14 6TS d   1      18.582  13.341  39.369  0.00  0.00     0.006 C 
ATOM     13  H3  6TS d   1      18.640  14.315  39.876  0.00  0.00     0.054 H 
ATOM     14  H4  6TS d   1      18.627  13.491  38.280  0.00  0.00     0.054 H 
BRANCH  12  15
ATOM     15  C15 6TS d   1      19.779  12.499  39.794  0.00  0.00     0.007 C 
ATOM     16  H5  6TS d   1      20.207  12.018  38.902  0.00  0.00     0.065 H 
ATOM     17  H6  6TS d   1      19.436  11.727  40.498  0.00  0.00     0.065 H 
BRANCH  15  18
ATOM     18  N16 6TS d   1      20.814  13.293  40.439  0.00  0.00    -0.336 N 
ATOM     19  C17 6TS d   1      21.870  13.786  39.771  0.00  0.00     0.360 C 
ATOM     20  O18 6TS d   1      22.049  13.685  38.573  0.00  0.00    -0.239 OA
ATOM     21  H32 6TS d   1      20.736  13.479  41.419  0.00  0.00     0.164 HD
BRANCH  19  22
ATOM     22  O19 6TS d   1      22.704  14.410  40.623  0.00  0.00    -0.299 OA
BRANCH  22  23
ATOM     23  C20 6TS d   1      23.907  15.025  40.073  0.00  0.00     0.050 C 
ATOM     24  C22 6TS d   1      25.085  14.563  40.951  0.00  0.00    -0.040 C 
ATOM     25  C23 6TS d   1      25.313  15.313  42.268  0.00  0.00    -0.060 C 
ATOM     26  H7  6TS d   1      24.918  13.504  41.198  0.00  0.00     0.036 H 
ATOM     27  H8  6TS d   1      26.002  14.660  40.352  0.00  0.00     0.036 H 
ATOM     28  C24 6TS d   1      26.382  16.412  42.257  0.00  0.00    -0.050 C 
ATOM     29  H9  6TS d   1      25.604  14.572  43.028  0.00  0.00     0.033 H 
ATOM     30  H10 6TS d   1      24.359  15.779  42.556  0.00  0.00     0.033 H 
ATOM     31  C25 6TS d   1      25.854  17.797  42.028  0.00  0.00    -0.107 C 
ATOM     32  H11 6TS d   1      27.101  16.183  41.457  0.00  0.00     0.038 H 
ATOM     33  H12 6TS d   1      26.898  16.398  43.228  0.00  0.00     0.038 H 
ATOM     34  C26 6TS d   1      25.241  18.247  40.948  0.00  0.00    -0.106 C 
ATOM     35  H13 6TS d   1      25.991  18.509  42.840  0.00  0.00     0.076 H 
ATOM     36  C27 6TS d   1      24.823  17.447  39.750  0.00  0.00    -0.048 C 
ATOM     37  H14 6TS d   1      25.015  19.312  40.925  0.00  0.00     0.076 H 
ATOM     38  C28 6TS d   1      23.620  16.534  39.998  0.00  0.00    -0.037 C 
ATOM     39  H15 6TS d   1      25.673  16.822  39.438  0.00  0.00     0.038 H 
ATOM     40  H16 6TS d   1      24.565  18.146  38.941  0.00  0.00     0.038 H 
ATOM     41  H17 6TS d   1      22.902  16.697  39.180  0.00  0.00     0.037 H 
ATOM     42  H18 6TS d   1      23.163  16.835  40.952  0.00  0.00     0.037 H 
ATOM     43  H33 6TS d   1      24.086  14.662  39.050  0.00  0.00     0.084 H 
ENDBRANCH  22  23
ENDBRANCH  19  22
ENDBRANCH  15  18
ENDBRANCH  12  15
ENDBRANCH  11  12
ENDBRANCH   3  10
BRANCH   1  44
ATOM     44  N6  6TS d   1      13.828   8.526  42.097  0.00  0.00    -0.188 N 
ATOM     45  H30 6TS d   1      14.713   8.000  42.059  0.00  0.00     0.184 HD
BRANCH  44  46
ATOM     46  C5  6TS d   1      12.846   7.941  42.837  0.00  0.00     0.728 A 
ATOM     47  N4  6TS d   1      13.086   6.691  43.281  0.00  0.00    -0.073 NA
ATOM     48  C3  6TS d   1      12.127   6.111  44.008  0.00  0.00     0.046 A 
ATOM     49  C2  6TS d   1      10.950   6.768  44.286  0.00  0.00     0.098 A 
ATOM     50  H1  6TS d   1      12.278   5.106  44.385  0.00  0.00     0.118 H 
ATOM     51  C31 6TS d   1      10.752   8.087  43.792  0.00  0.00     0.170 A 
ATOM     52 CL1  6TS d   1       9.741   5.960  45.237  0.00  0.00    -0.079 Cl
ATOM     53  N30 6TS d   1      11.724   8.658  43.063  0.00  0.00    -0.043 NA
BRANCH  51  54
ATOM     54  N32 6TS d   1       9.623   8.788  44.028  0.00  0.00    -0.337 N 
ATOM     55  H19 6TS d   1       8.882   8.291  44.542  0.00  0.00     0.167 HD
BRANCH  54  56
ATOM     56  C33 6TS d   1       9.332  10.127  43.654  0.00  0.00     0.060 A 
ATOM     57  C38 6TS d   1       8.195  10.407  42.869  0.00  0.00     0.061 A 
ATOM     58  C37 6TS d   1       7.908  11.714  42.503  0.00  0.00    -0.055 A 
ATOM     59  C36 6TS d   1       8.729  12.750  42.901  0.00  0.00    -0.081 A 
ATOM     60  H22 6TS d   1       7.032  11.923  41.900  0.00  0.00     0.087 H 
ATOM     61  C35 6TS d   1       9.845  12.493  43.669  0.00  0.00    -0.081 A 
ATOM     62  H21 6TS d   1       8.496  13.768  42.609  0.00  0.00     0.083 H 
ATOM     63  C34 6TS d   1      10.151  11.200  44.046  0.00  0.00    -0.055 A 
ATOM     64  H20 6TS d   1      10.486  13.310  43.979  0.00  0.00     0.083 H 
ATOM     65  H29 6TS d   1      11.031  11.011  44.650  0.00  0.00     0.087 H 
BRANCH  57  66
ATOM     66  N39 6TS d   1       7.349   9.358  42.455  0.00  0.00    -0.325 N 
ATOM     67  C40 6TS d   1       6.750   8.411  43.207  0.00  0.00     0.221 C 
ATOM     68  O41 6TS d   1       7.007   8.198  44.388  0.00  0.00    -0.273 OA
ATOM     69  H28 6TS d   1       7.169   9.309  41.473  0.00  0.00     0.169 HD
BRANCH  67  70
ATOM     70  C42 6TS d   1       5.727   7.566  42.494  0.00  0.00     0.006 C 
ATOM     71  H23 6TS d   1       5.730   7.821  41.424  0.00  0.00     0.046 H 
ATOM     72  H24 6TS d   1       4.732   7.770  42.917  0.00  0.00     0.046 H 
BRANCH  70  73
ATOM     73  C43 6TS d   1       6.039   6.109  42.653  0.00  0.00    -0.068 C 
ATOM     74  H25 6TS d   1       5.281   5.512  42.125  0.00  0.00     0.028 H 
ATOM     75  H26 6TS d   1       6.034   5.847  43.721  0.00  0.00     0.028 H 
ATOM     76  H27 6TS d   1       7.032   5.898  42.229  0.00  0.00     0.028 H 
ENDBRANCH  70  73
ENDBRANCH  67  70
ENDBRANCH  57  66
ENDBRANCH  54  56
ENDBRANCH  51  54
ENDBRANCH  44  46
ENDBRANCH   1  44
TORSDOF 13
