REMARK  10 active torsions:
REMARK  status: ('A' for Active; 'I' for Inactive)
REMARK    1  A    between atoms: O2_27  and  C1_1 
REMARK    2  A    between atoms: C3_2  and  O2_27 
REMARK    3  A    between atoms: N8_24  and  C7_4 
REMARK    4  A    between atoms: C12_6  and  C27_14 
REMARK    5  A    between atoms: C13_7  and  N14_21 
REMARK    6  A    between atoms: N14_21  and  C15_8 
REMARK    7  A    between atoms: C22_11  and  C24_12 
REMARK       I    between atoms: N21_17  and  C22_11 
REMARK    8  A    between atoms: C24_12  and  C25_13 
REMARK    9  A    between atoms: C20_18  and  N21_17 
REMARK   10  A    between atoms: C9_23  and  N8_24 
ROOT
ATOM      1  C11 6TT d   1      12.086   6.209  44.205  0.00  0.00     0.039 A 
ATOM      2  C12 6TT d   1      10.896   6.851  44.465  0.00  0.00     0.112 A 
ATOM      3  C13 6TT d   1      10.725   8.152  43.924  0.00  0.00     0.164 A 
ATOM      4  N26 6TT d   1      11.703   8.700  43.195  0.00  0.00    -0.044 NA
ATOM      5  C9  6TT d   1      12.824   7.990  43.001  0.00  0.00     0.728 A 
ATOM      6  N10 6TT d   1      13.062   6.754  43.479  0.00  0.00    -0.074 NA
ATOM      7  H5  6TT d   1      12.236   5.215  44.609  0.00  0.00     0.117 H 
ENDROOT
BRANCH   3   8
ATOM      8  N14 6TT d   1       9.590   8.874  44.120  0.00  0.00    -0.338 N 
ATOM      9  H17 6TT d   1       8.835   8.389  44.626  0.00  0.00     0.167 HD
BRANCH   8  10
ATOM     10  C15 6TT d   1       9.307  10.203  43.722  0.00  0.00     0.060 A 
ATOM     11  C16 6TT d   1      10.159  11.259  44.082  0.00  0.00    -0.055 A 
ATOM     12  C17 6TT d   1       9.880  12.555  43.694  0.00  0.00    -0.081 A 
ATOM     13  H6  6TT d   1      11.046  11.055  44.671  0.00  0.00     0.087 H 
ATOM     14  C18 6TT d   1       8.757  12.831  42.944  0.00  0.00    -0.081 A 
ATOM     15  H16 6TT d   1      10.548  13.359  43.981  0.00  0.00     0.083 H 
ATOM     16  C19 6TT d   1       7.901  11.813  42.575  0.00  0.00    -0.055 A 
ATOM     17  H15 6TT d   1       8.545  13.851  42.643  0.00  0.00     0.083 H 
ATOM     18  C20 6TT d   1       8.159  10.499  42.953  0.00  0.00     0.061 A 
ATOM     19  H7  6TT d   1       7.020  12.039  41.986  0.00  0.00     0.087 H 
BRANCH  18  20
ATOM     20  N21 6TT d   1       7.265   9.478  42.560  0.00  0.00    -0.325 N 
ATOM     21  C22 6TT d   1       6.652   8.532  43.305  0.00  0.00     0.221 C 
ATOM     22  O23 6TT d   1       6.949   8.296  44.472  0.00  0.00    -0.273 OA
ATOM     23  H14 6TT d   1       7.054   9.451  41.583  0.00  0.00     0.169 HD
BRANCH  21  24
ATOM     24  C24 6TT d   1       5.554   7.752  42.609  0.00  0.00     0.006 C 
ATOM     25  H8  6TT d   1       5.660   7.891  41.523  0.00  0.00     0.046 H 
ATOM     26  H9  6TT d   1       4.582   8.149  42.936  0.00  0.00     0.046 H 
BRANCH  24  27
ATOM     27  C25 6TT d   1       5.595   6.270  42.910  0.00  0.00    -0.068 C 
ATOM     28  H10 6TT d   1       4.776   5.765  42.377  0.00  0.00     0.028 H 
ATOM     29  H11 6TT d   1       5.480   6.112  43.993  0.00  0.00     0.028 H 
ATOM     30  H12 6TT d   1       6.559   5.855  42.579  0.00  0.00     0.028 H 
ENDBRANCH  24  27
ENDBRANCH  21  24
ENDBRANCH  18  20
ENDBRANCH   8  10
ENDBRANCH   3   8
BRANCH   2  31
ATOM     31  C27 6TT d   1       9.854   6.110  45.318  0.00  0.00     0.422 C 
ATOM     32  F28 6TT d   1       9.690   6.689  46.518  0.00  0.00    -0.166 F 
ATOM     33  F29 6TT d   1       8.640   6.073  44.755  0.00  0.00    -0.166 F 
ATOM     34  F30 6TT d   1      10.205   4.837  45.541  0.00  0.00    -0.166 F 
ENDBRANCH   2  31
BRANCH   5  35
ATOM     35  N8  6TT d   1      13.805   8.561  42.259  0.00  0.00    -0.187 N 
ATOM     36  H18 6TT d   1      14.668   8.004  42.186  0.00  0.00     0.184 HD
BRANCH  35  37
ATOM     37  C7  6TT d   1      13.839   9.790  41.571  0.00  0.00     0.069 A 
ATOM     38  C6  6TT d   1      15.049  10.472  41.432  0.00  0.00     0.028 A 
ATOM     39  N5  6TT d   1      15.151  11.641  40.793  0.00  0.00    -0.268 NA
ATOM     40  H4  6TT d   1      15.944  10.035  41.861  0.00  0.00     0.118 H 
ATOM     41  C4  6TT d   1      14.045  12.172  40.266  0.00  0.00     0.034 A 
ATOM     42  C3  6TT d   1      12.807  11.566  40.356  0.00  0.00     0.087 A 
ATOM     43  H19 6TT d   1      14.122  13.120  39.745  0.00  0.00     0.119 H 
ATOM     44  C31 6TT d   1      12.695  10.353  41.019  0.00  0.00    -0.022 A 
ATOM     45  H13 6TT d   1      11.736   9.855  41.105  0.00  0.00     0.091 H 
BRANCH  42  46
ATOM     46  O2  6TT d   1      11.747  12.215  39.773  0.00  0.00    -0.354 OA
BRANCH  46  47
ATOM     47  C1  6TT d   1      10.430  11.757  40.063  0.00  0.00     0.010 C 
ATOM     48  H1  6TT d   1       9.699  12.377  39.523  0.00  0.00     0.066 H 
ATOM     49  H2  6TT d   1      10.246  11.832  41.145  0.00  0.00     0.066 H 
ATOM     50  H3  6TT d   1      10.328  10.709  39.745  0.00  0.00     0.066 H 
ENDBRANCH  46  47
ENDBRANCH  42  46
ENDBRANCH  35  37
ENDBRANCH   5  35
TORSDOF 10
