REMARK  10 active torsions:
REMARK  status: ('A' for Active; 'I' for Inactive)
REMARK    1  A    between atoms: O3B_8  and  PG_1 
REMARK    2  A    between atoms: PB_5  and  O3B_8 
REMARK    3  A    between atoms: O3A_12  and  PB_5 
REMARK    4  A    between atoms: PA_9  and  O3A_12 
REMARK    5  A    between atoms: PA_9  and  O5'_13 
REMARK    6  A    between atoms: O5'_13  and  C5'_14 
REMARK    7  A    between atoms: C5'_14  and  C4'_15 
REMARK    8  A    between atoms: C3'_17  and  O3'_18 
REMARK    9  A    between atoms: C2'_19  and  O2'_20 
REMARK   10  A    between atoms: C1'_21  and  N9_22 
ROOT
ATOM      1  C4' ATP d   1     106.769  35.721  50.594  0.00  0.00     0.089 C 
ATOM      2  O4' ATP d   1     106.311  36.906  51.255  0.00  0.00    -0.353 OA
ATOM      3  C3' ATP d   1     107.855  35.123  51.474  0.00  0.00     0.091 C 
ATOM      4  C2' ATP d   1     107.611  35.729  52.851  0.00  0.00     0.105 C 
ATOM      5  C1' ATP d   1     107.020  37.088  52.491  0.00  0.00     0.139 C 
ATOM      6  H3  ATP d   1     107.188  35.973  49.608  0.00  0.00     0.090 H 
ATOM      7  H4  ATP d   1     107.820  34.024  51.498  0.00  0.00     0.091 H 
ATOM      8  H6  ATP d   1     106.875  35.128  53.405  0.00  0.00     0.093 H 
ATOM      9  H8  ATP d   1     107.834  37.818  52.368  0.00  0.00     0.122 H 
ENDROOT
BRANCH   1  10
ATOM     10  C5' ATP d   1     105.597  34.765  50.411  0.00  0.00     0.058 C 
ATOM     11  H1  ATP d   1     104.833  35.224  49.766  0.00  0.00     0.079 H 
ATOM     12  H2  ATP d   1     105.944  33.825  49.956  0.00  0.00     0.079 H 
BRANCH  10  13
ATOM     13  O5' ATP d   1     105.058  34.512  51.698  0.00  0.00    -0.287 OA
BRANCH  13  14
ATOM     14  PA  ATP d   1     104.099  33.254  51.979  0.00  0.00     0.417 P 
ATOM     15  O1A ATP d   1     103.065  33.200  50.894  0.00  0.00    -0.624 OA
ATOM     16  O2A ATP d   1     103.615  33.390  53.411  0.00  0.00    -0.624 OA
BRANCH  14  17
ATOM     17  O3A ATP d   1     105.130  32.011  51.798  0.00  0.00    -0.180 OA
BRANCH  17  18
ATOM     18  PB  ATP d   1     105.665  31.022  52.968  0.00  0.00     0.428 P 
ATOM     19  O1B ATP d   1     107.031  30.561  52.508  0.00  0.00    -0.624 OA
ATOM     20  O2B ATP d   1     104.607  29.986  53.310  0.00  0.00    -0.624 OA
BRANCH  18  21
ATOM     21  O3B ATP d   1     105.939  32.056  54.186  0.00  0.00    -0.173 OA
BRANCH  21  22
ATOM     22  PG  ATP d   1     105.212  32.075  55.633  0.00  0.00     0.431 P 
ATOM     23  O1G ATP d   1     103.872  31.404  55.412  0.00  0.00    -0.616 OA
ATOM     24  O2G ATP d   1     106.152  31.324  56.554  0.00  0.00    -0.616 OA
ATOM     25  O3G ATP d   1     105.099  33.556  55.935  0.00  0.00    -0.616 OA
ENDBRANCH  21  22
ENDBRANCH  18  21
ENDBRANCH  17  18
ENDBRANCH  14  17
ENDBRANCH  13  14
ENDBRANCH  10  13
ENDBRANCH   1  10
BRANCH   3  26
ATOM     26  O3' ATP d   1     109.101  35.596  50.958  0.00  0.00    -0.390 OA
ATOM     27  H5  ATP d   1     109.813  35.245  51.481  0.00  0.00     0.210 HD
ENDBRANCH   3  26
BRANCH   5  28
ATOM     28  N9  ATP d   1     106.049  37.605  53.484  0.00  0.00    -0.294 N 
ATOM     29  C8  ATP d   1     104.983  36.953  54.011  0.00  0.00     0.071 A 
ATOM     30  N7  ATP d   1     104.304  37.756  54.878  0.00  0.00    -0.236 NA
ATOM     31  H9  ATP d   1     104.707  35.927  53.774  0.00  0.00     0.144 H 
ATOM     32  C5  ATP d   1     104.943  38.947  54.911  0.00  0.00     0.149 A 
ATOM     33  C6  ATP d   1     104.760  40.248  55.609  0.00  0.00     0.155 A 
ATOM     34  C4  ATP d   1     106.090  38.841  53.985  0.00  0.00     0.167 A 
ATOM     35  N6  ATP d   1     103.735  40.443  56.479  0.00  0.00    -0.382 N 
ATOM     36  N1  ATP d   1     105.663  41.229  55.349  0.00  0.00    -0.222 NA
ATOM     37  H10 ATP d   1     103.626  41.352  56.952  0.00  0.00     0.157 HD
ATOM     38  H11 ATP d   1     103.066  39.682  56.666  0.00  0.00     0.157 HD
ATOM     39  C2  ATP d   1     106.692  41.052  54.487  0.00  0.00     0.091 A 
ATOM     40  N3  ATP d   1     106.917  39.906  53.814  0.00  0.00    -0.222 NA
ATOM     41  H12 ATP d   1     107.374  41.880  54.329  0.00  0.00     0.146 H 
ENDBRANCH   5  28
BRANCH   4  42
ATOM     42  O2' ATP d   1     108.800  35.826  53.656  0.00  0.00    -0.388 OA
ATOM     43  H7  ATP d   1     109.437  36.374  53.213  0.00  0.00     0.210 HD
ENDBRANCH   4  42
TORSDOF 10
