REMARK  7 active torsions:
REMARK  status: ('A' for Active; 'I' for Inactive)
REMARK    1  A    between atoms: O3'_8  and  P_2 
REMARK    2  A    between atoms: C2'_6  and  O2'_5 
REMARK    3  A    between atoms: C3'_7  and  O3'_8 
REMARK    4  A    between atoms: C1'_9  and  N9_14 
REMARK    5  A    between atoms: C4'_11  and  C5'_12 
REMARK    6  A    between atoms: C5'_12  and  O5'_13 
REMARK    7  A    between atoms: C6_18  and  N6_19 
ROOT
ATOM      1  C2' 3AM d   1      84.165 -12.648  -3.558  0.00  0.00     0.106 C 
ATOM      2  C3' 3AM d   1      85.138 -13.596  -3.038  0.00  0.00     0.107 C 
ATOM      3  C1' 3AM d   1      84.936 -11.405  -3.740  0.00  0.00     0.140 C 
ATOM      4  O4' 3AM d   1      86.353 -11.812  -4.023  0.00  0.00    -0.353 OA
ATOM      5  C4' 3AM d   1      86.402 -13.272  -3.733  0.00  0.00     0.089 C 
ATOM      6  H2  3AM d   1      83.748 -12.996  -4.515  0.00  0.00     0.093 H 
ATOM      7  H3  3AM d   1      84.826 -14.636  -3.216  0.00  0.00     0.092 H 
ATOM      8  H4  3AM d   1      84.888 -10.800  -2.823  0.00  0.00     0.122 H 
ATOM      9  H5  3AM d   1      87.262 -13.505  -3.088  0.00  0.00     0.090 H 
ENDROOT
BRANCH   3  10
ATOM     10  N9  3AM d   1      84.458 -10.653  -4.817  0.00  0.00    -0.294 N 
ATOM     11  C8  3AM d   1      83.907 -11.140  -5.977  0.00  0.00     0.071 A 
ATOM     12  N7  3AM d   1      83.574 -10.117  -6.785  0.00  0.00    -0.236 NA
ATOM     13  H9  3AM d   1      83.762 -12.194  -6.208  0.00  0.00     0.144 H 
ATOM     14  C5  3AM d   1      83.902  -8.918  -6.178  0.00  0.00     0.149 A 
ATOM     15  C6  3AM d   1      83.792  -7.589  -6.535  0.00  0.00     0.155 A 
ATOM     16  C4  3AM d   1      84.472  -9.230  -4.916  0.00  0.00     0.167 A 
ATOM     17  N1  3AM d   1      84.221  -6.619  -5.685  0.00  0.00    -0.222 NA
ATOM     18  C2  3AM d   1      84.760  -6.922  -4.491  0.00  0.00     0.091 A 
ATOM     19  N3  3AM d   1      84.885  -8.231  -4.108  0.00  0.00    -0.222 NA
ATOM     20  H12 3AM d   1      85.096  -6.130  -3.831  0.00  0.00     0.146 H 
BRANCH  15  21
ATOM     21  N6  3AM d   1      83.225  -7.227  -7.794  0.00  0.00    -0.382 N 
ATOM     22  H10 3AM d   1      83.145  -6.234  -8.056  0.00  0.00     0.157 HD
ATOM     23  H11 3AM d   1      82.896  -7.959  -8.440  0.00  0.00     0.157 HD
ENDBRANCH  15  21
ENDBRANCH   3  10
BRANCH   1  24
ATOM     24  O2' 3AM d   1      83.088 -12.448  -2.596  0.00  0.00    -0.388 OA
ATOM     25  H1  3AM d   1      83.448 -12.110  -1.785  0.00  0.00     0.210 HD
ENDBRANCH   1  24
BRANCH   2  26
ATOM     26  O3' 3AM d   1      85.340 -13.347  -1.634  0.00  0.00    -0.272 OA
BRANCH  26  27
ATOM     27  P   3AM d   1      85.168 -14.528  -0.635  0.00  0.00     0.422 P 
ATOM     28  O1P 3AM d   1      85.339 -15.832  -1.379  0.00  0.00    -0.617 OA
ATOM     29  O2P 3AM d   1      83.789 -14.458  -0.025  0.00  0.00    -0.617 OA
ATOM     30  O3P 3AM d   1      86.211 -14.432   0.443  0.00  0.00    -0.617 OA
ENDBRANCH  26  27
ENDBRANCH   2  26
BRANCH   5  31
ATOM     31  C5' 3AM d   1      86.507 -14.040  -4.993  0.00  0.00     0.043 C 
ATOM     32  H6  3AM d   1      87.168 -13.507  -5.692  0.00  0.00     0.078 H 
ATOM     33  H7  3AM d   1      85.508 -14.146  -5.441  0.00  0.00     0.078 H 
BRANCH  31  34
ATOM     34  O5' 3AM d   1      87.042 -15.325  -4.724  0.00  0.00    -0.398 OA
ATOM     35  H8  3AM d   1      87.108 -15.815  -5.535  0.00  0.00     0.209 HD
ENDBRANCH  31  34
ENDBRANCH   5  31
TORSDOF 7
