REMARK  3 active torsions:
REMARK  status: ('A' for Active; 'I' for Inactive)
REMARK    1  A    between atoms: C14_5  and  C15_4 
REMARK    2  A    between atoms: N12_17  and  C14_5 
REMARK    3  A    between atoms: C05_12  and  C07_14 
ROOT
ATOM      1  C10 6UW d   1     111.808  70.867   9.839  0.00  0.00     0.256 A 
ATOM      2  O11 6UW d   1     111.725  69.694  10.169  0.00  0.00    -0.267 OA
ATOM      3  C13 6UW d   1     112.472  73.037   9.901  0.00  0.00     0.023 A 
ATOM      4  C01 6UW d   1     109.935  73.220   6.884  0.00  0.00    -0.081 A 
ATOM      5  C02 6UW d   1     110.857  73.678   7.798  0.00  0.00    -0.074 A 
ATOM      6  C03 6UW d   1     111.395  72.810   8.721  0.00  0.00    -0.023 A 
ATOM      7  C04 6UW d   1     111.025  71.443   8.747  0.00  0.00     0.057 A 
ATOM      8  C05 6UW d   1     110.102  70.986   7.817  0.00  0.00     0.057 A 
ATOM      9  C06 6UW d   1     109.571  71.854   6.879  0.00  0.00    -0.065 A 
ATOM     10  N12 6UW d   1     112.651  71.711  10.495  0.00  0.00    -0.339 N 
ATOM     11  H1  6UW d   1     112.087  73.748  10.647  0.00  0.00     0.071 H 
ATOM     12  H2  6UW d   1     113.422  73.412   9.493  0.00  0.00     0.071 H 
ATOM     13  H6  6UW d   1     109.490  73.904   6.171  0.00  0.00     0.083 H 
ATOM     14  H7  6UW d   1     111.159  74.719   7.791  0.00  0.00     0.084 H 
ATOM     15  H8  6UW d   1     108.873  71.485   6.137  0.00  0.00     0.085 H 
ENDROOT
BRANCH  10  16
ATOM     16  C14 6UW d   1     113.479  71.415  11.637  0.00  0.00     0.026 C 
ATOM     17  H3  6UW d   1     113.128  72.040  12.471  0.00  0.00     0.071 H 
ATOM     18  H4  6UW d   1     113.331  70.354  11.886  0.00  0.00     0.071 H 
BRANCH  16  19
ATOM     19  C15 6UW d   1     114.990  71.649  11.489  0.00  0.00     0.020 A 
ATOM     20  C16 6UW d   1     115.584  72.852  11.803  0.00  0.00     0.045 A 
ATOM     21  C17 6UW d   1     116.954  73.058  11.705  0.00  0.00    -0.061 A 
ATOM     22 CL   6UW d   1     114.592  74.171  12.337  0.00  0.00    -0.084 Cl
ATOM     23  C18 6UW d   1     117.760  72.020  11.301  0.00  0.00    -0.078 A 
ATOM     24  H5  6UW d   1     117.382  74.025  11.944  0.00  0.00     0.086 H 
ATOM     25  C19 6UW d   1     117.191  70.800  10.992  0.00  0.00    -0.045 A 
ATOM     26  H9  6UW d   1     118.833  72.158  11.226  0.00  0.00     0.083 H 
ATOM     27  C20 6UW d   1     115.820  70.622  11.093  0.00  0.00     0.126 A 
ATOM     28  H10 6UW d   1     117.819  69.978  10.669  0.00  0.00     0.088 H 
ATOM     29  F21 6UW d   1     115.269  69.432  10.776  0.00  0.00    -0.205 F 
ENDBRANCH  16  19
ENDBRANCH  10  16
BRANCH   8  30
ATOM     30  C07 6UW d   1     109.673  69.535   7.773  0.00  0.00     0.210 C 
ATOM     31  O08 6UW d   1     109.124  69.017   8.767  0.00  0.00    -0.644 OA
ATOM     32  O09 6UW d   1     109.847  68.876   6.698  0.00  0.00    -0.644 OA
ENDBRANCH   8  30
TORSDOF 3
