REMARK  6 active torsions:
REMARK  status: ('A' for Active; 'I' for Inactive)
REMARK    1  A    between atoms: C12_15  and  N1_2 
REMARK    2  A    between atoms: C14_17  and  N2_5 
REMARK    3  A    between atoms: N2_5  and  C15_18 
REMARK    4  A    between atoms: N2_5  and  C16_19 
REMARK    5  A    between atoms: C13_16  and  C12_15 
REMARK    6  A    between atoms: C13_16  and  C14_17 
ROOT
ATOM      1  C1  Z80 d   1    -120.798 -57.443 -44.601  0.00  0.00     0.052 A 
ATOM      2  N1  Z80 d   1    -120.186 -58.846 -44.994  0.00  0.00    -0.345 N 
ATOM      3  S1  Z80 d   1    -123.069 -58.460 -45.269  0.00  0.00    -0.086 SA
ATOM      4  C2  Z80 d   1    -122.160 -57.238 -44.726  0.00  0.00     0.032 A 
ATOM      5  C3  Z80 d   1    -122.321 -59.544 -46.208  0.00  0.00     0.032 A 
ATOM      6  C4  Z80 d   1    -120.954 -59.723 -46.072  0.00  0.00     0.053 A 
ATOM      7  C5  Z80 d   1    -120.495 -55.153 -43.805  0.00  0.00    -0.081 A 
ATOM      8  C6  Z80 d   1    -121.893 -54.953 -43.925  0.00  0.00    -0.082 A 
ATOM      9  C7  Z80 d   1    -122.725 -55.989 -44.389  0.00  0.00    -0.064 A 
ATOM     10  C8  Z80 d   1    -123.056 -60.299 -47.164  0.00  0.00    -0.063 A 
ATOM     11  C9  Z80 d   1    -122.383 -61.199 -47.943  0.00  0.00    -0.060 A 
ATOM     12  C10 Z80 d   1    -120.995 -61.395 -47.816  0.00  0.00     0.036 A 
ATOM     13  C11 Z80 d   1    -120.275 -60.651 -46.879  0.00  0.00    -0.035 A 
ATOM     14 CL1  Z80 d   1    -120.179 -62.568 -48.843  0.00  0.00    -0.084 Cl
ATOM     15  C17 Z80 d   1    -119.953 -56.386 -44.125  0.00  0.00    -0.056 A 
ATOM     16  H2  Z80 d   1    -119.855 -54.347 -43.465  0.00  0.00     0.083 H 
ATOM     17  H3  Z80 d   1    -122.325 -53.995 -43.657  0.00  0.00     0.083 H 
ATOM     18  H4  Z80 d   1    -123.793 -55.829 -44.487  0.00  0.00     0.085 H 
ATOM     19  H5  Z80 d   1    -124.126 -60.164 -47.273  0.00  0.00     0.085 H 
ATOM     20  H6  Z80 d   1    -122.933 -61.776 -48.677  0.00  0.00     0.086 H 
ATOM     21  H7  Z80 d   1    -119.205 -60.788 -46.776  0.00  0.00     0.089 H 
ATOM     22  H20 Z80 d   1    -118.888 -56.553 -44.016  0.00  0.00     0.087 H 
ENDROOT
BRANCH   2  23
ATOM     23  C12 Z80 d   1    -119.722 -59.663 -43.892  0.00  0.00     0.002 C 
ATOM     24  H8  Z80 d   1    -119.557 -58.997 -43.032  0.00  0.00     0.065 H 
ATOM     25  H9  Z80 d   1    -118.766 -60.115 -44.194  0.00  0.00     0.065 H 
BRANCH  23  26
ATOM     26  C13 Z80 d   1    -120.648 -60.804 -43.425  0.00  0.00    -0.027 C 
ATOM     27  H10 Z80 d   1    -121.356 -61.008 -44.241  0.00  0.00     0.037 H 
ATOM     28  H11 Z80 d   1    -121.198 -60.442 -42.544  0.00  0.00     0.037 H 
BRANCH  26  29
ATOM     29  C14 Z80 d   1    -119.991 -62.139 -43.041  0.00  0.00     0.084 C 
ATOM     30  H12 Z80 d   1    -119.724 -62.655 -43.975  0.00  0.00     0.076 H 
ATOM     31  H13 Z80 d   1    -119.076 -61.905 -42.477  0.00  0.00     0.076 H 
BRANCH  29  32
ATOM     32  N2  Z80 d   1    -120.769 -63.064 -42.242  0.00  0.00    -0.079 N 
ATOM     33  H1  Z80 d   1    -120.546 -64.014 -42.496  0.00  0.00     0.278 HD
BRANCH  32  34
ATOM     34  C15 Z80 d   1    -120.454 -62.830 -40.860  0.00  0.00     0.066 C 
ATOM     35  H14 Z80 d   1    -121.033 -63.521 -40.230  0.00  0.00     0.068 H 
ATOM     36  H15 Z80 d   1    -120.709 -61.793 -40.596  0.00  0.00     0.068 H 
ATOM     37  H16 Z80 d   1    -119.379 -62.997 -40.696  0.00  0.00     0.068 H 
ENDBRANCH  32  34
BRANCH  32  38
ATOM     38  C16 Z80 d   1    -122.182 -62.815 -42.446  0.00  0.00     0.066 C 
ATOM     39  H17 Z80 d   1    -122.437 -62.991 -43.502  0.00  0.00     0.068 H 
ATOM     40  H18 Z80 d   1    -122.412 -61.772 -42.182  0.00  0.00     0.068 H 
ATOM     41  H19 Z80 d   1    -122.769 -63.493 -41.809  0.00  0.00     0.068 H 
ENDBRANCH  32  38
ENDBRANCH  29  32
ENDBRANCH  26  29
ENDBRANCH  23  26
ENDBRANCH   2  23
TORSDOF 6
