REMARK  12 active torsions:
REMARK  status: ('A' for Active; 'I' for Inactive)
REMARK    1  A    between atoms: C6_20  and  C1_1 
REMARK    2  A    between atoms: C3_3  and  N22_28 
REMARK    3  A    between atoms: C11_4  and  O17_26 
REMARK    4  A    between atoms: C15_8  and  C13_6 
REMARK       I    between atoms: N5_19  and  C15_8 
REMARK    5  A    between atoms: O17_26  and  C18_9 
REMARK    6  A    between atoms: C10_24  and  C19_10 
REMARK    7  A    between atoms: C19_10  and  N20_27 
REMARK    8  A    between atoms: N7_21  and  C21_11 
REMARK       I    between atoms: C6_20  and  N7_21 
REMARK    9  A    between atoms: C31_31  and  O32_32 
REMARK   10  A    between atoms: O32_32  and  C33_33 
REMARK   11  A    between atoms: C33_33  and  C34_34 
REMARK   12  A    between atoms: C34_34  and  C35_35 
ROOT
ATOM      1  C1  6VZ d   1      45.555  23.571  47.020  0.00  0.00     0.094 C 
ATOM      2  C2  6VZ d   1      44.490  24.627  47.395  0.00  0.00    -0.009 C 
ATOM      3  C3  6VZ d   1      43.650  23.910  48.457  0.00  0.00     0.122 C 
ATOM      4  C15 6VZ d   1      46.300  21.561  48.141  0.00  0.00     0.254 C 
ATOM      5  C4  6VZ d   1      44.741  23.159  49.277  0.00  0.00     0.026 C 
ATOM      6  N5  6VZ d   1      45.643  22.745  48.214  0.00  0.00    -0.332 N 
ATOM      7  O16 6VZ d   1      46.816  21.222  47.093  0.00  0.00    -0.267 OA
ATOM      8  H1  6VZ d   1      45.214  22.964  46.168  0.00  0.00     0.088 H 
ATOM      9  H2  6VZ d   1      43.877  24.897  46.523  0.00  0.00     0.040 H 
ATOM     10  H3  6VZ d   1      44.959  25.532  47.808  0.00  0.00     0.040 H 
ATOM     11  H4  6VZ d   1      42.961  23.195  47.983  0.00  0.00     0.087 H 
ATOM     12  H22 6VZ d   1      44.322  22.294  49.812  0.00  0.00     0.067 H 
ATOM     13  H23 6VZ d   1      45.240  23.827  49.994  0.00  0.00     0.067 H 
ENDROOT
BRANCH   3  14
ATOM     14  N22 6VZ d   1      42.858  24.838  49.297  0.00  0.00    -0.060 N 
ATOM     15  C23 6VZ d   1      41.818  25.522  48.471  0.00  0.00     0.124 C 
ATOM     16  C27 6VZ d   1      40.849  26.323  49.299  0.00  0.00     0.072 A 
ATOM     17  H15 6VZ d   1      42.320  26.199  47.764  0.00  0.00     0.085 H 
ATOM     18  H16 6VZ d   1      41.256  24.759  47.912  0.00  0.00     0.085 H 
ATOM     19  C26 6VZ d   1      40.768  26.139  50.685  0.00  0.00     0.023 A 
ATOM     20  N28 6VZ d   1      40.058  27.226  48.672  0.00  0.00    -0.244 NA
ATOM     21  C24 6VZ d   1      41.585  25.067  51.422  0.00  0.00    -0.012 C 
ATOM     22  C31 6VZ d   1      39.862  26.943  51.350  0.00  0.00     0.173 A 
ATOM     23  C25 6VZ d   1      42.182  24.106  50.393  0.00  0.00     0.088 C 
ATOM     24  H17 6VZ d   1      42.394  25.547  51.993  0.00  0.00     0.042 H 
ATOM     25  H18 6VZ d   1      40.930  24.512  52.110  0.00  0.00     0.042 H 
ATOM     26  H19 6VZ d   1      41.375  23.491  49.968  0.00  0.00     0.076 H 
ATOM     27  H20 6VZ d   1      42.914  23.456  50.894  0.00  0.00     0.076 H 
ATOM     28  N30 6VZ d   1      39.090  27.842  50.719  0.00  0.00    -0.217 NA
ATOM     29  C29 6VZ d   1      39.198  27.966  49.374  0.00  0.00     0.089 A 
ATOM     30  H21 6VZ d   1      38.571  28.683  48.856  0.00  0.00     0.146 H 
ATOM     31  H29 6VZ d   1      43.477  25.529  49.692  0.00  0.00     0.280 HD
BRANCH  22  32
ATOM     32  O32 6VZ d   1      39.747  26.728  52.668  0.00  0.00    -0.334 OA
BRANCH  32  33
ATOM     33  C33 6VZ d   1      38.778  27.470  53.427  0.00  0.00     0.028 C 
ATOM     34  H30 6VZ d   1      37.817  27.478  52.892  0.00  0.00     0.075 H 
ATOM     35  H31 6VZ d   1      39.129  28.503  53.565  0.00  0.00     0.075 H 
BRANCH  33  36
ATOM     36  C34 6VZ d   1      38.601  26.798  54.796  0.00  0.00    -0.041 C 
ATOM     37  H32 6VZ d   1      38.020  27.456  55.459  0.00  0.00     0.036 H 
ATOM     38  H33 6VZ d   1      39.587  26.605  55.243  0.00  0.00     0.036 H 
BRANCH  36  39
ATOM     39  C35 6VZ d   1      37.853  25.469  54.603  0.00  0.00    -0.052 A 
ATOM     40  C36 6VZ d   1      38.006  24.470  55.763  0.00  0.00    -0.061 A 
ATOM     41  C37 6VZ d   1      38.699  24.216  54.405  0.00  0.00    -0.061 A 
ATOM     42  H35 6VZ d   1      37.153  23.848  56.072  0.00  0.00     0.033 H 
ATOM     43  H36 6VZ d   1      38.604  24.737  56.647  0.00  0.00     0.033 H 
ATOM     44  H37 6VZ d   1      39.793  24.299  54.322  0.00  0.00     0.033 H 
ATOM     45  H38 6VZ d   1      38.341  23.410  53.748  0.00  0.00     0.033 H 
ATOM     46  H34 6VZ d   1      36.901  25.608  54.071  0.00  0.00     0.040 H 
ENDBRANCH  36  39
ENDBRANCH  33  36
ENDBRANCH  32  33
ENDBRANCH  22  32
ENDBRANCH   3  14
BRANCH   1  47
ATOM     47  C6  6VZ d   1      46.858  24.238  46.643  0.00  0.00     0.240 C 
ATOM     48  N7  6VZ d   1      47.185  24.188  45.341  0.00  0.00    -0.364 N 
ATOM     49  H24 6VZ d   1      46.599  23.671  44.717  0.00  0.00     0.161 HD
ATOM     50  O8  6VZ d   1      47.549  24.785  47.514  0.00  0.00    -0.271 OA
BRANCH  48  51
ATOM     51  C21 6VZ d   1      48.370  24.864  44.802  0.00  0.00    -0.018 C 
ATOM     52  H12 6VZ d   1      48.434  24.684  43.719  0.00  0.00     0.056 H 
ATOM     53  H13 6VZ d   1      49.272  24.470  45.293  0.00  0.00     0.056 H 
ATOM     54  H14 6VZ d   1      48.293  25.945  44.990  0.00  0.00     0.056 H 
ENDBRANCH  48  51
ENDBRANCH   1  47
BRANCH   4  55
ATOM     55  C13 6VZ d   1      46.357  20.671  49.358  0.00  0.00     0.034 A 
ATOM     56  C12 6VZ d   1      46.625  21.205  50.630  0.00  0.00    -0.035 A 
ATOM     57  C11 6VZ d   1      46.673  20.333  51.729  0.00  0.00     0.077 A 
ATOM     58  H5  6VZ d   1      46.791  22.268  50.760  0.00  0.00     0.089 H 
ATOM     59  C10 6VZ d   1      46.437  18.974  51.568  0.00  0.00     0.000 A 
ATOM     60  C9  6VZ d   1      46.190  18.475  50.295  0.00  0.00    -0.072 A 
ATOM     61  C14 6VZ d   1      46.164  19.314  49.194  0.00  0.00    -0.067 A 
ATOM     62  H25 6VZ d   1      46.015  17.413  50.162  0.00  0.00     0.084 H 
ATOM     63  H6  6VZ d   1      45.992  18.906  48.205  0.00  0.00     0.085 H 
BRANCH  57  64
ATOM     64  O17 6VZ d   1      46.859  20.779  53.025  0.00  0.00    -0.355 OA
BRANCH  64  65
ATOM     65  C18 6VZ d   1      47.162  22.151  53.307  0.00  0.00     0.010 C 
ATOM     66  H7  6VZ d   1      47.269  22.287  54.393  0.00  0.00     0.066 H 
ATOM     67  H8  6VZ d   1      46.347  22.790  52.936  0.00  0.00     0.066 H 
ATOM     68  H9  6VZ d   1      48.102  22.429  52.808  0.00  0.00     0.066 H 
ENDBRANCH  64  65
ENDBRANCH  57  64
BRANCH  59  69
ATOM     69  C19 6VZ d   1      46.468  18.011  52.758  0.00  0.00     0.106 C 
ATOM     70  H10 6VZ d   1      46.333  16.985  52.386  0.00  0.00     0.082 H 
ATOM     71  H11 6VZ d   1      45.643  18.265  53.440  0.00  0.00     0.082 H 
BRANCH  69  72
ATOM     72  N20 6VZ d   1      47.741  18.082  53.505  0.00  0.00    -0.075 N 
ATOM     73  H26 6VZ d   1      47.715  17.433  54.276  0.00  0.00     0.274 HD
ATOM     74  H27 6VZ d   1      47.872  19.017  53.857  0.00  0.00     0.274 HD
ATOM     75  H28 6VZ d   1      48.504  17.844  52.891  0.00  0.00     0.274 HD
ENDBRANCH  69  72
ENDBRANCH  59  69
ENDBRANCH   4  55
TORSDOF 12
