REMARK WARNING: 32 MAX_TORS EXCEEDED!!!
REMARK  40 active torsions:
REMARK  status: ('A' for Active; 'I' for Inactive)
REMARK    1  A    between atoms: N_1  and  CA_2 
REMARK    2  A    between atoms: CA_2  and  C_3 
REMARK    3  A    between atoms: CA_2  and  CB_5 
REMARK       I    between atoms: C_3  and  N_10 
REMARK    4  A    between atoms: CB_5  and  CG_6 
REMARK    5  A    between atoms: CG_6  and  CD_7 
REMARK       I    between atoms: CD_7  and  NE2_9 
REMARK    6  A    between atoms: N_10  and  CA_11 
REMARK    7  A    between atoms: CA_11  and  C_12 
REMARK    8  A    between atoms: CA_11  and  CB_14 
REMARK       I    between atoms: C_12  and  N_18 
REMARK    9  A    between atoms: CB_14  and  CG_15 
REMARK       I    between atoms: CG_15  and  ND2_17 
REMARK   10  A    between atoms: N_18  and  CA_19 
REMARK   11  A    between atoms: CA_19  and  C_20 
REMARK   12  A    between atoms: CA_19  and  CB_22 
REMARK       I    between atoms: C_20  and  N_26 
REMARK   13  A    between atoms: CB_22  and  CG_23 
REMARK   14  A    between atoms: CG_23  and  SD_24 
REMARK   15  A    between atoms: SD_24  and  CE_25 
REMARK   16  A    between atoms: CA_27  and  C_28 
REMARK       I    between atoms: C_28  and  N_33 
REMARK   17  A    between atoms: N_33  and  CA_34 
REMARK   18  A    between atoms: CA_34  and  C_35 
REMARK       I    between atoms: C_35  and  N_37 
REMARK   19  A    between atoms: N_37  and  CA_38 
REMARK   20  A    between atoms: CA_38  and  C_39 
REMARK   21  A    between atoms: CA_38  and  CB_41 
REMARK       I    between atoms: C_39  and  N_42 
REMARK   22  A    between atoms: N_42  and  CA_43 
REMARK   23  A    between atoms: CA_43  and  C_44 
REMARK   24  A    between atoms: CA_43  and  CB_46 
REMARK       I    between atoms: C_44  and  N_50 
REMARK   25  A    between atoms: CB_46  and  CG1_47 
REMARK   26  A    between atoms: CB_46  and  CG2_48 
REMARK   27  A    between atoms: CG1_47  and  CD1_49 
REMARK   28  A    between atoms: N_50  and  CA_51 
REMARK   29  A    between atoms: CA_51  and  C_52 
REMARK   30  A    between atoms: CA_51  and  CB_54 
REMARK       I    between atoms: C_52  and  N_61 
REMARK   31  A    between atoms: CB_54  and  CG_55 
REMARK   32  A    between atoms: CG_55  and  CD_56 
REMARK   33  A    between atoms: CD_56  and  NE_57 
REMARK       I    between atoms: NE_57  and  CZ_58 
REMARK       I    between atoms: CZ_58  and  NH1_59 
REMARK   34  A    between atoms: CA_62  and  C_63 
REMARK       I    between atoms: C_63  and  N_68 
REMARK   35  A    between atoms: N_68  and  CA_69 
REMARK   36  A    between atoms: CA_69  and  C_70 
REMARK   37  A    between atoms: CA_69  and  CB_72 
REMARK       I    between atoms: C_70  and  N_73 
REMARK   38  A    between atoms: N_73  and  CA_74 
REMARK   39  A    between atoms: CA_74  and  C_75 
REMARK   40  A    between atoms: CA_74  and  CB_77 
ROOT
ATOM      1  C   GLN d   1      44.330  26.365 128.095  0.00  0.00     0.240 C 
ATOM      2  O   GLN d   1      44.986  25.459 127.576  0.00  0.00    -0.271 OA
ATOM      3  N   GLN d   1      44.784  27.604 128.210  0.00  0.00    -0.346 N 
ATOM      4  H41 GLN d   1      44.234  28.273 128.711  0.00  0.00     0.163 HD
ENDROOT
BRANCH   1   5
ATOM      5  CA  GLN d   1      42.931  26.114 128.645  0.00  0.00     0.086 C 
ATOM      6  H37 GLN d   1      42.687  26.906 129.368  0.00  0.00     0.086 H 
BRANCH   5   7
ATOM      7  N   GLN d   1      41.994  26.187 127.528  0.00  0.00    -0.347 N 
ATOM      8  C   GLN d   1      41.409  27.334 127.190  0.00  0.00     0.236 C 
ATOM      9  O   GLN d   1      41.632  28.392 127.793  0.00  0.00    -0.272 OA
ATOM     10  H36 GLN d   1      41.788  25.359 127.007  0.00  0.00     0.163 HD
BRANCH   8  11
ATOM     11  CA  GLN d   1      40.441  27.343 126.028  0.00  0.00     0.069 C 
ATOM     12  H34 GLN d   1      39.439  27.572 126.421  0.00  0.00     0.078 H 
ATOM     13  H35 GLN d   1      40.752  28.136 125.332  0.00  0.00     0.078 H 
BRANCH  11  14
ATOM     14  N   GLN d   1      40.359  26.106 125.289  0.00  0.00    -0.351 N 
ATOM     15  C   GLN d   1      39.496  25.144 125.607  0.00  0.00     0.241 C 
ATOM     16  O   GLN d   1      38.707  25.233 126.552  0.00  0.00    -0.271 OA
ATOM     17  H33 GLN d   1      40.972  25.967 124.511  0.00  0.00     0.163 HD
BRANCH  15  18
ATOM     18  CA  GLN d   1      39.530  23.900 124.731  0.00  0.00     0.091 C 
ATOM     19  N   GLN d   1      39.898  22.718 125.528  0.00  0.00    -0.337 N 
ATOM     20  C   GLN d   1      41.118  22.617 126.059  0.00  0.00     0.243 C 
ATOM     21  CD  GLN d   1      38.745  21.833 125.766  0.00  0.00    -0.001 C 
ATOM     22  O   GLN d   1      41.945  23.527 125.936  0.00  0.00    -0.271 OA
ATOM     23  CG  GLN d   1      37.570  22.623 125.217  0.00  0.00    -0.048 C 
ATOM     24  H31 GLN d   1      38.617  21.634 126.840  0.00  0.00     0.064 H 
ATOM     25  H32 GLN d   1      38.863  20.881 125.229  0.00  0.00     0.064 H 
ATOM     26  CB  GLN d   1      38.139  23.546 124.190  0.00  0.00    -0.036 C 
ATOM     27  H29 GLN d   1      36.835  21.946 124.757  0.00  0.00     0.035 H 
ATOM     28  H30 GLN d   1      37.086  23.197 126.021  0.00  0.00     0.035 H 
ATOM     29  H27 GLN d   1      38.216  23.044 123.214  0.00  0.00     0.036 H 
ATOM     30  H28 GLN d   1      37.518  24.448 124.090  0.00  0.00     0.036 H 
ATOM     31  H26 GLN d   1      40.240  24.055 123.906  0.00  0.00     0.087 H 
BRANCH  20  32
ATOM     32  CA  GLN d   1      41.448  21.349 126.845  0.00  0.00     0.090 C 
ATOM     33  H18 GLN d   1      40.734  21.264 127.678  0.00  0.00     0.087 H 
BRANCH  32  34
ATOM     34  N   GLN d   1      41.299  20.176 125.983  0.00  0.00    -0.346 N 
ATOM     35  C   GLN d   1      40.604  19.104 126.351  0.00  0.00     0.241 C 
ATOM     36  O   GLN d   1      40.007  19.034 127.431  0.00  0.00    -0.271 OA
ATOM     37  H17 GLN d   1      41.736  20.181 125.084  0.00  0.00     0.163 HD
BRANCH  35  38
ATOM     38  CA  GLN d   1      40.608  17.938 125.369  0.00  0.00     0.097 C 
ATOM     39  H12 GLN d   1      41.577  17.910 124.850  0.00  0.00     0.088 H 
BRANCH  38  40
ATOM     40  N   GLN d   1      40.438  16.695 126.108  0.00  0.00    -0.346 N 
ATOM     41  C   GLN d   1      41.409  16.266 126.911  0.00  0.00     0.249 C 
ATOM     42  O   GLN d   1      42.565  16.702 126.843  0.00  0.00    -0.271 OA
ATOM     43  H11 GLN d   1      39.595  16.166 126.013  0.00  0.00     0.163 HD
BRANCH  41  44
ATOM     44  CA  GLN d   1      41.038  15.202 127.950  0.00  0.00     0.176 C 
ATOM     45  H4  GLN d   1      41.955  14.892 128.472  0.00  0.00     0.099 H 
BRANCH  44  46
ATOM     46  N   GLN d   1      40.116  15.773 128.927  0.00  0.00    -0.066 N 
ATOM     47  H1  GLN d   1      39.873  15.072 129.609  0.00  0.00     0.275 HD
ATOM     48  H2  GLN d   1      39.282  16.088 128.457  0.00  0.00     0.275 HD
ATOM     49  H3  GLN d   1      40.557  16.553 129.389  0.00  0.00     0.275 HD
ENDBRANCH  44  46
BRANCH  44  50
ATOM     50  CB  GLN d   1      40.423  13.969 127.294  0.00  0.00    -0.022 C 
ATOM     51  H5  GLN d   1      41.221  13.425 126.767  0.00  0.00     0.037 H 
ATOM     52  H6  GLN d   1      39.668  14.306 126.569  0.00  0.00     0.037 H 
BRANCH  50  53
ATOM     53  CG  GLN d   1      39.755  13.009 128.265  0.00  0.00     0.011 C 
ATOM     54  H7  GLN d   1      40.340  12.989 129.196  0.00  0.00     0.047 H 
ATOM     55  H8  GLN d   1      39.748  12.005 127.815  0.00  0.00     0.047 H 
BRANCH  53  56
ATOM     56  CD  GLN d   1      38.321  13.400 128.602  0.00  0.00     0.215 C 
ATOM     57  OE1 GLN d   1      37.857  14.480 128.230  0.00  0.00    -0.274 OA
ATOM     58  NE2 GLN d   1      37.611  12.518 129.305  0.00  0.00    -0.370 N 
ATOM     59  H9  GLN d   1      36.664  12.723 129.554  0.00  0.00     0.159 HD
ATOM     60  H10 GLN d   1      38.025  11.651 129.583  0.00  0.00     0.159 HD
ENDBRANCH  53  56
ENDBRANCH  50  53
ENDBRANCH  44  50
ENDBRANCH  41  44
ENDBRANCH  38  40
BRANCH  38  61
ATOM     61  CB  GLN d   1      39.501  18.127 124.324  0.00  0.00     0.036 C 
ATOM     62  H13 GLN d   1      39.543  19.161 123.952  0.00  0.00     0.051 H 
ATOM     63  H14 GLN d   1      38.529  17.951 124.807  0.00  0.00     0.051 H 
BRANCH  61  64
ATOM     64  CG  GLN d   1      39.633  17.179 123.139  0.00  0.00     0.217 C 
ATOM     65  OD1 GLN d   1      40.691  16.594 122.907  0.00  0.00    -0.274 OA
ATOM     66  ND2 GLN d   1      38.551  17.035 122.372  0.00  0.00    -0.370 N 
ATOM     67  H15 GLN d   1      38.577  16.426 121.579  0.00  0.00     0.159 HD
ATOM     68  H16 GLN d   1      37.714  17.536 122.590  0.00  0.00     0.159 HD
ENDBRANCH  61  64
ENDBRANCH  38  61
ENDBRANCH  35  38
ENDBRANCH  32  34
BRANCH  32  69
ATOM     69  CB  GLN d   1      42.862  21.400 127.431  0.00  0.00    -0.030 C 
ATOM     70  H19 GLN d   1      42.904  20.692 128.272  0.00  0.00     0.037 H 
ATOM     71  H20 GLN d   1      43.037  22.421 127.802  0.00  0.00     0.037 H 
BRANCH  69  72
ATOM     72  CG  GLN d   1      43.999  21.050 126.465  0.00  0.00    -0.021 C 
ATOM     73  H21 GLN d   1      43.791  21.523 125.494  0.00  0.00     0.049 H 
ATOM     74  H22 GLN d   1      44.030  19.957 126.342  0.00  0.00     0.049 H 
BRANCH  72  75
ATOM     75  SD  GLN d   1      45.628  21.613 127.046  0.00  0.00    -0.173 SA
BRANCH  75  76
ATOM     76  CE  GLN d   1      46.172  20.215 127.982  0.00  0.00    -0.035 C 
ATOM     77  H23 GLN d   1      47.168  20.420 128.402  0.00  0.00     0.041 H 
ATOM     78  H24 GLN d   1      46.225  19.333 127.327  0.00  0.00     0.041 H 
ATOM     79  H25 GLN d   1      45.462  20.022 128.799  0.00  0.00     0.041 H 
ENDBRANCH  75  76
ENDBRANCH  72  75
ENDBRANCH  69  72
ENDBRANCH  32  69
ENDBRANCH  20  32
ENDBRANCH  15  18
ENDBRANCH  11  14
ENDBRANCH   8  11
ENDBRANCH   5   7
BRANCH   5  80
ATOM     80  CB  GLN d   1      42.835  24.775 129.360  0.00  0.00    -0.049 C 
ATOM     81  H38 GLN d   1      43.552  24.753 130.194  0.00  0.00     0.030 H 
ATOM     82  H39 GLN d   1      43.069  23.965 128.654  0.00  0.00     0.030 H 
ATOM     83  H40 GLN d   1      41.815  24.640 129.749  0.00  0.00     0.030 H 
ENDBRANCH   5  80
ENDBRANCH   1   5
BRANCH   3  84
ATOM     84  CA  GLN d   1      46.047  28.029 127.638  0.00  0.00     0.092 C 
ATOM     85  H42 GLN d   1      46.056  27.769 126.569  0.00  0.00     0.088 H 
BRANCH  84  86
ATOM     86  C   GLN d   1      47.193  27.292 128.319  0.00  0.00     0.241 C 
ATOM     87  O   GLN d   1      48.078  26.759 127.653  0.00  0.00    -0.271 OA
ATOM     88  N   GLN d   1      47.174  27.262 129.647  0.00  0.00    -0.346 N 
ATOM     89  H52 GLN d   1      46.480  27.786 130.141  0.00  0.00     0.163 HD
BRANCH  88  90
ATOM     90  CA  GLN d   1      48.155  26.472 130.403  0.00  0.00     0.089 C 
ATOM     91  H53 GLN d   1      48.966  26.182 129.719  0.00  0.00     0.087 H 
BRANCH  90  92
ATOM     92  C   GLN d   1      47.524  25.176 131.016  0.00  0.00     0.243 C 
ATOM     93  O   GLN d   1      46.453  25.222 131.569  0.00  0.00    -0.271 OA
ATOM     94  N   GLN d   1      48.235  24.007 130.896  0.00  0.00    -0.337 N 
ATOM     95  CA  GLN d   1      47.728  22.752 131.502  0.00  0.00     0.091 C 
ATOM     96  CD  GLN d   1      49.534  23.784 130.208  0.00  0.00    -0.001 C 
ATOM     97  CB  GLN d   1      48.804  21.721 131.133  0.00  0.00    -0.036 C 
ATOM     98  H65 GLN d   1      46.759  22.481 131.058  0.00  0.00     0.087 H 
ATOM     99  CG  GLN d   1      49.541  22.309 129.965  0.00  0.00    -0.048 C 
ATOM    100  H66 GLN d   1      48.339  20.765 130.852  0.00  0.00     0.036 H 
ATOM    101  H67 GLN d   1      49.489  21.561 131.979  0.00  0.00     0.036 H 
ATOM    102  H68 GLN d   1      49.026  22.070 129.023  0.00  0.00     0.035 H 
ATOM    103  H69 GLN d   1      50.572  21.928 129.927  0.00  0.00     0.035 H 
ATOM    104  H70 GLN d   1      50.377  24.082 130.849  0.00  0.00     0.064 H 
ATOM    105  H71 GLN d   1      49.579  24.340 129.260  0.00  0.00     0.064 H 
BRANCH  95 106
ATOM    106  C   GLN d   1      47.568  22.832 133.022  0.00  0.00     0.241 C 
ATOM    107  O   GLN d   1      48.320  23.561 133.683  0.00  0.00    -0.271 OA
ATOM    108  N   GLN d   1      46.599  22.106 133.573  0.00  0.00    -0.346 N 
ATOM    109  H72 GLN d   1      45.950  21.619 132.988  0.00  0.00     0.163 HD
BRANCH 108 110
ATOM    110  CA  GLN d   1      46.475  22.015 135.019  0.00  0.00     0.086 C 
ATOM    111  H73 GLN d   1      46.309  23.025 135.422  0.00  0.00     0.086 H 
BRANCH 110 112
ATOM    112  C   GLN d   1      47.748  21.456 135.618  0.00  0.00     0.240 C 
ATOM    113  O   GLN d   1      48.300  20.469 135.124  0.00  0.00    -0.271 OA
ATOM    114  N   GLN d   1      48.213  22.087 136.686  0.00  0.00    -0.345 N 
ATOM    115  H77 GLN d   1      47.711  22.858 137.078  0.00  0.00     0.163 HD
BRANCH 114 116
ATOM    116  CA  GLN d   1      49.467  21.641 137.282  0.00  0.00     0.093 C 
ATOM    117  H78 GLN d   1      50.235  21.626 136.495  0.00  0.00     0.089 H 
BRANCH 116 118
ATOM    118  C   GLN d   1      49.327  20.239 137.834  0.00  0.00     0.196 C 
ATOM    119  O   GLN d   1      48.239  19.790 138.195  0.00  0.00    -0.646 OA
ATOM    120  OXT GLN d   1      50.295  19.487 137.946  0.00  0.00    -0.646 OA
ENDBRANCH 116 118
BRANCH 116 121
ATOM    121  CB  GLN d   1      49.919  22.599 138.367  0.00  0.00    -0.048 C 
ATOM    122  H79 GLN d   1      50.865  22.242 138.800  0.00  0.00     0.030 H 
ATOM    123  H80 GLN d   1      49.152  22.651 139.153  0.00  0.00     0.030 H 
ATOM    124  H81 GLN d   1      50.069  23.599 137.934  0.00  0.00     0.030 H 
ENDBRANCH 116 121
ENDBRANCH 114 116
ENDBRANCH 110 112
BRANCH 110 125
ATOM    125  CB  GLN d   1      45.287  21.135 135.401  0.00  0.00    -0.049 C 
ATOM    126  H74 GLN d   1      45.210  21.079 136.497  0.00  0.00     0.030 H 
ATOM    127  H75 GLN d   1      45.432  20.125 134.991  0.00  0.00     0.030 H 
ATOM    128  H76 GLN d   1      44.363  21.568 134.990  0.00  0.00     0.030 H 
ENDBRANCH 110 125
ENDBRANCH 108 110
ENDBRANCH  95 106
ENDBRANCH  90  92
BRANCH  90 129
ATOM    129  CB  GLN d   1      48.737  27.295 131.548  0.00  0.00    -0.036 C 
ATOM    130  H54 GLN d   1      49.470  26.669 132.078  0.00  0.00     0.036 H 
ATOM    131  H55 GLN d   1      47.915  27.555 132.231  0.00  0.00     0.036 H 
BRANCH 129 132
ATOM    132  CG  GLN d   1      49.434  28.588 131.136  0.00  0.00    -0.048 C 
ATOM    133  H56 GLN d   1      49.458  29.267 132.001  0.00  0.00     0.035 H 
ATOM    134  H57 GLN d   1      48.860  29.053 130.321  0.00  0.00     0.035 H 
BRANCH 132 135
ATOM    135  CD  GLN d   1      50.853  28.358 130.660  0.00  0.00     0.009 C 
ATOM    136  H58 GLN d   1      50.830  27.843 129.689  0.00  0.00     0.064 H 
ATOM    137  H59 GLN d   1      51.384  27.734 131.394  0.00  0.00     0.064 H 
BRANCH 135 138
ATOM    138  NE  GLN d   1      51.554  29.627 130.513  0.00  0.00    -0.227 N 
ATOM    139  CZ  GLN d   1      52.381  30.170 131.402  0.00  0.00     0.665 C 
ATOM    140  NH1 GLN d   1      52.714  29.522 132.500  0.00  0.00    -0.235 N 
ATOM    141  NH2 GLN d   1      52.843  31.398 131.207  0.00  0.00    -0.235 N 
ATOM    142  H61 GLN d   1      53.356  29.955 133.179  0.00  0.00     0.174 HD
ATOM    143  H62 GLN d   1      52.333  28.582 132.679  0.00  0.00     0.174 HD
ATOM    144  H63 GLN d   1      52.589  31.914 130.352  0.00  0.00     0.174 HD
ATOM    145  H64 GLN d   1      53.455  31.835 131.910  0.00  0.00     0.174 HD
ATOM    146  H60 GLN d   1      51.395  30.151 129.641  0.00  0.00     0.177 HD
ENDBRANCH 135 138
ENDBRANCH 132 135
ENDBRANCH 129 132
ENDBRANCH  90 129
ENDBRANCH  88  90
ENDBRANCH  84  86
BRANCH  84 147
ATOM    147  CB  GLN d   1      46.188  29.541 127.764  0.00  0.00    -0.030 C 
ATOM    148  H43 GLN d   1      46.228  29.794 128.834  0.00  0.00     0.043 H 
BRANCH 147 149
ATOM    149  CG1 GLN d   1      44.967  30.245 127.151  0.00  0.00    -0.063 C 
ATOM    150  H44 GLN d   1      45.116  31.330 127.251  0.00  0.00     0.033 H 
ATOM    151  H45 GLN d   1      44.079  29.943 127.725  0.00  0.00     0.033 H 
BRANCH 149 152
ATOM    152  CD1 GLN d   1      44.704  29.945 125.696  0.00  0.00    -0.076 C 
ATOM    153  H49 GLN d   1      43.813  30.498 125.363  0.00  0.00     0.027 H 
ATOM    154  H50 GLN d   1      44.535  28.866 125.569  0.00  0.00     0.027 H 
ATOM    155  H51 GLN d   1      45.572  30.253 125.095  0.00  0.00     0.027 H 
ENDBRANCH 149 152
ENDBRANCH 147 149
BRANCH 147 156
ATOM    156  CG2 GLN d   1      47.476  30.024 127.118  0.00  0.00    -0.071 C 
ATOM    157  H46 GLN d   1      48.332  29.505 127.574  0.00  0.00     0.028 H 
ATOM    158  H47 GLN d   1      47.580  31.108 127.272  0.00  0.00     0.028 H 
ATOM    159  H48 GLN d   1      47.449  29.808 126.040  0.00  0.00     0.028 H 
ENDBRANCH 147 156
ENDBRANCH  84 147
ENDBRANCH   3  84
TORSDOF 40
