REMARK  23 active torsions:
REMARK  status: ('A' for Active; 'I' for Inactive)
REMARK    1  A    between atoms: N_1  and  CA_2 
REMARK    2  A    between atoms: CA_2  and  C_3 
REMARK    3  A    between atoms: CA_2  and  CB_5 
REMARK       I    between atoms: C_3  and  N_6 
REMARK    4  A    between atoms: N_6  and  CA_7 
REMARK    5  A    between atoms: CA_7  and  C_8 
REMARK    6  A    between atoms: CA_7  and  CB_10 
REMARK       I    between atoms: C_8  and  N_11 
REMARK    7  A    between atoms: CA_12  and  C_13 
REMARK       I    between atoms: C_13  and  N_18 
REMARK    8  A    between atoms: N_18  and  CA_19 
REMARK    9  A    between atoms: CA_19  and  C_20 
REMARK   10  A    between atoms: CA_19  and  CB_22 
REMARK       I    between atoms: C_20  and  N_29 
REMARK   11  A    between atoms: CB_22  and  CG_23 
REMARK   12  A    between atoms: CG_23  and  CD_24 
REMARK   13  A    between atoms: CD_24  and  NE_25 
REMARK       I    between atoms: NE_25  and  CZ_26 
REMARK       I    between atoms: CZ_26  and  NH1_27 
REMARK   14  A    between atoms: CA_30  and  C_31 
REMARK       I    between atoms: C_31  and  N_36 
REMARK   15  A    between atoms: CA_37  and  C_38 
REMARK       I    between atoms: C_38  and  N_43 
REMARK   16  A    between atoms: N_43  and  CA_44 
REMARK   17  A    between atoms: CA_44  and  C_45 
REMARK   18  A    between atoms: CA_44  and  CB_47 
REMARK       I    between atoms: C_45  and  N_54 
REMARK   19  A    between atoms: CB_47  and  CG_48 
REMARK   20  A    between atoms: N_54  and  CA_55 
REMARK   21  A    between atoms: CA_55  and  C_56 
REMARK   22  A    between atoms: CA_55  and  CB_58 
REMARK   23  A    between atoms: CB_58  and  OG_59 
ROOT
ATOM      1  C   ALA d   1      30.140  18.957 127.646  0.00  0.00     0.243 C 
ATOM      2  O   ALA d   1      31.262  18.825 127.245  0.00  0.00    -0.271 OA
ATOM      3  N   ALA d   1      29.731  18.479 128.836  0.00  0.00    -0.337 N 
ATOM      4  CA  ALA d   1      30.663  17.759 129.714  0.00  0.00     0.092 C 
ATOM      5  CB  ALA d   1      29.809  17.447 130.950  0.00  0.00    -0.036 C 
ATOM      6  CG  ALA d   1      28.698  18.411 130.913  0.00  0.00    -0.048 C 
ATOM      7  CD  ALA d   1      28.417  18.662 129.478  0.00  0.00    -0.001 C 
ATOM      8  H33 ALA d   1      31.512  18.407 129.977  0.00  0.00     0.087 H 
ATOM      9  H34 ALA d   1      30.400  17.577 131.869  0.00  0.00     0.036 H 
ATOM     10  H35 ALA d   1      29.426  16.417 130.903  0.00  0.00     0.036 H 
ATOM     11  H36 ALA d   1      28.988  19.346 131.414  0.00  0.00     0.035 H 
ATOM     12  H37 ALA d   1      27.810  17.989 131.407  0.00  0.00     0.035 H 
ATOM     13  H38 ALA d   1      27.684  17.940 129.088  0.00  0.00     0.064 H 
ATOM     14  H39 ALA d   1      28.042  19.684 129.323  0.00  0.00     0.064 H 
ENDROOT
BRANCH   1  15
ATOM     15  CA  ALA d   1      29.088  19.705 126.762  0.00  0.00     0.089 C 
ATOM     16  H21 ALA d   1      28.167  19.829 127.350  0.00  0.00     0.087 H 
BRANCH  15  17
ATOM     17  N   ALA d   1      29.535  21.039 126.324  0.00  0.00    -0.346 N 
ATOM     18  C   ALA d   1      29.039  22.146 126.872  0.00  0.00     0.241 C 
ATOM     19  O   ALA d   1      28.202  22.135 127.773  0.00  0.00    -0.271 OA
ATOM     20  H20 ALA d   1      30.223  21.114 125.602  0.00  0.00     0.163 HD
BRANCH  18  21
ATOM     21  CA  ALA d   1      29.541  23.482 126.327  0.00  0.00     0.091 C 
ATOM     22  N   ALA d   1      31.001  23.537 126.177  0.00  0.00    -0.337 N 
ATOM     23  C   ALA d   1      31.819  23.406 127.236  0.00  0.00     0.243 C 
ATOM     24  CD  ALA d   1      31.399  23.865 124.798  0.00  0.00    -0.001 C 
ATOM     25  O   ALA d   1      31.371  23.315 128.383  0.00  0.00    -0.271 OA
ATOM     26  CG  ALA d   1      30.136  24.362 124.178  0.00  0.00    -0.048 C 
ATOM     27  H18 ALA d   1      31.770  22.972 124.273  0.00  0.00     0.064 H 
ATOM     28  H19 ALA d   1      32.175  24.645 124.788  0.00  0.00     0.064 H 
ATOM     29  CB  ALA d   1      29.027  23.700 124.898  0.00  0.00    -0.036 C 
ATOM     30  H16 ALA d   1      30.063  25.454 124.288  0.00  0.00     0.035 H 
ATOM     31  H17 ALA d   1      30.107  24.098 123.111  0.00  0.00     0.035 H 
ATOM     32  H14 ALA d   1      28.134  24.343 124.904  0.00  0.00     0.036 H 
ATOM     33  H15 ALA d   1      28.782  22.737 124.426  0.00  0.00     0.036 H 
ATOM     34  H13 ALA d   1      29.198  24.288 126.992  0.00  0.00     0.087 H 
BRANCH  23  35
ATOM     35  CA  ALA d   1      33.330  23.374 126.999  0.00  0.00     0.086 C 
ATOM     36  H9  ALA d   1      33.542  23.779 125.999  0.00  0.00     0.086 H 
BRANCH  35  37
ATOM     37  N   ALA d   1      34.021  24.192 127.987  0.00  0.00    -0.346 N 
ATOM     38  C   ALA d   1      34.216  25.512 127.802  0.00  0.00     0.248 C 
ATOM     39  O   ALA d   1      33.757  26.131 126.842  0.00  0.00    -0.271 OA
ATOM     40  H8  ALA d   1      34.359  23.762 128.824  0.00  0.00     0.163 HD
BRANCH  38  41
ATOM     41  CA  ALA d   1      35.052  26.221 128.865  0.00  0.00     0.172 C 
ATOM     42  H4  ALA d   1      34.388  26.517 129.690  0.00  0.00     0.098 H 
BRANCH  41  43
ATOM     43  N   ALA d   1      36.098  25.305 129.405  0.00  0.00    -0.067 N 
ATOM     44  H1  ALA d   1      36.640  25.789 130.104  0.00  0.00     0.275 HD
ATOM     45  H2  ALA d   1      36.704  25.009 128.656  0.00  0.00     0.275 HD
ATOM     46  H3  ALA d   1      35.657  24.499 129.820  0.00  0.00     0.275 HD
ENDBRANCH  41  43
BRANCH  41  47
ATOM     47  CB  ALA d   1      35.694  27.475 128.290  0.00  0.00    -0.042 C 
ATOM     48  H5  ALA d   1      34.911  28.140 127.896  0.00  0.00     0.030 H 
ATOM     49  H6  ALA d   1      36.381  27.196 127.478  0.00  0.00     0.030 H 
ATOM     50  H7  ALA d   1      36.254  27.996 129.081  0.00  0.00     0.030 H 
ENDBRANCH  41  47
ENDBRANCH  38  41
ENDBRANCH  35  37
BRANCH  35  51
ATOM     51  CB  ALA d   1      33.818  21.932 127.059  0.00  0.00    -0.049 C 
ATOM     52  H10 ALA d   1      33.285  21.333 126.306  0.00  0.00     0.030 H 
ATOM     53  H11 ALA d   1      33.624  21.520 128.060  0.00  0.00     0.030 H 
ATOM     54  H12 ALA d   1      34.898  21.902 126.853  0.00  0.00     0.030 H 
ENDBRANCH  35  51
ENDBRANCH  23  35
ENDBRANCH  18  21
ENDBRANCH  15  17
BRANCH  15  55
ATOM     55  CB  ALA d   1      28.789  18.836 125.540  0.00  0.00    -0.036 C 
ATOM     56  H22 ALA d   1      28.507  17.833 125.893  0.00  0.00     0.036 H 
ATOM     57  H23 ALA d   1      29.705  18.768 124.935  0.00  0.00     0.036 H 
BRANCH  55  58
ATOM     58  CG  ALA d   1      27.669  19.359 124.649  0.00  0.00    -0.048 C 
ATOM     59  H24 ALA d   1      27.510  18.645 123.827  0.00  0.00     0.035 H 
ATOM     60  H25 ALA d   1      27.973  20.332 124.236  0.00  0.00     0.035 H 
BRANCH  58  61
ATOM     61  CD  ALA d   1      26.361  19.536 125.400  0.00  0.00     0.009 C 
ATOM     62  H26 ALA d   1      26.480  20.339 126.143  0.00  0.00     0.064 H 
ATOM     63  H27 ALA d   1      26.112  18.596 125.913  0.00  0.00     0.064 H 
BRANCH  61  64
ATOM     64  NE  ALA d   1      25.276  19.884 124.494  0.00  0.00    -0.227 N 
ATOM     65  CZ  ALA d   1      24.548  19.011 123.811  0.00  0.00     0.665 C 
ATOM     66  NH1 ALA d   1      24.723  17.715 123.983  0.00  0.00    -0.235 N 
ATOM     67  NH2 ALA d   1      23.673  19.452 122.916  0.00  0.00    -0.235 N 
ATOM     68  H29 ALA d   1      24.154  17.043 123.449  0.00  0.00     0.174 HD
ATOM     69  H30 ALA d   1      25.429  17.375 124.651  0.00  0.00     0.174 HD
ATOM     70  H31 ALA d   1      23.538  20.464 122.783  0.00  0.00     0.174 HD
ATOM     71  H32 ALA d   1      23.129  18.782 122.354  0.00  0.00     0.174 HD
ATOM     72  H28 ALA d   1      25.057  20.883 124.374  0.00  0.00     0.177 HD
ENDBRANCH  61  64
ENDBRANCH  58  61
ENDBRANCH  55  58
ENDBRANCH  15  55
ENDBRANCH   1  15
BRANCH   4  73
ATOM     73  C   ALA d   1      31.205  16.458 129.107  0.00  0.00     0.243 C 
ATOM     74  O   ALA d   1      30.421  15.681 128.559  0.00  0.00    -0.271 OA
ATOM     75  N   ALA d   1      32.515  16.225 129.195  0.00  0.00    -0.337 N 
ATOM     76  CA  ALA d   1      33.051  14.911 128.814  0.00  0.00     0.091 C 
ATOM     77  CD  ALA d   1      33.589  17.196 129.481  0.00  0.00    -0.001 C 
ATOM     78  CB  ALA d   1      34.529  15.007 129.204  0.00  0.00    -0.036 C 
ATOM     79  H40 ALA d   1      32.945  14.745 127.732  0.00  0.00     0.087 H 
ATOM     80  CG  ALA d   1      34.846  16.455 129.127  0.00  0.00    -0.048 C 
ATOM     81  H41 ALA d   1      35.153  14.435 128.502  0.00  0.00     0.036 H 
ATOM     82  H42 ALA d   1      34.686  14.629 130.225  0.00  0.00     0.036 H 
ATOM     83  H43 ALA d   1      35.166  16.718 128.108  0.00  0.00     0.035 H 
ATOM     84  H44 ALA d   1      35.646  16.706 129.839  0.00  0.00     0.035 H 
ATOM     85  H45 ALA d   1      33.588  17.480 130.544  0.00  0.00     0.064 H 
ATOM     86  H46 ALA d   1      33.478  18.097 128.861  0.00  0.00     0.064 H 
BRANCH  76  87
ATOM     87  C   ALA d   1      32.342  13.791 129.562  0.00  0.00     0.241 C 
ATOM     88  O   ALA d   1      32.165  13.850 130.781  0.00  0.00    -0.271 OA
ATOM     89  N   ALA d   1      31.938  12.759 128.826  0.00  0.00    -0.346 N 
ATOM     90  H47 ALA d   1      32.163  12.744 127.852  0.00  0.00     0.163 HD
BRANCH  89  91
ATOM     91  CA  ALA d   1      31.181  11.652 129.389  0.00  0.00     0.093 C 
ATOM     92  H48 ALA d   1      30.934  11.897 130.433  0.00  0.00     0.088 H 
BRANCH  91  93
ATOM     93  C   ALA d   1      32.009  10.374 129.375  0.00  0.00     0.241 C 
ATOM     94  O   ALA d   1      32.812  10.140 128.467  0.00  0.00    -0.271 OA
ATOM     95  N   ALA d   1      31.795   9.546 130.395  0.00  0.00    -0.343 N 
ATOM     96  H56 ALA d   1      31.091   9.780 131.065  0.00  0.00     0.163 HD
BRANCH  95  97
ATOM     97  CA  ALA d   1      32.551   8.308 130.572  0.00  0.00     0.116 C 
ATOM     98  H57 ALA d   1      32.261   7.864 131.536  0.00  0.00     0.093 H 
BRANCH  97  99
ATOM     99  C   ALA d   1      34.051   8.584 130.603  0.00  0.00     0.198 C 
ATOM    100  O   ALA d   1      34.656   8.651 131.673  0.00  0.00    -0.646 OA
ATOM    101  OXT ALA d   1      34.682   8.745 129.559  0.00  0.00    -0.646 OA
ENDBRANCH  97  99
BRANCH  97 102
ATOM    102  CB  ALA d   1      32.222   7.306 129.462  0.00  0.00     0.045 C 
ATOM    103  H58 ALA d   1      33.016   6.546 129.416  0.00  0.00     0.077 H 
ATOM    104  H59 ALA d   1      32.168   7.838 128.501  0.00  0.00     0.077 H 
BRANCH 102 105
ATOM    105  OG  ALA d   1      30.982   6.666 129.707  0.00  0.00    -0.398 OA
ATOM    106  H60 ALA d   1      31.025   6.202 130.535  0.00  0.00     0.209 HD
ENDBRANCH 102 105
ENDBRANCH  97 102
ENDBRANCH  95  97
ENDBRANCH  91  93
BRANCH  91 107
ATOM    107  CB  ALA d   1      29.873  11.437 128.619  0.00  0.00    -0.014 C 
ATOM    108  H49 ALA d   1      30.117  11.021 127.630  0.00  0.00     0.043 H 
ATOM    109  H50 ALA d   1      29.380  12.412 128.495  0.00  0.00     0.043 H 
BRANCH 107 110
ATOM    110  CG  ALA d   1      28.910  10.502 129.302  0.00  0.00    -0.056 A 
ATOM    111  CD1 ALA d   1      28.284   9.490 128.593  0.00  0.00    -0.077 A 
ATOM    112  CE1 ALA d   1      27.400   8.630 129.219  0.00  0.00    -0.082 A 
ATOM    113  H51 ALA d   1      28.489   9.371 127.535  0.00  0.00     0.084 H 
ATOM    114  CZ  ALA d   1      27.136   8.773 130.566  0.00  0.00    -0.083 A 
ATOM    115  H53 ALA d   1      26.915   7.844 128.652  0.00  0.00     0.083 H 
ATOM    116  CE2 ALA d   1      27.755   9.775 131.284  0.00  0.00    -0.082 A 
ATOM    117  H55 ALA d   1      26.444   8.100 131.059  0.00  0.00     0.083 H 
ATOM    118  CD2 ALA d   1      28.635  10.632 130.654  0.00  0.00    -0.077 A 
ATOM    119  H54 ALA d   1      27.551   9.889 132.342  0.00  0.00     0.083 H 
ATOM    120  H52 ALA d   1      29.117  11.417 131.225  0.00  0.00     0.084 H 
ENDBRANCH 107 110
ENDBRANCH  91 107
ENDBRANCH  89  91
ENDBRANCH  76  87
ENDBRANCH   4  73
TORSDOF 23
