REMARK WARNING: 32 MAX_TORS EXCEEDED!!!
REMARK  40 active torsions:
REMARK  status: ('A' for Active; 'I' for Inactive)
REMARK    1  A    between atoms: N_1  and  CA_2 
REMARK    2  A    between atoms: CA_2  and  C_3 
REMARK    3  A    between atoms: CA_2  and  CB_5 
REMARK       I    between atoms: C_3  and  N_10 
REMARK    4  A    between atoms: CB_5  and  CG_6 
REMARK    5  A    between atoms: CG_6  and  CD_7 
REMARK       I    between atoms: CD_7  and  NE2_9 
REMARK    6  A    between atoms: N_10  and  CA_11 
REMARK    7  A    between atoms: CA_11  and  C_12 
REMARK    8  A    between atoms: CA_11  and  CB_14 
REMARK       I    between atoms: C_12  and  N_18 
REMARK    9  A    between atoms: CB_14  and  CG_15 
REMARK       I    between atoms: CG_15  and  ND2_17 
REMARK   10  A    between atoms: N_18  and  CA_19 
REMARK   11  A    between atoms: CA_19  and  C_20 
REMARK   12  A    between atoms: CA_19  and  CB_22 
REMARK       I    between atoms: C_20  and  N_26 
REMARK   13  A    between atoms: CB_22  and  CG_23 
REMARK   14  A    between atoms: CG_23  and  SD_24 
REMARK   15  A    between atoms: SD_24  and  CE_25 
REMARK   16  A    between atoms: CA_27  and  C_28 
REMARK       I    between atoms: C_28  and  N_33 
REMARK   17  A    between atoms: N_33  and  CA_34 
REMARK   18  A    between atoms: CA_34  and  C_35 
REMARK       I    between atoms: C_35  and  N_37 
REMARK   19  A    between atoms: N_37  and  CA_38 
REMARK   20  A    between atoms: CA_38  and  C_39 
REMARK   21  A    between atoms: CA_38  and  CB_41 
REMARK       I    between atoms: C_39  and  N_42 
REMARK   22  A    between atoms: N_42  and  CA_43 
REMARK   23  A    between atoms: CA_43  and  C_44 
REMARK   24  A    between atoms: CA_43  and  CB_46 
REMARK       I    between atoms: C_44  and  N_50 
REMARK   25  A    between atoms: CB_46  and  CG1_47 
REMARK   26  A    between atoms: CB_46  and  CG2_48 
REMARK   27  A    between atoms: CG1_47  and  CD1_49 
REMARK   28  A    between atoms: N_50  and  CA_51 
REMARK   29  A    between atoms: CA_51  and  C_52 
REMARK   30  A    between atoms: CA_51  and  CB_54 
REMARK       I    between atoms: C_52  and  N_61 
REMARK   31  A    between atoms: CB_54  and  CG_55 
REMARK   32  A    between atoms: CG_55  and  CD_56 
REMARK   33  A    between atoms: CD_56  and  NE_57 
REMARK       I    between atoms: NE_57  and  CZ_58 
REMARK       I    between atoms: CZ_58  and  NH1_59 
REMARK   34  A    between atoms: CA_62  and  C_63 
REMARK       I    between atoms: C_63  and  N_68 
REMARK   35  A    between atoms: N_68  and  CA_69 
REMARK   36  A    between atoms: CA_69  and  C_70 
REMARK   37  A    between atoms: CA_69  and  CB_72 
REMARK       I    between atoms: C_70  and  N_73 
REMARK   38  A    between atoms: N_73  and  CA_74 
REMARK   39  A    between atoms: CA_74  and  C_75 
REMARK   40  A    between atoms: CA_74  and  CB_77 
ROOT
ATOM      1  C   GLN d   1      44.293  26.284 128.819  0.00  0.00     0.240 C 
ATOM      2  O   GLN d   1      44.936  25.362 128.315  0.00  0.00    -0.271 OA
ATOM      3  N   GLN d   1      44.758  27.524 128.889  0.00  0.00    -0.346 N 
ATOM      4  H41 GLN d   1      44.224  28.216 129.375  0.00  0.00     0.163 HD
ENDROOT
BRANCH   1   5
ATOM      5  CA  GLN d   1      42.903  26.066 129.402  0.00  0.00     0.086 C 
ATOM      6  H37 GLN d   1      42.700  26.854 130.143  0.00  0.00     0.086 H 
BRANCH   5   7
ATOM      7  N   GLN d   1      41.942  26.180 128.306  0.00  0.00    -0.347 N 
ATOM      8  C   GLN d   1      41.433  27.353 127.930  0.00  0.00     0.236 C 
ATOM      9  O   GLN d   1      41.706  28.410 128.515  0.00  0.00    -0.272 OA
ATOM     10  H36 GLN d   1      41.658  25.352 127.823  0.00  0.00     0.163 HD
BRANCH   8  11
ATOM     11  CA  GLN d   1      40.486  27.391 126.754  0.00  0.00     0.069 C 
ATOM     12  H34 GLN d   1      39.475  27.595 127.137  0.00  0.00     0.078 H 
ATOM     13  H35 GLN d   1      40.799  28.210 126.090  0.00  0.00     0.078 H 
BRANCH  11  14
ATOM     14  N   GLN d   1      40.432  26.177 125.972  0.00  0.00    -0.351 N 
ATOM     15  C   GLN d   1      39.649  25.154 126.311  0.00  0.00     0.241 C 
ATOM     16  O   GLN d   1      38.922  25.165 127.308  0.00  0.00    -0.271 OA
ATOM     17  H33 GLN d   1      40.999  26.103 125.152  0.00  0.00     0.163 HD
BRANCH  15  18
ATOM     18  CA  GLN d   1      39.699  23.943 125.392  0.00  0.00     0.091 C 
ATOM     19  N   GLN d   1      40.068  22.735 126.145  0.00  0.00    -0.337 N 
ATOM     20  C   GLN d   1      41.315  22.572 126.591  0.00  0.00     0.243 C 
ATOM     21  CD  GLN d   1      38.927  21.817 126.311  0.00  0.00    -0.001 C 
ATOM     22  O   GLN d   1      42.195  23.403 126.348  0.00  0.00    -0.271 OA
ATOM     23  CG  GLN d   1      37.757  22.611 125.791  0.00  0.00    -0.048 C 
ATOM     24  H31 GLN d   1      38.784  21.555 127.370  0.00  0.00     0.064 H 
ATOM     25  H32 GLN d   1      39.072  20.899 125.722  0.00  0.00     0.064 H 
ATOM     26  CB  GLN d   1      38.317  23.599 124.825  0.00  0.00    -0.036 C 
ATOM     27  H29 GLN d   1      37.041  21.947 125.284  0.00  0.00     0.035 H 
ATOM     28  H30 GLN d   1      37.252  23.131 126.618  0.00  0.00     0.035 H 
ATOM     29  H27 GLN d   1      38.407  23.156 123.822  0.00  0.00     0.036 H 
ATOM     30  H28 GLN d   1      37.683  24.496 124.774  0.00  0.00     0.036 H 
ATOM     31  H26 GLN d   1      40.416  24.134 124.579  0.00  0.00     0.087 H 
BRANCH  20  32
ATOM     32  CA  GLN d   1      41.609  21.326 127.420  0.00  0.00     0.090 C 
ATOM     33  H18 GLN d   1      40.894  21.291 128.255  0.00  0.00     0.087 H 
BRANCH  32  34
ATOM     34  N   GLN d   1      41.421  20.128 126.600  0.00  0.00    -0.346 N 
ATOM     35  C   GLN d   1      40.648  19.116 126.982  0.00  0.00     0.241 C 
ATOM     36  O   GLN d   1      40.028  19.117 128.050  0.00  0.00    -0.271 OA
ATOM     37  H17 GLN d   1      41.892  20.069 125.720  0.00  0.00     0.163 HD
BRANCH  35  38
ATOM     38  CA  GLN d   1      40.576  17.936 126.017  0.00  0.00     0.097 C 
ATOM     39  H12 GLN d   1      41.572  17.770 125.582  0.00  0.00     0.088 H 
BRANCH  38  40
ATOM     40  N   GLN d   1      40.176  16.741 126.740  0.00  0.00    -0.346 N 
ATOM     41  C   GLN d   1      41.006  16.165 127.607  0.00  0.00     0.249 C 
ATOM     42  O   GLN d   1      42.214  16.401 127.632  0.00  0.00    -0.271 OA
ATOM     43  H11 GLN d   1      39.270  16.348 126.585  0.00  0.00     0.163 HD
BRANCH  41  44
ATOM     44  CA  GLN d   1      40.382  15.170 128.584  0.00  0.00     0.176 C 
ATOM     45  H4  GLN d   1      40.322  15.654 129.570  0.00  0.00     0.099 H 
BRANCH  44  46
ATOM     46  N   GLN d   1      39.001  14.790 128.171  0.00  0.00    -0.066 N 
ATOM     47  H1  GLN d   1      38.620  14.134 128.835  0.00  0.00     0.275 HD
ATOM     48  H2  GLN d   1      39.029  14.365 127.257  0.00  0.00     0.275 HD
ATOM     49  H3  GLN d   1      38.421  15.614 128.141  0.00  0.00     0.275 HD
ENDBRANCH  44  46
BRANCH  44  50
ATOM     50  CB  GLN d   1      41.259  13.924 128.714  0.00  0.00    -0.022 C 
ATOM     51  H5  GLN d   1      42.313  14.238 128.715  0.00  0.00     0.037 H 
ATOM     52  H6  GLN d   1      41.071  13.273 127.847  0.00  0.00     0.037 H 
BRANCH  50  53
ATOM     53  CG  GLN d   1      40.991  13.128 129.982  0.00  0.00     0.011 C 
ATOM     54  H7  GLN d   1      39.981  12.697 129.919  0.00  0.00     0.047 H 
ATOM     55  H8  GLN d   1      41.045  13.811 130.843  0.00  0.00     0.047 H 
BRANCH  53  56
ATOM     56  CD  GLN d   1      41.985  12.002 130.195  0.00  0.00     0.215 C 
ATOM     57  OE1 GLN d   1      42.627  11.536 129.254  0.00  0.00    -0.274 OA
ATOM     58  NE2 GLN d   1      42.121  11.564 131.443  0.00  0.00    -0.370 N 
ATOM     59  H9  GLN d   1      42.761  10.823 131.646  0.00  0.00     0.159 HD
ATOM     60  H10 GLN d   1      41.583  11.975 132.179  0.00  0.00     0.159 HD
ENDBRANCH  53  56
ENDBRANCH  50  53
ENDBRANCH  44  50
ENDBRANCH  41  44
ENDBRANCH  38  40
BRANCH  38  61
ATOM     61  CB  GLN d   1      39.593  18.243 124.886  0.00  0.00     0.036 C 
ATOM     62  H13 GLN d   1      39.734  19.288 124.571  0.00  0.00     0.051 H 
ATOM     63  H14 GLN d   1      38.569  18.109 125.265  0.00  0.00     0.051 H 
BRANCH  61  64
ATOM     64  CG  GLN d   1      39.785  17.343 123.679  0.00  0.00     0.217 C 
ATOM     65  OD1 GLN d   1      40.574  16.399 123.710  0.00  0.00    -0.274 OA
ATOM     66  ND2 GLN d   1      39.056  17.633 122.606  0.00  0.00    -0.370 N 
ATOM     67  H15 GLN d   1      39.139  17.076 121.780  0.00  0.00     0.159 HD
ATOM     68  H16 GLN d   1      38.425  18.408 122.625  0.00  0.00     0.159 HD
ENDBRANCH  61  64
ENDBRANCH  38  61
ENDBRANCH  35  38
ENDBRANCH  32  34
BRANCH  32  69
ATOM     69  CB  GLN d   1      43.021  21.364 128.006  0.00  0.00    -0.030 C 
ATOM     70  H19 GLN d   1      43.022  20.770 128.932  0.00  0.00     0.037 H 
ATOM     71  H20 GLN d   1      43.264  22.410 128.242  0.00  0.00     0.037 H 
BRANCH  69  72
ATOM     72  CG  GLN d   1      44.113  20.819 127.094  0.00  0.00    -0.021 C 
ATOM     73  H21 GLN d   1      44.199  21.476 126.216  0.00  0.00     0.049 H 
ATOM     74  H22 GLN d   1      43.828  19.807 126.769  0.00  0.00     0.049 H 
BRANCH  72  75
ATOM     75  SD  GLN d   1      45.721  20.733 127.913  0.00  0.00    -0.173 SA
BRANCH  75  76
ATOM     76  CE  GLN d   1      46.178  22.459 127.974  0.00  0.00    -0.035 C 
ATOM     77  H23 GLN d   1      47.160  22.561 128.459  0.00  0.00     0.041 H 
ATOM     78  H24 GLN d   1      45.425  23.018 128.549  0.00  0.00     0.041 H 
ATOM     79  H25 GLN d   1      46.230  22.861 126.951  0.00  0.00     0.041 H 
ENDBRANCH  75  76
ENDBRANCH  72  75
ENDBRANCH  69  72
ENDBRANCH  32  69
ENDBRANCH  20  32
ENDBRANCH  15  18
ENDBRANCH  11  14
ENDBRANCH   8  11
ENDBRANCH   5   7
BRANCH   5  80
ATOM     80  CB  GLN d   1      42.781  24.717 130.096  0.00  0.00    -0.049 C 
ATOM     81  H38 GLN d   1      43.514  24.658 130.914  0.00  0.00     0.030 H 
ATOM     82  H39 GLN d   1      42.976  23.913 129.371  0.00  0.00     0.030 H 
ATOM     83  H40 GLN d   1      41.766  24.605 130.504  0.00  0.00     0.030 H 
ENDBRANCH   5  80
ENDBRANCH   1   5
BRANCH   3  84
ATOM     84  CA  GLN d   1      46.023  27.908 128.279  0.00  0.00     0.092 C 
ATOM     85  H42 GLN d   1      45.992  27.631 127.215  0.00  0.00     0.088 H 
BRANCH  84  86
ATOM     86  C   GLN d   1      47.174  27.153 128.934  0.00  0.00     0.241 C 
ATOM     87  O   GLN d   1      48.041  26.614 128.247  0.00  0.00    -0.271 OA
ATOM     88  N   GLN d   1      47.183  27.125 130.262  0.00  0.00    -0.346 N 
ATOM     89  H52 GLN d   1      46.486  27.637 130.764  0.00  0.00     0.163 HD
BRANCH  88  90
ATOM     90  CA  GLN d   1      48.192  26.360 131.014  0.00  0.00     0.089 C 
ATOM     91  H53 GLN d   1      49.013  26.099 130.330  0.00  0.00     0.087 H 
BRANCH  90  92
ATOM     92  C   GLN d   1      47.603  25.053 131.626  0.00  0.00     0.243 C 
ATOM     93  O   GLN d   1      46.543  25.090 132.187  0.00  0.00    -0.271 OA
ATOM     94  N   GLN d   1      48.320  23.920 131.509  0.00  0.00    -0.337 N 
ATOM     95  CA  GLN d   1      47.783  22.692 132.111  0.00  0.00     0.091 C 
ATOM     96  CD  GLN d   1      49.622  23.687 130.862  0.00  0.00    -0.001 C 
ATOM     97  CB  GLN d   1      48.814  21.623 131.724  0.00  0.00    -0.036 C 
ATOM     98  H65 GLN d   1      46.797  22.456 131.685  0.00  0.00     0.087 H 
ATOM     99  CG  GLN d   1      49.618  22.219 130.619  0.00  0.00    -0.048 C 
ATOM    100  H66 GLN d   1      48.308  20.709 131.380  0.00  0.00     0.036 H 
ATOM    101  H67 GLN d   1      49.459  21.384 132.582  0.00  0.00     0.036 H 
ATOM    102  H68 GLN d   1      49.157  21.994 129.646  0.00  0.00     0.035 H 
ATOM    103  H69 GLN d   1      50.645  21.826 130.638  0.00  0.00     0.035 H 
ATOM    104  H70 GLN d   1      50.450  23.975 131.526  0.00  0.00     0.064 H 
ATOM    105  H71 GLN d   1      49.699  24.244 129.917  0.00  0.00     0.064 H 
BRANCH  95 106
ATOM    106  C   GLN d   1      47.658  22.787 133.629  0.00  0.00     0.241 C 
ATOM    107  O   GLN d   1      48.387  23.554 134.256  0.00  0.00    -0.271 OA
ATOM    108  N   GLN d   1      46.745  22.013 134.212  0.00  0.00    -0.346 N 
ATOM    109  H72 GLN d   1      46.118  21.475 133.648  0.00  0.00     0.163 HD
BRANCH 108 110
ATOM    110  CA  GLN d   1      46.650  21.942 135.662  0.00  0.00     0.086 C 
ATOM    111  H73 GLN d   1      46.538  22.961 136.061  0.00  0.00     0.086 H 
BRANCH 110 112
ATOM    112  C   GLN d   1      47.922  21.329 136.231  0.00  0.00     0.240 C 
ATOM    113  O   GLN d   1      48.422  20.323 135.722  0.00  0.00    -0.271 OA
ATOM    114  N   GLN d   1      48.448  21.941 137.288  0.00  0.00    -0.345 N 
ATOM    115  H77 GLN d   1      47.976  22.728 137.685  0.00  0.00     0.163 HD
BRANCH 114 116
ATOM    116  CA  GLN d   1      49.699  21.486 137.879  0.00  0.00     0.093 C 
ATOM    117  H78 GLN d   1      50.464  21.456 137.089  0.00  0.00     0.089 H 
BRANCH 116 118
ATOM    118  C   GLN d   1      49.552  20.081 138.456  0.00  0.00     0.196 C 
ATOM    119  O   GLN d   1      48.505  19.731 138.998  0.00  0.00    -0.646 OA
ATOM    120  OXT GLN d   1      50.478  19.274 138.389  0.00  0.00    -0.646 OA
ENDBRANCH 116 118
BRANCH 116 121
ATOM    121  CB  GLN d   1      50.158  22.456 138.956  0.00  0.00    -0.048 C 
ATOM    122  H79 GLN d   1      51.103  22.099 139.392  0.00  0.00     0.030 H 
ATOM    123  H80 GLN d   1      49.392  22.520 139.743  0.00  0.00     0.030 H 
ATOM    124  H81 GLN d   1      50.312  23.451 138.512  0.00  0.00     0.030 H 
ENDBRANCH 116 121
ENDBRANCH 114 116
ENDBRANCH 110 112
BRANCH 110 125
ATOM    125  CB  GLN d   1      45.432  21.117 136.074  0.00  0.00    -0.049 C 
ATOM    126  H74 GLN d   1      45.374  21.072 137.172  0.00  0.00     0.030 H 
ATOM    127  H75 GLN d   1      45.526  20.098 135.670  0.00  0.00     0.030 H 
ATOM    128  H76 GLN d   1      44.520  21.587 135.677  0.00  0.00     0.030 H 
ENDBRANCH 110 125
ENDBRANCH 108 110
ENDBRANCH  95 106
ENDBRANCH  90  92
BRANCH  90 129
ATOM    129  CB  GLN d   1      48.741  27.197 132.171  0.00  0.00    -0.036 C 
ATOM    130  H54 GLN d   1      49.500  26.596 132.693  0.00  0.00     0.036 H 
ATOM    131  H55 GLN d   1      47.909  27.413 132.857  0.00  0.00     0.036 H 
BRANCH 129 132
ATOM    132  CG  GLN d   1      49.382  28.524 131.778  0.00  0.00    -0.048 C 
ATOM    133  H56 GLN d   1      49.282  29.229 132.616  0.00  0.00     0.035 H 
ATOM    134  H57 GLN d   1      48.859  28.925 130.897  0.00  0.00     0.035 H 
BRANCH 132 135
ATOM    135  CD  GLN d   1      50.852  28.365 131.444  0.00  0.00     0.009 C 
ATOM    136  H58 GLN d   1      50.947  27.785 130.514  0.00  0.00     0.064 H 
ATOM    137  H59 GLN d   1      51.349  27.827 132.264  0.00  0.00     0.064 H 
BRANCH 135 138
ATOM    138  NE  GLN d   1      51.500  29.658 131.264  0.00  0.00    -0.227 N 
ATOM    139  CZ  GLN d   1      52.399  30.200 132.079  0.00  0.00     0.665 C 
ATOM    140  NH1 GLN d   1      52.827  29.541 133.138  0.00  0.00    -0.235 N 
ATOM    141  NH2 GLN d   1      52.862  31.422 131.841  0.00  0.00    -0.235 N 
ATOM    142  H61 GLN d   1      53.524  29.969 133.764  0.00  0.00     0.174 HD
ATOM    143  H62 GLN d   1      52.464  28.598 133.339  0.00  0.00     0.174 HD
ATOM    144  H63 GLN d   1      52.534  31.945 131.017  0.00  0.00     0.174 HD
ATOM    145  H64 GLN d   1      53.549  31.846 132.481  0.00  0.00     0.174 HD
ATOM    146  H60 GLN d   1      51.237  30.201 130.429  0.00  0.00     0.177 HD
ENDBRANCH 135 138
ENDBRANCH 132 135
ENDBRANCH 129 132
ENDBRANCH  90 129
ENDBRANCH  88  90
ENDBRANCH  84  86
BRANCH  84 147
ATOM    147  CB  GLN d   1      46.229  29.428 128.372  0.00  0.00    -0.030 C 
ATOM    148  H43 GLN d   1      46.344  29.699 129.432  0.00  0.00     0.043 H 
BRANCH 147 149
ATOM    149  CG1 GLN d   1      45.008  30.171 127.810  0.00  0.00    -0.063 C 
ATOM    150  H44 GLN d   1      45.212  31.251 127.856  0.00  0.00     0.033 H 
ATOM    151  H45 GLN d   1      44.141  29.934 128.444  0.00  0.00     0.033 H 
BRANCH 149 152
ATOM    152  CD1 GLN d   1      44.655  29.816 126.372  0.00  0.00    -0.076 C 
ATOM    153  H49 GLN d   1      43.773  30.393 126.058  0.00  0.00     0.027 H 
ATOM    154  H50 GLN d   1      44.433  28.741 126.304  0.00  0.00     0.027 H 
ATOM    155  H51 GLN d   1      45.504  30.057 125.716  0.00  0.00     0.027 H 
ENDBRANCH 149 152
ENDBRANCH 147 149
BRANCH 147 156
ATOM    156  CG2 GLN d   1      47.492  29.844 127.630  0.00  0.00    -0.071 C 
ATOM    157  H46 GLN d   1      48.356  29.303 128.044  0.00  0.00     0.028 H 
ATOM    158  H47 GLN d   1      47.647  30.927 127.748  0.00  0.00     0.028 H 
ATOM    159  H48 GLN d   1      47.386  29.602 126.562  0.00  0.00     0.028 H 
ENDBRANCH 147 156
ENDBRANCH  84 147
ENDBRANCH   3  84
TORSDOF 40
