REMARK  23 active torsions:
REMARK  status: ('A' for Active; 'I' for Inactive)
REMARK    1  A    between atoms: N_1  and  CA_2 
REMARK    2  A    between atoms: CA_2  and  C_3 
REMARK    3  A    between atoms: CA_2  and  CB_5 
REMARK       I    between atoms: C_3  and  N_6 
REMARK    4  A    between atoms: N_6  and  CA_7 
REMARK    5  A    between atoms: CA_7  and  C_8 
REMARK    6  A    between atoms: CA_7  and  CB_10 
REMARK       I    between atoms: C_8  and  N_11 
REMARK    7  A    between atoms: CA_12  and  C_13 
REMARK       I    between atoms: C_13  and  N_18 
REMARK    8  A    between atoms: N_18  and  CA_19 
REMARK    9  A    between atoms: CA_19  and  C_20 
REMARK   10  A    between atoms: CA_19  and  CB_22 
REMARK       I    between atoms: C_20  and  N_29 
REMARK   11  A    between atoms: CB_22  and  CG_23 
REMARK   12  A    between atoms: CG_23  and  CD_24 
REMARK   13  A    between atoms: CD_24  and  NE_25 
REMARK       I    between atoms: NE_25  and  CZ_26 
REMARK       I    between atoms: CZ_26  and  NH1_27 
REMARK   14  A    between atoms: CA_30  and  C_31 
REMARK       I    between atoms: C_31  and  N_36 
REMARK   15  A    between atoms: CA_37  and  C_38 
REMARK       I    between atoms: C_38  and  N_43 
REMARK   16  A    between atoms: N_43  and  CA_44 
REMARK   17  A    between atoms: CA_44  and  C_45 
REMARK   18  A    between atoms: CA_44  and  CB_47 
REMARK       I    between atoms: C_45  and  N_54 
REMARK   19  A    between atoms: CB_47  and  CG_48 
REMARK   20  A    between atoms: N_54  and  CA_55 
REMARK   21  A    between atoms: CA_55  and  C_56 
REMARK   22  A    between atoms: CA_55  and  CB_58 
REMARK   23  A    between atoms: CB_58  and  OG_59 
ROOT
ATOM      1  C   ALA d   1      47.939  25.182 131.630  0.00  0.00     0.243 C 
ATOM      2  O   ALA d   1      46.892  25.282 132.207  0.00  0.00    -0.271 OA
ATOM      3  N   ALA d   1      48.531  23.995 131.409  0.00  0.00    -0.337 N 
ATOM      4  CA  ALA d   1      47.838  22.767 131.818  0.00  0.00     0.092 C 
ATOM      5  CB  ALA d   1      48.819  21.661 131.419  0.00  0.00    -0.036 C 
ATOM      6  CG  ALA d   1      49.659  22.257 130.353  0.00  0.00    -0.048 C 
ATOM      7  CD  ALA d   1      49.797  23.700 130.715  0.00  0.00    -0.001 C 
ATOM      8  H33 ALA d   1      46.892  22.669 131.265  0.00  0.00     0.087 H 
ATOM      9  H34 ALA d   1      48.277  20.783 131.038  0.00  0.00     0.036 H 
ATOM     10  H35 ALA d   1      49.438  21.365 132.279  0.00  0.00     0.036 H 
ATOM     11  H36 ALA d   1      49.170  22.151 129.374  0.00  0.00     0.035 H 
ATOM     12  H37 ALA d   1      50.646  21.772 130.324  0.00  0.00     0.035 H 
ATOM     13  H38 ALA d   1      50.658  23.859 131.381  0.00  0.00     0.064 H 
ATOM     14  H39 ALA d   1      49.908  24.323 129.816  0.00  0.00     0.064 H 
ENDROOT
BRANCH   1  15
ATOM     15  CA  ALA d   1      48.657  26.466 131.101  0.00  0.00     0.089 C 
ATOM     16  H21 ALA d   1      49.601  26.172 130.619  0.00  0.00     0.087 H 
BRANCH  15  17
ATOM     17  N   ALA d   1      47.836  27.186 130.116  0.00  0.00    -0.346 N 
ATOM     18  C   ALA d   1      48.075  27.096 128.812  0.00  0.00     0.241 C 
ATOM     19  O   ALA d   1      49.027  26.473 128.346  0.00  0.00    -0.271 OA
ATOM     20  H20 ALA d   1      47.080  27.757 130.435  0.00  0.00     0.163 HD
BRANCH  18  21
ATOM     21  CA  ALA d   1      47.105  27.823 127.881  0.00  0.00     0.091 C 
ATOM     22  N   ALA d   1      45.701  27.531 128.194  0.00  0.00    -0.337 N 
ATOM     23  C   ALA d   1      45.252  26.265 128.253  0.00  0.00     0.243 C 
ATOM     24  CD  ALA d   1      44.907  28.763 128.347  0.00  0.00    -0.001 C 
ATOM     25  O   ALA d   1      45.990  25.310 127.976  0.00  0.00    -0.271 OA
ATOM     26  CG  ALA d   1      45.821  29.833 127.838  0.00  0.00    -0.048 C 
ATOM     27  H18 ALA d   1      44.649  28.936 129.402  0.00  0.00     0.064 H 
ATOM     28  H19 ALA d   1      43.986  28.714 127.747  0.00  0.00     0.064 H 
ATOM     29  CB  ALA d   1      47.199  29.341 128.070  0.00  0.00    -0.036 C 
ATOM     30  H16 ALA d   1      45.651  30.001 126.764  0.00  0.00     0.035 H 
ATOM     31  H17 ALA d   1      45.653  30.771 128.387  0.00  0.00     0.035 H 
ATOM     32  H14 ALA d   1      47.896  29.781 127.341  0.00  0.00     0.036 H 
ATOM     33  H15 ALA d   1      47.532  29.585 129.089  0.00  0.00     0.036 H 
ATOM     34  H13 ALA d   1      47.332  27.545 126.841  0.00  0.00     0.087 H 
BRANCH  23  35
ATOM     35  CA  ALA d   1      43.814  25.995 128.679  0.00  0.00     0.086 C 
ATOM     36  H9  ALA d   1      43.292  26.956 128.799  0.00  0.00     0.086 H 
BRANCH  35  37
ATOM     37  N   ALA d   1      43.125  25.214 127.660  0.00  0.00    -0.346 N 
ATOM     38  C   ALA d   1      42.463  25.795 126.659  0.00  0.00     0.248 C 
ATOM     39  O   ALA d   1      42.510  27.006 126.437  0.00  0.00    -0.271 OA
ATOM     40  H8  ALA d   1      43.149  24.216 127.713  0.00  0.00     0.163 HD
BRANCH  38  41
ATOM     41  CA  ALA d   1      41.630  24.868 125.774  0.00  0.00     0.172 C 
ATOM     42  H4  ALA d   1      41.146  24.119 126.418  0.00  0.00     0.098 H 
BRANCH  41  43
ATOM     43  N   ALA d   1      40.588  25.615 125.075  0.00  0.00    -0.067 N 
ATOM     44  H1  ALA d   1      40.052  24.985 124.499  0.00  0.00     0.275 HD
ATOM     45  H2  ALA d   1      41.013  26.322 124.495  0.00  0.00     0.275 HD
ATOM     46  H3  ALA d   1      39.980  26.054 125.749  0.00  0.00     0.275 HD
ENDBRANCH  41  43
BRANCH  41  47
ATOM     47  CB  ALA d   1      42.518  24.143 124.777  0.00  0.00    -0.042 C 
ATOM     48  H5  ALA d   1      43.297  23.585 125.318  0.00  0.00     0.030 H 
ATOM     49  H6  ALA d   1      42.990  24.876 124.106  0.00  0.00     0.030 H 
ATOM     50  H7  ALA d   1      41.910  23.443 124.186  0.00  0.00     0.030 H 
ENDBRANCH  41  47
ENDBRANCH  38  41
ENDBRANCH  35  37
BRANCH  35  51
ATOM     51  CB  ALA d   1      43.804  25.263 130.008  0.00  0.00    -0.049 C 
ATOM     52  H10 ALA d   1      44.328  25.867 130.763  0.00  0.00     0.030 H 
ATOM     53  H11 ALA d   1      44.312  24.294 129.897  0.00  0.00     0.030 H 
ATOM     54  H12 ALA d   1      42.765  25.097 130.327  0.00  0.00     0.030 H 
ENDBRANCH  35  51
ENDBRANCH  23  35
ENDBRANCH  18  21
ENDBRANCH  15  17
BRANCH  15  55
ATOM     55  CB  ALA d   1      48.964  27.370 132.297  0.00  0.00    -0.036 C 
ATOM     56  H22 ALA d   1      49.616  26.816 132.988  0.00  0.00     0.036 H 
ATOM     57  H23 ALA d   1      48.015  27.608 132.800  0.00  0.00     0.036 H 
BRANCH  55  58
ATOM     58  CG  ALA d   1      49.656  28.682 131.938  0.00  0.00    -0.048 C 
ATOM     59  H24 ALA d   1      49.800  29.269 132.857  0.00  0.00     0.035 H 
ATOM     60  H25 ALA d   1      49.014  29.242 131.242  0.00  0.00     0.035 H 
BRANCH  58  61
ATOM     61  CD  ALA d   1      51.010  28.459 131.283  0.00  0.00     0.009 C 
ATOM     62  H26 ALA d   1      50.861  27.943 130.323  0.00  0.00     0.064 H 
ATOM     63  H27 ALA d   1      51.626  27.832 131.944  0.00  0.00     0.064 H 
BRANCH  61  64
ATOM     64  NE  ALA d   1      51.707  29.715 131.040  0.00  0.00    -0.227 N 
ATOM     65  CZ  ALA d   1      52.534  30.306 131.894  0.00  0.00     0.665 C 
ATOM     66  NH1 ALA d   1      52.809  29.751 133.058  0.00  0.00    -0.235 N 
ATOM     67  NH2 ALA d   1      53.069  31.478 131.573  0.00  0.00    -0.235 N 
ATOM     68  H29 ALA d   1      53.452  30.219 133.713  0.00  0.00     0.174 HD
ATOM     69  H30 ALA d   1      52.381  28.850 133.313  0.00  0.00     0.174 HD
ATOM     70  H31 ALA d   1      52.853  31.911 130.663  0.00  0.00     0.174 HD
ATOM     71  H32 ALA d   1      53.700  31.954 132.233  0.00  0.00     0.174 HD
ATOM     72  H28 ALA d   1      51.546  30.181 130.136  0.00  0.00     0.177 HD
ENDBRANCH  61  64
ENDBRANCH  58  61
ENDBRANCH  55  58
ENDBRANCH  15  55
ENDBRANCH   1  15
BRANCH   4  73
ATOM     73  C   ALA d   1      47.538  22.684 133.317  0.00  0.00     0.243 C 
ATOM     74  O   ALA d   1      48.312  23.205 134.123  0.00  0.00    -0.271 OA
ATOM     75  N   ALA d   1      46.438  22.027 133.689  0.00  0.00    -0.337 N 
ATOM     76  CA  ALA d   1      46.186  21.774 135.113  0.00  0.00     0.091 C 
ATOM     77  CD  ALA d   1      45.373  21.475 132.834  0.00  0.00    -0.001 C 
ATOM     78  CB  ALA d   1      44.891  20.953 135.108  0.00  0.00    -0.036 C 
ATOM     79  H40 ALA d   1      46.046  22.718 135.660  0.00  0.00     0.087 H 
ATOM     80  CG  ALA d   1      44.254  21.232 133.795  0.00  0.00    -0.048 C 
ATOM     81  H41 ALA d   1      44.232  21.268 135.930  0.00  0.00     0.036 H 
ATOM     82  H42 ALA d   1      45.114  19.881 135.208  0.00  0.00     0.036 H 
ATOM     83  H43 ALA d   1      43.611  22.122 133.864  0.00  0.00     0.035 H 
ATOM     84  H44 ALA d   1      43.653  20.369 133.471  0.00  0.00     0.035 H 
ATOM     85  H45 ALA d   1      45.695  20.537 132.359  0.00  0.00     0.064 H 
ATOM     86  H46 ALA d   1      45.077  22.196 132.058  0.00  0.00     0.064 H 
BRANCH  76  87
ATOM     87  C   ALA d   1      47.338  20.999 135.735  0.00  0.00     0.241 C 
ATOM     88  O   ALA d   1      47.905  20.093 135.119  0.00  0.00    -0.271 OA
ATOM     89  N   ALA d   1      47.679  21.359 136.970  0.00  0.00    -0.346 N 
ATOM     90  H47 ALA d   1      47.130  22.045 137.448  0.00  0.00     0.163 HD
BRANCH  89  91
ATOM     91  CA  ALA d   1      48.832  20.779 137.642  0.00  0.00     0.093 C 
ATOM     92  H48 ALA d   1      48.984  19.758 137.262  0.00  0.00     0.088 H 
BRANCH  91  93
ATOM     93  C   ALA d   1      48.574  20.712 139.140  0.00  0.00     0.241 C 
ATOM     94  O   ALA d   1      48.034  21.654 139.726  0.00  0.00    -0.271 OA
ATOM     95  N   ALA d   1      48.971  19.598 139.749  0.00  0.00    -0.343 N 
ATOM     96  H56 ALA d   1      49.354  18.857 139.198  0.00  0.00     0.163 HD
BRANCH  95  97
ATOM     97  CA  ALA d   1      48.866  19.421 141.196  0.00  0.00     0.116 C 
ATOM     98  H57 ALA d   1      48.425  20.332 141.626  0.00  0.00     0.093 H 
BRANCH  97  99
ATOM     99  C   ALA d   1      50.246  19.213 141.810  0.00  0.00     0.198 C 
ATOM    100  O   ALA d   1      50.853  18.152 141.656  0.00  0.00    -0.646 OA
ATOM    101  OXT ALA d   1      50.783  20.102 142.473  0.00  0.00    -0.646 OA
ENDBRANCH  97  99
BRANCH  97 102
ATOM    102  CB  ALA d   1      47.959  18.236 141.533  0.00  0.00     0.045 C 
ATOM    103  H58 ALA d   1      47.972  18.072 142.621  0.00  0.00     0.077 H 
ATOM    104  H59 ALA d   1      48.337  17.338 141.023  0.00  0.00     0.077 H 
BRANCH 102 105
ATOM    105  OG  ALA d   1      46.626  18.476 141.118  0.00  0.00    -0.398 OA
ATOM    106  H60 ALA d   1      46.087  17.726 141.339  0.00  0.00     0.209 HD
ENDBRANCH 102 105
ENDBRANCH  97 102
ENDBRANCH  95  97
ENDBRANCH  91  93
BRANCH  91 107
ATOM    107  CB  ALA d   1      50.095  21.597 137.362  0.00  0.00    -0.014 C 
ATOM    108  H49 ALA d   1      49.941  22.615 137.750  0.00  0.00     0.043 H 
ATOM    109  H50 ALA d   1      50.246  21.638 136.273  0.00  0.00     0.043 H 
BRANCH 107 110
ATOM    110  CG  ALA d   1      51.337  21.034 137.991  0.00  0.00    -0.056 A 
ATOM    111  CD1 ALA d   1      51.944  19.906 137.466  0.00  0.00    -0.077 A 
ATOM    112  CE1 ALA d   1      53.088  19.389 138.037  0.00  0.00    -0.082 A 
ATOM    113  H51 ALA d   1      51.515  19.423 136.595  0.00  0.00     0.084 H 
ATOM    114  CZ  ALA d   1      53.643  19.999 139.143  0.00  0.00    -0.083 A 
ATOM    115  H53 ALA d   1      53.551  18.503 137.617  0.00  0.00     0.083 H 
ATOM    116  CE2 ALA d   1      53.050  21.126 139.676  0.00  0.00    -0.082 A 
ATOM    117  H55 ALA d   1      54.543  19.594 139.592  0.00  0.00     0.083 H 
ATOM    118  CD2 ALA d   1      51.904  21.640 139.099  0.00  0.00    -0.077 A 
ATOM    119  H54 ALA d   1      53.483  21.607 140.546  0.00  0.00     0.083 H 
ATOM    120  H52 ALA d   1      51.444  22.527 139.519  0.00  0.00     0.084 H 
ENDBRANCH 107 110
ENDBRANCH  91 107
ENDBRANCH  89  91
ENDBRANCH  76  87
ENDBRANCH   4  73
TORSDOF 23
