REMARK  9 active torsions:
REMARK  status: ('A' for Active; 'I' for Inactive)
REMARK    1  A    between atoms: NBH_34  and  CAB_1 
REMARK    2  A    between atoms: NBG_12  and  CAA_13 
REMARK    3  A    between atoms: OAV_16  and  CBF_15 
REMARK    4  A    between atoms: CAZ_17  and  OAV_16 
REMARK    5  A    between atoms: OAU_21  and  CAY_20 
REMARK    6  A    between atoms: CAS_22  and  OAU_21 
REMARK    7  A    between atoms: CBA_23  and  CAS_22 
REMARK    8  A    between atoms: NAT_26  and  CBB_25 
REMARK       I    between atoms: CAX_27  and  NAT_26 
REMARK    9  A    between atoms: CBC_29  and  CAX_27 
ROOT
ATOM      1  OAU 6W3 d   1     -67.175 -39.594 -37.785  0.00  0.00    -0.347 OA
ENDROOT
BRANCH   1   2
ATOM      2  CAY 6W3 d   1     -66.532 -39.251 -36.624  0.00  0.00     0.069 A 
ATOM      3  CAI 6W3 d   1     -65.877 -38.026 -36.512  0.00  0.00    -0.048 A 
ATOM      4  CAK 6W3 d   1     -65.257 -37.668 -35.323  0.00  0.00    -0.048 A 
ATOM      5  H7  6W3 d   1     -65.852 -37.349 -37.358  0.00  0.00     0.087 H 
ATOM      6  CAZ 6W3 d   1     -65.292 -38.546 -34.239  0.00  0.00     0.069 A 
ATOM      7  H25 6W3 d   1     -64.750 -36.714 -35.237  0.00  0.00     0.087 H 
ATOM      8  CAL 6W3 d   1     -65.939 -39.765 -34.355  0.00  0.00    -0.048 A 
ATOM      9  CAJ 6W3 d   1     -66.557 -40.119 -35.538  0.00  0.00    -0.048 A 
ATOM     10  H8  6W3 d   1     -65.960 -40.446 -33.512  0.00  0.00     0.087 H 
ATOM     11  H24 6W3 d   1     -67.062 -41.075 -35.620  0.00  0.00     0.087 H 
BRANCH   6  12
ATOM     12  OAV 6W3 d   1     -64.734 -38.310 -33.024  0.00  0.00    -0.346 OA
BRANCH  12  13
ATOM     13  CBF 6W3 d   1     -63.933 -37.183 -32.785  0.00  0.00     0.048 C 
ATOM     14  CAO 6W3 d   1     -62.576 -37.416 -33.440  0.00  0.00    -0.018 C 
ATOM     15  CAQ 6W3 d   1     -61.761 -36.246 -32.999  0.00  0.00     0.085 C 
ATOM     16  H11 6W3 d   1     -62.129 -38.358 -33.091  0.00  0.00     0.039 H 
ATOM     17  H12 6W3 d   1     -62.669 -37.438 -34.536  0.00  0.00     0.039 H 
ATOM     18  NBG 6W3 d   1     -61.548 -36.481 -31.550  0.00  0.00    -0.075 N 
ATOM     19  H15 6W3 d   1     -62.306 -35.305 -33.166  0.00  0.00     0.076 H 
ATOM     20  H16 6W3 d   1     -60.801 -36.214 -33.535  0.00  0.00     0.076 H 
ATOM     21  CAR 6W3 d   1     -62.764 -36.110 -30.827  0.00  0.00     0.085 C 
ATOM     22  H17 6W3 d   1     -61.365 -37.461 -31.403  0.00  0.00     0.279 HD
ATOM     23  CAP 6W3 d   1     -63.821 -37.106 -31.273  0.00  0.00    -0.018 C 
ATOM     24  H21 6W3 d   1     -62.602 -36.181 -29.741  0.00  0.00     0.076 H 
ATOM     25  H22 6W3 d   1     -63.068 -35.085 -31.086  0.00  0.00     0.076 H 
ATOM     26  H13 6W3 d   1     -64.794 -36.799 -30.861  0.00  0.00     0.039 H 
ATOM     27  H14 6W3 d   1     -63.556 -38.101 -30.886  0.00  0.00     0.039 H 
ATOM     28  H23 6W3 d   1     -64.394 -36.269 -33.188  0.00  0.00     0.084 H 
BRANCH  18  29
ATOM     29  CAA 6W3 d   1     -60.398 -35.708 -31.044  0.00  0.00     0.066 C 
ATOM     30  H18 6W3 d   1     -60.268 -35.905 -29.970  0.00  0.00     0.068 H 
ATOM     31  H19 6W3 d   1     -60.580 -34.635 -31.201  0.00  0.00     0.068 H 
ATOM     32  H20 6W3 d   1     -59.488 -36.008 -31.584  0.00  0.00     0.068 H 
ENDBRANCH  18  29
ENDBRANCH  12  13
ENDBRANCH   6  12
ENDBRANCH   1   2
BRANCH   1  33
ATOM     33  CAS 6W3 d   1     -68.618 -39.821 -37.591  0.00  0.00     0.052 C 
ATOM     34  H26 6W3 d   1     -68.903 -39.504 -36.577  0.00  0.00     0.082 H 
ATOM     35  H27 6W3 d   1     -68.838 -40.892 -37.716  0.00  0.00     0.082 H 
BRANCH  33  36
ATOM     36  CBA 6W3 d   1     -69.356 -39.083 -38.532  0.00  0.00    -0.007 A 
ATOM     37  CAG 6W3 d   1     -70.033 -39.786 -39.533  0.00  0.00    -0.073 A 
ATOM     38  CAD 6W3 d   1     -70.767 -39.115 -40.506  0.00  0.00    -0.082 A 
ATOM     39  H28 6W3 d   1     -69.985 -40.869 -39.551  0.00  0.00     0.084 H 
ATOM     40  CAE 6W3 d   1     -70.840 -37.730 -40.481  0.00  0.00    -0.081 A 
ATOM     41  H4  6W3 d   1     -71.280 -39.673 -41.281  0.00  0.00     0.083 H 
ATOM     42  CAH 6W3 d   1     -70.166 -37.011 -39.489  0.00  0.00    -0.057 A 
ATOM     43  H5  6W3 d   1     -71.420 -37.205 -41.231  0.00  0.00     0.083 H 
ATOM     44  CBB 6W3 d   1     -69.402 -37.671 -38.518  0.00  0.00     0.043 A 
ATOM     45  H6  6W3 d   1     -70.236 -35.929 -39.471  0.00  0.00     0.086 H 
BRANCH  44  46
ATOM     46  NAT 6W3 d   1     -68.754 -37.063 -37.495  0.00  0.00    -0.321 N 
ATOM     47  CAX 6W3 d   1     -68.442 -35.734 -37.409  0.00  0.00     0.273 C 
ATOM     48  OAC 6W3 d   1     -68.637 -34.841 -38.244  0.00  0.00    -0.266 OA
ATOM     49  H29 6W3 d   1     -68.477 -37.642 -36.728  0.00  0.00     0.169 HD
BRANCH  47  50
ATOM     50  CBC 6W3 d   1     -67.903 -35.417 -36.232  0.00  0.00     0.104 A 
ATOM     51  CAN 6W3 d   1     -68.262 -35.955 -35.067  0.00  0.00    -0.033 A 
ATOM     52  CBD 6W3 d   1     -67.524 -35.374 -34.132  0.00  0.00     0.034 A 
ATOM     53  H10 6W3 d   1     -69.017 -36.724 -34.913  0.00  0.00     0.089 H 
ATOM     54  SAW 6W3 d   1     -67.248 -35.350 -32.566  0.00  0.00    -0.100 SA
ATOM     55  CBE 6W3 d   1     -66.716 -34.470 -34.712  0.00  0.00     0.052 A 
ATOM     56  CAF 6W3 d   1     -66.100 -34.222 -32.577  0.00  0.00    -0.042 A 
ATOM     57  CAM 6W3 d   1     -65.923 -33.827 -33.834  0.00  0.00    -0.049 A 
ATOM     58  H30 6W3 d   1     -65.562 -33.848 -31.707  0.00  0.00     0.095 H 
ATOM     59  H9  6W3 d   1     -65.207 -33.059 -34.125  0.00  0.00     0.087 H 
ATOM     60  NBH 6W3 d   1     -66.968 -34.503 -36.023  0.00  0.00    -0.346 N 
BRANCH  60  61
ATOM     61  CAB 6W3 d   1     -66.245 -33.633 -36.964  0.00  0.00    -0.013 C 
ATOM     62  H1  6W3 d   1     -66.605 -33.820 -37.987  0.00  0.00     0.057 H 
ATOM     63  H2  6W3 d   1     -65.168 -33.849 -36.909  0.00  0.00     0.057 H 
ATOM     64  H3  6W3 d   1     -66.422 -32.580 -36.700  0.00  0.00     0.057 H 
ENDBRANCH  60  61
ENDBRANCH  47  50
ENDBRANCH  44  46
ENDBRANCH  33  36
ENDBRANCH   1  33
TORSDOF 9
