REMARK  9 active torsions:
REMARK  status: ('A' for Active; 'I' for Inactive)
REMARK       I    between atoms: N1_1  and  C2_2 
REMARK    1  A    between atoms: C3_20  and  N1_1 
REMARK    2  A    between atoms: C2_2  and  C1_11 
REMARK    3  A    between atoms: C13_25  and  O2_3 
REMARK    4  A    between atoms: O2_3  and  C14_28 
REMARK    5  A    between atoms: C9_8  and  C8_7 
REMARK    6  A    between atoms: O1_22  and  C9_8 
REMARK    7  A    between atoms: C10_9  and  O1_22 
REMARK    8  A    between atoms: N_18  and  C_19 
REMARK    9  A    between atoms: C14_28  and  C15_29 
ROOT
ATOM      1  C9  6W1 d   1      -8.169  50.488  80.891  0.00  0.00     0.052 C 
ATOM      2  H5  6W1 d   1      -8.286  49.397  80.809  0.00  0.00     0.082 H 
ATOM      3  H6  6W1 d   1      -8.557  50.826  81.863  0.00  0.00     0.082 H 
ENDROOT
BRANCH   1   4
ATOM      4  C8  6W1 d   1      -8.954  51.161  79.777  0.00  0.00    -0.007 A 
ATOM      5  C7  6W1 d   1      -9.642  50.374  78.862  0.00  0.00    -0.073 A 
ATOM      6  C6  6W1 d   1     -10.354  50.956  77.823  0.00  0.00    -0.082 A 
ATOM      7  H4  6W1 d   1      -9.622  49.295  78.961  0.00  0.00     0.084 H 
ATOM      8  C5  6W1 d   1     -10.389  52.334  77.704  0.00  0.00    -0.081 A 
ATOM      9  H3  6W1 d   1     -10.880  50.334  77.108  0.00  0.00     0.083 H 
ATOM     10  C4  6W1 d   1      -9.709  53.131  78.623  0.00  0.00    -0.057 A 
ATOM     11  H13 6W1 d   1     -10.946  52.794  76.895  0.00  0.00     0.083 H 
ATOM     12  C3  6W1 d   1      -8.975  52.553  79.665  0.00  0.00     0.043 A 
ATOM     13  H2  6W1 d   1      -9.749  54.210  78.530  0.00  0.00     0.086 H 
BRANCH  12  14
ATOM     14  N1  6W1 d   1      -8.277  53.262  80.601  0.00  0.00    -0.321 N 
ATOM     15  C2  6W1 d   1      -8.195  54.579  80.780  0.00  0.00     0.273 C 
ATOM     16  O   6W1 d   1      -8.612  55.491  80.070  0.00  0.00    -0.266 OA
ATOM     17  H1  6W1 d   1      -7.750  52.711  81.247  0.00  0.00     0.169 HD
BRANCH  15  18
ATOM     18  C1  6W1 d   1      -7.622  54.944  82.081  0.00  0.00     0.104 A 
ATOM     19  C21 6W1 d   1      -7.935  54.330  83.309  0.00  0.00    -0.033 A 
ATOM     20  C22 6W1 d   1      -7.212  55.015  84.250  0.00  0.00     0.034 A 
ATOM     21  H7  6W1 d   1      -8.608  53.490  83.475  0.00  0.00     0.089 H 
ATOM     22  C25 6W1 d   1      -6.505  55.983  83.662  0.00  0.00     0.052 A 
ATOM     23  S   6W1 d   1      -6.972  54.973  85.902  0.00  0.00    -0.100 SA
ATOM     24  C24 6W1 d   1      -5.711  56.758  84.499  0.00  0.00    -0.049 A 
ATOM     25  N   6W1 d   1      -6.760  55.948  82.305  0.00  0.00    -0.346 N 
ATOM     26  C23 6W1 d   1      -5.848  56.303  85.818  0.00  0.00    -0.042 A 
ATOM     27  H8  6W1 d   1      -5.082  57.588  84.180  0.00  0.00     0.087 H 
ATOM     28  H9  6W1 d   1      -5.323  56.724  86.674  0.00  0.00     0.095 H 
BRANCH  25  29
ATOM     29  C   6W1 d   1      -6.094  56.935  81.438  0.00  0.00    -0.013 C 
ATOM     30  H10 6W1 d   1      -6.401  56.773  80.394  0.00  0.00     0.057 H 
ATOM     31  H11 6W1 d   1      -5.003  56.819  81.521  0.00  0.00     0.057 H 
ATOM     32  H12 6W1 d   1      -6.380  57.950  81.751  0.00  0.00     0.057 H 
ENDBRANCH  25  29
ENDBRANCH  15  18
ENDBRANCH  12  14
ENDBRANCH   1   4
BRANCH   1  33
ATOM     33  O1  6W1 d   1      -6.763  50.826  80.795  0.00  0.00    -0.347 OA
BRANCH  33  34
ATOM     34  C10 6W1 d   1      -6.020  51.265  81.883  0.00  0.00     0.069 A 
ATOM     35  C20 6W1 d   1      -6.127  50.650  83.133  0.00  0.00    -0.048 A 
ATOM     36  C19 6W1 d   1      -5.381  51.104  84.212  0.00  0.00    -0.048 A 
ATOM     37  H14 6W1 d   1      -6.800  49.810  83.261  0.00  0.00     0.087 H 
ATOM     38  C13 6W1 d   1      -4.516  52.182  84.072  0.00  0.00     0.068 A 
ATOM     39  H15 6W1 d   1      -5.474  50.612  85.174  0.00  0.00     0.087 H 
ATOM     40  C12 6W1 d   1      -4.409  52.802  82.824  0.00  0.00    -0.048 A 
ATOM     41  C11 6W1 d   1      -5.155  52.349  81.740  0.00  0.00    -0.048 A 
ATOM     42  H16 6W1 d   1      -3.738  53.644  82.699  0.00  0.00     0.087 H 
ATOM     43  H17 6W1 d   1      -5.063  52.842  80.779  0.00  0.00     0.087 H 
BRANCH  38  44
ATOM     44  O2  6W1 d   1      -3.801  52.609  85.174  0.00  0.00    -0.351 OA
BRANCH  44  45
ATOM     45  C14 6W1 d   1      -3.047  53.820  85.171  0.00  0.00     0.031 C 
ATOM     46  H18 6W1 d   1      -3.704  54.648  84.867  0.00  0.00     0.075 H 
ATOM     47  H19 6W1 d   1      -2.221  53.724  84.451  0.00  0.00     0.075 H 
BRANCH  45  48
ATOM     48  C15 6W1 d   1      -2.471  54.127  86.544  0.00  0.00    -0.008 C 
ATOM     49  C18 6W1 d   1      -1.618  52.990  87.070  0.00  0.00     0.087 C 
ATOM     50  N2  6W1 d   1      -0.385  53.564  87.639  0.00  0.00    -0.075 N 
ATOM     51  H21 6W1 d   1      -1.365  52.304  86.249  0.00  0.00     0.076 H 
ATOM     52  H22 6W1 d   1      -2.168  52.442  87.849  0.00  0.00     0.076 H 
ATOM     53  C17 6W1 d   1      -0.160  54.866  86.997  0.00  0.00     0.082 C 
ATOM     54  H23 6W1 d   1       0.395  52.952  87.456  0.00  0.00     0.277 HD
ATOM     55  H24 6W1 d   1      -0.490  53.686  88.634  0.00  0.00     0.277 HD
ATOM     56  C16 6W1 d   1      -1.517  55.302  86.460  0.00  0.00    -0.036 C 
ATOM     57  H25 6W1 d   1       0.564  54.768  86.175  0.00  0.00     0.075 H 
ATOM     58  H26 6W1 d   1       0.214  55.595  87.730  0.00  0.00     0.075 H 
ATOM     59  H27 6W1 d   1      -1.903  56.137  87.063  0.00  0.00     0.036 H 
ATOM     60  H28 6W1 d   1      -1.415  55.623  85.413  0.00  0.00     0.036 H 
ATOM     61  H20 6W1 d   1      -3.294  54.342  87.242  0.00  0.00     0.045 H 
ENDBRANCH  45  48
ENDBRANCH  44  45
ENDBRANCH  38  44
ENDBRANCH  33  34
ENDBRANCH   1  33
TORSDOF 9
