REMARK  10 active torsions:
REMARK  status: ('A' for Active; 'I' for Inactive)
REMARK    1  A    between atoms: C15_6  and  N1_1 
REMARK    2  A    between atoms: C4_3  and  C7_5 
REMARK    3  A    between atoms: C21_8  and  C26_9 
REMARK       I    between atoms: C26_9  and  N28_16 
REMARK       I    between atoms: N20_13  and  C57_31 
REMARK    4  A    between atoms: N28_16  and  C30_17 
REMARK    5  A    between atoms: C30_17  and  C33_18 
REMARK    6  A    between atoms: C33_18  and  C35_19 
REMARK    7  A    between atoms: C33_18  and  C46_25 
REMARK    8  A    between atoms: C57_31  and  C59_33 
REMARK    9  A    between atoms: C64_36  and  C69_39 
REMARK   10  A    between atoms: C69_39  and  N72_40 
ROOT
ATOM      1  C15 6W4 d   1      26.030  11.309  20.662  0.00  0.00     0.048 C 
ATOM      2  C17 6W4 d   1      27.191  11.567  19.676  0.00  0.00     0.019 C 
ATOM      3  C21 6W4 d   1      27.990  11.871  21.933  0.00  0.00     0.094 C 
ATOM      4  N20 6W4 d   1      28.087  12.290  20.562  0.00  0.00    -0.332 N 
ATOM      5  C23 6W4 d   1      26.825  10.857  21.898  0.00  0.00    -0.016 C 
ATOM      6  C57 6W4 d   1      28.842  13.387  20.291  0.00  0.00     0.254 C 
ATOM      7  O58 6W4 d   1      29.432  14.004  21.181  0.00  0.00    -0.267 OA
ATOM      8  H3  6W4 d   1      25.471  12.235  20.860  0.00  0.00     0.077 H 
ATOM      9  H4  6W4 d   1      26.875  12.180  18.819  0.00  0.00     0.067 H 
ATOM     10  H5  6W4 d   1      27.639  10.630  19.312  0.00  0.00     0.067 H 
ATOM     11  H6  6W4 d   1      27.756  12.731  22.578  0.00  0.00     0.088 H 
ATOM     12  H11 6W4 d   1      27.196   9.829  21.778  0.00  0.00     0.040 H 
ATOM     13  H12 6W4 d   1      26.213  10.922  22.810  0.00  0.00     0.040 H 
ENDROOT
BRANCH   3  14
ATOM     14  C26 6W4 d   1      29.217  11.179  22.461  0.00  0.00     0.240 C 
ATOM     15  O27 6W4 d   1      29.721  10.213  21.890  0.00  0.00    -0.271 OA
ATOM     16  N28 6W4 d   1      29.653  11.693  23.623  0.00  0.00    -0.358 N 
ATOM     17  H13 6W4 d   1      29.261  12.554  23.946  0.00  0.00     0.162 HD
BRANCH  16  18
ATOM     18  C30 6W4 d   1      30.679  11.041  24.433  0.00  0.00     0.006 C 
ATOM     19  H14 6W4 d   1      31.588  11.656  24.501  0.00  0.00     0.065 H 
ATOM     20  H15 6W4 d   1      30.936  10.049  24.033  0.00  0.00     0.065 H 
BRANCH  18  21
ATOM     21  C33 6W4 d   1      29.962  10.929  25.816  0.00  0.00     0.012 C 
ATOM     22  H16 6W4 d   1      29.787  11.966  26.138  0.00  0.00     0.057 H 
BRANCH  21  23
ATOM     23  C35 6W4 d   1      28.565  10.273  25.746  0.00  0.00    -0.048 A 
ATOM     24  C36 6W4 d   1      28.286   9.107  25.018  0.00  0.00    -0.076 A 
ATOM     25  C38 6W4 d   1      26.972   8.626  24.904  0.00  0.00    -0.082 A 
ATOM     26  H17 6W4 d   1      29.096   8.570  24.537  0.00  0.00     0.084 H 
ATOM     27  C40 6W4 d   1      25.940   9.295  25.581  0.00  0.00    -0.083 A 
ATOM     28  H18 6W4 d   1      26.757   7.751  24.302  0.00  0.00     0.083 H 
ATOM     29  C42 6W4 d   1      26.195  10.473  26.279  0.00  0.00    -0.082 A 
ATOM     30  H19 6W4 d   1      24.934   8.891  25.560  0.00  0.00     0.083 H 
ATOM     31  C44 6W4 d   1      27.498  10.958  26.345  0.00  0.00    -0.076 A 
ATOM     32  H20 6W4 d   1      25.387  11.007  26.766  0.00  0.00     0.083 H 
ATOM     33  H21 6W4 d   1      27.692  11.886  26.871  0.00  0.00     0.084 H 
ENDBRANCH  21  23
BRANCH  21  34
ATOM     34  C46 6W4 d   1      30.840  10.295  26.908  0.00  0.00    -0.048 A 
ATOM     35  C47 6W4 d   1      31.857  11.064  27.485  0.00  0.00    -0.076 A 
ATOM     36  C49 6W4 d   1      32.681  10.528  28.489  0.00  0.00    -0.082 A 
ATOM     37  H22 6W4 d   1      32.011  12.085  27.154  0.00  0.00     0.084 H 
ATOM     38  C51 6W4 d   1      32.433   9.232  28.951  0.00  0.00    -0.083 A 
ATOM     39  H23 6W4 d   1      33.497  11.111  28.899  0.00  0.00     0.083 H 
ATOM     40  C53 6W4 d   1      31.395   8.465  28.406  0.00  0.00    -0.082 A 
ATOM     41  H24 6W4 d   1      33.050   8.816  29.739  0.00  0.00     0.083 H 
ATOM     42  C55 6W4 d   1      30.597   8.998  27.383  0.00  0.00    -0.076 A 
ATOM     43  H25 6W4 d   1      31.209   7.462  28.774  0.00  0.00     0.083 H 
ATOM     44  H26 6W4 d   1      29.793   8.408  26.960  0.00  0.00     0.084 H 
ENDBRANCH  21  34
ENDBRANCH  18  21
ENDBRANCH  16  18
ENDBRANCH   3  14
BRANCH   6  45
ATOM     45  C59 6W4 d   1      28.945  13.959  18.896  0.00  0.00     0.032 A 
ATOM     46  C60 6W4 d   1      29.089  13.090  17.792  0.00  0.00    -0.067 A 
ATOM     47  C62 6W4 d   1      29.188  13.616  16.493  0.00  0.00    -0.074 A 
ATOM     48  H27 6W4 d   1      29.123  12.018  17.947  0.00  0.00     0.085 H 
ATOM     49  C64 6W4 d   1      29.110  15.003  16.305  0.00  0.00    -0.033 A 
ATOM     50  H28 6W4 d   1      29.323  12.956  15.644  0.00  0.00     0.084 H 
ATOM     51  C65 6W4 d   1      28.959  15.875  17.397  0.00  0.00    -0.074 A 
ATOM     52  C67 6W4 d   1      28.908  15.341  18.702  0.00  0.00    -0.067 A 
ATOM     53  H29 6W4 d   1      28.883  16.945  17.238  0.00  0.00     0.084 H 
ATOM     54  H30 6W4 d   1      28.840  16.005  19.556  0.00  0.00     0.085 H 
BRANCH  49  55
ATOM     55  C69 6W4 d   1      29.167  15.567  14.882  0.00  0.00     0.103 C 
ATOM     56  H31 6W4 d   1      28.847  16.619  14.899  0.00  0.00     0.082 H 
ATOM     57  H32 6W4 d   1      28.488  14.988  14.239  0.00  0.00     0.082 H 
BRANCH  55  58
ATOM     58  N72 6W4 d   1      30.522  15.489  14.339  0.00  0.00    -0.075 N 
ATOM     59  H33 6W4 d   1      30.532  15.866  13.404  0.00  0.00     0.274 HD
ATOM     60  H34 6W4 d   1      30.820  14.526  14.316  0.00  0.00     0.274 HD
ATOM     61  H35 6W4 d   1      31.149  16.021  14.922  0.00  0.00     0.274 HD
ENDBRANCH  55  58
ENDBRANCH  49  55
ENDBRANCH   6  45
BRANCH   1  62
ATOM     62  N1  6W4 d   1      25.100  10.292  20.229  0.00  0.00    -0.277 N 
ATOM     63  C5  6W4 d   1      24.240   9.594  20.955  0.00  0.00     0.021 A 
ATOM     64  C4  6W4 d   1      23.616   8.735  20.137  0.00  0.00     0.073 A 
ATOM     65  H1  6W4 d   1      24.070   9.699  22.026  0.00  0.00     0.116 H 
ATOM     66  N3  6W4 d   1      24.116   8.922  18.819  0.00  0.00    -0.163 NA
ATOM     67  N2  6W4 d   1      25.015   9.902  18.950  0.00  0.00     0.005 NA
BRANCH  64  68
ATOM     68  C7  6W4 d   1      22.544   7.703  20.404  0.00  0.00    -0.009 A 
ATOM     69  C9  6W4 d   1      22.876   6.620  21.456  0.00  0.00    -0.056 A 
ATOM     70  C12 6W4 d   1      21.776   7.666  21.742  0.00  0.00    -0.056 A 
ATOM     71  H7  6W4 d   1      23.829   6.659  22.005  0.00  0.00     0.034 H 
ATOM     72  H8  6W4 d   1      22.603   5.571  21.271  0.00  0.00     0.034 H 
ATOM     73  H9  6W4 d   1      20.719   7.361  21.761  0.00  0.00     0.034 H 
ATOM     74  H10 6W4 d   1      21.945   8.450  22.495  0.00  0.00     0.034 H 
ATOM     75  H2  6W4 d   1      22.022   7.450  19.469  0.00  0.00     0.049 H 
ENDBRANCH  64  68
ENDBRANCH   1  62
TORSDOF 10
