REMARK  10 active torsions:
REMARK  status: ('A' for Active; 'I' for Inactive)
REMARK    1  A    between atoms: C32_28  and  C46_2 
REMARK    2  A    between atoms: C57_8  and  C59_9 
REMARK       I    between atoms: N20_25  and  C57_8 
REMARK    3  A    between atoms: N1_18  and  C15_12 
REMARK    4  A    between atoms: C21_14  and  C26_16 
REMARK       I    between atoms: C26_16  and  N28_27 
REMARK    5  A    between atoms: N28_27  and  C30_17 
REMARK    6  A    between atoms: C4_21  and  C7_23 
REMARK    7  A    between atoms: C62_33  and  O74_39 
REMARK    8  A    between atoms: C63_34  and  C68_37 
REMARK    9  A    between atoms: C68_37  and  N71_38 
REMARK   10  A    between atoms: O74_39  and  C75_40 
ROOT
ATOM      1  C57 6WH d   1      28.661  13.601  20.220  0.00  0.00     0.254 C 
ATOM      2  C15 6WH d   1      26.066  11.479  20.704  0.00  0.00     0.048 C 
ATOM      3  C17 6WH d   1      27.205  11.659  19.644  0.00  0.00     0.019 C 
ATOM      4  C21 6WH d   1      28.042  12.090  21.939  0.00  0.00     0.094 C 
ATOM      5  C23 6WH d   1      26.752  11.215  22.039  0.00  0.00    -0.016 C 
ATOM      6  N20 6WH d   1      28.020  12.453  20.537  0.00  0.00    -0.332 N 
ATOM      7  O58 6WH d   1      29.222  14.265  21.089  0.00  0.00    -0.267 OA
ATOM      8  H11 6WH d   1      25.492  12.415  20.772  0.00  0.00     0.077 H 
ATOM      9  H12 6WH d   1      26.883  12.205  18.745  0.00  0.00     0.067 H 
ATOM     10  H13 6WH d   1      27.679  10.712  19.347  0.00  0.00     0.067 H 
ATOM     11  H14 6WH d   1      27.981  12.995  22.561  0.00  0.00     0.088 H 
ATOM     12  H15 6WH d   1      27.003  10.150  22.153  0.00  0.00     0.040 H 
ATOM     13  H16 6WH d   1      26.120  11.535  22.880  0.00  0.00     0.040 H 
ENDROOT
BRANCH   4  14
ATOM     14  C26 6WH d   1      29.174  11.248  22.424  0.00  0.00     0.241 C 
ATOM     15  O27 6WH d   1      29.626  10.307  21.779  0.00  0.00    -0.271 OA
ATOM     16  N28 6WH d   1      29.535  11.642  23.643  0.00  0.00    -0.354 N 
ATOM     17  H22 6WH d   1      29.119  12.471  24.017  0.00  0.00     0.162 HD
BRANCH  16  18
ATOM     18  C30 6WH d   1      30.518  10.917  24.470  0.00  0.00     0.019 C 
ATOM     19  C43 6WH d   1      31.926  11.525  24.687  0.00  0.00    -0.045 C 
ATOM     20  C40 6WH d   1      32.726  10.698  25.747  0.00  0.00    -0.063 C 
ATOM     21  H1  6WH d   1      31.822  12.561  25.041  0.00  0.00     0.036 H 
ATOM     22  H2  6WH d   1      32.474  11.517  23.733  0.00  0.00     0.036 H 
ATOM     23  C37 6WH d   1      31.946  10.351  27.057  0.00  0.00    -0.064 C 
ATOM     24  H28 6WH d   1      33.618  11.278  26.027  0.00  0.00     0.033 H 
ATOM     25  H29 6WH d   1      33.036   9.753  25.276  0.00  0.00     0.033 H 
ATOM     26  C34 6WH d   1      30.546   9.751  26.800  0.00  0.00    -0.056 C 
ATOM     27  H26 6WH d   1      32.537   9.622  27.631  0.00  0.00     0.033 H 
ATOM     28  H27 6WH d   1      31.827  11.273  27.646  0.00  0.00     0.033 H 
ATOM     29  C32 6WH d   1      29.789  10.718  25.857  0.00  0.00    -0.009 C 
ATOM     30  H24 6WH d   1      30.642   8.763  26.326  0.00  0.00     0.034 H 
ATOM     31  H25 6WH d   1      30.001   9.650  27.750  0.00  0.00     0.034 H 
ATOM     32  H23 6WH d   1      29.718  11.701  26.346  0.00  0.00     0.050 H 
ATOM     33  H17 6WH d   1      30.678   9.935  24.002  0.00  0.00     0.073 H 
BRANCH  29  34
ATOM     34  C46 6WH d   1      28.358  10.149  25.660  0.00  0.00    -0.052 A 
ATOM     35  C47 6WH d   1      28.053   8.951  24.984  0.00  0.00    -0.076 A 
ATOM     36  C49 6WH d   1      26.707   8.586  24.833  0.00  0.00    -0.082 A 
ATOM     37  H3  6WH d   1      28.843   8.323  24.588  0.00  0.00     0.084 H 
ATOM     38  C51 6WH d   1      25.628   9.379  25.310  0.00  0.00    -0.083 A 
ATOM     39  H4  6WH d   1      26.479   7.654  24.328  0.00  0.00     0.083 H 
ATOM     40  C53 6WH d   1      25.927  10.609  25.903  0.00  0.00    -0.082 A 
ATOM     41  H5  6WH d   1      24.603   9.040  25.217  0.00  0.00     0.083 H 
ATOM     42  C55 6WH d   1      27.285  10.956  26.076  0.00  0.00    -0.076 A 
ATOM     43  H6  6WH d   1      25.137  11.279  26.222  0.00  0.00     0.083 H 
ATOM     44  H7  6WH d   1      27.513  11.900  26.558  0.00  0.00     0.084 H 
ENDBRANCH  29  34
ENDBRANCH  16  18
ENDBRANCH   4  14
BRANCH   2  45
ATOM     45  N1  6WH d   1      25.128  10.397  20.360  0.00  0.00    -0.277 N 
ATOM     46  N2  6WH d   1      24.901  10.082  19.075  0.00  0.00     0.005 NA
ATOM     47  N3  6WH d   1      24.029   9.083  18.984  0.00  0.00    -0.163 NA
ATOM     48  C4  6WH d   1      23.688   8.796  20.350  0.00  0.00     0.073 A 
ATOM     49  C5  6WH d   1      24.398   9.609  21.150  0.00  0.00     0.021 A 
ATOM     50  H18 6WH d   1      24.381   9.622  22.239  0.00  0.00     0.116 H 
BRANCH  48  51
ATOM     51  C7  6WH d   1      22.651   7.702  20.565  0.00  0.00    -0.009 A 
ATOM     52  C12 6WH d   1      23.118   6.386  21.220  0.00  0.00    -0.056 A 
ATOM     53  C9  6WH d   1      22.176   7.336  21.990  0.00  0.00    -0.056 A 
ATOM     54  H9  6WH d   1      24.165   6.272  21.539  0.00  0.00     0.034 H 
ATOM     55  H10 6WH d   1      22.741   5.422  20.846  0.00  0.00     0.034 H 
ATOM     56  H20 6WH d   1      22.551   7.900  22.857  0.00  0.00     0.034 H 
ATOM     57  H21 6WH d   1      21.128   7.050  22.164  0.00  0.00     0.034 H 
ATOM     58  H19 6WH d   1      21.936   7.693  19.729  0.00  0.00     0.049 H 
ENDBRANCH  48  51
ENDBRANCH   2  45
BRANCH   1  59
ATOM     59  C59 6WH d   1      28.700  14.140  18.826  0.00  0.00     0.034 A 
ATOM     60  C60 6WH d   1      28.901  13.250  17.761  0.00  0.00    -0.035 A 
ATOM     61  C62 6WH d   1      28.962  13.800  16.479  0.00  0.00     0.077 A 
ATOM     62  H8  6WH d   1      29.004  12.184  17.926  0.00  0.00     0.089 H 
ATOM     63  C63 6WH d   1      28.758  15.178  16.269  0.00  0.00     0.000 A 
ATOM     64  C64 6WH d   1      28.547  16.047  17.336  0.00  0.00    -0.072 A 
ATOM     65  C66 6WH d   1      28.491  15.525  18.645  0.00  0.00    -0.067 A 
ATOM     66  H30 6WH d   1      28.427  17.110  17.163  0.00  0.00     0.084 H 
ATOM     67  H31 6WH d   1      28.292  16.172  19.492  0.00  0.00     0.085 H 
BRANCH  61  68
ATOM     68  O74 6WH d   1      29.169  13.037  15.348  0.00  0.00    -0.355 OA
BRANCH  68  69
ATOM     69  C75 6WH d   1      29.496  11.630  15.517  0.00  0.00     0.010 C 
ATOM     70  H37 6WH d   1      29.630  11.164  14.530  0.00  0.00     0.066 H 
ATOM     71  H38 6WH d   1      28.679  11.125  16.053  0.00  0.00     0.066 H 
ATOM     72  H39 6WH d   1      30.427  11.537  16.096  0.00  0.00     0.066 H 
ENDBRANCH  68  69
ENDBRANCH  61  68
BRANCH  63  73
ATOM     73  C68 6WH d   1      28.791  15.732  14.845  0.00  0.00     0.106 C 
ATOM     74  H32 6WH d   1      28.610  16.816  14.877  0.00  0.00     0.082 H 
ATOM     75  H33 6WH d   1      28.002  15.246  14.252  0.00  0.00     0.082 H 
BRANCH  73  76
ATOM     76  N71 6WH d   1      30.102  15.480  14.205  0.00  0.00    -0.075 N 
ATOM     77  H34 6WH d   1      30.097  15.855  13.269  0.00  0.00     0.274 HD
ATOM     78  H35 6WH d   1      30.273  14.487  14.168  0.00  0.00     0.274 HD
ATOM     79  H36 6WH d   1      30.829  15.927  14.741  0.00  0.00     0.274 HD
ENDBRANCH  73  76
ENDBRANCH  63  73
ENDBRANCH   1  59
TORSDOF 10
