REMARK  9 active torsions:
REMARK  status: ('A' for Active; 'I' for Inactive)
REMARK    1  A    between atoms: N12_18  and  C13_1 
REMARK    2  A    between atoms: C16_3  and  C19_6 
REMARK    3  A    between atoms: N02_8  and  C01_4 
REMARK    4  A    between atoms: C19_6  and  O20_21 
REMARK    5  A    between atoms: O20_21  and  C21_7 
REMARK    6  A    between atoms: C10_16  and  C09_15 
REMARK       I    between atoms: C10_16  and  N12_18 
REMARK    7  A    between atoms: C24_24  and  O27_27 
REMARK    8  A    between atoms: O27_27  and  C28_28 
REMARK    9  A    between atoms: N31_31  and  C34_34 
ROOT
ATOM      1  C19 6X3 d   1       9.429 -50.446 -43.075  0.00  0.00     0.050 C 
ATOM      2  H6  6X3 d   1       8.583 -50.389 -43.775  0.00  0.00     0.082 H 
ATOM      3  H7  6X3 d   1      10.237 -51.042 -43.524  0.00  0.00     0.082 H 
ENDROOT
BRANCH   1   4
ATOM      4  C16 6X3 d   1       8.978 -51.081 -41.756  0.00  0.00    -0.034 A 
ATOM      5  C15 6X3 d   1       7.877 -51.922 -41.732  0.00  0.00    -0.073 A 
ATOM      6  C14 6X3 d   1       7.471 -52.486 -40.531  0.00  0.00    -0.057 A 
ATOM      7  H1  6X3 d   1       7.336 -52.138 -42.646  0.00  0.00     0.084 H 
ATOM      8  C13 6X3 d   1       8.173 -52.218 -39.367  0.00  0.00     0.035 A 
ATOM      9  H12 6X3 d   1       6.604 -53.136 -40.504  0.00  0.00     0.086 H 
ATOM     10  C18 6X3 d   1       9.269 -51.371 -39.394  0.00  0.00    -0.057 A 
ATOM     11  C17 6X3 d   1       9.671 -50.800 -40.590  0.00  0.00    -0.073 A 
ATOM     12  H13 6X3 d   1       9.811 -51.156 -38.480  0.00  0.00     0.086 H 
ATOM     13  H5  6X3 d   1      10.526 -50.135 -40.614  0.00  0.00     0.084 H 
BRANCH   8  14
ATOM     14  N12 6X3 d   1       7.733 -52.799 -38.107  0.00  0.00    -0.322 N 
ATOM     15  C10 6X3 d   1       7.660 -54.226 -37.842  0.00  0.00     0.273 C 
ATOM     16  O11 6X3 d   1       7.973 -55.021 -38.664  0.00  0.00    -0.266 OA
ATOM     17  H11 6X3 d   1       7.463 -52.174 -37.374  0.00  0.00     0.169 HD
BRANCH  15  18
ATOM     18  C09 6X3 d   1       7.155 -54.652 -36.459  0.00  0.00     0.104 A 
ATOM     19  N02 6X3 d   1       6.225 -55.549 -36.198  0.00  0.00    -0.346 N 
ATOM     20  C03 6X3 d   1       6.036 -55.651 -34.867  0.00  0.00     0.052 A 
ATOM     21  C04 6X3 d   1       5.199 -56.428 -34.036  0.00  0.00    -0.049 A 
ATOM     22  C07 6X3 d   1       6.885 -54.770 -34.238  0.00  0.00     0.034 A 
ATOM     23  C05 6X3 d   1       5.340 -56.206 -32.685  0.00  0.00    -0.042 A 
ATOM     24  H8  6X3 d   1       4.491 -57.152 -34.436  0.00  0.00     0.087 H 
ATOM     25  S06 6X3 d   1       6.560 -54.982 -32.546  0.00  0.00    -0.100 SA
ATOM     26  H9  6X3 d   1       4.800 -56.695 -31.876  0.00  0.00     0.095 H 
ATOM     27  C08 6X3 d   1       7.604 -54.122 -35.249  0.00  0.00    -0.033 A 
ATOM     28  H10 6X3 d   1       8.365 -53.354 -35.117  0.00  0.00     0.089 H 
BRANCH  19  29
ATOM     29  C01 6X3 d   1       5.503 -56.325 -37.188  0.00  0.00    -0.013 C 
ATOM     30  H2  6X3 d   1       4.790 -56.992 -36.682  0.00  0.00     0.057 H 
ATOM     31  H3  6X3 d   1       6.215 -56.925 -37.774  0.00  0.00     0.057 H 
ATOM     32  H4  6X3 d   1       4.957 -55.646 -37.859  0.00  0.00     0.057 H 
ENDBRANCH  19  29
ENDBRANCH  15  18
ENDBRANCH   8  14
ENDBRANCH   1   4
BRANCH   1  33
ATOM     33  O20 6X3 d   1       9.893 -49.156 -42.774  0.00  0.00    -0.347 OA
BRANCH  33  34
ATOM     34  C21 6X3 d   1       8.967 -48.116 -42.997  0.00  0.00     0.069 A 
ATOM     35  C22 6X3 d   1       7.600 -48.347 -42.912  0.00  0.00    -0.048 A 
ATOM     36  C23 6X3 d   1       6.700 -47.310 -43.131  0.00  0.00    -0.048 A 
ATOM     37  H14 6X3 d   1       7.234 -49.339 -42.674  0.00  0.00     0.087 H 
ATOM     38  C24 6X3 d   1       7.167 -46.038 -43.430  0.00  0.00     0.069 A 
ATOM     39  H15 6X3 d   1       5.634 -47.495 -43.068  0.00  0.00     0.087 H 
ATOM     40  C25 6X3 d   1       8.535 -45.809 -43.510  0.00  0.00    -0.048 A 
ATOM     41  C26 6X3 d   1       9.434 -46.844 -43.293  0.00  0.00    -0.048 A 
ATOM     42  H16 6X3 d   1       8.902 -44.816 -43.743  0.00  0.00     0.087 H 
ATOM     43  H17 6X3 d   1      10.500 -46.658 -43.355  0.00  0.00     0.087 H 
BRANCH  38  44
ATOM     44  O27 6X3 d   1       6.253 -44.990 -43.650  0.00  0.00    -0.346 OA
BRANCH  44  45
ATOM     45  C28 6X3 d   1       6.781 -44.086 -44.590  0.00  0.00     0.048 C 
ATOM     46  C29 6X3 d   1       5.958 -44.071 -45.770  0.00  0.00    -0.018 C 
ATOM     47  C30 6X3 d   1       6.498 -43.078 -46.800  0.00  0.00     0.085 C 
ATOM     48  H19 6X3 d   1       4.934 -43.780 -45.491  0.00  0.00     0.039 H 
ATOM     49  H20 6X3 d   1       5.945 -45.078 -46.213  0.00  0.00     0.039 H 
ATOM     50  N31 6X3 d   1       6.716 -41.767 -46.249  0.00  0.00    -0.075 N 
ATOM     51  H21 6X3 d   1       5.774 -42.997 -47.624  0.00  0.00     0.076 H 
ATOM     52  H22 6X3 d   1       7.454 -43.459 -47.188  0.00  0.00     0.076 H 
ATOM     53  C32 6X3 d   1       7.451 -41.777 -45.013  0.00  0.00     0.085 C 
ATOM     54  H23 6X3 d   1       5.814 -41.357 -46.066  0.00  0.00     0.279 HD
ATOM     55  C33 6X3 d   1       6.880 -42.774 -44.005  0.00  0.00    -0.018 C 
ATOM     56  H24 6X3 d   1       7.416 -40.770 -44.573  0.00  0.00     0.076 H 
ATOM     57  H25 6X3 d   1       8.496 -42.048 -45.225  0.00  0.00     0.076 H 
ATOM     58  H26 6X3 d   1       7.541 -42.819 -43.127  0.00  0.00     0.039 H 
ATOM     59  H27 6X3 d   1       5.879 -42.440 -43.694  0.00  0.00     0.039 H 
ATOM     60  H18 6X3 d   1       7.790 -44.419 -44.873  0.00  0.00     0.084 H 
BRANCH  50  61
ATOM     61  C34 6X3 d   1       7.294 -41.078 -47.059  0.00  0.00     0.066 C 
ATOM     62  H28 6X3 d   1       6.730 -41.072 -48.004  0.00  0.00     0.068 H 
ATOM     63  H29 6X3 d   1       8.300 -41.485 -47.235  0.00  0.00     0.068 H 
ATOM     64  H30 6X3 d   1       7.377 -40.051 -46.674  0.00  0.00     0.068 H 
ENDBRANCH  50  61
ENDBRANCH  44  45
ENDBRANCH  38  44
ENDBRANCH  33  34
ENDBRANCH   1  33
TORSDOF 9
