REMARK  13 active torsions:
REMARK  status: ('A' for Active; 'I' for Inactive)
REMARK    1  A    between atoms: C01_1  and  C02_2 
REMARK    2  A    between atoms: C02_2  and  N03_3 
REMARK    3  A    between atoms: C10_10  and  C11_11 
REMARK       I    between atoms: C11_11  and  N13_13 
REMARK    4  A    between atoms: N13_13  and  C14_14 
REMARK    5  A    between atoms: C18_18  and  C35_35 
REMARK    6  A    between atoms: C19_19  and  C20_20 
REMARK    7  A    between atoms: C20_20  and  O21_21 
REMARK    8  A    between atoms: O21_21  and  C22_22 
REMARK    9  A    between atoms: C25_25  and  O28_28 
REMARK   10  A    between atoms: O28_28  and  C29_29 
REMARK   11  A    between atoms: C29_29  and  C30_30 
REMARK   12  A    between atoms: C35_35  and  O36_36 
REMARK   13  A    between atoms: O36_36  and  C37_37 
ROOT
ATOM      1  C14 6X0 d   1     -69.705 -38.164 -38.546  0.00  0.00     0.044 A 
ATOM      2  C15 6X0 d   1     -70.409 -37.523 -39.615  0.00  0.00    -0.057 A 
ATOM      3  C16 6X0 d   1     -70.934 -38.310 -40.668  0.00  0.00    -0.080 A 
ATOM      4  C17 6X0 d   1     -70.769 -39.691 -40.654  0.00  0.00    -0.074 A 
ATOM      5  C18 6X0 d   1     -70.055 -40.329 -39.562  0.00  0.00    -0.024 A 
ATOM      6  C19 6X0 d   1     -69.529 -39.527 -38.522  0.00  0.00     0.001 A 
ATOM      7  H10 6X0 d   1     -70.539 -36.447 -39.618  0.00  0.00     0.086 H 
ATOM      8  H11 6X0 d   1     -71.465 -37.836 -41.486  0.00  0.00     0.083 H 
ATOM      9  H12 6X0 d   1     -71.174 -40.292 -41.460  0.00  0.00     0.084 H 
ENDROOT
BRANCH   6  10
ATOM     10  C20 6X0 d   1     -68.746 -40.108 -37.288  0.00  0.00     0.052 C 
ATOM     11  H13 6X0 d   1     -69.076 -41.142 -37.111  0.00  0.00     0.082 H 
ATOM     12  H14 6X0 d   1     -68.970 -39.495 -36.403  0.00  0.00     0.082 H 
BRANCH  10  13
ATOM     13  O21 6X0 d   1     -67.345 -40.104 -37.508  0.00  0.00    -0.347 OA
BRANCH  13  14
ATOM     14  C22 6X0 d   1     -66.566 -39.566 -36.375  0.00  0.00     0.069 A 
ATOM     15  C23 6X0 d   1     -66.812 -40.010 -35.059  0.00  0.00    -0.048 A 
ATOM     16  C24 6X0 d   1     -66.047 -39.477 -33.960  0.00  0.00    -0.048 A 
ATOM     17  H15 6X0 d   1     -67.578 -40.754 -34.874  0.00  0.00     0.087 H 
ATOM     18  C25 6X0 d   1     -65.069 -38.532 -34.181  0.00  0.00     0.069 A 
ATOM     19  H16 6X0 d   1     -66.243 -39.822 -32.951  0.00  0.00     0.087 H 
ATOM     20  C26 6X0 d   1     -64.819 -38.082 -35.501  0.00  0.00    -0.048 A 
ATOM     21  C27 6X0 d   1     -65.577 -38.610 -36.599  0.00  0.00    -0.048 A 
ATOM     22  H17 6X0 d   1     -64.053 -37.337 -35.682  0.00  0.00     0.087 H 
ATOM     23  H18 6X0 d   1     -65.379 -38.264 -37.607  0.00  0.00     0.087 H 
BRANCH  18  24
ATOM     24  O28 6X0 d   1     -64.339 -38.023 -33.110  0.00  0.00    -0.350 OA
BRANCH  24  25
ATOM     25  C29 6X0 d   1     -63.738 -36.803 -33.361  0.00  0.00     0.034 C 
ATOM     26  H19 6X0 d   1     -64.490 -36.100 -33.749  0.00  0.00     0.076 H 
ATOM     27  H20 6X0 d   1     -62.941 -36.937 -34.108  0.00  0.00     0.076 H 
BRANCH  25  28
ATOM     28  C30 6X0 d   1     -63.110 -36.215 -32.021  0.00  0.00    -0.000 C 
ATOM     29  C31 6X0 d   1     -61.830 -35.285 -32.396  0.00  0.00    -0.081 C 
ATOM     30  C32 6X0 d   1     -60.925 -35.408 -31.418  0.00  0.00    -0.031 C 
ATOM     31  H22 6X0 d   1     -61.727 -34.669 -33.288  0.00  0.00     0.079 H 
ATOM     32  N33 6X0 d   1     -61.295 -36.710 -30.647  0.00  0.00    -0.398 N 
ATOM     33  H23 6X0 d   1     -60.097 -34.734 -31.204  0.00  0.00     0.110 H 
ATOM     34  C34 6X0 d   1     -62.649 -37.205 -31.254  0.00  0.00     0.000 C 
ATOM     35  H24 6X0 d   1     -60.757 -37.155 -29.890  0.00  0.00     0.158 HD
ATOM     36  H25 6X0 d   1     -62.485 -38.109 -31.859  0.00  0.00     0.065 H 
ATOM     37  H26 6X0 d   1     -63.366 -37.427 -30.450  0.00  0.00     0.065 H 
ATOM     38  H21 6X0 d   1     -63.867 -35.631 -31.478  0.00  0.00     0.051 H 
ENDBRANCH  25  28
ENDBRANCH  24  25
ENDBRANCH  18  24
ENDBRANCH  13  14
ENDBRANCH  10  13
ENDBRANCH   6  10
BRANCH   1  39
ATOM     39  N13 6X0 d   1     -69.099 -37.423 -37.375  0.00  0.00    -0.321 N 
ATOM     40  C11 6X0 d   1     -68.592 -36.047 -37.408  0.00  0.00     0.273 C 
ATOM     41  O12 6X0 d   1     -68.628 -35.396 -38.339  0.00  0.00    -0.266 OA
ATOM     42  H9  6X0 d   1     -69.039 -37.912 -36.505  0.00  0.00     0.169 HD
BRANCH  40  43
ATOM     43  C10 6X0 d   1     -68.006 -35.582 -36.078  0.00  0.00     0.105 A 
ATOM     44  N03 6X0 d   1     -67.049 -34.662 -35.866  0.00  0.00    -0.342 N 
ATOM     45  C04 6X0 d   1     -66.815 -34.571 -34.570  0.00  0.00     0.052 A 
ATOM     46  C05 6X0 d   1     -65.939 -33.784 -33.776  0.00  0.00    -0.049 A 
ATOM     47  C08 6X0 d   1     -67.635 -35.468 -33.913  0.00  0.00     0.034 A 
ATOM     48  C06 6X0 d   1     -66.050 -34.050 -32.424  0.00  0.00    -0.042 A 
ATOM     49  H6  6X0 d   1     -65.251 -33.048 -34.189  0.00  0.00     0.087 H 
ATOM     50  S07 6X0 d   1     -67.272 -35.297 -32.225  0.00  0.00    -0.100 SA
ATOM     51  H7  6X0 d   1     -65.483 -33.573 -31.626  0.00  0.00     0.095 H 
ATOM     52  C09 6X0 d   1     -68.399 -36.126 -34.880  0.00  0.00    -0.033 A 
ATOM     53  H8  6X0 d   1     -69.145 -36.903 -34.719  0.00  0.00     0.089 H 
BRANCH  44  54
ATOM     54  C02 6X0 d   1     -66.373 -33.870 -36.898  0.00  0.00    -0.003 C 
ATOM     55  H4  6X0 d   1     -67.113 -33.512 -37.629  0.00  0.00     0.064 H 
ATOM     56  H5  6X0 d   1     -65.873 -33.009 -36.430  0.00  0.00     0.064 H 
BRANCH  54  57
ATOM     57  C01 6X0 d   1     -65.360 -34.716 -37.591  0.00  0.00    -0.061 C 
ATOM     58  H1  6X0 d   1     -64.853 -34.121 -38.365  0.00  0.00     0.029 H 
ATOM     59  H2  6X0 d   1     -65.860 -35.577 -38.059  0.00  0.00     0.029 H 
ATOM     60  H3  6X0 d   1     -64.620 -35.074 -36.861  0.00  0.00     0.029 H 
ENDBRANCH  54  57
ENDBRANCH  44  54
ENDBRANCH  40  43
ENDBRANCH   1  39
BRANCH   5  61
ATOM     61  C35 6X0 d   1     -69.867 -41.840 -39.542  0.00  0.00     0.043 C 
ATOM     62  H27 6X0 d   1     -68.802 -42.075 -39.401  0.00  0.00     0.081 H 
ATOM     63  H28 6X0 d   1     -70.213 -42.265 -40.496  0.00  0.00     0.081 H 
BRANCH  61  64
ATOM     64  O36 6X0 d   1     -70.628 -42.405 -38.463  0.00  0.00    -0.391 OA
BRANCH  64  65
ATOM     65  C37 6X0 d   1     -69.856 -43.291 -37.578  0.00  0.00     0.004 C 
ATOM     66  H29 6X0 d   1     -70.512 -43.678 -36.784  0.00  0.00     0.066 H 
ATOM     67  H30 6X0 d   1     -69.027 -42.726 -37.126  0.00  0.00     0.066 H 
ATOM     68  H31 6X0 d   1     -69.452 -44.131 -38.162  0.00  0.00     0.066 H 
ENDBRANCH  64  65
ENDBRANCH  61  64
ENDBRANCH   5  61
TORSDOF 13
