REMARK  13 active torsions:
REMARK  status: ('A' for Active; 'I' for Inactive)
REMARK    1  A    between atoms: C01_1  and  C02_2 
REMARK    2  A    between atoms: C02_2  and  O03_3 
REMARK    3  A    between atoms: O03_3  and  C04_4 
REMARK    4  A    between atoms: C04_4  and  C05_5 
REMARK    5  A    between atoms: C09_9  and  N26_26 
REMARK    6  A    between atoms: C10_10  and  C11_11 
REMARK    7  A    between atoms: C11_11  and  O12_12 
REMARK    8  A    between atoms: O12_12  and  C13_13 
REMARK    9  A    between atoms: C16_16  and  O19_19 
REMARK   10  A    between atoms: O19_19  and  C20_20 
REMARK   11  A    between atoms: C20_20  and  C21_21 
REMARK       I    between atoms: N26_26  and  C27_27 
REMARK   12  A    between atoms: C27_27  and  C29_29 
REMARK   13  A    between atoms: N33_33  and  C34_34 
ROOT
ATOM      1  C05 6X5 d   1       9.432 -49.102 -39.701  0.00  0.00    -0.024 A 
ATOM      2  C06 6X5 d   1      10.539 -49.501 -40.437  0.00  0.00    -0.074 A 
ATOM      3  C07 6X5 d   1      11.067 -50.834 -40.283  0.00  0.00    -0.080 A 
ATOM      4  C08 6X5 d   1      10.473 -51.721 -39.395  0.00  0.00    -0.057 A 
ATOM      5  C09 6X5 d   1       9.328 -51.314 -38.649  0.00  0.00     0.044 A 
ATOM      6  C10 6X5 d   1       8.820 -50.007 -38.785  0.00  0.00     0.001 A 
ATOM      7  H8  6X5 d   1      11.007 -48.810 -41.128  0.00  0.00     0.084 H 
ATOM      8  H9  6X5 d   1      11.930 -51.144 -40.862  0.00  0.00     0.083 H 
ATOM      9  H10 6X5 d   1      10.878 -52.719 -39.269  0.00  0.00     0.086 H 
ENDROOT
BRANCH   6  10
ATOM     10  C11 6X5 d   1       7.564 -49.549 -37.964  0.00  0.00     0.052 C 
ATOM     11  H11 6X5 d   1       6.680 -50.098 -38.321  0.00  0.00     0.082 H 
ATOM     12  H12 6X5 d   1       7.410 -48.470 -38.112  0.00  0.00     0.082 H 
BRANCH  10  13
ATOM     13  O12 6X5 d   1       7.750 -49.814 -36.550  0.00  0.00    -0.347 OA
BRANCH  13  14
ATOM     14  C13 6X5 d   1       6.651 -50.451 -35.915  0.00  0.00     0.069 A 
ATOM     15  C14 6X5 d   1       5.888 -51.366 -36.599  0.00  0.00    -0.048 A 
ATOM     16  C15 6X5 d   1       4.799 -52.007 -35.959  0.00  0.00    -0.048 A 
ATOM     17  H13 6X5 d   1       6.120 -51.598 -37.632  0.00  0.00     0.087 H 
ATOM     18  C16 6X5 d   1       4.495 -51.707 -34.620  0.00  0.00     0.068 A 
ATOM     19  H14 6X5 d   1       4.200 -52.729 -36.502  0.00  0.00     0.087 H 
ATOM     20  C17 6X5 d   1       5.256 -50.797 -33.935  0.00  0.00    -0.048 A 
ATOM     21  C18 6X5 d   1       6.347 -50.157 -34.578  0.00  0.00    -0.048 A 
ATOM     22  H15 6X5 d   1       5.025 -50.566 -32.901  0.00  0.00     0.087 H 
ATOM     23  H16 6X5 d   1       6.948 -49.438 -34.033  0.00  0.00     0.087 H 
BRANCH  18  24
ATOM     24  O19 6X5 d   1       3.423 -52.342 -33.993  0.00  0.00    -0.351 OA
BRANCH  24  25
ATOM     25  C20 6X5 d   1       2.974 -51.693 -32.829  0.00  0.00     0.031 C 
ATOM     26  H17 6X5 d   1       2.047 -51.142 -33.046  0.00  0.00     0.075 H 
ATOM     27  H18 6X5 d   1       3.744 -50.991 -32.476  0.00  0.00     0.075 H 
BRANCH  25  28
ATOM     28  C21 6X5 d   1       2.699 -52.781 -31.720  0.00  0.00    -0.008 C 
ATOM     29  C22 6X5 d   1       2.958 -54.213 -32.301  0.00  0.00    -0.036 C 
ATOM     30  C23 6X5 d   1       1.560 -54.960 -32.199  0.00  0.00     0.082 C 
ATOM     31  H20 6X5 d   1       3.721 -54.738 -31.708  0.00  0.00     0.036 H 
ATOM     32  H21 6X5 d   1       3.287 -54.151 -33.349  0.00  0.00     0.036 H 
ATOM     33  N24 6X5 d   1       0.872 -54.293 -31.256  0.00  0.00    -0.075 N 
ATOM     34  H22 6X5 d   1       1.704 -56.009 -31.902  0.00  0.00     0.075 H 
ATOM     35  H23 6X5 d   1       1.031 -54.921 -33.163  0.00  0.00     0.075 H 
ATOM     36  C25 6X5 d   1       1.385 -52.740 -31.356  0.00  0.00     0.087 C 
ATOM     37  H24 6X5 d   1       1.069 -54.671 -30.343  0.00  0.00     0.277 HD
ATOM     38  H25 6X5 d   1      -0.118 -54.349 -31.436  0.00  0.00     0.277 HD
ATOM     39  H26 6X5 d   1       0.800 -52.196 -32.112  0.00  0.00     0.076 H 
ATOM     40  H27 6X5 d   1       1.278 -52.242 -30.381  0.00  0.00     0.076 H 
ATOM     41  H19 6X5 d   1       3.345 -52.598 -30.849  0.00  0.00     0.045 H 
ENDBRANCH  25  28
ENDBRANCH  24  25
ENDBRANCH  18  24
ENDBRANCH  13  14
ENDBRANCH  10  13
ENDBRANCH   6  10
BRANCH   1  42
ATOM     42  C04 6X5 d   1       8.862 -47.680 -39.859  0.00  0.00     0.044 C 
ATOM     43  H6  6X5 d   1       9.321 -47.194 -40.733  0.00  0.00     0.081 H 
ATOM     44  H7  6X5 d   1       7.772 -47.734 -40.000  0.00  0.00     0.081 H 
BRANCH  42  45
ATOM     45  O03 6X5 d   1       9.159 -46.917 -38.670  0.00  0.00    -0.387 OA
BRANCH  45  46
ATOM     46  C02 6X5 d   1       8.153 -46.007 -38.332  0.00  0.00     0.017 C 
ATOM     47  H4  6X5 d   1       8.215 -45.131 -38.994  0.00  0.00     0.073 H 
ATOM     48  H5  6X5 d   1       7.170 -46.487 -38.450  0.00  0.00     0.073 H 
BRANCH  46  49
ATOM     49  C01 6X5 d   1       8.331 -45.558 -36.871  0.00  0.00    -0.056 C 
ATOM     50  H1  6X5 d   1       7.538 -44.842 -36.608  0.00  0.00     0.030 H 
ATOM     51  H2  6X5 d   1       9.313 -45.077 -36.752  0.00  0.00     0.030 H 
ATOM     52  H3  6X5 d   1       8.269 -46.434 -36.208  0.00  0.00     0.030 H 
ENDBRANCH  46  49
ENDBRANCH  45  46
ENDBRANCH  42  45
ENDBRANCH   1  42
BRANCH   5  53
ATOM     53  N26 6X5 d   1       8.669 -52.225 -37.658  0.00  0.00    -0.321 N 
ATOM     54  C27 6X5 d   1       8.625 -53.691 -37.647  0.00  0.00     0.273 C 
ATOM     55  O28 6X5 d   1       9.140 -54.380 -38.497  0.00  0.00    -0.266 OA
ATOM     56  H28 6X5 d   1       8.195 -51.772 -36.903  0.00  0.00     0.169 HD
BRANCH  54  57
ATOM     57  C29 6X5 d   1       7.881 -54.293 -36.444  0.00  0.00     0.104 A 
ATOM     58  C30 6X5 d   1       8.135 -53.881 -35.113  0.00  0.00    -0.033 A 
ATOM     59  C31 6X5 d   1       7.293 -54.609 -34.283  0.00  0.00     0.034 A 
ATOM     60  H29 6X5 d   1       8.858 -53.130 -34.798  0.00  0.00     0.089 H 
ATOM     61  C32 6X5 d   1       6.560 -55.426 -35.133  0.00  0.00     0.052 A 
ATOM     62  S37 6X5 d   1       6.746 -54.949 -32.659  0.00  0.00    -0.100 SA
ATOM     63  N33 6X5 d   1       6.944 -55.200 -36.415  0.00  0.00    -0.346 N 
ATOM     64  C35 6X5 d   1       5.626 -56.263 -34.489  0.00  0.00    -0.049 A 
ATOM     65  C36 6X5 d   1       5.568 -56.158 -33.105  0.00  0.00    -0.042 A 
ATOM     66  H33 6X5 d   1       4.989 -56.950 -35.043  0.00  0.00     0.087 H 
ATOM     67  H34 6X5 d   1       4.918 -56.717 -32.433  0.00  0.00     0.095 H 
BRANCH  63  68
ATOM     68  C34 6X5 d   1       6.386 -55.885 -37.583  0.00  0.00    -0.013 C 
ATOM     69  H30 6X5 d   1       6.875 -55.512 -38.495  0.00  0.00     0.057 H 
ATOM     70  H31 6X5 d   1       5.305 -55.690 -37.641  0.00  0.00     0.057 H 
ATOM     71  H32 6X5 d   1       6.559 -56.967 -37.490  0.00  0.00     0.057 H 
ENDBRANCH  63  68
ENDBRANCH  54  57
ENDBRANCH   5  53
TORSDOF 13
