REMARK  4 active torsions:
REMARK  status: ('A' for Active; 'I' for Inactive)
REMARK    1  A    between atoms: N_1  and  CA_2 
REMARK    2  A    between atoms: CA_2  and  C_3 
REMARK    3  A    between atoms: CA_2  and  CB_5 
REMARK    4  A    between atoms: CB_5  and  CG_6 
ROOT
ATOM      1  CB  HIS d   1       1.216  -8.426 172.016  0.00  0.00     0.011 C 
ATOM      2  H5  HIS d   1       0.849  -7.464 172.404  0.00  0.00     0.046 H 
ATOM      3  H6  HIS d   1       0.621  -8.719 171.139  0.00  0.00     0.046 H 
ENDROOT
BRANCH   1   4
ATOM      4  CA  HIS d   1       1.021  -9.497 173.114  0.00  0.00     0.187 C 
ATOM      5  H4  HIS d   1      -0.052  -9.563 173.349  0.00  0.00     0.101 H 
BRANCH   4   6
ATOM      6  N   HIS d   1       1.734  -9.128 174.338  0.00  0.00    -0.065 N 
ATOM      7  H1  HIS d   1       1.409  -8.229 174.658  0.00  0.00     0.275 HD
ATOM      8  H2  HIS d   1       2.723  -9.081 174.149  0.00  0.00     0.275 HD
ATOM      9  H3  HIS d   1       1.560  -9.820 175.050  0.00  0.00     0.275 HD
ENDBRANCH   4   6
BRANCH   4  10
ATOM     10  C   HIS d   1       1.482 -10.848 172.599  0.00  0.00     0.204 C 
ATOM     11  O   HIS d   1       0.900 -11.389 171.640  0.00  0.00    -0.646 OA
ATOM     12  OXT HIS d   1       2.443 -11.412 173.141  0.00  0.00    -0.646 OA
ENDBRANCH   4  10
ENDBRANCH   1   4
BRANCH   1  13
ATOM     13  CG  HIS d   1       2.641  -8.244 171.578  0.00  0.00     0.030 A 
ATOM     14  ND1 HIS d   1       3.364  -7.104 171.885  0.00  0.00    -0.353 N 
ATOM     15  CE1 HIS d   1       4.576  -7.205 171.354  0.00  0.00     0.063 A 
ATOM     16  H7  HIS d   1       3.017  -6.306 172.436  0.00  0.00     0.166 HD
ATOM     17  NE2 HIS d   1       4.665  -8.369 170.729  0.00  0.00    -0.254 NA
ATOM     18  H9  HIS d   1       5.364  -6.457 171.421  0.00  0.00     0.143 H 
ATOM     19  CD2 HIS d   1       3.471  -9.040 170.844  0.00  0.00     0.025 A 
ATOM     20  H8  HIS d   1       3.233 -10.018 170.429  0.00  0.00     0.117 H 
ENDBRANCH   1  13
TORSDOF 4
