REMARK  8 active torsions:
REMARK  status: ('A' for Active; 'I' for Inactive)
REMARK    1  A    between atoms: C1_1  and  C13_13 
REMARK    2  A    between atoms: N1_19  and  C2_2 
REMARK    3  A    between atoms: N2_18  and  C3_3 
REMARK    4  A    between atoms: C6_6  and  C7_7 
REMARK    5  A    between atoms: C8_8  and  C9_9 
REMARK       I    between atoms: C9_9  and  N3_16 
REMARK    6  A    between atoms: C12_12  and  C14_14 
REMARK    7  A    between atoms: N3_16  and  O1_17 
REMARK    8  A    between atoms: N_21  and  C_22 
ROOT
ATOM      1  C3  9RB d   1     -24.008   0.166   3.101  0.00  0.00     0.079 A 
ATOM      2  C4  9RB d   1     -24.399  -0.705   4.104  0.00  0.00    -0.053 A 
ATOM      3  C5  9RB d   1     -24.142  -0.428   5.440  0.00  0.00    -0.071 A 
ATOM      4  C6  9RB d   1     -23.491   0.736   5.825  0.00  0.00    -0.036 A 
ATOM      5  C10 9RB d   1     -23.096   1.638   4.821  0.00  0.00    -0.071 A 
ATOM      6  C11 9RB d   1     -23.365   1.357   3.470  0.00  0.00    -0.053 A 
ATOM      7  H1  9RB d   1     -24.916  -1.621   3.841  0.00  0.00     0.087 H 
ATOM      8  H2  9RB d   1     -24.456  -1.136   6.199  0.00  0.00     0.084 H 
ATOM      9  H5  9RB d   1     -22.582   2.554   5.090  0.00  0.00     0.084 H 
ATOM     10  H6  9RB d   1     -23.073   2.068   2.706  0.00  0.00     0.087 H 
ENDROOT
BRANCH   1  11
ATOM     11  N2  9RB d   1     -24.317  -0.178   1.769  0.00  0.00    -0.150 NA
ATOM     12  N1  9RB d   1     -23.980  -1.241   1.176  0.00  0.00    -0.146 NA
BRANCH  12  13
ATOM     13  C2  9RB d   1     -24.365  -1.472  -0.136  0.00  0.00     0.129 A 
ATOM     14  C1  9RB d   1     -24.503  -2.774  -0.857  0.00  0.00     0.059 A 
ATOM     15  N   9RB d   1     -24.923  -2.389  -2.070  0.00  0.00    -0.276 N 
ATOM     16  N4  9RB d   1     -25.084  -0.996  -2.219  0.00  0.00    -0.175 NA
ATOM     17  C12 9RB d   1     -24.754  -0.385  -1.060  0.00  0.00     0.083 A 
BRANCH  14  18
ATOM     18  C13 9RB d   1     -24.249  -4.210  -0.464  0.00  0.00    -0.034 C 
ATOM     19  H7  9RB d   1     -23.913  -4.250   0.583  0.00  0.00     0.035 H 
ATOM     20  H8  9RB d   1     -23.472  -4.636  -1.115  0.00  0.00     0.035 H 
ATOM     21  H9  9RB d   1     -25.177  -4.790  -0.573  0.00  0.00     0.035 H 
ENDBRANCH  14  18
BRANCH  15  22
ATOM     22  C   9RB d   1     -25.259  -3.155  -3.298  0.00  0.00     0.003 C 
ATOM     23  H15 9RB d   1     -25.568  -2.459  -4.091  0.00  0.00     0.059 H 
ATOM     24  H16 9RB d   1     -26.082  -3.853  -3.082  0.00  0.00     0.059 H 
ATOM     25  H17 9RB d   1     -24.376  -3.721  -3.630  0.00  0.00     0.059 H 
ENDBRANCH  15  22
BRANCH  17  26
ATOM     26  C14 9RB d   1     -24.771   1.085  -0.794  0.00  0.00    -0.032 C 
ATOM     27  H10 9RB d   1     -25.112   1.617  -1.695  0.00  0.00     0.035 H 
ATOM     28  H11 9RB d   1     -23.757   1.422  -0.531  0.00  0.00     0.035 H 
ATOM     29  H12 9RB d   1     -25.456   1.299   0.040  0.00  0.00     0.035 H 
ENDBRANCH  17  26
ENDBRANCH  12  13
ENDBRANCH   1  11
BRANCH   4  30
ATOM     30  C7  9RB d   1     -23.249   0.878   7.290  0.00  0.00    -0.068 C 
ATOM     31  C8  9RB d   1     -22.423   1.781   7.818  0.00  0.00    -0.015 C 
ATOM     32  H4  9RB d   1     -21.907   2.465   7.145  0.00  0.00     0.092 H 
ATOM     33  H3  9RB d   1     -23.777   0.206   7.966  0.00  0.00     0.085 H 
BRANCH  31  34
ATOM     34  C9  9RB d   1     -22.169   1.903   9.280  0.00  0.00     0.264 C 
ATOM     35  O   9RB d   1     -21.501   2.829   9.708  0.00  0.00    -0.266 OA
ATOM     36  N3  9RB d   1     -22.727   1.206  10.238  0.00  0.00    -0.234 N 
ATOM     37  H13 9RB d   1     -23.120   0.295  10.110  0.00  0.00     0.197 HD
BRANCH  36  38
ATOM     38  O1  9RB d   1     -22.710   1.883  11.460  0.00  0.00    -0.287 OA
ATOM     39  H14 9RB d   1     -21.811   2.062  11.709  0.00  0.00     0.244 HD
ENDBRANCH  36  38
ENDBRANCH  31  34
ENDBRANCH   4  30
TORSDOF 8
