REMARK  10 active torsions:
REMARK  status: ('A' for Active; 'I' for Inactive)
REMARK    1  A    between atoms: C19_11  and  C22_2 
REMARK    2  A    between atoms: O05_5  and  C01_4 
REMARK    3  A    between atoms: C06_6  and  O05_5 
REMARK    4  A    between atoms: O18_10  and  C16_9 
REMARK    5  A    between atoms: O18_10  and  C19_11 
REMARK    6  A    between atoms: C39_18  and  N41_19 
REMARK    7  A    between atoms: N41_19  and  C43_20 
REMARK    8  A    between atoms: C47_23  and  C48_24 
REMARK    9  A    between atoms: C54_28  and  C55_29 
REMARK   10  A    between atoms: C64_33  and  C65_34 
ROOT
ATOM      1  C13 6XX d   1     -32.552  41.731  13.592  0.00  0.00     0.107 C 
ATOM      2  C06 6XX d   1     -30.336  42.463  15.283  0.00  0.00     0.083 C 
ATOM      3  C08 6XX d   1     -31.716  42.109  15.828  0.00  0.00     0.107 C 
ATOM      4  N11 6XX d   1     -32.378  41.165  14.929  0.00  0.00    -0.070 N 
ATOM      5  C16 6XX d   1     -31.205  42.121  12.998  0.00  0.00     0.083 C 
ATOM      6  C39 6XX d   1     -30.456  43.082  13.903  0.00  0.00     0.064 C 
ATOM      7  H1  6XX d   1     -33.191  42.624  13.657  0.00  0.00     0.079 H 
ATOM      8  H2  6XX d   1     -33.031  40.984  12.942  0.00  0.00     0.079 H 
ATOM      9  H9  6XX d   1     -29.741  41.541  15.209  0.00  0.00     0.089 H 
ATOM     10  H10 6XX d   1     -32.322  43.023  15.908  0.00  0.00     0.079 H 
ATOM     11  H11 6XX d   1     -31.609  41.652  16.823  0.00  0.00     0.079 H 
ATOM     12  H12 6XX d   1     -31.818  40.330  14.861  0.00  0.00     0.277 HD
ATOM     13  H13 6XX d   1     -33.283  40.933  15.307  0.00  0.00     0.277 HD
ATOM     14  H14 6XX d   1     -30.602  41.209  12.876  0.00  0.00     0.089 H 
ATOM     15  H23 6XX d   1     -31.006  44.032  13.969  0.00  0.00     0.080 H 
ENDROOT
BRANCH   6  16
ATOM     16  N41 6XX d   1     -29.129  43.326  13.373  0.00  0.00    -0.363 N 
ATOM     17  H24 6XX d   1     -28.390  42.660  13.638  0.00  0.00     0.161 HD
BRANCH  16  18
ATOM     18  C43 6XX d   1     -28.774  44.344  12.566  0.00  0.00     0.151 A 
ATOM     19  N44 6XX d   1     -29.702  45.300  12.322  0.00  0.00    -0.240 NA
ATOM     20  C45 6XX d   1     -29.394  46.337  11.534  0.00  0.00     0.016 A 
ATOM     21  C47 6XX d   1     -28.177  46.532  10.901  0.00  0.00     0.006 A 
ATOM     22  H25 6XX d   1     -30.161  47.087  11.378  0.00  0.00     0.116 H 
ATOM     23  C61 6XX d   1     -27.176  45.574  11.135  0.00  0.00     0.008 A 
ATOM     24  C62 6XX d   1     -25.854  45.617  10.565  0.00  0.00    -0.059 A 
ATOM     25  C73 6XX d   1     -27.493  44.487  11.968  0.00  0.00     0.092 A 
ATOM     26  C64 6XX d   1     -24.932  44.662  10.816  0.00  0.00     0.007 A 
ATOM     27  H32 6XX d   1     -25.589  46.446   9.911  0.00  0.00     0.086 H 
ATOM     28  C69 6XX d   1     -25.263  43.544  11.684  0.00  0.00     0.252 A 
ATOM     29  O70 6XX d   1     -24.495  42.628  11.973  0.00  0.00    -0.268 OA
ATOM     30  N71 6XX d   1     -26.517  43.530  12.184  0.00  0.00    -0.319 N 
ATOM     31  H36 6XX d   1     -26.764  42.755  12.765  0.00  0.00     0.169 HD
BRANCH  21  32
ATOM     32  C48 6XX d   1     -27.949  47.754  10.077  0.00  0.00    -0.005 A 
ATOM     33  C49 6XX d   1     -26.907  48.626  10.369  0.00  0.00     0.013 A 
ATOM     34  N51 6XX d   1     -26.656  49.744   9.681  0.00  0.00    -0.272 NA
ATOM     35  H26 6XX d   1     -26.259  48.385  11.204  0.00  0.00     0.116 H 
ATOM     36  C52 6XX d   1     -27.476  50.046   8.669  0.00  0.00     0.007 A 
ATOM     37  C54 6XX d   1     -28.559  49.269   8.294  0.00  0.00    -0.044 A 
ATOM     38  H27 6XX d   1     -27.281  50.953   8.109  0.00  0.00     0.115 H 
ATOM     39  C59 6XX d   1     -28.788  48.114   9.027  0.00  0.00    -0.064 A 
ATOM     40  H31 6XX d   1     -29.633  47.482   8.778  0.00  0.00     0.085 H 
BRANCH  37  41
ATOM     41  C55 6XX d   1     -29.452  49.665   7.143  0.00  0.00    -0.050 C 
ATOM     42  H28 6XX d   1     -30.244  48.912   7.018  0.00  0.00     0.033 H 
ATOM     43  H29 6XX d   1     -28.856  49.726   6.221  0.00  0.00     0.033 H 
ATOM     44  H30 6XX d   1     -29.906  50.645   7.352  0.00  0.00     0.033 H 
ENDBRANCH  37  41
ENDBRANCH  21  32
BRANCH  26  45
ATOM     45  C65 6XX d   1     -23.556  44.728  10.202  0.00  0.00    -0.046 C 
ATOM     46  H33 6XX d   1     -23.476  45.631   9.579  0.00  0.00     0.033 H 
ATOM     47  H34 6XX d   1     -23.389  43.837   9.579  0.00  0.00     0.033 H 
ATOM     48  H35 6XX d   1     -22.800  44.765  11.000  0.00  0.00     0.033 H 
ENDBRANCH  26  45
ENDBRANCH  16  18
ENDBRANCH   6  16
BRANCH   2  49
ATOM     49  O05 6XX d   1     -29.663  43.377  16.155  0.00  0.00    -0.387 OA
BRANCH  49  50
ATOM     50  C01 6XX d   1     -29.115  42.773  17.326  0.00  0.00     0.005 C 
ATOM     51  H6  6XX d   1     -28.619  43.541  17.937  0.00  0.00     0.066 H 
ATOM     52  H7  6XX d   1     -28.382  42.007  17.034  0.00  0.00     0.066 H 
ATOM     53  H8  6XX d   1     -29.922  42.306  17.909  0.00  0.00     0.066 H 
ENDBRANCH  49  50
ENDBRANCH   2  49
BRANCH   5  54
ATOM     54  O18 6XX d   1     -31.386  42.731  11.718  0.00  0.00    -0.382 OA
BRANCH  54  55
ATOM     55  C19 6XX d   1     -31.552  41.818  10.630  0.00  0.00     0.024 C 
ATOM     56  H15 6XX d   1     -30.788  41.030  10.698  0.00  0.00     0.074 H 
ATOM     57  H16 6XX d   1     -32.552  41.364  10.687  0.00  0.00     0.074 H 
BRANCH  55  58
ATOM     58  C22 6XX d   1     -31.407  42.540   9.315  0.00  0.00    -0.033 C 
ATOM     59  C24 6XX d   1     -30.025  43.174   9.193  0.00  0.00    -0.054 C 
ATOM     60  C27 6XX d   1     -29.837  43.878   7.849  0.00  0.00    -0.004 C 
ATOM     61  H4  6XX d   1     -29.263  42.387   9.292  0.00  0.00     0.034 H 
ATOM     62  H5  6XX d   1     -29.899  43.910  10.001  0.00  0.00     0.034 H 
ATOM     63  C30 6XX d   1     -30.093  42.912   6.733  0.00  0.00     0.243 C 
ATOM     64  H17 6XX d   1     -28.807  44.257   7.776  0.00  0.00     0.041 H 
ATOM     65  H18 6XX d   1     -30.543  44.718   7.774  0.00  0.00     0.041 H 
ATOM     66  F31 6XX d   1     -29.964  43.558   5.530  0.00  0.00    -0.206 F 
ATOM     67  F32 6XX d   1     -29.104  41.959   6.716  0.00  0.00    -0.206 F 
ATOM     68  C33 6XX d   1     -31.430  42.240   6.797  0.00  0.00    -0.004 C 
ATOM     69  C36 6XX d   1     -31.625  41.568   8.157  0.00  0.00    -0.054 C 
ATOM     70  H19 6XX d   1     -31.491  41.479   6.005  0.00  0.00     0.041 H 
ATOM     71  H20 6XX d   1     -32.220  42.990   6.647  0.00  0.00     0.041 H 
ATOM     72  H21 6XX d   1     -32.650  41.173   8.214  0.00  0.00     0.034 H 
ATOM     73  H22 6XX d   1     -30.907  40.740   8.249  0.00  0.00     0.034 H 
ATOM     74  H3  6XX d   1     -32.167  43.334   9.263  0.00  0.00     0.043 H 
ENDBRANCH  55  58
ENDBRANCH  54  55
ENDBRANCH   5  54
TORSDOF 10
