REMARK  10 active torsions:
REMARK  status: ('A' for Active; 'I' for Inactive)
REMARK    1  A    between atoms: C19_11  and  C22_2 
REMARK    2  A    between atoms: O05_5  and  C01_4 
REMARK    3  A    between atoms: C06_6  and  O05_5 
REMARK    4  A    between atoms: O18_10  and  C16_9 
REMARK    5  A    between atoms: O18_10  and  C19_11 
REMARK    6  A    between atoms: C39_18  and  N41_19 
REMARK    7  A    between atoms: N41_19  and  C43_20 
REMARK    8  A    between atoms: C47_23  and  C48_24 
REMARK    9  A    between atoms: C54_28  and  C55_29 
REMARK   10  A    between atoms: C64_33  and  C65_34 
ROOT
ATOM      1  C13 6XX d   1     -23.569  -4.429   0.542  0.00  0.00     0.107 C 
ATOM      2  C06 6XX d   1     -25.865  -6.269   0.736  0.00  0.00     0.083 C 
ATOM      3  C08 6XX d   1     -24.780  -6.322  -0.330  0.00  0.00     0.107 C 
ATOM      4  N11 6XX d   1     -24.265  -4.989  -0.617  0.00  0.00    -0.070 N 
ATOM      5  C16 6XX d   1     -24.586  -4.268   1.661  0.00  0.00     0.083 C 
ATOM      6  C39 6XX d   1     -25.383  -5.525   1.973  0.00  0.00     0.064 C 
ATOM      7  H1  6XX d   1     -23.139  -3.450   0.283  0.00  0.00     0.079 H 
ATOM      8  H2  6XX d   1     -22.766  -5.110   0.861  0.00  0.00     0.079 H 
ATOM      9  H9  6XX d   1     -26.144  -7.296   1.015  0.00  0.00     0.089 H 
ATOM     10  H10 6XX d   1     -25.201  -6.751  -1.251  0.00  0.00     0.079 H 
ATOM     11  H11 6XX d   1     -23.956  -6.957   0.027  0.00  0.00     0.079 H 
ATOM     12  H12 6XX d   1     -23.622  -5.045  -1.391  0.00  0.00     0.277 HD
ATOM     13  H13 6XX d   1     -25.034  -4.385  -0.862  0.00  0.00     0.277 HD
ATOM     14  H14 6XX d   1     -24.097  -3.891   2.572  0.00  0.00     0.089 H 
ATOM     15  H23 6XX d   1     -26.276  -5.200   2.528  0.00  0.00     0.080 H 
ENDROOT
BRANCH   6  16
ATOM     16  N41 6XX d   1     -24.653  -6.450   2.822  0.00  0.00    -0.363 N 
ATOM     17  H24 6XX d   1     -24.205  -7.263   2.377  0.00  0.00     0.161 HD
BRANCH  16  18
ATOM     18  C43 6XX d   1     -24.526  -6.310   4.155  0.00  0.00     0.151 A 
ATOM     19  N44 6XX d   1     -25.277  -5.341   4.751  0.00  0.00    -0.240 NA
ATOM     20  C45 6XX d   1     -25.186  -5.146   6.070  0.00  0.00     0.016 A 
ATOM     21  C47 6XX d   1     -24.381  -5.871   6.932  0.00  0.00     0.006 A 
ATOM     22  H25 6XX d   1     -25.791  -4.356   6.500  0.00  0.00     0.116 H 
ATOM     23  C61 6XX d   1     -23.573  -6.872   6.365  0.00  0.00     0.008 A 
ATOM     24  C62 6XX d   1     -22.671  -7.707   7.113  0.00  0.00    -0.059 A 
ATOM     25  C73 6XX d   1     -23.656  -7.099   4.980  0.00  0.00     0.092 A 
ATOM     26  C64 6XX d   1     -21.936  -8.687   6.540  0.00  0.00     0.007 A 
ATOM     27  H32 6XX d   1     -22.576  -7.543   8.185  0.00  0.00     0.086 H 
ATOM     28  C69 6XX d   1     -22.012  -8.911   5.096  0.00  0.00     0.252 A 
ATOM     29  O70 6XX d   1     -21.389  -9.783   4.490  0.00  0.00    -0.268 OA
ATOM     30  N71 6XX d   1     -22.879  -8.107   4.423  0.00  0.00    -0.319 N 
ATOM     31  H36 6XX d   1     -22.965  -8.255   3.438  0.00  0.00     0.169 HD
BRANCH  21  32
ATOM     32  C48 6XX d   1     -24.374  -5.548   8.391  0.00  0.00    -0.005 A 
ATOM     33  C49 6XX d   1     -24.618  -6.496   9.382  0.00  0.00     0.013 A 
ATOM     34  N51 6XX d   1     -24.641  -6.215  10.694  0.00  0.00    -0.272 NA
ATOM     35  H26 6XX d   1     -24.800  -7.520   9.076  0.00  0.00     0.116 H 
ATOM     36  C52 6XX d   1     -24.420  -4.943  11.055  0.00  0.00     0.007 A 
ATOM     37  C54 6XX d   1     -24.174  -3.916  10.157  0.00  0.00    -0.044 A 
ATOM     38  H27 6XX d   1     -24.434  -4.703  12.112  0.00  0.00     0.115 H 
ATOM     39  C59 6XX d   1     -24.160  -4.244   8.813  0.00  0.00    -0.064 A 
ATOM     40  H31 6XX d   1     -23.979  -3.469   8.077  0.00  0.00     0.085 H 
BRANCH  37  41
ATOM     41  C55 6XX d   1     -23.920  -2.504  10.619  0.00  0.00    -0.050 C 
ATOM     42  H28 6XX d   1     -23.750  -1.857   9.745  0.00  0.00     0.033 H 
ATOM     43  H29 6XX d   1     -23.032  -2.485  11.268  0.00  0.00     0.033 H 
ATOM     44  H30 6XX d   1     -24.793  -2.139  11.181  0.00  0.00     0.033 H 
ENDBRANCH  37  41
ENDBRANCH  21  32
BRANCH  26  45
ATOM     45  C65 6XX d   1     -21.002  -9.535   7.363  0.00  0.00    -0.046 C 
ATOM     46  H33 6XX d   1     -21.070  -9.236   8.419  0.00  0.00     0.033 H 
ATOM     47  H34 6XX d   1     -19.970  -9.395   7.008  0.00  0.00     0.033 H 
ATOM     48  H35 6XX d   1     -21.284 -10.594   7.263  0.00  0.00     0.033 H 
ENDBRANCH  26  45
ENDBRANCH  16  18
ENDBRANCH   6  16
BRANCH   2  49
ATOM     49  O05 6XX d   1     -27.014  -5.581   0.219  0.00  0.00    -0.387 OA
BRANCH  49  50
ATOM     50  C01 6XX d   1     -27.803  -6.349  -0.681  0.00  0.00     0.005 C 
ATOM     51  H6  6XX d   1     -28.657  -5.747  -1.025  0.00  0.00     0.066 H 
ATOM     52  H7  6XX d   1     -28.172  -7.250  -0.168  0.00  0.00     0.066 H 
ATOM     53  H8  6XX d   1     -27.190  -6.644  -1.546  0.00  0.00     0.066 H 
ENDBRANCH  49  50
ENDBRANCH   2  49
BRANCH   5  54
ATOM     54  O18 6XX d   1     -25.545  -3.345   1.136  0.00  0.00    -0.382 OA
BRANCH  54  55
ATOM     55  C19 6XX d   1     -25.844  -2.209   1.939  0.00  0.00     0.024 C 
ATOM     56  H15 6XX d   1     -24.960  -1.948   2.540  0.00  0.00     0.074 H 
ATOM     57  H16 6XX d   1     -26.107  -1.363   1.286  0.00  0.00     0.074 H 
BRANCH  55  58
ATOM     58  C22 6XX d   1     -26.997  -2.503   2.857  0.00  0.00    -0.033 C 
ATOM     59  C24 6XX d   1     -27.415  -1.266   3.625  0.00  0.00    -0.054 C 
ATOM     60  C27 6XX d   1     -28.514  -1.598   4.629  0.00  0.00    -0.004 C 
ATOM     61  H4  6XX d   1     -27.789  -0.511   2.917  0.00  0.00     0.034 H 
ATOM     62  H5  6XX d   1     -26.544  -0.864   4.163  0.00  0.00     0.034 H 
ATOM     63  C30 6XX d   1     -29.684  -2.319   4.013  0.00  0.00     0.243 C 
ATOM     64  H17 6XX d   1     -28.877  -0.659   5.073  0.00  0.00     0.041 H 
ATOM     65  H18 6XX d   1     -28.086  -2.235   5.417  0.00  0.00     0.041 H 
ATOM     66  F31 6XX d   1     -30.529  -2.759   4.999  0.00  0.00    -0.206 F 
ATOM     67  F32 6XX d   1     -30.440  -1.443   3.270  0.00  0.00    -0.206 F 
ATOM     68  C33 6XX d   1     -29.251  -3.474   3.157  0.00  0.00    -0.004 C 
ATOM     69  C36 6XX d   1     -28.206  -3.042   2.132  0.00  0.00    -0.054 C 
ATOM     70  H19 6XX d   1     -30.127  -3.876   2.628  0.00  0.00     0.041 H 
ATOM     71  H20 6XX d   1     -28.820  -4.255   3.800  0.00  0.00     0.041 H 
ATOM     72  H21 6XX d   1     -27.913  -3.906   1.518  0.00  0.00     0.034 H 
ATOM     73  H22 6XX d   1     -28.627  -2.259   1.484  0.00  0.00     0.034 H 
ATOM     74  H3  6XX d   1     -26.662  -3.264   3.577  0.00  0.00     0.043 H 
ENDBRANCH  55  58
ENDBRANCH  54  55
ENDBRANCH   5  54
TORSDOF 10
