REMARK  8 active torsions:
REMARK  status: ('A' for Active; 'I' for Inactive)
REMARK    1  A    between atoms: N14_11  and  C13_3 
REMARK    2  A    between atoms: C05_7  and  C01_6 
REMARK    3  A    between atoms: C09_10  and  C57_30 
REMARK    4  A    between atoms: C16_12  and  N14_11 
REMARK    5  A    between atoms: C29_15  and  O31_16 
REMARK    6  A    between atoms: O31_16  and  C32_17 
REMARK    7  A    between atoms: C32_17  and  C35_18 
REMARK    8  A    between atoms: C63_34  and  N64_35 
ROOT
ATOM      1  C21 6XW d   1      20.538  52.055  -5.681  0.00  0.00     0.084 C 
ATOM      2  C26 6XW d   1      22.479  50.938  -6.556  0.00  0.00     0.107 C 
ATOM      3  C16 6XW d   1      22.774  52.762  -4.850  0.00  0.00     0.039 C 
ATOM      4  C18 6XW d   1      21.342  53.225  -5.152  0.00  0.00    -0.021 C 
ATOM      5  N24 6XW d   1      21.172  51.497  -6.882  0.00  0.00    -0.073 N 
ATOM      6  C29 6XW d   1      23.375  52.059  -6.061  0.00  0.00     0.081 C 
ATOM      7  H2  6XW d   1      19.523  52.397  -5.933  0.00  0.00     0.075 H 
ATOM      8  H3  6XW d   1      20.480  51.276  -4.907  0.00  0.00     0.075 H 
ATOM      9  H4  6XW d   1      22.920  50.480  -7.453  0.00  0.00     0.079 H 
ATOM     10  H5  6XW d   1      22.371  50.176  -5.770  0.00  0.00     0.079 H 
ATOM     11  H11 6XW d   1      23.376  53.665  -4.669  0.00  0.00     0.076 H 
ATOM     12  H12 6XW d   1      20.876  53.604  -4.230  0.00  0.00     0.038 H 
ATOM     13  H13 6XW d   1      21.366  54.025  -5.906  0.00  0.00     0.038 H 
ATOM     14  H14 6XW d   1      21.285  52.227  -7.567  0.00  0.00     0.277 HD
ATOM     15  H15 6XW d   1      20.585  50.770  -7.260  0.00  0.00     0.277 HD
ATOM     16  H16 6XW d   1      24.374  51.671  -5.812  0.00  0.00     0.089 H 
ENDROOT
BRANCH   3  17
ATOM     17  N14 6XW d   1      22.851  51.955  -3.634  0.00  0.00    -0.366 N 
ATOM     18  H10 6XW d   1      21.988  51.539  -3.256  0.00  0.00     0.161 HD
BRANCH  17  19
ATOM     19  C13 6XW d   1      24.019  51.737  -2.990  0.00  0.00     0.151 A 
ATOM     20  N12 6XW d   1      25.086  52.450  -3.404  0.00  0.00    -0.240 NA
ATOM     21  C10 6XW d   1      26.277  52.284  -2.818  0.00  0.00     0.016 A 
ATOM     22  C09 6XW d   1      26.530  51.417  -1.767  0.00  0.00     0.006 A 
ATOM     23  H1  6XW d   1      27.107  52.872  -3.193  0.00  0.00     0.116 H 
ATOM     24  C08 6XW d   1      25.441  50.653  -1.309  0.00  0.00     0.008 A 
ATOM     25  C06 6XW d   1      25.563  49.708  -0.226  0.00  0.00    -0.059 A 
ATOM     26  C52 6XW d   1      24.181  50.818  -1.918  0.00  0.00     0.092 A 
ATOM     27  C05 6XW d   1      24.490  49.010   0.182  0.00  0.00     0.007 A 
ATOM     28  H9  6XW d   1      26.526  49.560   0.261  0.00  0.00     0.086 H 
ATOM     29  C55 6XW d   1      23.188  49.181  -0.450  0.00  0.00     0.252 A 
ATOM     30  N53 6XW d   1      23.105  50.074  -1.466  0.00  0.00    -0.319 N 
ATOM     31  O56 6XW d   1      22.176  48.570  -0.117  0.00  0.00    -0.268 OA
ATOM     32  H28 6XW d   1      22.220  50.202  -1.913  0.00  0.00     0.169 HD
BRANCH  22  33
ATOM     33  C57 6XW d   1      27.909  51.311  -1.206  0.00  0.00    -0.004 A 
ATOM     34  C58 6XW d   1      29.001  51.105  -2.040  0.00  0.00     0.013 A 
ATOM     35  N60 6XW d   1      30.264  51.015  -1.611  0.00  0.00    -0.270 NA
ATOM     36  H29 6XW d   1      28.818  51.011  -3.104  0.00  0.00     0.116 H 
ATOM     37  C61 6XW d   1      30.482  51.133  -0.297  0.00  0.00     0.027 A 
ATOM     38  C63 6XW d   1      29.469  51.346   0.642  0.00  0.00     0.044 A 
ATOM     39  H30 6XW d   1      31.503  51.059   0.060  0.00  0.00     0.118 H 
ATOM     40  C67 6XW d   1      28.170  51.439   0.155  0.00  0.00    -0.044 A 
ATOM     41  H33 6XW d   1      27.351  51.613   0.843  0.00  0.00     0.088 H 
BRANCH  38  42
ATOM     42  N64 6XW d   1      29.731  51.460   1.990  0.00  0.00    -0.398 N 
ATOM     43  H31 6XW d   1      28.959  51.617   2.653  0.00  0.00     0.156 HD
ATOM     44  H32 6XW d   1      30.699  51.388   2.334  0.00  0.00     0.156 HD
ENDBRANCH  38  42
ENDBRANCH  22  33
BRANCH  27  45
ATOM     45  C01 6XW d   1      24.622  48.020   1.309  0.00  0.00    -0.046 C 
ATOM     46  H6  6XW d   1      25.661  48.013   1.671  0.00  0.00     0.033 H 
ATOM     47  H7  6XW d   1      24.353  47.016   0.949  0.00  0.00     0.033 H 
ATOM     48  H8  6XW d   1      23.949  48.307   2.130  0.00  0.00     0.033 H 
ENDBRANCH  27  45
ENDBRANCH  17  19
ENDBRANCH   3  17
BRANCH   6  49
ATOM     49  O31 6XW d   1      23.440  53.000  -7.136  0.00  0.00    -0.382 OA
BRANCH  49  50
ATOM     50  C32 6XW d   1      24.674  53.701  -7.287  0.00  0.00     0.024 C 
ATOM     51  H17 6XW d   1      25.515  53.029  -7.061  0.00  0.00     0.074 H 
ATOM     52  H18 6XW d   1      24.700  54.562  -6.603  0.00  0.00     0.074 H 
BRANCH  50  53
ATOM     53  C35 6XW d   1      24.770  54.179  -8.717  0.00  0.00    -0.032 C 
ATOM     54  C37 6XW d   1      25.355  55.585  -8.783  0.00  0.00    -0.048 C 
ATOM     55  C40 6XW d   1      25.342  56.164 -10.195  0.00  0.00     0.029 C 
ATOM     56  H20 6XW d   1      26.395  55.550  -8.427  0.00  0.00     0.035 H 
ATOM     57  H21 6XW d   1      24.765  56.243  -8.128  0.00  0.00     0.035 H 
ATOM     58  S43 6XW d   1      26.335  55.191 -11.281  0.00  0.00     0.144 S 
ATOM     59  H22 6XW d   1      25.737  57.190 -10.168  0.00  0.00     0.056 H 
ATOM     60  H23 6XW d   1      24.308  56.179 -10.569  0.00  0.00     0.056 H 
ATOM     61  O44 6XW d   1      27.692  55.195 -10.806  0.00  0.00    -0.228 OA
ATOM     62  O45 6XW d   1      26.094  55.603 -12.636  0.00  0.00    -0.228 OA
ATOM     63  C46 6XW d   1      25.642  53.589 -11.031  0.00  0.00     0.029 C 
ATOM     64  C49 6XW d   1      25.630  53.229  -9.549  0.00  0.00    -0.048 C 
ATOM     65  H24 6XW d   1      26.243  52.847 -11.577  0.00  0.00     0.056 H 
ATOM     66  H25 6XW d   1      24.610  53.579 -11.413  0.00  0.00     0.056 H 
ATOM     67  H26 6XW d   1      25.235  52.209  -9.438  0.00  0.00     0.035 H 
ATOM     68  H27 6XW d   1      26.662  53.266  -9.170  0.00  0.00     0.035 H 
ATOM     69  H19 6XW d   1      23.756  54.200  -9.144  0.00  0.00     0.043 H 
ENDBRANCH  50  53
ENDBRANCH  49  50
ENDBRANCH   6  49
TORSDOF 8
