REMARK  5 active torsions:
REMARK  status: ('A' for Active; 'I' for Inactive)
REMARK    1  A    between atoms: CBB_6  and  N6_7 
REMARK    2  A    between atoms: N6_7  and  C6_8 
REMARK    3  A    between atoms: C2_16  and  N2_17 
REMARK    4  A    between atoms: N2_17  and  CAV_18 
REMARK    5  A    between atoms: CAW_23  and  NBC_24 
ROOT
ATOM      1  C6  AD5 d   1     -36.015 -17.971 -12.143  0.00  0.00     0.174 A 
ATOM      2  N1  AD5 d   1     -35.276 -17.518 -11.118  0.00  0.00    -0.043 NA
ATOM      3  C5  AD5 d   1     -36.133 -19.363 -12.317  0.00  0.00     0.129 A 
ATOM      4  N7  AD5 d   1     -36.807 -20.136 -13.256  0.00  0.00    -0.344 N 
ATOM      5  C8  AD5 d   1     -36.532 -21.367 -12.893  0.00  0.00     0.067 A 
ATOM      6  N9  AD5 d   1     -35.744 -21.454 -11.789  0.00  0.00    -0.222 NA
ATOM      7  C4  AD5 d   1     -35.477 -20.172 -11.409  0.00  0.00     0.200 A 
ATOM      8  N3  AD5 d   1     -34.727 -19.735 -10.370  0.00  0.00    -0.040 NA
ATOM      9  C2  AD5 d   1     -34.661 -18.392 -10.278  0.00  0.00     0.731 A 
ATOM     10  H13 AD5 d   1     -37.384 -19.818 -14.048  0.00  0.00     0.167 HD
ATOM     11  H14 AD5 d   1     -36.902 -22.240 -13.428  0.00  0.00     0.143 H 
ENDROOT
BRANCH   9  12
ATOM     12  N2  AD5 d   1     -33.902 -17.899  -9.260  0.00  0.00    -0.188 N 
ATOM     13  H15 AD5 d   1     -33.413 -18.611  -8.699  0.00  0.00     0.184 HD
BRANCH  12  14
ATOM     14  CAV AD5 d   1     -33.679 -16.563  -8.852  0.00  0.00     0.049 A 
ATOM     15  CAB AD5 d   1     -33.371 -16.361  -7.512  0.00  0.00    -0.054 A 
ATOM     16  CAD AD5 d   1     -33.148 -15.098  -7.035  0.00  0.00    -0.055 A 
ATOM     17  H16 AD5 d   1     -33.307 -17.209  -6.840  0.00  0.00     0.087 H 
ATOM     18  CAW AD5 d   1     -33.208 -13.985  -7.889  0.00  0.00     0.030 A 
ATOM     19  H17 AD5 d   1     -32.922 -14.955  -5.984  0.00  0.00     0.087 H 
ATOM     20  CAC AD5 d   1     -33.518 -14.199  -9.239  0.00  0.00    -0.055 A 
ATOM     21  CAA AD5 d   1     -33.741 -15.467  -9.711  0.00  0.00    -0.054 A 
ATOM     22  H19 AD5 d   1     -33.582 -13.355  -9.916  0.00  0.00     0.087 H 
ATOM     23  H18 AD5 d   1     -33.967 -15.618 -10.760  0.00  0.00     0.087 H 
BRANCH  18  24
ATOM     24  NBC AD5 d   1     -32.992 -12.691  -7.385  0.00  0.00    -0.377 N 
ATOM     25  CAM AD5 d   1     -33.987 -11.638  -7.536  0.00  0.00     0.015 C 
ATOM     26  CAI AD5 d   1     -33.313 -10.352  -7.945  0.00  0.00     0.034 C 
ATOM     27  H20 AD5 d   1     -34.508 -11.489  -6.579  0.00  0.00     0.067 H 
ATOM     28  H21 AD5 d   1     -34.714 -11.931  -8.308  0.00  0.00     0.067 H 
ATOM     29  OAU AD5 d   1     -32.272 -10.004  -7.039  0.00  0.00    -0.388 OA
ATOM     30  H22 AD5 d   1     -34.060  -9.545  -7.960  0.00  0.00     0.076 H 
ATOM     31  H23 AD5 d   1     -32.886 -10.475  -8.951  0.00  0.00     0.076 H 
ATOM     32  CAJ AD5 d   1     -31.261 -11.009  -7.036  0.00  0.00     0.034 C 
ATOM     33  CAN AD5 d   1     -31.802 -12.354  -6.612  0.00  0.00     0.015 C 
ATOM     34  H24 AD5 d   1     -30.465 -10.710  -6.338  0.00  0.00     0.076 H 
ATOM     35  H25 AD5 d   1     -30.845 -11.097  -8.050  0.00  0.00     0.076 H 
ATOM     36  H26 AD5 d   1     -31.033 -13.123  -6.778  0.00  0.00     0.067 H 
ATOM     37  H27 AD5 d   1     -32.062 -12.319  -5.544  0.00  0.00     0.067 H 
ENDBRANCH  18  24
ENDBRANCH  12  14
ENDBRANCH   9  12
BRANCH   1  38
ATOM     38  N6  AD5 d   1     -36.595 -17.059 -12.958  0.00  0.00    -0.368 N 
ATOM     39  H12 AD5 d   1     -37.184 -17.418 -13.723  0.00  0.00     0.161 HD
BRANCH  38  40
ATOM     40  CBB AD5 d   1     -36.457 -15.605 -12.846  0.00  0.00     0.011 C 
ATOM     41  CAK AD5 d   1     -37.573 -14.878 -13.564  0.00  0.00    -0.046 C 
ATOM     42  CAG AD5 d   1     -37.473 -13.381 -13.289  0.00  0.00    -0.063 C 
ATOM     43  H1  AD5 d   1     -37.489 -15.057 -14.646  0.00  0.00     0.035 H 
ATOM     44  H2  AD5 d   1     -38.543 -15.252 -13.204  0.00  0.00     0.035 H 
ATOM     45  CAF AD5 d   1     -36.145 -12.832 -13.772  0.00  0.00    -0.065 C 
ATOM     46  H3  AD5 d   1     -37.563 -13.206 -12.207  0.00  0.00     0.033 H 
ATOM     47  H4  AD5 d   1     -38.289 -12.863 -13.813  0.00  0.00     0.033 H 
ATOM     48  CAH AD5 d   1     -34.976 -13.610 -13.194  0.00  0.00    -0.063 C 
ATOM     49  H5  AD5 d   1     -36.060 -11.779 -13.464  0.00  0.00     0.033 H 
ATOM     50  H6  AD5 d   1     -36.109 -12.897 -14.870  0.00  0.00     0.033 H 
ATOM     51  CAL AD5 d   1     -35.127 -15.120 -13.390  0.00  0.00    -0.046 C 
ATOM     52  H7  AD5 d   1     -34.909 -13.399 -12.117  0.00  0.00     0.033 H 
ATOM     53  H8  AD5 d   1     -34.052 -13.280 -13.691  0.00  0.00     0.033 H 
ATOM     54  H9  AD5 d   1     -34.312 -15.635 -12.861  0.00  0.00     0.035 H 
ATOM     55  H10 AD5 d   1     -35.071 -15.351 -14.464  0.00  0.00     0.035 H 
ATOM     56  H11 AD5 d   1     -36.508 -15.346 -11.778  0.00  0.00     0.072 H 
ENDBRANCH  38  40
ENDBRANCH   1  38
TORSDOF 5
