REMARK  9 active torsions:
REMARK  status: ('A' for Active; 'I' for Inactive)
REMARK    1  A    between atoms: CAR_10  and  CAB_11 
REMARK       I    between atoms: CAB_11  and  NAC_13 
REMARK    2  A    between atoms: NAC_13  and  CAD_14 
REMARK    3  A    between atoms: NAC_13  and  CAH_18 
REMARK    4  A    between atoms: CAD_14  and  CAE_15 
REMARK    5  A    between atoms: CAE_15  and  OAF_16 
REMARK    6  A    between atoms: OAF_16  and  CAG_17 
REMARK    7  A    between atoms: CAH_18  and  CAI_19 
REMARK    8  A    between atoms: NAM_24  and  CAN_25 
REMARK    9  A    between atoms: CAN_25  and  CAO_26 
ROOT
ATOM      1  CAO 6YC d   1     -42.149  53.639  -7.929  0.00  0.00    -0.090 C 
ATOM      2  CAP 6YC d   1     -41.433  53.054  -7.299  0.00  0.00    -0.152 C 
ATOM      3  H29 6YC d   1     -40.757  52.502  -6.704  0.00  0.00     0.166 H 
ENDROOT
BRANCH   1   4
ATOM      4  CAN 6YC d   1     -43.080  54.385  -8.757  0.00  0.00     0.137 C 
ATOM      5  H27 6YC d   1     -43.349  55.319  -8.241  0.00  0.00     0.095 H 
ATOM      6  H28 6YC d   1     -42.596  54.622  -9.716  0.00  0.00     0.095 H 
BRANCH   4   7
ATOM      7  NAM 6YC d   1     -44.307  53.611  -9.018  0.00  0.00    -0.061 N 
ATOM      8  CAQ 6YC d   1     -44.003  52.215  -9.382  0.00  0.00     0.089 C 
ATOM      9  CAI 6YC d   1     -43.180  52.137 -10.650  0.00  0.00    -0.015 C 
ATOM     10  H18 6YC d   1     -43.440  51.747  -8.561  0.00  0.00     0.076 H 
ATOM     11  H19 6YC d   1     -44.947  51.672  -9.535  0.00  0.00     0.076 H 
ATOM     12  CAJ 6YC d   1     -43.954  52.815 -11.777  0.00  0.00    -0.057 C 
ATOM     13  H17 6YC d   1     -42.233  52.675 -10.497  0.00  0.00     0.045 H 
ATOM     14  CAK 6YC d   1     -44.246  54.249 -11.391  0.00  0.00    -0.042 C 
ATOM     15  H20 6YC d   1     -44.900  52.280 -11.947  0.00  0.00     0.033 H 
ATOM     16  H21 6YC d   1     -43.353  52.798 -12.698  0.00  0.00     0.033 H 
ATOM     17  CAL 6YC d   1     -45.058  54.250 -10.109  0.00  0.00     0.085 C 
ATOM     18  H22 6YC d   1     -44.818  54.739 -12.192  0.00  0.00     0.035 H 
ATOM     19  H23 6YC d   1     -43.301  54.789 -11.232  0.00  0.00     0.035 H 
ATOM     20  H24 6YC d   1     -45.995  53.698 -10.274  0.00  0.00     0.076 H 
ATOM     21  H25 6YC d   1     -45.289  55.288  -9.829  0.00  0.00     0.076 H 
ATOM     22  H26 6YC d   1     -44.872  53.611  -8.184  0.00  0.00     0.281 HD
BRANCH   9  23
ATOM     23  CAH 6YC d   1     -42.859  50.668 -10.992  0.00  0.00     0.003 C 
ATOM     24  H15 6YC d   1     -42.243  50.224 -10.197  0.00  0.00     0.065 H 
ATOM     25  H16 6YC d   1     -43.792  50.094 -11.097  0.00  0.00     0.065 H 
BRANCH  23  26
ATOM     26  NAC 6YC d   1     -42.120  50.661 -12.263  0.00  0.00    -0.346 N 
ATOM     27  CAB 6YC d   1     -40.848  51.119 -12.324  0.00  0.00     0.253 C 
ATOM     28  OAA 6YC d   1     -40.233  51.560 -11.349  0.00  0.00    -0.267 OA
BRANCH  27  29
ATOM     29  CAR 6YC d   1     -40.273  51.164 -13.594  0.00  0.00     0.033 A 
ATOM     30  CAU 6YC d   1     -39.651  50.076 -14.205  0.00  0.00    -0.057 A 
ATOM     31  CAV 6YC d   1     -39.114  50.224 -15.483  0.00  0.00    -0.025 A 
ATOM     32  H1  6YC d   1     -39.586  49.124 -13.691  0.00  0.00     0.086 H 
ATOM     33  CBA 6YC d   1     -38.502  49.139 -16.106  0.00  0.00    -0.072 A 
ATOM     34  CAW 6YC d   1     -39.183  51.452 -16.141  0.00  0.00    -0.026 A 
ATOM     35  CAZ 6YC d   1     -37.952  49.298 -17.371  0.00  0.00    -0.082 A 
ATOM     36  H2  6YC d   1     -38.455  48.178 -15.607  0.00  0.00     0.084 H 
ATOM     37  CAY 6YC d   1     -38.026  50.523 -18.031  0.00  0.00    -0.082 A 
ATOM     38  H3  6YC d   1     -37.459  48.460 -17.851  0.00  0.00     0.083 H 
ATOM     39  CAX 6YC d   1     -38.642  51.604 -17.413  0.00  0.00    -0.072 A 
ATOM     40  H4  6YC d   1     -37.604  50.632 -19.024  0.00  0.00     0.083 H 
ATOM     41  H5  6YC d   1     -38.701  52.561 -17.919  0.00  0.00     0.084 H 
ATOM     42  CAT 6YC d   1     -39.794  52.536 -15.530  0.00  0.00    -0.071 A 
ATOM     43  CAS 6YC d   1     -40.332  52.386 -14.259  0.00  0.00    -0.067 A 
ATOM     44  H6  6YC d   1     -39.851  53.491 -16.040  0.00  0.00     0.084 H 
ATOM     45  H7  6YC d   1     -40.806  53.233 -13.777  0.00  0.00     0.085 H 
ENDBRANCH  27  29
BRANCH  26  46
ATOM     46  CAD 6YC d   1     -42.862  50.153 -13.447  0.00  0.00     0.018 C 
ATOM     47  H8  6YC d   1     -42.150  49.699 -14.152  0.00  0.00     0.067 H 
ATOM     48  H9  6YC d   1     -43.379  50.991 -13.936  0.00  0.00     0.067 H 
BRANCH  46  49
ATOM     49  CAE 6YC d   1     -43.896  49.099 -13.026  0.00  0.00     0.034 C 
ATOM     50  H10 6YC d   1     -44.865  49.338 -13.489  0.00  0.00     0.076 H 
ATOM     51  H11 6YC d   1     -44.000  49.112 -11.931  0.00  0.00     0.076 H 
BRANCH  49  52
ATOM     52  OAF 6YC d   1     -43.485  47.789 -13.444  0.00  0.00    -0.394 OA
BRANCH  52  53
ATOM     53  CAG 6YC d   1     -42.388  47.313 -12.656  0.00  0.00     0.004 C 
ATOM     54  H12 6YC d   1     -42.097  46.309 -13.000  0.00  0.00     0.066 H 
ATOM     55  H13 6YC d   1     -42.689  47.265 -11.599  0.00  0.00     0.066 H 
ATOM     56  H14 6YC d   1     -41.535  47.999 -12.763  0.00  0.00     0.066 H 
ENDBRANCH  52  53
ENDBRANCH  49  52
ENDBRANCH  46  49
ENDBRANCH  26  46
ENDBRANCH  23  26
ENDBRANCH   9  23
ENDBRANCH   4   7
ENDBRANCH   1   4
TORSDOF 9
