REMARK  5 active torsions:
REMARK  status: ('A' for Active; 'I' for Inactive)
REMARK    1  A    between atoms: C11_2  and  C4_3 
REMARK    2  A    between atoms: C11_2  and  C13_13 
REMARK    3  A    between atoms: C1_8  and  S7_9 
REMARK    4  A    between atoms: S7_9  and  N10_11 
REMARK    5  A    between atoms: C13_13  and  N14_14 
ROOT
ATOM      1  O12 6YH d   1       5.835   8.071  -2.555  0.00  0.00    -0.291 OA
ATOM      2  C11 6YH d   1       6.542   7.097  -2.283  0.00  0.00     0.177 C 
ENDROOT
BRANCH   2   3
ATOM      3  C4  6YH d   1       6.016   5.975  -1.480  0.00  0.00     0.011 A 
ATOM      4  C3  6YH d   1       4.681   6.039  -1.090  0.00  0.00    -0.068 A 
ATOM      5  C2  6YH d   1       4.196   4.992  -0.294  0.00  0.00    -0.059 A 
ATOM      6  H1  6YH d   1       4.044   6.863  -1.389  0.00  0.00     0.085 H 
ATOM      7  C1  6YH d   1       4.982   3.913   0.060  0.00  0.00     0.079 A 
ATOM      8  H2  6YH d   1       3.171   5.030   0.055  0.00  0.00     0.085 H 
ATOM      9  C6  6YH d   1       6.343   3.906  -0.275  0.00  0.00    -0.059 A 
ATOM     10  C5  6YH d   1       6.836   4.930  -1.052  0.00  0.00    -0.068 A 
ATOM     11  H4  6YH d   1       6.994   3.111   0.070  0.00  0.00     0.085 H 
ATOM     12  H3  6YH d   1       7.882   4.925  -1.337  0.00  0.00     0.085 H 
BRANCH   7  13
ATOM     13  S7  6YH d   1       4.310   2.588   1.018  0.00  0.00     0.256 S 
ATOM     14  O9  6YH d   1       4.906   2.767   2.342  0.00  0.00    -0.201 OA
ATOM     15  O8  6YH d   1       2.907   2.687   0.912  0.00  0.00    -0.201 OA
BRANCH  13  16
ATOM     16  N10 6YH d   1       4.822   1.217   0.369  0.00  0.00    -0.324 N 
ATOM     17  H5  6YH d   1       4.549   0.342   0.769  0.00  0.00     0.169 HD
ATOM     18  H6  6YH d   1       5.414   1.236  -0.436  0.00  0.00     0.169 HD
ENDBRANCH  13  16
ENDBRANCH   7  13
ENDBRANCH   2   3
BRANCH   2  19
ATOM     19  C13 6YH d   1       8.038   7.106  -2.415  0.00  0.00     0.060 C 
ATOM     20  H7  6YH d   1       8.371   6.225  -2.983  0.00  0.00     0.077 H 
ATOM     21  H8  6YH d   1       8.504   7.098  -1.419  0.00  0.00     0.077 H 
BRANCH  19  22
ATOM     22  N14 6YH d   1       8.407   8.340  -3.135  0.00  0.00    -0.332 N 
ATOM     23  C18 6YH d   1       8.674   9.513  -2.480  0.00  0.00     0.064 A 
ATOM     24  C20 6YH d   1       8.744   9.769  -1.166  0.00  0.00    -0.055 A 
ATOM     25  C19 6YH d   1       8.951  10.471  -3.402  0.00  0.00     0.085 A 
ATOM     26  C21 6YH d   1       9.105  11.043  -0.750  0.00  0.00    -0.081 A 
ATOM     27  H9  6YH d   1       8.523   8.994  -0.441  0.00  0.00     0.087 H 
ATOM     28  C22 6YH d   1       9.332  12.051  -1.673  0.00  0.00    -0.081 A 
ATOM     29  H10 6YH d   1       9.210  11.252   0.308  0.00  0.00     0.083 H 
ATOM     30  C23 6YH d   1       9.279  11.796  -3.030  0.00  0.00    -0.053 A 
ATOM     31  H11 6YH d   1       9.554  13.054  -1.326  0.00  0.00     0.083 H 
ATOM     32  H12 6YH d   1       9.477  12.566  -3.767  0.00  0.00     0.087 H 
ATOM     33  N17 6YH d   1       8.828   9.942  -4.643  0.00  0.00    -0.242 NA
ATOM     34  C16 6YH d   1       8.405   8.652  -4.440  0.00  0.00     0.067 C 
ATOM     35  H13 6YH d   1       8.107   7.970  -5.235  0.00  0.00     0.143 H 
ENDBRANCH  19  22
ENDBRANCH   2  19
TORSDOF 5
