REMARK  5 active torsions:
REMARK  status: ('A' for Active; 'I' for Inactive)
REMARK    1  A    between atoms: C11_2  and  C4_3 
REMARK    2  A    between atoms: C11_2  and  C13_13 
REMARK    3  A    between atoms: C1_8  and  S7_9 
REMARK    4  A    between atoms: S7_9  and  N10_11 
REMARK    5  A    between atoms: C13_13  and  N14_14 
ROOT
ATOM      1  O12 6YH d   1      27.604   7.522  11.045  0.00  0.00    -0.291 OA
ATOM      2  C11 6YH d   1      26.390   7.543  11.060  0.00  0.00     0.177 C 
ENDROOT
BRANCH   2   3
ATOM      3  C4  6YH d   1      25.703   6.261  10.842  0.00  0.00     0.011 A 
ATOM      4  C3  6YH d   1      24.305   6.177  10.856  0.00  0.00    -0.068 A 
ATOM      5  C2  6YH d   1      23.678   4.935  10.631  0.00  0.00    -0.059 A 
ATOM      6  H1  6YH d   1      23.708   7.063  11.039  0.00  0.00     0.085 H 
ATOM      7  C1  6YH d   1      24.454   3.883  10.291  0.00  0.00     0.079 A 
ATOM      8  H2  6YH d   1      22.604   4.827  10.728  0.00  0.00     0.085 H 
ATOM      9  C6  6YH d   1      25.870   3.920  10.247  0.00  0.00    -0.059 A 
ATOM     10  C5  6YH d   1      26.504   5.156  10.477  0.00  0.00    -0.068 A 
ATOM     11  H4  6YH d   1      26.447   3.025  10.043  0.00  0.00     0.085 H 
ATOM     12  H3  6YH d   1      27.579   5.257  10.377  0.00  0.00     0.085 H 
BRANCH   7  13
ATOM     13  S7  6YH d   1      23.583   2.354   9.939  0.00  0.00     0.256 S 
ATOM     14  O9  6YH d   1      22.897   2.496   8.602  0.00  0.00    -0.201 OA
ATOM     15  O8  6YH d   1      24.636   1.260   9.951  0.00  0.00    -0.201 OA
BRANCH  13  16
ATOM     16  N10 6YH d   1      22.604   2.146  11.129  0.00  0.00    -0.324 N 
ATOM     17  H5  6YH d   1      22.005   1.345  11.150  0.00  0.00     0.169 HD
ATOM     18  H6  6YH d   1      22.573   2.813  11.873  0.00  0.00     0.169 HD
ENDBRANCH  13  16
ENDBRANCH   7  13
ENDBRANCH   2   3
BRANCH   2  19
ATOM     19  C13 6YH d   1      25.607   8.830  11.182  0.00  0.00     0.060 C 
ATOM     20  H7  6YH d   1      24.954   8.753  12.064  0.00  0.00     0.077 H 
ATOM     21  H8  6YH d   1      24.991   8.945  10.278  0.00  0.00     0.077 H 
BRANCH  19  22
ATOM     22  N14 6YH d   1      26.443  10.044  11.330  0.00  0.00    -0.332 N 
ATOM     23  C18 6YH d   1      26.891  10.814  10.293  0.00  0.00     0.064 A 
ATOM     24  C20 6YH d   1      26.711  10.671   8.920  0.00  0.00    -0.055 A 
ATOM     25  C19 6YH d   1      27.628  11.872  10.817  0.00  0.00     0.085 A 
ATOM     26  C21 6YH d   1      27.269  11.656   8.061  0.00  0.00    -0.081 A 
ATOM     27  H9  6YH d   1      26.159   9.830   8.516  0.00  0.00     0.087 H 
ATOM     28  C22 6YH d   1      28.049  12.711   8.571  0.00  0.00    -0.081 A 
ATOM     29  H10 6YH d   1      27.091  11.594   6.994  0.00  0.00     0.083 H 
ATOM     30  C23 6YH d   1      28.228  12.836   9.961  0.00  0.00    -0.053 A 
ATOM     31  H11 6YH d   1      28.509  13.424   7.896  0.00  0.00     0.083 H 
ATOM     32  H12 6YH d   1      28.812  13.652  10.371  0.00  0.00     0.087 H 
ATOM     33  N17 6YH d   1      27.661  11.786  12.192  0.00  0.00    -0.242 NA
ATOM     34  C16 6YH d   1      26.921  10.655  12.476  0.00  0.00     0.067 A 
ATOM     35  H13 6YH d   1      26.735  10.287  13.484  0.00  0.00     0.143 H 
ENDBRANCH  19  22
ENDBRANCH   2  19
TORSDOF 5
