REMARK  5 active torsions:
REMARK  status: ('A' for Active; 'I' for Inactive)
REMARK    1  A    between atoms: C1_3  and  S7_4 
REMARK    2  A    between atoms: S7_4  and  N10_6 
REMARK    3  A    between atoms: C4_9  and  C11_12 
REMARK    4  A    between atoms: C11_12  and  C13_14 
REMARK    5  A    between atoms: C13_14  and  N14_15 
ROOT
ATOM      1  C11 6YQ d   1      27.295   7.077  10.719  0.00  0.00     0.177 C 
ATOM      2  O12 6YQ d   1      28.230   7.159   9.922  0.00  0.00    -0.291 OA
ENDROOT
BRANCH   1   3
ATOM      3  C4  6YQ d   1      26.388   5.908  10.556  0.00  0.00     0.013 A 
ATOM      4  C5  6YQ d   1      26.584   5.229   9.416  0.00  0.00    -0.047 A 
ATOM      5  C6  6YQ d   1      25.737   4.107   9.080  0.00  0.00     0.058 A 
ATOM      6  H3  6YQ d   1      27.381   5.523   8.743  0.00  0.00     0.087 H 
ATOM      7 CL1  6YQ d   1      26.000   3.255   7.610  0.00  0.00    -0.083 Cl
ATOM      8  C1  6YQ d   1      24.700   3.749  10.008  0.00  0.00     0.101 A 
ATOM      9  C2  6YQ d   1      24.530   4.492  11.243  0.00  0.00    -0.058 A 
ATOM     10  C3  6YQ d   1      25.377   5.606  11.488  0.00  0.00    -0.068 A 
ATOM     11  H5  6YQ d   1      23.773   4.203  11.963  0.00  0.00     0.086 H 
ATOM     12  H4  6YQ d   1      25.247   6.213  12.377  0.00  0.00     0.085 H 
BRANCH   8  13
ATOM     13  S7  6YQ d   1      23.678   2.295   9.731  0.00  0.00     0.258 S 
ATOM     14  O9  6YQ d   1      22.916   2.484   8.501  0.00  0.00    -0.201 OA
ATOM     15  O8  6YQ d   1      24.649   1.114   9.772  0.00  0.00    -0.201 OA
BRANCH  13  16
ATOM     16  N10 6YQ d   1      22.762   2.184  10.988  0.00  0.00    -0.324 N 
ATOM     17  H1  6YQ d   1      22.099   1.439  11.059  0.00  0.00     0.169 HD
ATOM     18  H2  6YQ d   1      22.838   2.858  11.723  0.00  0.00     0.169 HD
ENDBRANCH  13  16
ENDBRANCH   8  13
ENDBRANCH   1   3
BRANCH   1  19
ATOM     19  C13 6YQ d   1      26.904   8.139  11.694  0.00  0.00     0.060 C 
ATOM     20  H6  6YQ d   1      27.067   7.759  12.713  0.00  0.00     0.077 H 
ATOM     21  H7  6YQ d   1      25.837   8.369  11.555  0.00  0.00     0.077 H 
BRANCH  19  22
ATOM     22  N14 6YQ d   1      27.669   9.361  11.526  0.00  0.00    -0.332 N 
ATOM     23  C18 6YQ d   1      27.632  10.297  10.542  0.00  0.00     0.064 A 
ATOM     24  C20 6YQ d   1      26.807  10.448   9.398  0.00  0.00    -0.055 A 
ATOM     25  C19 6YQ d   1      28.620  11.234  10.822  0.00  0.00     0.085 A 
ATOM     26  C21 6YQ d   1      27.004  11.552   8.552  0.00  0.00    -0.081 A 
ATOM     27  H8  6YQ d   1      26.034   9.720   9.179  0.00  0.00     0.087 H 
ATOM     28  C22 6YQ d   1      27.999  12.510   8.836  0.00  0.00    -0.081 A 
ATOM     29  H9  6YQ d   1      26.384  11.669   7.671  0.00  0.00     0.083 H 
ATOM     30  C23 6YQ d   1      28.818  12.354   9.975  0.00  0.00    -0.053 A 
ATOM     31  H10 6YQ d   1      28.134  13.364   8.182  0.00  0.00     0.083 H 
ATOM     32  H11 6YQ d   1      29.589  13.082  10.200  0.00  0.00     0.087 H 
ATOM     33  N17 6YQ d   1      29.301  10.896  11.954  0.00  0.00    -0.242 NA
ATOM     34  C16 6YQ d   1      28.695   9.736  12.381  0.00  0.00     0.067 A 
ATOM     35  H12 6YQ d   1      28.984   9.184  13.274  0.00  0.00     0.143 H 
ENDBRANCH  19  22
ENDBRANCH   1  19
TORSDOF 5
