REMARK  5 active torsions:
REMARK  status: ('A' for Active; 'I' for Inactive)
REMARK    1  A    between atoms: C1_3  and  S7_4 
REMARK    2  A    between atoms: S7_4  and  N10_6 
REMARK    3  A    between atoms: C4_9  and  C11_12 
REMARK    4  A    between atoms: C11_12  and  C13_14 
REMARK    5  A    between atoms: C13_14  and  N14_15 
ROOT
ATOM      1  C11 6YQ d   1      -7.772   0.064  19.439  0.00  0.00     0.177 C 
ATOM      2  O12 6YQ d   1      -8.711  -0.073  20.226  0.00  0.00    -0.291 OA
ENDROOT
BRANCH   1   3
ATOM      3  C4  6YQ d   1      -7.302  -1.108  18.666  0.00  0.00     0.013 A 
ATOM      4  C5  6YQ d   1      -7.237  -2.381  19.216  0.00  0.00    -0.047 A 
ATOM      5  C6  6YQ d   1      -6.747  -3.466  18.461  0.00  0.00     0.058 A 
ATOM      6  H3  6YQ d   1      -7.566  -2.542  20.236  0.00  0.00     0.087 H 
ATOM      7 CL1  6YQ d   1      -6.674  -5.057  19.204  0.00  0.00    -0.083 Cl
ATOM      8  C1  6YQ d   1      -6.334  -3.308  17.116  0.00  0.00     0.101 A 
ATOM      9  C2  6YQ d   1      -6.414  -2.047  16.564  0.00  0.00    -0.058 A 
ATOM     10  C3  6YQ d   1      -6.879  -1.002  17.335  0.00  0.00    -0.068 A 
ATOM     11  H5  6YQ d   1      -6.115  -1.879  15.536  0.00  0.00     0.086 H 
ATOM     12  H4  6YQ d   1      -6.920  -0.021  16.875  0.00  0.00     0.085 H 
BRANCH   8  13
ATOM     13  S7  6YQ d   1      -5.667  -4.594  16.078  0.00  0.00     0.258 S 
ATOM     14  O9  6YQ d   1      -4.472  -5.325  16.568  0.00  0.00    -0.201 OA
ATOM     15  O8  6YQ d   1      -6.826  -5.358  15.609  0.00  0.00    -0.201 OA
BRANCH  13  16
ATOM     16  N10 6YQ d   1      -5.441  -3.827  14.421  0.00  0.00    -0.324 N 
ATOM     17  H1  6YQ d   1      -5.073  -4.369  13.665  0.00  0.00     0.169 HD
ATOM     18  H2  6YQ d   1      -5.686  -2.869  14.276  0.00  0.00     0.169 HD
ENDBRANCH  13  16
ENDBRANCH   8  13
ENDBRANCH   1   3
BRANCH   1  19
ATOM     19  C13 6YQ d   1      -7.074   1.427  19.307  0.00  0.00     0.060 C 
ATOM     20  H6  6YQ d   1      -7.407   1.908  18.375  0.00  0.00     0.077 H 
ATOM     21  H7  6YQ d   1      -5.986   1.267  19.269  0.00  0.00     0.077 H 
BRANCH  19  22
ATOM     22  N14 6YQ d   1      -7.390   2.329  20.456  0.00  0.00    -0.332 N 
ATOM     23  C18 6YQ d   1      -6.905   2.220  21.737  0.00  0.00     0.064 A 
ATOM     24  C20 6YQ d   1      -5.984   1.300  22.283  0.00  0.00    -0.055 A 
ATOM     25  C19 6YQ d   1      -7.460   3.230  22.508  0.00  0.00     0.085 A 
ATOM     26  C21 6YQ d   1      -5.678   1.437  23.668  0.00  0.00    -0.081 A 
ATOM     27  H8  6YQ d   1      -5.530   0.525  21.676  0.00  0.00     0.087 H 
ATOM     28  C22 6YQ d   1      -6.249   2.488  24.465  0.00  0.00    -0.081 A 
ATOM     29  H9  6YQ d   1      -4.998   0.732  24.132  0.00  0.00     0.083 H 
ATOM     30  C23 6YQ d   1      -7.158   3.404  23.877  0.00  0.00    -0.053 A 
ATOM     31  H10 6YQ d   1      -5.986   2.580  25.512  0.00  0.00     0.083 H 
ATOM     32  H11 6YQ d   1      -7.603   4.206  24.455  0.00  0.00     0.087 H 
ATOM     33  N17 6YQ d   1      -8.299   3.979  21.735  0.00  0.00    -0.242 NA
ATOM     34  C16 6YQ d   1      -8.250   3.404  20.492  0.00  0.00     0.067 A 
ATOM     35  H12 6YQ d   1      -8.823   3.755  19.635  0.00  0.00     0.143 H 
ENDBRANCH  19  22
ENDBRANCH   1  19
TORSDOF 5
