REMARK  4 active torsions:
REMARK  status: ('A' for Active; 'I' for Inactive)
REMARK    1  A    between atoms: C7_15  and  C4_4 
REMARK    2  A    between atoms: C1_17  and  O_18 
REMARK    3  A    between atoms: O_18  and  C_19 
REMARK    4  A    between atoms: C11_21  and  C17_23 
ROOT
ATOM      1  N1  6Z6 d   1     -39.159 451.841   3.924  0.00  0.00    -0.196 NA
ATOM      2  O2  6Z6 d   1     -40.046 456.009   5.952  0.00  0.00    -0.299 OA
ATOM      3  O1  6Z6 d   1     -35.500 456.633   4.871  0.00  0.00    -0.293 OA
ATOM      4  C9  6Z6 d   1     -36.589 457.134   5.154  0.00  0.00     0.159 C 
ATOM      5  C8  6Z6 d   1     -37.830 456.347   5.107  0.00  0.00     0.028 C 
ATOM      6  C13 6Z6 d   1     -38.873 456.729   5.867  0.00  0.00     0.066 C 
ATOM      7  C14 6Z6 d   1     -40.134 454.808   5.295  0.00  0.00     0.157 C 
ATOM      8  N   6Z6 d   1     -41.262 454.184   5.644  0.00  0.00    -0.280 NA
ATOM      9  C15 6Z6 d   1     -39.112 454.327   4.545  0.00  0.00     0.105 C 
ATOM     10  C16 6Z6 d   1     -39.118 452.955   4.185  0.00  0.00     0.073 C 
ATOM     11  C7  6Z6 d   1     -37.904 455.163   4.158  0.00  0.00     0.026 C 
ATOM     12  C10 6Z6 d   1     -36.694 458.581   5.562  0.00  0.00     0.002 C 
ATOM     13  C11 6Z6 d   1     -37.597 458.711   6.782  0.00  0.00    -0.016 C 
ATOM     14  C12 6Z6 d   1     -38.942 457.991   6.657  0.00  0.00    -0.012 C 
ATOM     15  H4  6Z6 d   1     -41.482 453.283   5.250  0.00  0.00     0.189 HD
ATOM     16  H5  6Z6 d   1     -39.633 454.612   3.619  0.00  0.00     0.077 H 
ATOM     17  H6  6Z6 d   1     -36.994 454.554   4.269  0.00  0.00     0.058 H 
ATOM     18  H11 6Z6 d   1     -37.117 459.165   4.731  0.00  0.00     0.045 H 
ATOM     19  H12 6Z6 d   1     -35.693 458.965   5.807  0.00  0.00     0.045 H 
ATOM     20  H13 6Z6 d   1     -37.074 458.085   7.520  0.00  0.00     0.048 H 
ATOM     21  H14 6Z6 d   1     -39.302 457.749   7.668  0.00  0.00     0.044 H 
ATOM     22  H15 6Z6 d   1     -39.655 458.670   6.166  0.00  0.00     0.044 H 
ENDROOT
BRANCH  11  23
ATOM     23  C4  6Z6 d   1     -38.001 455.631   2.707  0.00  0.00    -0.048 A 
ATOM     24  C5  6Z6 d   1     -38.832 456.689   2.356  0.00  0.00    -0.073 A 
ATOM     25  C6  6Z6 d   1     -38.953 457.103   1.040  0.00  0.00    -0.050 A 
ATOM     26  H2  6Z6 d   1     -39.396 457.200   3.128  0.00  0.00     0.084 H 
ATOM     27  C1  6Z6 d   1     -38.226 456.463   0.048  0.00  0.00     0.068 A 
ATOM     28  H3  6Z6 d   1     -39.614 457.924   0.786  0.00  0.00     0.087 H 
ATOM     29  C2  6Z6 d   1     -37.389 455.401   0.379  0.00  0.00    -0.050 A 
ATOM     30  C3  6Z6 d   1     -37.283 454.996   1.700  0.00  0.00    -0.073 A 
ATOM     31  H1  6Z6 d   1     -36.823 454.893  -0.393  0.00  0.00     0.087 H 
ATOM     32  H7  6Z6 d   1     -36.629 454.170   1.953  0.00  0.00     0.084 H 
BRANCH  27  33
ATOM     33  O   6Z6 d   1     -38.416 457.075  -1.166  0.00  0.00    -0.356 OA
BRANCH  33  34
ATOM     34  C   6Z6 d   1     -37.626 456.648  -2.276  0.00  0.00     0.010 C 
ATOM     35  H8  6Z6 d   1     -37.898 457.233  -3.167  0.00  0.00     0.066 H 
ATOM     36  H9  6Z6 d   1     -37.810 455.581  -2.468  0.00  0.00     0.066 H 
ATOM     37  H10 6Z6 d   1     -36.561 456.801  -2.049  0.00  0.00     0.066 H 
ENDBRANCH  33  34
ENDBRANCH  27  33
ENDBRANCH  11  23
BRANCH  13  38
ATOM     38  C17 6Z6 d   1     -37.603 460.062   7.481  0.00  0.00    -0.042 A 
ATOM     39  C18 6Z6 d   1     -36.771 460.271   8.551  0.00  0.00    -0.076 A 
ATOM     40  C19 6Z6 d   1     -36.837 461.424   9.319  0.00  0.00    -0.082 A 
ATOM     41  H16 6Z6 d   1     -36.040 459.512   8.804  0.00  0.00     0.084 H 
ATOM     42  C20 6Z6 d   1     -37.742 462.401   9.029  0.00  0.00    -0.072 A 
ATOM     43  H17 6Z6 d   1     -36.162 461.549  10.158  0.00  0.00     0.083 H 
ATOM     44  C21 6Z6 d   1     -38.621 462.264   7.928  0.00  0.00    -0.025 A 
ATOM     45  H18 6Z6 d   1     -37.789 463.291   9.647  0.00  0.00     0.084 H 
ATOM     46  C26 6Z6 d   1     -38.547 461.085   7.121  0.00  0.00    -0.019 A 
ATOM     47  C22 6Z6 d   1     -39.579 463.261   7.607  0.00  0.00    -0.072 A 
ATOM     48  C25 6Z6 d   1     -39.430 460.991   6.009  0.00  0.00    -0.072 A 
ATOM     49  C24 6Z6 d   1     -40.341 461.979   5.739  0.00  0.00    -0.082 A 
ATOM     50  H22 6Z6 d   1     -39.381 460.122   5.363  0.00  0.00     0.084 H 
ATOM     51  C23 6Z6 d   1     -40.418 463.108   6.540  0.00  0.00    -0.082 A 
ATOM     52  H21 6Z6 d   1     -41.008 461.877   4.891  0.00  0.00     0.083 H 
ATOM     53  H20 6Z6 d   1     -41.150 463.876   6.318  0.00  0.00     0.083 H 
ATOM     54  H19 6Z6 d   1     -39.646 464.155   8.216  0.00  0.00     0.084 H 
ENDBRANCH  13  38
TORSDOF 4
