REMARK  4 active torsions:
REMARK  status: ('A' for Active; 'I' for Inactive)
REMARK    1  A    between atoms: C7_15  and  C4_4 
REMARK    2  A    between atoms: C1_17  and  O_18 
REMARK    3  A    between atoms: O_18  and  C_19 
REMARK    4  A    between atoms: C11_21  and  C17_23 
ROOT
ATOM      1  N1  6Z6 d   1    -471.877 298.165  12.768  0.00  0.00    -0.196 NA
ATOM      2  O2  6Z6 d   1    -475.967 299.697  14.557  0.00  0.00    -0.299 OA
ATOM      3  O1  6Z6 d   1    -473.969 303.764  13.314  0.00  0.00    -0.293 OA
ATOM      4  C9  6Z6 d   1    -474.978 303.167  13.677  0.00  0.00     0.159 C 
ATOM      5  C8  6Z6 d   1    -475.066 301.696  13.604  0.00  0.00     0.028 C 
ATOM      6  C13 6Z6 d   1    -475.983 301.062  14.353  0.00  0.00     0.066 C 
ATOM      7  C14 6Z6 d   1    -474.947 298.961  14.008  0.00  0.00     0.157 C 
ATOM      8  N   6Z6 d   1    -474.976 297.716  14.492  0.00  0.00    -0.280 NA
ATOM      9  C15 6Z6 d   1    -473.997 299.531  13.227  0.00  0.00     0.105 C 
ATOM     10  C16 6Z6 d   1    -472.813 298.796  12.956  0.00  0.00     0.073 C 
ATOM     11  C7  6Z6 d   1    -474.110 300.949  12.691  0.00  0.00     0.026 C 
ATOM     12  C10 6Z6 d   1    -476.165 303.931  14.210  0.00  0.00     0.002 C 
ATOM     13  C11 6Z6 d   1    -476.888 303.182  15.331  0.00  0.00    -0.016 C 
ATOM     14  C12 6Z6 d   1    -477.149 301.713  15.014  0.00  0.00    -0.012 C 
ATOM     15  H4  6Z6 d   1    -474.291 297.042  14.190  0.00  0.00     0.189 HD
ATOM     16  H5  6Z6 d   1    -474.485 299.137  12.323  0.00  0.00     0.077 H 
ATOM     17  H6  6Z6 d   1    -473.122 301.433  12.708  0.00  0.00     0.058 H 
ATOM     18  H11 6Z6 d   1    -476.873 304.102  13.386  0.00  0.00     0.045 H 
ATOM     19  H12 6Z6 d   1    -475.816 304.898  14.600  0.00  0.00     0.045 H 
ATOM     20  H13 6Z6 d   1    -476.129 303.138  16.126  0.00  0.00     0.048 H 
ATOM     21  H14 6Z6 d   1    -477.366 301.182  15.952  0.00  0.00     0.044 H 
ATOM     22  H15 6Z6 d   1    -478.019 301.645  14.344  0.00  0.00     0.044 H 
ENDROOT
BRANCH  11  23
ATOM     23  C4  6Z6 d   1    -474.640 300.944  11.258  0.00  0.00    -0.048 A 
ATOM     24  C5  6Z6 d   1    -475.892 300.412  10.972  0.00  0.00    -0.073 A 
ATOM     25  C6  6Z6 d   1    -476.345 300.297   9.669  0.00  0.00    -0.050 A 
ATOM     26  H2  6Z6 d   1    -476.526 300.080  11.786  0.00  0.00     0.084 H 
ATOM     27  C1  6Z6 d   1    -475.545 300.729   8.620  0.00  0.00     0.068 A 
ATOM     28  H3  6Z6 d   1    -477.321 299.871   9.468  0.00  0.00     0.087 H 
ATOM     29  C2  6Z6 d   1    -474.300 301.296   8.889  0.00  0.00    -0.050 A 
ATOM     30  C3  6Z6 d   1    -473.859 301.399  10.201  0.00  0.00    -0.073 A 
ATOM     31  H1  6Z6 d   1    -473.679 301.655   8.076  0.00  0.00     0.087 H 
ATOM     32  H7  6Z6 d   1    -472.890 301.841  10.405  0.00  0.00     0.084 H 
BRANCH  27  33
ATOM     33  O   6Z6 d   1    -476.204 300.468   7.441  0.00  0.00    -0.356 OA
BRANCH  33  34
ATOM     34  C   6Z6 d   1    -475.579 300.828   6.214  0.00  0.00     0.010 C 
ATOM     35  H8  6Z6 d   1    -476.234 300.553   5.374  0.00  0.00     0.066 H 
ATOM     36  H9  6Z6 d   1    -474.620 300.296   6.121  0.00  0.00     0.066 H 
ATOM     37  H10 6Z6 d   1    -475.399 301.913   6.198  0.00  0.00     0.066 H 
ENDBRANCH  33  34
ENDBRANCH  27  33
ENDBRANCH  11  23
BRANCH  13  38
ATOM     38  C17 6Z6 d   1    -478.040 303.906  16.011  0.00  0.00    -0.042 A 
ATOM     39  C18 6Z6 d   1    -477.937 304.250  17.336  0.00  0.00    -0.076 A 
ATOM     40  C19 6Z6 d   1    -478.974 304.861  18.022  0.00  0.00    -0.082 A 
ATOM     41  H16 6Z6 d   1    -477.014 304.036  17.863  0.00  0.00     0.084 H 
ATOM     42  C20 6Z6 d   1    -480.147 305.150  17.393  0.00  0.00    -0.072 A 
ATOM     43  H17 6Z6 d   1    -478.851 305.111  19.069  0.00  0.00     0.083 H 
ATOM     44  C21 6Z6 d   1    -480.332 304.826  16.025  0.00  0.00    -0.025 A 
ATOM     45  H18 6Z6 d   1    -480.947 305.632  17.943  0.00  0.00     0.084 H 
ATOM     46  C26 6Z6 d   1    -479.265 304.190  15.312  0.00  0.00    -0.019 A 
ATOM     47  C22 6Z6 d   1    -481.561 305.076  15.353  0.00  0.00    -0.072 A 
ATOM     48  C25 6Z6 d   1    -479.502 303.833  13.950  0.00  0.00    -0.072 A 
ATOM     49  C24 6Z6 d   1    -480.710 304.084  13.347  0.00  0.00    -0.082 A 
ATOM     50  H22 6Z6 d   1    -478.713 303.355  13.381  0.00  0.00     0.084 H 
ATOM     51  C23 6Z6 d   1    -481.734 304.707  14.045  0.00  0.00    -0.082 A 
ATOM     52  H21 6Z6 d   1    -480.865 303.792  12.315  0.00  0.00     0.083 H 
ATOM     53  H20 6Z6 d   1    -482.679 304.904  13.552  0.00  0.00     0.083 H 
ATOM     54  H19 6Z6 d   1    -482.371 305.565  15.883  0.00  0.00     0.084 H 
ENDBRANCH  13  38
TORSDOF 4
