REMARK  3 active torsions:
REMARK  status: ('A' for Active; 'I' for Inactive)
REMARK    1  A    between atoms: C05_5  and  C07_7 
REMARK    2  A    between atoms: N12_12  and  C14_14 
REMARK    3  A    between atoms: C17_17  and  O21_21 
ROOT
ATOM      1  C01 H32 d   1     -25.212   1.209  60.592  0.00  0.00    -0.081 A 
ATOM      2  C02 H32 d   1     -25.890   0.002  60.733  0.00  0.00    -0.074 A 
ATOM      3  C03 H32 d   1     -25.318  -1.039  61.443  0.00  0.00    -0.023 A 
ATOM      4  C04 H32 d   1     -24.047  -0.901  62.033  0.00  0.00     0.057 A 
ATOM      5  C05 H32 d   1     -23.367   0.315  61.881  0.00  0.00     0.057 A 
ATOM      6  C06 H32 d   1     -23.947   1.365  61.173  0.00  0.00    -0.065 A 
ATOM      7  C10 H32 d   1     -23.780  -2.195  62.685  0.00  0.00     0.260 A 
ATOM      8  O11 H32 d   1     -22.766  -2.383  63.281  0.00  0.00    -0.267 OA
ATOM      9  N12 H32 d   1     -24.751  -3.161  62.588  0.00  0.00    -0.309 N 
ATOM     10  C13 H32 d   1     -25.810  -2.551  61.791  0.00  0.00     0.028 A 
ATOM     11  H1  H32 d   1     -25.660   2.024  60.036  0.00  0.00     0.083 H 
ATOM     12  H2  H32 d   1     -26.869  -0.123  60.285  0.00  0.00     0.084 H 
ATOM     13  H3  H32 d   1     -23.418   2.306  61.071  0.00  0.00     0.085 H 
ATOM     14  H4  H32 d   1     -25.965  -3.123  60.864  0.00  0.00     0.072 H 
ATOM     15  H5  H32 d   1     -26.748  -2.522  62.365  0.00  0.00     0.072 H 
ENDROOT
BRANCH   9  16
ATOM     16  C14 H32 d   1     -24.806  -4.533  63.074  0.00  0.00     0.041 A 
ATOM     17  C15 H32 d   1     -25.725  -5.392  62.489  0.00  0.00    -0.054 A 
ATOM     18  C16 H32 d   1     -25.819  -6.716  62.875  0.00  0.00    -0.046 A 
ATOM     19  H6  H32 d   1     -26.383  -5.017  61.713  0.00  0.00     0.087 H 
ATOM     20  C17 H32 d   1     -24.986  -7.199  63.876  0.00  0.00     0.104 A 
ATOM     21  H7  H32 d   1     -26.538  -7.373  62.400  0.00  0.00     0.087 H 
ATOM     22  C18 H32 d   1     -24.055  -6.341  64.455  0.00  0.00     0.151 A 
ATOM     23  C19 H32 d   1     -23.961  -5.015  64.059  0.00  0.00    -0.017 A 
ATOM     24  F20 H32 d   1     -23.224  -6.789  65.434  0.00  0.00    -0.203 F 
ATOM     25  H8  H32 d   1     -23.230  -4.360  64.518  0.00  0.00     0.091 H 
BRANCH  20  26
ATOM     26  O21 H32 d   1     -25.078  -8.553  64.272  0.00  0.00    -0.358 OA
ATOM     27  H9  H32 d   1     -24.248  -8.986  64.110  0.00  0.00     0.217 HD
ENDBRANCH  20  26
ENDBRANCH   9  16
BRANCH   5  28
ATOM     28  C07 H32 d   1     -21.997   0.540  62.519  0.00  0.00     0.210 C 
ATOM     29  O08 H32 d   1     -20.919   0.245  61.939  0.00  0.00    -0.644 OA
ATOM     30  O09 H32 d   1     -21.964   1.063  63.661  0.00  0.00    -0.644 OA
ENDBRANCH   5  28
TORSDOF 3
