REMARK  8 active torsions:
REMARK  status: ('A' for Active; 'I' for Inactive)
REMARK    1  A    between atoms: C20_4  and  C21_5 
REMARK    2  A    between atoms: C19_21  and  C20_4 
REMARK    3  A    between atoms: C21_5  and  N22_22 
REMARK    4  A    between atoms: C02_7  and  C01_6 
REMARK    5  A    between atoms: C08_13  and  C05_10 
REMARK    6  A    between atoms: N17_19  and  C16_18 
REMARK    7  A    between atoms: C18_20  and  N17_19 
REMARK    8  A    between atoms: C18_20  and  C19_21 
ROOT
ATOM      1  C10 6ZG d   1      26.978 -43.174  34.994  0.00  0.00     0.091 A 
ATOM      2  C13 6ZG d   1      26.762 -42.033  32.574  0.00  0.00     0.020 A 
ATOM      3  C15 6ZG d   1      25.905 -42.317  34.666  0.00  0.00     0.130 A 
ATOM      4  C08 6ZG d   1      26.075 -43.470  37.196  0.00  0.00     0.071 A 
ATOM      5  C09 6ZG d   1      27.062 -43.738  36.284  0.00  0.00    -0.024 A 
ATOM      6  N11 6ZG d   1      27.956 -43.439  34.077  0.00  0.00    -0.257 NA
ATOM      7  C12 6ZG d   1      27.825 -42.862  32.893  0.00  0.00     0.020 A 
ATOM      8  N14 6ZG d   1      25.797 -41.750  33.434  0.00  0.00    -0.253 NA
ATOM      9  C16 6ZG d   1      24.929 -42.077  35.691  0.00  0.00     0.155 A 
ATOM     10  N23 6ZG d   1      25.042 -42.641  36.908  0.00  0.00    -0.228 NA
ATOM     11  H1  6ZG d   1      26.719 -41.599  31.581  0.00  0.00     0.117 H 
ATOM     12  H13 6ZG d   1      27.897 -44.376  36.551  0.00  0.00     0.090 H 
ATOM     13  H14 6ZG d   1      28.583 -43.046  32.140  0.00  0.00     0.117 H 
ENDROOT
BRANCH   9  14
ATOM     14  N17 6ZG d   1      23.877 -41.287  35.463  0.00  0.00    -0.373 N 
ATOM     15  H15 6ZG d   1      23.726 -40.941  34.505  0.00  0.00     0.161 HD
BRANCH  14  16
ATOM     16  C18 6ZG d   1      22.934 -40.889  36.494  0.00  0.00    -0.006 C 
ATOM     17  H16 6ZG d   1      22.637 -41.782  37.064  0.00  0.00     0.064 H 
ATOM     18  H17 6ZG d   1      22.048 -40.450  36.011  0.00  0.00     0.064 H 
BRANCH  16  19
ATOM     19  C19 6ZG d   1      23.518 -39.873  37.453  0.00  0.00    -0.049 C 
ATOM     20  H18 6ZG d   1      22.850 -39.788  38.323  0.00  0.00     0.035 H 
ATOM     21  H19 6ZG d   1      24.506 -40.229  37.782  0.00  0.00     0.035 H 
BRANCH  19  22
ATOM     22  C20 6ZG d   1      23.681 -38.498  36.832  0.00  0.00    -0.041 C 
ATOM     23  H2  6ZG d   1      24.207 -38.606  35.872  0.00  0.00     0.035 H 
ATOM     24  H3  6ZG d   1      22.683 -38.070  36.657  0.00  0.00     0.035 H 
BRANCH  22  25
ATOM     25  C21 6ZG d   1      24.464 -37.553  37.708  0.00  0.00     0.080 C 
ATOM     26  H4  6ZG d   1      25.490 -37.935  37.817  0.00  0.00     0.075 H 
ATOM     27  H5  6ZG d   1      23.984 -37.503  38.697  0.00  0.00     0.075 H 
BRANCH  25  28
ATOM     28  N22 6ZG d   1      24.517 -36.205  37.137  0.00  0.00    -0.079 N 
ATOM     29  H20 6ZG d   1      25.047 -35.602  37.747  0.00  0.00     0.274 HD
ATOM     30  H21 6ZG d   1      23.581 -35.845  37.039  0.00  0.00     0.274 HD
ATOM     31  H22 6ZG d   1      24.960 -36.240  36.232  0.00  0.00     0.274 HD
ENDBRANCH  25  28
ENDBRANCH  22  25
ENDBRANCH  19  22
ENDBRANCH  16  19
ENDBRANCH  14  16
ENDBRANCH   9  14
BRANCH   4  32
ATOM     32  C05 6ZG d   1      26.096 -43.989  38.586  0.00  0.00    -0.007 A 
ATOM     33  C04 6ZG d   1      27.024 -44.943  38.997  0.00  0.00    -0.070 A 
ATOM     34  C03 6ZG d   1      27.050 -45.387  40.308  0.00  0.00    -0.076 A 
ATOM     35  H10 6ZG d   1      27.734 -45.342  38.282  0.00  0.00     0.084 H 
ATOM     36  C02 6ZG d   1      26.168 -44.892  41.254  0.00  0.00    -0.062 A 
ATOM     37  H9  6ZG d   1      27.776 -46.138  40.600  0.00  0.00     0.084 H 
ATOM     38  C07 6ZG d   1      25.258 -43.932  40.850  0.00  0.00    -0.076 A 
ATOM     39  C06 6ZG d   1      25.218 -43.488  39.544  0.00  0.00    -0.070 A 
ATOM     40  H12 6ZG d   1      24.563 -43.520  41.573  0.00  0.00     0.084 H 
ATOM     41  H11 6ZG d   1      24.491 -42.736  39.259  0.00  0.00     0.084 H 
BRANCH  36  42
ATOM     42  C01 6ZG d   1      26.204 -45.379  42.682  0.00  0.00    -0.051 C 
ATOM     43  H6  6ZG d   1      26.994 -46.136  42.791  0.00  0.00     0.033 H 
ATOM     44  H7  6ZG d   1      25.232 -45.824  42.943  0.00  0.00     0.033 H 
ATOM     45  H8  6ZG d   1      26.412 -44.532  43.353  0.00  0.00     0.033 H 
ENDBRANCH  36  42
ENDBRANCH   4  32
TORSDOF 8
