REMARK  7 active torsions:
REMARK  status: ('A' for Active; 'I' for Inactive)
REMARK    1  A    between atoms: N1_1  and  C2_13 
REMARK    2  A    between atoms: N1_1  and  C1_14 
REMARK    3  A    between atoms: C3_15  and  N1_1 
REMARK    4  A    between atoms: C8_7  and  C6_5 
REMARK    5  A    between atoms: N5_23  and  C15_10 
REMARK    6  A    between atoms: C15_10  and  C16_24 
REMARK    7  A    between atoms: C14_18  and  N5_23 
ROOT
ATOM      1  N3  6ZF d   1      -2.680   1.768 -29.257  0.00  0.00    -0.257 NA
ATOM      2  C8  6ZF d   1       0.671   0.444 -29.397  0.00  0.00     0.073 A 
ATOM      3  C10 6ZF d   1      -1.633   0.943 -29.100  0.00  0.00     0.091 A 
ATOM      4  C13 6ZF d   1      -1.818  -0.298 -28.448  0.00  0.00     0.130 A 
ATOM      5  N7  6ZF d   1       0.531  -0.720 -28.744  0.00  0.00    -0.228 NA
ATOM      6  C14 6ZF d   1      -0.644  -1.115 -28.287  0.00  0.00     0.155 A 
ATOM      7  N4  6ZF d   1      -3.027  -0.671 -28.002  0.00  0.00    -0.253 NA
ATOM      8  C12 6ZF d   1      -4.050   0.164 -28.172  0.00  0.00     0.020 A 
ATOM      9  C11 6ZF d   1      -3.878   1.383 -28.803  0.00  0.00     0.020 A 
ATOM     10  C9  6ZF d   1      -0.376   1.307 -29.551  0.00  0.00    -0.024 A 
ATOM     11  H16 6ZF d   1      -5.033  -0.116 -27.810  0.00  0.00     0.117 H 
ATOM     12  H17 6ZF d   1      -4.731   2.039 -28.932  0.00  0.00     0.117 H 
ATOM     13  H18 6ZF d   1      -0.224   2.271 -30.023  0.00  0.00     0.090 H 
ENDROOT
BRANCH   6  14
ATOM     14  N5  6ZF d   1      -0.732  -2.294 -27.653  0.00  0.00    -0.372 N 
ATOM     15  H19 6ZF d   1      -1.656  -2.667 -27.392  0.00  0.00     0.161 HD
BRANCH  14  16
ATOM     16  C15 6ZF d   1       0.464  -3.047 -27.333  0.00  0.00    -0.001 C 
ATOM     17  H4  6ZF d   1       1.351  -2.460 -27.612  0.00  0.00     0.064 H 
ATOM     18  H5  6ZF d   1       0.460  -3.994 -27.892  0.00  0.00     0.064 H 
BRANCH  16  19
ATOM     19  C16 6ZF d   1       0.501  -3.342 -25.838  0.00  0.00    -0.016 C 
ATOM     20  C17 6ZF d   1       1.547  -4.408 -25.519  0.00  0.00    -0.057 C 
ATOM     21  C18 6ZF d   1       1.533  -4.741 -24.029  0.00  0.00    -0.042 C 
ATOM     22  H6  6ZF d   1       2.543  -4.033 -25.797  0.00  0.00     0.033 H 
ATOM     23  H7  6ZF d   1       1.324  -5.318 -26.096  0.00  0.00     0.033 H 
ATOM     24  C19 6ZF d   1       1.664  -3.503 -23.158  0.00  0.00     0.082 C 
ATOM     25  H25 6ZF d   1       2.372  -5.417 -23.810  0.00  0.00     0.035 H 
ATOM     26  H26 6ZF d   1       0.585  -5.244 -23.788  0.00  0.00     0.035 H 
ATOM     27  N6  6ZF d   1       0.871  -2.375 -23.593  0.00  0.00    -0.075 N 
ATOM     28  H23 6ZF d   1       1.353  -3.768 -22.137  0.00  0.00     0.075 H 
ATOM     29  H24 6ZF d   1       2.721  -3.198 -23.152  0.00  0.00     0.075 H 
ATOM     30  C20 6ZF d   1       0.836  -2.108 -25.020  0.00  0.00     0.086 C 
ATOM     31  H21 6ZF d   1      -0.077  -2.534 -23.290  0.00  0.00     0.277 HD
ATOM     32  H22 6ZF d   1       1.236  -1.553 -23.138  0.00  0.00     0.277 HD
ATOM     33  H8  6ZF d   1       0.075  -1.339 -25.216  0.00  0.00     0.076 H 
ATOM     34  H9  6ZF d   1       1.823  -1.736 -25.333  0.00  0.00     0.076 H 
ATOM     35  H20 6ZF d   1      -0.491  -3.710 -25.536  0.00  0.00     0.045 H 
ENDBRANCH  16  19
ENDBRANCH  14  16
ENDBRANCH   6  14
BRANCH   2  36
ATOM     36  C6  6ZF d   1       2.040   0.810 -29.819  0.00  0.00     0.010 A 
ATOM     37  C5  6ZF d   1       2.320   1.977 -30.528  0.00  0.00    -0.066 A 
ATOM     38  C4  6ZF d   1       3.639   2.270 -30.829  0.00  0.00    -0.038 A 
ATOM     39  H2  6ZF d   1       1.521   2.641 -30.837  0.00  0.00     0.085 H 
ATOM     40  C3  6ZF d   1       4.670   1.422 -30.411  0.00  0.00     0.124 A 
ATOM     41  H1  6ZF d   1       3.875   3.165 -31.394  0.00  0.00     0.089 H 
ATOM     42  N2  6ZF d   1       4.384   0.298 -29.696  0.00  0.00    -0.243 NA
ATOM     43  C7  6ZF d   1       3.109   0.016 -29.415  0.00  0.00     0.017 A 
ATOM     44  H3  6ZF d   1       2.896  -0.879 -28.842  0.00  0.00     0.116 H 
BRANCH  40  45
ATOM     45  N1  6ZF d   1       5.984   1.727 -30.670  0.00  0.00    -0.374 N 
BRANCH  45  46
ATOM     46  C2  6ZF d   1       6.357   2.825 -31.556  0.00  0.00    -0.018 C 
ATOM     47  H10 6ZF d   1       7.453   2.889 -31.619  0.00  0.00     0.056 H 
ATOM     48  H11 6ZF d   1       5.957   3.769 -31.158  0.00  0.00     0.056 H 
ATOM     49  H12 6ZF d   1       5.942   2.644 -32.559  0.00  0.00     0.056 H 
ENDBRANCH  45  46
BRANCH  45  50
ATOM     50  C1  6ZF d   1       7.036   0.997 -29.969  0.00  0.00    -0.018 C 
ATOM     51  H13 6ZF d   1       6.584   0.209 -29.349  0.00  0.00     0.056 H 
ATOM     52  H14 6ZF d   1       7.599   1.691 -29.328  0.00  0.00     0.056 H 
ATOM     53  H15 6ZF d   1       7.717   0.541 -30.703  0.00  0.00     0.056 H 
ENDBRANCH  45  50
ENDBRANCH  40  45
ENDBRANCH   2  36
TORSDOF 7
