REMARK  6 active torsions:
REMARK  status: ('A' for Active; 'I' for Inactive)
REMARK       I    between atoms: C31_2  and  N33_3 
REMARK    1  A    between atoms: C31_2  and  C28_4 
REMARK    2  A    between atoms: C25_9  and  C22_10 
REMARK    3  A    between atoms: C19_15  and  C3_16 
REMARK    4  A    between atoms: C1_22  and  N11_26 
REMARK    5  A    between atoms: N11_26  and  C12_27 
REMARK    6  A    between atoms: C12_27  and  C13_28 
ROOT
ATOM      1  C3  6ZK d   1      -5.489  22.661 -22.671  0.00  0.00     0.073 A 
ATOM      2  N4  6ZK d   1      -6.551  21.831 -22.473  0.00  0.00    -0.227 NA
ATOM      3  C5  6ZK d   1      -7.692  22.121 -23.149  0.00  0.00     0.172 A 
ATOM      4  C9  6ZK d   1      -9.014  21.467 -23.208  0.00  0.00     0.078 A 
ATOM      5 BR1  6ZK d   1      -9.540  19.815 -22.208  0.00  0.00    -0.045 Br
ATOM      6  C2  6ZK d   1      -5.636  23.782 -23.501  0.00  0.00    -0.010 A 
ATOM      7  C1  6ZK d   1      -6.842  24.024 -24.176  0.00  0.00     0.129 A 
ATOM      8  N6  6ZK d   1      -7.857  23.160 -23.965  0.00  0.00    -0.198 N 
ATOM      9  N7  6ZK d   1      -9.140  23.231 -24.536  0.00  0.00    -0.175 NA
ATOM     10  C8  6ZK d   1      -9.863  22.173 -24.053  0.00  0.00     0.043 A 
ATOM     11  H11 6ZK d   1      -4.803  24.473 -23.623  0.00  0.00     0.093 H 
ATOM     12  H12 6ZK d   1     -10.899  21.932 -24.285  0.00  0.00     0.119 H 
ENDROOT
BRANCH   1  13
ATOM     13  C19 6ZK d   1      -4.219  22.435 -21.921  0.00  0.00    -0.007 A 
ATOM     14  C20 6ZK d   1      -3.529  23.569 -21.469  0.00  0.00    -0.070 A 
ATOM     15  C21 6ZK d   1      -2.358  23.430 -20.729  0.00  0.00    -0.071 A 
ATOM     16  H8  6ZK d   1      -3.909  24.558 -21.697  0.00  0.00     0.084 H 
ATOM     17  C22 6ZK d   1      -1.864  22.155 -20.433  0.00  0.00    -0.026 A 
ATOM     18  H7  6ZK d   1      -1.829  24.310 -20.382  0.00  0.00     0.084 H 
ATOM     19  C23 6ZK d   1      -2.571  21.014 -20.845  0.00  0.00    -0.071 A 
ATOM     20  C24 6ZK d   1      -3.751  21.151 -21.594  0.00  0.00    -0.070 A 
ATOM     21  H9  6ZK d   1      -2.206  20.027 -20.585  0.00  0.00     0.084 H 
ATOM     22  H10 6ZK d   1      -4.297  20.272 -21.918  0.00  0.00     0.084 H 
BRANCH  17  23
ATOM     23  C25 6ZK d   1      -0.637  22.095 -19.593  0.00  0.00    -0.026 A 
ATOM     24  C30 6ZK d   1       0.644  22.495 -20.004  0.00  0.00    -0.071 A 
ATOM     25  C29 6ZK d   1       1.709  22.424 -19.086  0.00  0.00    -0.067 A 
ATOM     26  H4  6ZK d   1       0.811  22.853 -21.013  0.00  0.00     0.084 H 
ATOM     27  C28 6ZK d   1       1.490  21.978 -17.766  0.00  0.00     0.031 A 
ATOM     28  H3  6ZK d   1       2.706  22.715 -19.396  0.00  0.00     0.085 H 
ATOM     29  C27 6ZK d   1       0.206  21.601 -17.364  0.00  0.00    -0.067 A 
ATOM     30  C26 6ZK d   1      -0.845  21.673 -18.275  0.00  0.00    -0.071 A 
ATOM     31  H5  6ZK d   1       0.029  21.256 -16.352  0.00  0.00     0.085 H 
ATOM     32  H6  6ZK d   1      -1.844  21.397 -17.957  0.00  0.00     0.084 H 
BRANCH  27  33
ATOM     33  C31 6ZK d   1       2.602  21.889 -16.751  0.00  0.00     0.249 C 
ATOM     34  O32 6ZK d   1       2.602  20.970 -15.947  0.00  0.00    -0.268 OA
ATOM     35  N33 6ZK d   1       3.555  22.820 -16.727  0.00  0.00    -0.366 N 
ATOM     36  H1  6ZK d   1       3.542  23.567 -17.392  0.00  0.00     0.159 HD
ATOM     37  H2  6ZK d   1       4.284  22.772 -16.044  0.00  0.00     0.159 HD
ENDBRANCH  27  33
ENDBRANCH  17  23
ENDBRANCH   1  13
BRANCH   7  38
ATOM     38  N11 6ZK d   1      -6.982  25.095 -25.018  0.00  0.00    -0.370 N 
ATOM     39  H13 6ZK d   1      -7.884  25.213 -25.502  0.00  0.00     0.161 HD
BRANCH  38  40
ATOM     40  C12 6ZK d   1      -5.932  26.084 -25.275  0.00  0.00     0.019 C 
ATOM     41  H14 6ZK d   1      -5.168  25.987 -24.489  0.00  0.00     0.071 H 
ATOM     42  H15 6ZK d   1      -6.383  27.086 -25.226  0.00  0.00     0.071 H 
BRANCH  40  43
ATOM     43  C13 6ZK d   1      -5.253  25.937 -26.614  0.00  0.00    -0.023 A 
ATOM     44  C18 6ZK d   1      -5.994  25.801 -27.795  0.00  0.00    -0.072 A 
ATOM     45  C17 6ZK d   1      -5.318  25.668 -29.011  0.00  0.00    -0.065 A 
ATOM     46  H16 6ZK d   1      -7.078  25.799 -27.766  0.00  0.00     0.084 H 
ATOM     47  C16 6ZK d   1      -3.918  25.690 -29.010  0.00  0.00     0.002 A 
ATOM     48  H17 6ZK d   1      -5.867  25.550 -29.938  0.00  0.00     0.085 H 
ATOM     49  N15 6ZK d   1      -3.230  25.833 -27.855  0.00  0.00    -0.273 NA
ATOM     50  H18 6ZK d   1      -3.380  25.591 -29.946  0.00  0.00     0.114 H 
ATOM     51  C14 6ZK d   1      -3.855  25.961 -26.670  0.00  0.00     0.009 A 
ATOM     52  H19 6ZK d   1      -3.277  26.082 -25.761  0.00  0.00     0.115 H 
ENDBRANCH  40  43
ENDBRANCH  38  40
ENDBRANCH   7  38
TORSDOF 6
