REMARK  7 active torsions:
REMARK  status: ('A' for Active; 'I' for Inactive)
REMARK    1  A    between atoms: C8_5  and  C3_3 
REMARK    2  A    between atoms: C11_8  and  C8_5 
REMARK    3  A    between atoms: C10_7  and  O13_20 
REMARK    4  A    between atoms: C14_10  and  C11_8 
REMARK    5  A    between atoms: C16_11  and  C14_10 
REMARK    6  A    between atoms: N17_22  and  C16_11 
REMARK    7  A    between atoms: C23_25  and  N22_24 
ROOT
ATOM      1  C1  MOL d   1       0.510  33.795  25.351  0.00  0.00    -0.000 A 
ATOM      2  C2  MOL d   1      -0.687  33.417  26.055  0.00  0.00     0.045 A 
ATOM      3  C3  MOL d   1       1.627  33.420  26.231  0.00  0.00    -0.030 A 
ATOM      4  C7  MOL d   1       1.054  32.855  27.372  0.00  0.00    -0.016 A 
ATOM      5  C9  MOL d   1      -0.854  34.620  23.487  0.00  0.00     0.078 A 
ATOM      6  C10 MOL d   1      -2.039  34.248  24.200  0.00  0.00     0.088 A 
ATOM      7  C12 MOL d   1      -0.963  35.215  22.187  0.00  0.00     0.102 C 
ATOM      8  C4  MOL d   1       0.418  34.396  24.066  0.00  0.00    -0.048 A 
ATOM      9  N5  MOL d   1      -0.311  32.860  27.256  0.00  0.00    -0.365 N 
ATOM     10  C6  MOL d   1      -1.952  33.654  25.467  0.00  0.00    -0.023 A 
ATOM     11  N15 MOL d   1      -1.064  35.666  21.150  0.00  0.00    -0.191 NA
ATOM     12  H1  MOL d   1       1.609  32.468  28.226  0.00  0.00     0.112 H 
ATOM     13  H18 MOL d   1       1.317  34.681  23.532  0.00  0.00     0.087 H 
ATOM     14  H19 MOL d   1      -0.963  32.498  27.966  0.00  0.00     0.165 HD
ATOM     15  H20 MOL d   1      -2.856  33.376  25.997  0.00  0.00     0.091 H 
ENDROOT
BRANCH   6  16
ATOM     16  O13 MOL d   1      -3.255  34.469  23.644  0.00  0.00    -0.359 OA
ATOM     17  H21 MOL d   1      -3.712  33.642  23.545  0.00  0.00     0.217 HD
ENDBRANCH   6  16
BRANCH   3  18
ATOM     18  C8  MOL d   1       3.119  33.601  25.978  0.00  0.00    -0.039 C 
ATOM     19  H2  MOL d   1       3.677  33.128  26.799  0.00  0.00     0.040 H 
ATOM     20  H3  MOL d   1       3.346  34.677  25.953  0.00  0.00     0.040 H 
BRANCH  18  21
ATOM     21  C11 MOL d   1       3.566  32.968  24.645  0.00  0.00    -0.060 C 
ATOM     22  H4  MOL d   1       4.590  33.296  24.415  0.00  0.00     0.033 H 
ATOM     23  H5  MOL d   1       2.887  33.295  23.844  0.00  0.00     0.033 H 
BRANCH  21  24
ATOM     24  C14 MOL d   1       3.535  31.438  24.738  0.00  0.00    -0.042 C 
ATOM     25  H6  MOL d   1       2.490  31.097  24.776  0.00  0.00     0.035 H 
ATOM     26  H7  MOL d   1       4.058  31.118  25.651  0.00  0.00     0.035 H 
BRANCH  24  27
ATOM     27  C16 MOL d   1       4.228  30.820  23.512  0.00  0.00     0.084 C 
ATOM     28  H8  MOL d   1       3.764  31.218  22.598  0.00  0.00     0.076 H 
ATOM     29  H9  MOL d   1       4.103  29.727  23.541  0.00  0.00     0.076 H 
BRANCH  27  30
ATOM     30  N17 MOL d   1       5.670  31.141  23.501  0.00  0.00    -0.069 N 
ATOM     31  C19 MOL d   1       6.412  30.352  24.519  0.00  0.00     0.095 C 
ATOM     32  C21 MOL d   1       7.874  30.814  24.542  0.00  0.00     0.006 C 
ATOM     33  H10 MOL d   1       5.960  30.510  25.509  0.00  0.00     0.077 H 
ATOM     34  H11 MOL d   1       6.367  29.284  24.262  0.00  0.00     0.077 H 
ATOM     35  N22 MOL d   1       8.462  30.643  23.178  0.00  0.00    -0.280 NA
ATOM     36  H14 MOL d   1       8.440  30.209  25.266  0.00  0.00     0.058 H 
ATOM     37  H15 MOL d   1       7.921  31.874  24.833  0.00  0.00     0.058 H 
ATOM     38  C20 MOL d   1       7.713  31.393  22.128  0.00  0.00     0.006 C 
ATOM     39  C18 MOL d   1       6.237  30.945  22.140  0.00  0.00     0.095 C 
ATOM     40  H12 MOL d   1       7.772  32.472  22.334  0.00  0.00     0.058 H 
ATOM     41  H13 MOL d   1       8.153  31.184  21.142  0.00  0.00     0.058 H 
ATOM     42  H23 MOL d   1       6.175  29.881  21.867  0.00  0.00     0.077 H 
ATOM     43  H24 MOL d   1       5.666  31.544  21.415  0.00  0.00     0.077 H 
ATOM     44  H22 MOL d   1       5.770  32.115  23.739  0.00  0.00     0.280 HD
BRANCH  35  45
ATOM     45  C23 MOL d   1       9.880  30.796  23.110  0.00  0.00     0.010 A 
ATOM     46  C24 MOL d   1      10.649  31.153  24.265  0.00  0.00    -0.061 A 
ATOM     47  C26 MOL d   1      12.039  31.285  24.184  0.00  0.00    -0.061 A 
ATOM     48  H16 MOL d   1      10.148  31.323  25.211  0.00  0.00     0.086 H 
ATOM     49  C28 MOL d   1      12.704  31.065  22.948  0.00  0.00     0.044 A 
ATOM     50  H26 MOL d   1      12.610  31.555  25.065  0.00  0.00     0.085 H 
ATOM     51  C27 MOL d   1      11.953  30.714  21.792  0.00  0.00    -0.061 A 
ATOM     52  C29 MOL d   1      14.128  31.188  22.876  0.00  0.00     0.099 C 
ATOM     53  C25 MOL d   1      10.560  30.580  21.871  0.00  0.00    -0.061 A 
ATOM     54  H17 MOL d   1      12.459  30.550  20.848  0.00  0.00     0.085 H 
ATOM     55  H25 MOL d   1       9.994  30.311  20.986  0.00  0.00     0.086 H 
ATOM     56  N30 MOL d   1      15.259  31.266  22.834  0.00  0.00    -0.191 NA
ENDBRANCH  35  45
ENDBRANCH  27  30
ENDBRANCH  24  27
ENDBRANCH  21  24
ENDBRANCH  18  21
ENDBRANCH   3  18
TORSDOF 7
