REMARK  12 active torsions:
REMARK  status: ('A' for Active; 'I' for Inactive)
REMARK    1  A    between atoms: C2_2  and  N8_21 
REMARK    2  A    between atoms: C7_4  and  C5_19 
REMARK    3  A    between atoms: N8_21  and  C9_5 
REMARK    4  A    between atoms: C10_6  and  C12_7 
REMARK       I    between atoms: N8_21  and  C10_6 
REMARK    5  A    between atoms: C15_10  and  O16_23 
REMARK    6  A    between atoms: C19_11  and  C22_12 
REMARK    7  A    between atoms: C22_12  and  C23_28 
REMARK    8  A    between atoms: C24_13  and  C31_15 
REMARK    9  A    between atoms: C24_13  and  C32_16 
REMARK   10  A    between atoms: C24_13  and  C33_17 
REMARK   11  A    between atoms: C23_28  and  C24_13 
REMARK   12  A    between atoms: N27_31  and  C30_14 
ROOT
ATOM      1  C10 MOL d   1      -1.208  10.633  27.189  0.00  0.00     0.260 C 
ATOM      2  N8  MOL d   1      -0.631   9.409  27.418  0.00  0.00    -0.318 N 
ATOM      3  O11 MOL d   1      -1.863  11.151  28.073  0.00  0.00    -0.267 OA
ENDROOT
BRANCH   1   4
ATOM      4  C12 MOL d   1      -1.062  11.341  25.885  0.00  0.00     0.066 A 
ATOM      5  C13 MOL d   1       0.212  11.693  25.411  0.00  0.00    -0.051 A 
ATOM      6  C18 MOL d   1       0.334  12.252  24.128  0.00  0.00     0.019 A 
ATOM      7  H7  MOL d   1       1.090  11.536  26.027  0.00  0.00     0.086 H 
ATOM      8  C19 MOL d   1       1.478  12.701  23.341  0.00  0.00     0.067 A 
ATOM      9  C17 MOL d   1      -0.816  12.498  23.325  0.00  0.00     0.065 A 
ATOM     10  N20 MOL d   1       1.003  13.144  22.206  0.00  0.00    -0.178 NA
ATOM     11  N21 MOL d   1      -0.389  13.042  22.137  0.00  0.00    -0.277 N 
ATOM     12  H26 MOL d   1      -0.984  13.322  21.344  0.00  0.00     0.189 HD
ATOM     13  C14 MOL d   1      -2.082  12.173  23.822  0.00  0.00    -0.022 A 
ATOM     14  C15 MOL d   1      -2.202  11.597  25.075  0.00  0.00     0.083 A 
ATOM     15  H8  MOL d   1      -2.967  12.371  23.228  0.00  0.00     0.091 H 
BRANCH   8  16
ATOM     16  C22 MOL d   1       2.926  12.663  23.776  0.00  0.00    -0.021 C 
ATOM     17  H9  MOL d   1       3.570  12.618  22.886  0.00  0.00     0.042 H 
ATOM     18  H10 MOL d   1       3.094  11.770  24.396  0.00  0.00     0.042 H 
BRANCH  16  19
ATOM     19  C23 MOL d   1       3.281  13.932  24.600  0.00  0.00    -0.054 C 
ATOM     20  H27 MOL d   1       2.584  13.984  25.450  0.00  0.00     0.034 H 
ATOM     21  H28 MOL d   1       3.131  14.806  23.949  0.00  0.00     0.034 H 
BRANCH  19  22
ATOM     22  C24 MOL d   1       4.733  14.011  25.172  0.00  0.00    -0.051 C 
BRANCH  22  23
ATOM     23  C31 MOL d   1       5.823  13.767  24.108  0.00  0.00    -0.070 C 
ATOM     24  H14 MOL d   1       6.816  13.837  24.577  0.00  0.00     0.028 H 
ATOM     25  H15 MOL d   1       5.738  14.525  23.315  0.00  0.00     0.028 H 
ATOM     26  H16 MOL d   1       5.693  12.765  23.673  0.00  0.00     0.028 H 
ENDBRANCH  22  23
BRANCH  22  27
ATOM     27  C32 MOL d   1       5.024  15.413  25.729  0.00  0.00    -0.070 C 
ATOM     28  H17 MOL d   1       4.281  15.662  26.501  0.00  0.00     0.028 H 
ATOM     29  H18 MOL d   1       4.967  16.150  24.915  0.00  0.00     0.028 H 
ATOM     30  H19 MOL d   1       6.032  15.431  26.170  0.00  0.00     0.028 H 
ENDBRANCH  22  27
BRANCH  22  31
ATOM     31  C33 MOL d   1       4.909  13.002  26.326  0.00  0.00    -0.070 C 
ATOM     32  H20 MOL d   1       4.707  11.985  25.958  0.00  0.00     0.028 H 
ATOM     33  H21 MOL d   1       4.206  13.245  27.136  0.00  0.00     0.028 H 
ATOM     34  H22 MOL d   1       5.940  13.056  26.706  0.00  0.00     0.028 H 
ENDBRANCH  22  31
ENDBRANCH  19  22
ENDBRANCH  16  19
ENDBRANCH   8  16
BRANCH  14  35
ATOM     35  O16 MOL d   1      -3.445  11.338  25.540  0.00  0.00    -0.360 OA
ATOM     36  H25 MOL d   1      -3.384  10.947  26.403  0.00  0.00     0.217 HD
ENDBRANCH  14  35
ENDBRANCH   1   4
BRANCH   2  37
ATOM     37  C2  MOL d   1       0.134   8.701  26.459  0.00  0.00     0.037 A 
ATOM     38  C1  MOL d   1       1.489   8.378  26.684  0.00  0.00    -0.056 A 
ATOM     39  C6  MOL d   1       2.193   7.647  25.732  0.00  0.00    -0.074 A 
ATOM     40  H1  MOL d   1       1.980   8.698  27.596  0.00  0.00     0.086 H 
ATOM     41  C5  MOL d   1       1.564   7.253  24.540  0.00  0.00    -0.054 A 
ATOM     42  H24 MOL d   1       3.229   7.381  25.911  0.00  0.00     0.084 H 
ATOM     43  C4  MOL d   1       0.230   7.569  24.326  0.00  0.00    -0.074 A 
ATOM     44  C3  MOL d   1      -0.482   8.282  25.273  0.00  0.00    -0.056 A 
ATOM     45  H23 MOL d   1      -0.257   7.255  23.410  0.00  0.00     0.084 H 
ATOM     46  H2  MOL d   1      -1.525   8.518  25.096  0.00  0.00     0.086 H 
BRANCH  41  47
ATOM     47  C7  MOL d   1       2.232   6.401  23.475  0.00  0.00    -0.026 C 
ATOM     48  C25 MOL d   1       3.685   6.750  23.116  0.00  0.00    -0.035 C 
ATOM     49  C26 MOL d   1       4.079   5.920  21.881  0.00  0.00     0.084 C 
ATOM     50  H29 MOL d   1       4.348   6.504  23.959  0.00  0.00     0.036 H 
ATOM     51  H30 MOL d   1       3.766   7.823  22.887  0.00  0.00     0.036 H 
ATOM     52  N27 MOL d   1       3.791   4.462  22.000  0.00  0.00    -0.075 N 
ATOM     53  H31 MOL d   1       5.159   6.045  21.713  0.00  0.00     0.076 H 
ATOM     54  H32 MOL d   1       3.526   6.310  21.014  0.00  0.00     0.076 H 
ATOM     55  C28 MOL d   1       2.510   4.060  22.630  0.00  0.00     0.084 C 
ATOM     56  H33 MOL d   1       4.526   4.073  22.570  0.00  0.00     0.279 HD
ATOM     57  C29 MOL d   1       2.169   4.911  23.861  0.00  0.00    -0.035 C 
ATOM     58  H34 MOL d   1       2.584   3.007  22.939  0.00  0.00     0.076 H 
ATOM     59  H35 MOL d   1       1.703   4.170  21.890  0.00  0.00     0.076 H 
ATOM     60  H36 MOL d   1       1.156   4.663  24.211  0.00  0.00     0.036 H 
ATOM     61  H37 MOL d   1       2.894   4.707  24.663  0.00  0.00     0.036 H 
ATOM     62  H3  MOL d   1       1.641   6.537  22.558  0.00  0.00     0.047 H 
BRANCH  52  63
ATOM     63  C30 MOL d   1       3.866   3.842  20.666  0.00  0.00     0.066 C 
ATOM     64  H11 MOL d   1       4.811   4.128  20.181  0.00  0.00     0.068 H 
ATOM     65  H12 MOL d   1       3.020   4.187  20.053  0.00  0.00     0.068 H 
ATOM     66  H13 MOL d   1       3.823   2.748  20.767  0.00  0.00     0.068 H 
ENDBRANCH  52  63
ENDBRANCH  41  47
ENDBRANCH   2  37
BRANCH   2  67
ATOM     67  C9  MOL d   1      -0.832   8.746  28.715  0.00  0.00    -0.011 C 
ATOM     68  H4  MOL d   1      -0.301   7.782  28.720  0.00  0.00     0.057 H 
ATOM     69  H5  MOL d   1      -1.906   8.574  28.876  0.00  0.00     0.057 H 
ATOM     70  H6  MOL d   1      -0.439   9.386  29.519  0.00  0.00     0.057 H 
ENDBRANCH   2  67
TORSDOF 12
