REMARK  7 active torsions:
REMARK  status: ('A' for Active; 'I' for Inactive)
REMARK    1  A    between atoms: C25_2  and  N3_31 
REMARK    2  A    between atoms: C23_4  and  N4_34 
REMARK    3  A    between atoms: C22_5  and  O6_32 
REMARK    4  A    between atoms: C21_6  and  C26_7 
REMARK    5  A    between atoms: C21_6  and  N2_8 
REMARK    6  A    between atoms: O6_32  and  C27_33 
REMARK    7  A    between atoms: N4_34  and  C28_35 
ROOT
ATOM      1  O4  STU d   1     -20.386 -12.109 -10.690  0.00  0.00    -0.333 OA
ATOM      2  C25 STU d   1     -20.601 -12.044  -9.315  0.00  0.00     0.115 C 
ATOM      3  C24 STU d   1     -21.229 -10.763  -8.828  0.00  0.00     0.005 C 
ATOM      4  C23 STU d   1     -21.619  -9.870 -10.003  0.00  0.00     0.134 C 
ATOM      5  C22 STU d   1     -20.326  -9.635 -10.830  0.00  0.00     0.113 C 
ATOM      6  C21 STU d   1     -19.899 -11.028 -11.432  0.00  0.00     0.168 C 
ATOM      7  H1  STU d   1     -21.317 -12.840  -9.063  0.00  0.00     0.118 H 
ATOM      8  H2  STU d   1     -20.509 -10.228  -8.191  0.00  0.00     0.042 H 
ATOM      9  H3  STU d   1     -22.129 -11.002  -8.243  0.00  0.00     0.042 H 
ATOM     10  H4  STU d   1     -22.366 -10.399 -10.613  0.00  0.00     0.088 H 
ATOM     11  H5  STU d   1     -20.491  -8.896 -11.628  0.00  0.00     0.094 H 
ENDROOT
BRANCH   4  12
ATOM     12  N4  STU d   1     -22.169  -8.556  -9.634  0.00  0.00    -0.072 N 
ATOM     13  H23 STU d   1     -21.945  -7.904 -10.370  0.00  0.00     0.277 HD
ATOM     14  H24 STU d   1     -21.727  -8.261  -8.778  0.00  0.00     0.277 HD
BRANCH  12  15
ATOM     15  C28 STU d   1     -23.613  -8.532  -9.431  0.00  0.00     0.065 C 
ATOM     16  H25 STU d   1     -23.928  -7.513  -9.160  0.00  0.00     0.067 H 
ATOM     17  H26 STU d   1     -23.881  -9.226  -8.621  0.00  0.00     0.067 H 
ATOM     18  H27 STU d   1     -24.119  -8.838 -10.359  0.00  0.00     0.067 H 
ENDBRANCH  12  15
ENDBRANCH   4  12
BRANCH   5  19
ATOM     19  O6  STU d   1     -19.321  -9.191  -9.927  0.00  0.00    -0.384 OA
BRANCH  19  20
ATOM     20  C27 STU d   1     -18.566  -8.078 -10.384  0.00  0.00     0.005 C 
ATOM     21  H20 STU d   1     -17.817  -7.806  -9.625  0.00  0.00     0.066 H 
ATOM     22  H21 STU d   1     -19.238  -7.225 -10.557  0.00  0.00     0.066 H 
ATOM     23  H22 STU d   1     -18.057  -8.341 -11.323  0.00  0.00     0.066 H 
ENDBRANCH  19  20
ENDBRANCH   5  19
BRANCH   2  24
ATOM     24  N3  STU d   1     -19.323 -12.383  -8.659  0.00  0.00    -0.316 N 
ATOM     25  C19 STU d   1     -18.066 -12.258  -9.203  0.00  0.00     0.077 A 
ATOM     26  C18 STU d   1     -17.658 -11.728 -10.445  0.00  0.00     0.077 A 
ATOM     27  C6  STU d   1     -17.112 -12.738  -8.284  0.00  0.00     0.022 A 
ATOM     28  N2  STU d   1     -18.417 -11.157 -11.482  0.00  0.00    -0.308 N 
ATOM     29  C11 STU d   1     -16.291 -11.678 -10.785  0.00  0.00     0.015 A 
ATOM     30  C17 STU d   1     -17.514 -10.734 -12.492  0.00  0.00     0.049 A 
ATOM     31  C12 STU d   1     -16.202 -11.042 -12.094  0.00  0.00     0.004 A 
ATOM     32  C16 STU d   1     -17.762 -10.090 -13.698  0.00  0.00    -0.056 A 
ATOM     33  C13 STU d   1     -15.145 -10.694 -12.931  0.00  0.00    -0.070 A 
ATOM     34  C14 STU d   1     -15.397 -10.051 -14.131  0.00  0.00    -0.082 A 
ATOM     35  H12 STU d   1     -14.126 -10.926 -12.643  0.00  0.00     0.084 H 
ATOM     36  C15 STU d   1     -16.691  -9.752 -14.511  0.00  0.00    -0.081 A 
ATOM     37  H11 STU d   1     -14.571  -9.780 -14.778  0.00  0.00     0.083 H 
ATOM     38  H10 STU d   1     -16.871  -9.248 -15.454  0.00  0.00     0.083 H 
ATOM     39  H9  STU d   1     -18.777  -9.856 -13.998  0.00  0.00     0.087 H 
ATOM     40  C10 STU d   1     -15.340 -12.170  -9.880  0.00  0.00    -0.010 A 
ATOM     41  C7  STU d   1     -15.761 -12.682  -8.658  0.00  0.00     0.054 A 
ATOM     42  C9  STU d   1     -13.846 -12.240 -10.007  0.00  0.00     0.021 A 
ATOM     43  C8  STU d   1     -14.560 -13.106  -7.909  0.00  0.00     0.253 A 
ATOM     44  N1  STU d   1     -13.453 -12.838  -8.714  0.00  0.00    -0.353 N 
ATOM     45  O5  STU d   1     -14.487 -13.600  -6.787  0.00  0.00    -0.268 OA
ATOM     46  H15 STU d   1     -12.508 -13.028  -8.448  0.00  0.00     0.163 HD
ATOM     47  H13 STU d   1     -13.409 -11.239 -10.133  0.00  0.00     0.071 H 
ATOM     48  H14 STU d   1     -13.546 -12.880 -10.850  0.00  0.00     0.071 H 
ATOM     49  C5  STU d   1     -17.852 -13.165  -7.106  0.00  0.00     0.004 A 
ATOM     50  C20 STU d   1     -19.207 -12.926  -7.374  0.00  0.00     0.048 A 
ATOM     51  C4  STU d   1     -17.497 -13.702  -5.873  0.00  0.00    -0.070 A 
ATOM     52  C1  STU d   1     -20.191 -13.212  -6.437  0.00  0.00    -0.056 A 
ATOM     53  C2  STU d   1     -19.810 -13.743  -5.215  0.00  0.00    -0.081 A 
ATOM     54  H16 STU d   1     -21.236 -13.024  -6.657  0.00  0.00     0.087 H 
ATOM     55  C3  STU d   1     -18.478 -13.985  -4.936  0.00  0.00    -0.082 A 
ATOM     56  H17 STU d   1     -20.564 -13.971  -4.470  0.00  0.00     0.083 H 
ATOM     57  H18 STU d   1     -18.198 -14.400  -3.975  0.00  0.00     0.083 H 
ATOM     58  H19 STU d   1     -16.456 -13.899  -5.646  0.00  0.00     0.084 H 
ENDBRANCH   2  24
BRANCH   6  59
ATOM     59  C26 STU d   1     -20.619 -11.300 -12.736  0.00  0.00    -0.028 C 
ATOM     60  H6  STU d   1     -20.352 -10.526 -13.471  0.00  0.00     0.034 H 
ATOM     61  H7  STU d   1     -21.706 -11.284 -12.565  0.00  0.00     0.034 H 
ATOM     62  H8  STU d   1     -20.323 -12.287 -13.120  0.00  0.00     0.034 H 
ENDBRANCH   6  59
TORSDOF 7
