REMARK  16 active torsions:
REMARK  status: ('A' for Active; 'I' for Inactive)
REMARK    1  A    between atoms: N1_1  and  C5_4 
REMARK    2  A    between atoms: C6_5  and  N1_1 
REMARK       I    between atoms: N1_1  and  C19_31 
REMARK    3  A    between atoms: C5_4  and  C4_3 
REMARK    4  A    between atoms: C4_3  and  N_33 
REMARK    5  A    between atoms: C7_6  and  C6_5 
REMARK    6  A    between atoms: C15_10  and  C18_42 
REMARK    7  A    between atoms: C20_12  and  N2_30 
REMARK    8  A    between atoms: C19_31  and  C20_12 
REMARK    9  A    between atoms: C28_17  and  C29_24 
REMARK   10  A    between atoms: S_25  and  C28_17 
REMARK   11  A    between atoms: C27_26  and  S_25 
REMARK   12  A    between atoms: N_33  and  C2_34 
REMARK   13  A    between atoms: N_33  and  C1_36 
REMARK   14  A    between atoms: C2_34  and  C3_35 
REMARK   15  A    between atoms: C1_36  and  C_37 
REMARK   16  A    between atoms: C9_39  and  C12_40 
ROOT
ATOM      1  N1  71H d   1      27.375 -32.300   3.810  0.00  0.00    -0.348 N 
ATOM      2  C19 71H d   1      26.113 -32.045   3.390  0.00  0.00     0.238 C 
ATOM      3  O   71H d   1      25.141 -32.197   4.120  0.00  0.00    -0.272 OA
ENDROOT
BRANCH   1   4
ATOM      4  C5  71H d   1      27.546 -32.793   5.187  0.00  0.00     0.020 C 
ATOM      5  H3  71H d   1      26.703 -32.432   5.794  0.00  0.00     0.066 H 
ATOM      6  H4  71H d   1      28.487 -32.388   5.589  0.00  0.00     0.066 H 
BRANCH   4   7
ATOM      7  C4  71H d   1      27.594 -34.307   5.280  0.00  0.00     0.098 C 
ATOM      8  H1  71H d   1      28.434 -34.663   4.666  0.00  0.00     0.078 H 
ATOM      9  H2  71H d   1      26.651 -34.707   4.878  0.00  0.00     0.078 H 
BRANCH   7  10
ATOM     10  N   71H d   1      27.769 -34.826   6.645  0.00  0.00    -0.070 N 
ATOM     11  H27 71H d   1      28.135 -35.740   6.427  0.00  0.00     0.279 HD
BRANCH  10  12
ATOM     12  C2  71H d   1      28.873 -34.322   7.495  0.00  0.00     0.080 C 
ATOM     13  H28 71H d   1      28.928 -34.949   8.397  0.00  0.00     0.075 H 
ATOM     14  H29 71H d   1      28.642 -33.286   7.782  0.00  0.00     0.075 H 
BRANCH  12  15
ATOM     15  C3  71H d   1      30.226 -34.337   6.824  0.00  0.00    -0.053 C 
ATOM     16  H30 71H d   1      30.985 -33.949   7.520  0.00  0.00     0.029 H 
ATOM     17  H31 71H d   1      30.196 -33.705   5.925  0.00  0.00     0.029 H 
ATOM     18  H32 71H d   1      30.483 -35.368   6.539  0.00  0.00     0.029 H 
ENDBRANCH  12  15
ENDBRANCH  10  12
BRANCH  10  19
ATOM     19  C1  71H d   1      26.536 -35.203   7.351  0.00  0.00     0.080 C 
ATOM     20  H33 71H d   1      26.812 -35.830   8.212  0.00  0.00     0.075 H 
ATOM     21  H34 71H d   1      25.909 -35.785   6.659  0.00  0.00     0.075 H 
BRANCH  19  22
ATOM     22  C   71H d   1      25.726 -34.049   7.855  0.00  0.00    -0.053 C 
ATOM     23  H35 71H d   1      24.828 -34.427   8.366  0.00  0.00     0.029 H 
ATOM     24  H36 71H d   1      25.426 -33.414   7.008  0.00  0.00     0.029 H 
ATOM     25  H37 71H d   1      26.329 -33.459   8.561  0.00  0.00     0.029 H 
ENDBRANCH  19  22
ENDBRANCH  10  19
ENDBRANCH   7  10
ENDBRANCH   4   7
ENDBRANCH   1   4
BRANCH   1  26
ATOM     26  C6  71H d   1      28.610 -32.162   3.044  0.00  0.00     0.005 C 
ATOM     27  H5  71H d   1      28.338 -31.961   1.997  0.00  0.00     0.065 H 
ATOM     28  H6  71H d   1      29.154 -33.116   3.105  0.00  0.00     0.065 H 
BRANCH  26  29
ATOM     29  C7  71H d   1      29.561 -31.045   3.508  0.00  0.00    -0.021 C 
ATOM     30  C8  71H d   1      30.855 -30.667   2.741  0.00  0.00    -0.045 C 
ATOM     31  C9  71H d   1      30.717 -29.603   3.861  0.00  0.00    -0.011 C 
ATOM     32  H7  71H d   1      30.744 -30.324   1.702  0.00  0.00     0.035 H 
ATOM     33  H8  71H d   1      31.704 -31.364   2.808  0.00  0.00     0.035 H 
ATOM     34  C10 71H d   1      29.212 -29.536   3.492  0.00  0.00    -0.045 C 
ATOM     35  C11 71H d   1      30.343 -30.773   4.808  0.00  0.00    -0.045 C 
ATOM     36  H9  71H d   1      28.519 -29.170   4.264  0.00  0.00     0.035 H 
ATOM     37  H10 71H d   1      28.950 -29.089   2.522  0.00  0.00     0.035 H 
ATOM     38  H38 71H d   1      31.142 -31.482   5.073  0.00  0.00     0.035 H 
ATOM     39  H39 71H d   1      29.758 -30.527   5.706  0.00  0.00     0.035 H 
BRANCH  31  40
ATOM     40  C12 71H d   1      31.705 -28.588   4.429  0.00  0.00    -0.049 A 
ATOM     41  C13 71H d   1      31.280 -27.337   4.863  0.00  0.00    -0.075 A 
ATOM     42  C14 71H d   1      32.164 -26.444   5.442  0.00  0.00    -0.068 A 
ATOM     43  H11 71H d   1      30.239 -27.057   4.746  0.00  0.00     0.084 H 
ATOM     44  C15 71H d   1      33.506 -26.772   5.601  0.00  0.00     0.047 A 
ATOM     45  H41 71H d   1      31.806 -25.477   5.776  0.00  0.00     0.084 H 
ATOM     46  C16 71H d   1      33.936 -28.018   5.156  0.00  0.00    -0.068 A 
ATOM     47  C17 71H d   1      33.050 -28.909   4.578  0.00  0.00    -0.075 A 
ATOM     48  H40 71H d   1      34.979 -28.294   5.264  0.00  0.00     0.084 H 
ATOM     49  H12 71H d   1      33.410 -29.873   4.236  0.00  0.00     0.084 H 
BRANCH  44  50
ATOM     50  C18 71H d   1      34.466 -25.810   6.226  0.00  0.00     0.417 C 
ATOM     51  F2  71H d   1      35.175 -25.136   5.317  0.00  0.00    -0.166 F 
ATOM     52  F1  71H d   1      33.867 -24.893   6.990  0.00  0.00    -0.166 F 
ATOM     53  F   71H d   1      35.349 -26.413   7.018  0.00  0.00    -0.166 F 
ENDBRANCH  44  50
ENDBRANCH  31  40
ENDBRANCH  26  29
ENDBRANCH   1  26
BRANCH   2  54
ATOM     54  C20 71H d   1      25.916 -31.536   1.961  0.00  0.00     0.075 C 
ATOM     55  H13 71H d   1      26.662 -30.756   1.747  0.00  0.00     0.079 H 
ATOM     56  H14 71H d   1      26.047 -32.371   1.257  0.00  0.00     0.079 H 
BRANCH  54  57
ATOM     57  N2  71H d   1      24.578 -30.979   1.804  0.00  0.00    -0.320 N 
ATOM     58  C21 71H d   1      23.488 -31.803   1.540  0.00  0.00     0.026 A 
ATOM     59  C22 71H d   1      23.548 -33.286   1.318  0.00  0.00    -0.025 C 
ATOM     60  C25 71H d   1      22.227 -31.325   1.553  0.00  0.00     0.035 A 
ATOM     61  C23 71H d   1      22.088 -33.660   1.059  0.00  0.00    -0.056 C 
ATOM     62  H15 71H d   1      23.936 -33.803   2.208  0.00  0.00     0.042 H 
ATOM     63  H16 71H d   1      24.178 -33.530   0.450  0.00  0.00     0.042 H 
ATOM     64  C24 71H d   1      21.226 -32.433   1.354  0.00  0.00    -0.034 C 
ATOM     65  H25 71H d   1      21.793 -34.490   1.717  0.00  0.00     0.034 H 
ATOM     66  H26 71H d   1      21.961 -33.962   0.009  0.00  0.00     0.034 H 
ATOM     67  H17 71H d   1      20.559 -32.211   0.508  0.00  0.00     0.040 H 
ATOM     68  H18 71H d   1      20.626 -32.586   2.263  0.00  0.00     0.040 H 
ATOM     69  C26 71H d   1      22.039 -29.885   1.741  0.00  0.00     0.277 A 
ATOM     70  N3  71H d   1      23.152 -29.082   1.922  0.00  0.00    -0.185 NA
ATOM     71  O1  71H d   1      20.917 -29.381   1.766  0.00  0.00    -0.265 OA
ATOM     72  C27 71H d   1      24.333 -29.628   1.952  0.00  0.00     0.173 A 
BRANCH  72  73
ATOM     73  S   71H d   1      25.730 -28.637   2.281  0.00  0.00    -0.087 SA
BRANCH  73  74
ATOM     74  C28 71H d   1      25.039 -26.950   2.410  0.00  0.00     0.008 C 
ATOM     75  H19 71H d   1      24.867 -26.530   1.408  0.00  0.00     0.056 H 
ATOM     76  H20 71H d   1      24.091 -26.967   2.968  0.00  0.00     0.056 H 
BRANCH  74  77
ATOM     77  C29 71H d   1      26.067 -26.135   3.150  0.00  0.00    -0.048 A 
ATOM     78  C30 71H d   1      26.187 -26.229   4.532  0.00  0.00    -0.073 A 
ATOM     79  C31 71H d   1      27.181 -25.552   5.215  0.00  0.00    -0.045 A 
ATOM     80  H22 71H d   1      25.488 -26.845   5.085  0.00  0.00     0.084 H 
ATOM     81  C32 71H d   1      28.053 -24.784   4.493  0.00  0.00     0.116 A 
ATOM     82  H21 71H d   1      27.267 -25.628   6.293  0.00  0.00     0.088 H 
ATOM     83  F3  71H d   1      29.046 -24.129   5.157  0.00  0.00    -0.206 F 
ATOM     84  C33 71H d   1      27.973 -24.649   3.131  0.00  0.00    -0.045 A 
ATOM     85  C34 71H d   1      26.965 -25.326   2.465  0.00  0.00    -0.073 A 
ATOM     86  H23 71H d   1      28.679 -24.029   2.590  0.00  0.00     0.088 H 
ATOM     87  H24 71H d   1      26.875 -25.223   1.390  0.00  0.00     0.084 H 
ENDBRANCH  74  77
ENDBRANCH  73  74
ENDBRANCH  72  73
ENDBRANCH  54  57
ENDBRANCH   2  54
TORSDOF 16
