REMARK  10 active torsions:
REMARK  status: ('A' for Active; 'I' for Inactive)
REMARK    1  A    between atoms: CBA_1  and  OAW_2 
REMARK    2  A    between atoms: OAW_2  and  CAP_3 
REMARK    3  A    between atoms: CAZ_8  and  SBB_9 
REMARK    4  A    between atoms: SBB_9  and  CBC_10 
REMARK    5  A    between atoms: CAH_15  and  NAI_16 
REMARK       I    between atoms: NAI_16  and  CAJ_17 
REMARK    6  A    between atoms: CAJ_17  and  CAL_19 
REMARK    7  A    between atoms: CAC_24  and  OAB_25 
REMARK    8  A    between atoms: OAB_25  and  CAA_26 
REMARK    9  A    between atoms: CAO_27  and  OAN_28 
REMARK   10  A    between atoms: OAN_28  and  CAM_29 
ROOT
ATOM      1  CAP 71P d   1      16.545  64.505  41.696  0.00  0.00     0.116 A 
ATOM      2  CAQ 71P d   1      17.312  64.934  42.850  0.00  0.00     0.017 A 
ATOM      3  CAR 71P d   1      17.305  64.237  44.137  0.00  0.00    -0.014 C 
ATOM      4  CAX 71P d   1      16.694  62.966  44.063  0.00  0.00    -0.070 C 
ATOM      5  CAY 71P d   1      16.431  61.979  45.006  0.00  0.00    -0.062 C 
ATOM      6  CAZ 71P d   1      16.801  61.870  46.333  0.00  0.00     0.050 C 
ATOM      7  CAU 71P d   1      17.514  62.810  47.056  0.00  0.00     0.189 C 
ATOM      8  OAV 71P d   1      17.750  62.608  48.248  0.00  0.00    -0.287 OA
ATOM      9  CAT 71P d   1      18.005  64.015  46.592  0.00  0.00    -0.024 C 
ATOM     10  CAS 71P d   1      17.945  64.647  45.333  0.00  0.00    -0.020 C 
ATOM     11  CAH 71P d   1      18.714  65.820  45.610  0.00  0.00     0.039 C 
ATOM     12  CAG 71P d   1      19.619  66.101  44.430  0.00  0.00    -0.038 C 
ATOM     13  CAF 71P d   1      18.909  66.873  43.451  0.00  0.00    -0.038 C 
ATOM     14  CAE 71P d   1      18.090  66.108  42.588  0.00  0.00    -0.041 A 
ATOM     15  CAD 71P d   1      18.063  66.769  41.338  0.00  0.00    -0.041 A 
ATOM     16  CAC 71P d   1      17.311  66.300  40.278  0.00  0.00     0.104 A 
ATOM     17  CAO 71P d   1      16.545  65.178  40.468  0.00  0.00     0.136 A 
ATOM     18  H4  71P d   1      16.360  62.705  43.060  0.00  0.00     0.084 H 
ATOM     19  H5  71P d   1      15.831  61.150  44.636  0.00  0.00     0.085 H 
ATOM     20  H9  71P d   1      18.543  64.588  47.345  0.00  0.00     0.090 H 
ATOM     21  H10 71P d   1      19.405  65.524  46.413  0.00  0.00     0.080 H 
ATOM     22  H15 71P d   1      19.942  65.150  43.982  0.00  0.00     0.036 H 
ATOM     23  H16 71P d   1      20.500  66.664  44.771  0.00  0.00     0.036 H 
ATOM     24  H17 71P d   1      19.645  67.413  42.838  0.00  0.00     0.040 H 
ATOM     25  H18 71P d   1      18.271  67.597  43.980  0.00  0.00     0.040 H 
ATOM     26  H19 71P d   1      18.650  67.671  41.208  0.00  0.00     0.088 H 
ENDROOT
BRANCH  11  27
ATOM     27  NAI 71P d   1      17.938  66.951  46.232  0.00  0.00    -0.353 N 
ATOM     28  CAJ 71P d   1      16.606  66.971  46.502  0.00  0.00     0.214 C 
ATOM     29  OAK 71P d   1      15.786  66.120  46.171  0.00  0.00    -0.274 OA
ATOM     30  H11 71P d   1      18.456  67.772  46.471  0.00  0.00     0.163 HD
BRANCH  28  31
ATOM     31  CAL 71P d   1      16.109  68.185  47.266  0.00  0.00    -0.003 C 
ATOM     32  H12 71P d   1      15.025  68.097  47.429  0.00  0.00     0.040 H 
ATOM     33  H13 71P d   1      16.320  69.095  46.686  0.00  0.00     0.040 H 
ATOM     34  H14 71P d   1      16.622  68.242  48.237  0.00  0.00     0.040 H 
ENDBRANCH  28  31
ENDBRANCH  11  27
BRANCH   1  35
ATOM     35  OAW 71P d   1      15.698  63.435  41.706  0.00  0.00    -0.352 OA
BRANCH  35  36
ATOM     36  CBA 71P d   1      14.408  63.976  42.193  0.00  0.00     0.011 C 
ATOM     37  H1  71P d   1      13.662  63.168  42.231  0.00  0.00     0.067 H 
ATOM     38  H2  71P d   1      14.060  64.764  41.510  0.00  0.00     0.067 H 
ATOM     39  H3  71P d   1      14.544  64.397  43.200  0.00  0.00     0.067 H 
ENDBRANCH  35  36
ENDBRANCH   1  35
BRANCH   6  40
ATOM     40  SBB 71P d   1      16.240  60.393  47.144  0.00  0.00    -0.130 SA
BRANCH  40  41
ATOM     41  CBC 71P d   1      17.713  59.720  47.881  0.00  0.00    -0.030 C 
ATOM     42  H6  71P d   1      17.465  58.790  48.414  0.00  0.00     0.042 H 
ATOM     43  H7  71P d   1      18.134  60.448  48.590  0.00  0.00     0.042 H 
ATOM     44  H8  71P d   1      18.451  59.506  47.094  0.00  0.00     0.042 H 
ENDBRANCH  40  41
ENDBRANCH   6  40
BRANCH  17  45
ATOM     45  OAN 71P d   1      15.819  64.690  39.409  0.00  0.00    -0.351 OA
BRANCH  45  46
ATOM     46  CAM 71P d   1      14.489  65.147  39.176  0.00  0.00     0.011 C 
ATOM     47  H23 71P d   1      14.078  64.643  38.289  0.00  0.00     0.067 H 
ATOM     48  H24 71P d   1      14.499  66.234  39.008  0.00  0.00     0.067 H 
ATOM     49  H25 71P d   1      13.864  64.917  40.051  0.00  0.00     0.067 H 
ENDBRANCH  45  46
ENDBRANCH  17  45
BRANCH  16  50
ATOM     50  OAB 71P d   1      17.278  66.889  39.051  0.00  0.00    -0.353 OA
BRANCH  50  51
ATOM     51  CAA 71P d   1      18.384  66.486  38.225  0.00  0.00     0.010 C 
ATOM     52  H20 71P d   1      18.313  66.986  37.248  0.00  0.00     0.066 H 
ATOM     53  H21 71P d   1      18.356  65.396  38.081  0.00  0.00     0.066 H 
ATOM     54  H22 71P d   1      19.328  66.768  38.714  0.00  0.00     0.066 H 
ENDBRANCH  50  51
ENDBRANCH  16  50
TORSDOF 10
