REMARK  9 active torsions:
REMARK  status: ('A' for Active; 'I' for Inactive)
REMARK       I    between atoms: N1_4  and  C8_6 
REMARK    1  A    between atoms: C8_6  and  C_17 
REMARK       I    between atoms: N2_7  and  C13_13 
REMARK    2  A    between atoms: C14_14  and  N2_7 
REMARK    3  A    between atoms: C13_13  and  C12_11 
REMARK    4  A    between atoms: C21_24  and  N3_12 
REMARK    5  A    between atoms: C15_15  and  C14_14 
REMARK    6  A    between atoms: C_17  and  C1_18 
REMARK    7  A    between atoms: C_17  and  N_21 
REMARK    8  A    between atoms: C1_18  and  C2_19 
REMARK    9  A    between atoms: C20_23  and  C21_24 
ROOT
ATOM      1  N1  MOL d   1      17.848 -12.703  21.406  0.00  0.00    -0.337 N 
ATOM      2  C8  MOL d   1      17.099 -13.160  22.421  0.00  0.00     0.251 C 
ATOM      3  C9  MOL d   1      19.020 -13.352  20.794  0.00  0.00    -0.001 C 
ATOM      4  C10 MOL d   1      19.603 -12.267  19.915  0.00  0.00    -0.048 C 
ATOM      5  C11 MOL d   1      18.396 -11.428  19.509  0.00  0.00    -0.036 C 
ATOM      6  C12 MOL d   1      17.532 -11.415  20.777  0.00  0.00     0.091 C 
ATOM      7  O1  MOL d   1      16.141 -12.526  22.842  0.00  0.00    -0.271 OA
ATOM      8  H10 MOL d   1      18.719 -14.224  20.195  0.00  0.00     0.064 H 
ATOM      9  H11 MOL d   1      19.742 -13.666  21.562  0.00  0.00     0.064 H 
ATOM     10  H12 MOL d   1      20.092 -12.702  19.030  0.00  0.00     0.035 H 
ATOM     11  H13 MOL d   1      20.330 -11.660  20.474  0.00  0.00     0.035 H 
ATOM     12  H14 MOL d   1      17.857 -11.893  18.670  0.00  0.00     0.036 H 
ATOM     13  H15 MOL d   1      18.701 -10.409  19.230  0.00  0.00     0.036 H 
ATOM     14  H16 MOL d   1      17.816 -10.580  21.435  0.00  0.00     0.087 H 
ENDROOT
BRANCH   2  15
ATOM     15  C   MOL d   1      17.448 -14.546  23.042  0.00  0.00     0.176 C 
ATOM     16  H22 MOL d   1      18.186 -15.067  22.415  0.00  0.00     0.099 H 
BRANCH  15  17
ATOM     17  C1  MOL d   1      18.002 -14.351  24.454  0.00  0.00    -0.027 C 
ATOM     18  H23 MOL d   1      18.128 -15.342  24.914  0.00  0.00     0.037 H 
ATOM     19  H24 MOL d   1      17.270 -13.769  25.033  0.00  0.00     0.037 H 
BRANCH  17  20
ATOM     20  C2  MOL d   1      19.342 -13.625  24.513  0.00  0.00    -0.052 C 
ATOM     21  C7  MOL d   1      20.479 -14.494  23.986  0.00  0.00    -0.062 C 
ATOM     22  C6  MOL d   1      21.821 -13.778  24.085  0.00  0.00    -0.065 C 
ATOM     23  H7  MOL d   1      20.524 -15.421  24.577  0.00  0.00     0.033 H 
ATOM     24  H8  MOL d   1      20.282 -14.740  22.932  0.00  0.00     0.033 H 
ATOM     25  C5  MOL d   1      22.114 -13.356  25.512  0.00  0.00    -0.065 C 
ATOM     26  H5  MOL d   1      22.616 -14.456  23.741  0.00  0.00     0.033 H 
ATOM     27  H6  MOL d   1      21.799 -12.884  23.444  0.00  0.00     0.033 H 
ATOM     28  C4  MOL d   1      20.983 -12.496  26.064  0.00  0.00    -0.065 C 
ATOM     29  H3  MOL d   1      22.224 -14.254  26.138  0.00  0.00     0.033 H 
ATOM     30  H4  MOL d   1      23.050 -12.778  25.532  0.00  0.00     0.033 H 
ATOM     31  C3  MOL d   1      19.647 -13.216  25.942  0.00  0.00    -0.062 C 
ATOM     32  H1  MOL d   1      20.938 -11.554  25.498  0.00  0.00     0.033 H 
ATOM     33  H2  MOL d   1      21.180 -12.278  27.124  0.00  0.00     0.033 H 
ATOM     34  H26 MOL d   1      18.850 -12.545  26.296  0.00  0.00     0.033 H 
ATOM     35  H27 MOL d   1      19.673 -14.118  26.570  0.00  0.00     0.033 H 
ATOM     36  H25 MOL d   1      19.275 -12.721  23.890  0.00  0.00     0.040 H 
ENDBRANCH  17  20
ENDBRANCH  15  17
BRANCH  15  37
ATOM     37  N   MOL d   1      16.211 -15.331  23.136  0.00  0.00    -0.066 N 
ATOM     38  H28 MOL d   1      15.830 -15.470  22.213  0.00  0.00     0.275 HD
ATOM     39  H29 MOL d   1      15.541 -14.836  23.704  0.00  0.00     0.275 HD
ATOM     40  H30 MOL d   1      16.412 -16.226  23.555  0.00  0.00     0.275 HD
ENDBRANCH  15  37
ENDBRANCH   2  15
BRANCH   6  41
ATOM     41  C13 MOL d   1      16.046 -11.300  20.436  0.00  0.00     0.240 C 
ATOM     42  N2  MOL d   1      15.449 -10.145  20.753  0.00  0.00    -0.355 N 
ATOM     43  H9  MOL d   1      15.976  -9.426  21.206  0.00  0.00     0.162 HD
ATOM     44  O   MOL d   1      15.448 -12.233  19.892  0.00  0.00    -0.271 OA
BRANCH  42  45
ATOM     45  C14 MOL d   1      14.041  -9.921  20.447  0.00  0.00     0.019 C 
ATOM     46  H20 MOL d   1      13.700 -10.717  19.768  0.00  0.00     0.071 H 
ATOM     47  H21 MOL d   1      13.943  -8.946  19.947  0.00  0.00     0.071 H 
BRANCH  45  48
ATOM     48  C15 MOL d   1      13.159  -9.923  21.667  0.00  0.00    -0.031 A 
ATOM     49  C20 MOL d   1      12.337 -11.026  21.958  0.00  0.00    -0.025 A 
ATOM     50  C19 MOL d   1      11.467 -10.958  23.042  0.00  0.00    -0.073 A 
ATOM     51  C18 MOL d   1      11.405  -9.829  23.836  0.00  0.00    -0.061 A 
ATOM     52  H33 MOL d   1      10.828 -11.804  23.267  0.00  0.00     0.084 H 
ATOM     53  C17 MOL d   1      12.244  -8.774  23.558  0.00  0.00     0.034 A 
ATOM     54  H34 MOL d   1      10.707  -9.775  24.664  0.00  0.00     0.086 H 
ATOM     55 CL   MOL d   1      12.220  -7.360  24.576  0.00  0.00    -0.084 Cl
ATOM     56  C16 MOL d   1      13.112  -8.811  22.496  0.00  0.00    -0.054 A 
ATOM     57  H35 MOL d   1      13.765  -7.967  22.303  0.00  0.00     0.087 H 
BRANCH  49  58
ATOM     58  C21 MOL d   1      12.398 -12.294  21.163  0.00  0.00     0.104 C 
ATOM     59  H31 MOL d   1      11.369 -12.587  20.906  0.00  0.00     0.082 H 
ATOM     60  H32 MOL d   1      12.963 -12.093  20.241  0.00  0.00     0.082 H 
BRANCH  58  61
ATOM     61  N3  MOL d   1      13.034 -13.418  21.852  0.00  0.00    -0.075 N 
ATOM     62  H17 MOL d   1      13.033 -14.226  21.249  0.00  0.00     0.274 HD
ATOM     63  H18 MOL d   1      12.524 -13.627  22.695  0.00  0.00     0.274 HD
ATOM     64  H19 MOL d   1      13.984 -13.175  22.086  0.00  0.00     0.274 HD
ENDBRANCH  58  61
ENDBRANCH  49  58
ENDBRANCH  45  48
ENDBRANCH  42  45
ENDBRANCH   6  41
TORSDOF 9
