REMARK  8 active torsions:
REMARK  status: ('A' for Active; 'I' for Inactive)
REMARK       I    between atoms: C9_7  and  N1_1 
REMARK    1  A    between atoms: N1_1  and  C10_9 
REMARK    2  A    between atoms: C2_2  and  C3_3 
REMARK    3  A    between atoms: C3_3  and  C4_4 
REMARK    4  A    between atoms: C5_5  and  C6_6 
REMARK    5  A    between atoms: C6_6  and  C7_16 
REMARK    6  A    between atoms: C9_7  and  C8_8 
REMARK    7  A    between atoms: C10_9  and  C11_10 
REMARK    8  A    between atoms: C_18  and  C1_19 
ROOT
ATOM      1  C2  XDM d   1     -28.940  50.887  -3.138  0.00  0.00     0.040 A 
ATOM      2  C5  XDM d   1     -30.339  50.796  -3.482  0.00  0.00    -0.010 A 
ATOM      3  C8  XDM d   1     -31.037  50.800  -2.263  0.00  0.00     0.108 A 
ATOM      4  C   XDM d   1     -28.848  50.937  -1.753  0.00  0.00     0.020 A 
ATOM      5  N   XDM d   1     -30.115  50.852  -1.247  0.00  0.00    -0.354 N 
ATOM      6  H18 XDM d   1     -30.346  50.830  -0.243  0.00  0.00     0.166 HD
ENDROOT
BRANCH   3   7
ATOM      7  C9  XDM d   1     -32.440  50.722  -1.808  0.00  0.00     0.269 C 
ATOM      8  N1  XDM d   1     -33.406  50.799  -2.723  0.00  0.00    -0.351 N 
ATOM      9  H1  XDM d   1     -33.159  50.800  -3.692  0.00  0.00     0.163 HD
ATOM     10  O1  XDM d   1     -32.686  50.496  -0.623  0.00  0.00    -0.266 OA
BRANCH   8  11
ATOM     11  C10 XDM d   1     -34.810  50.882  -2.350  0.00  0.00     0.019 C 
ATOM     12  H7  XDM d   1     -35.057  50.015  -1.720  0.00  0.00     0.071 H 
ATOM     13  H8  XDM d   1     -35.418  50.854  -3.266  0.00  0.00     0.071 H 
BRANCH  11  14
ATOM     14  C11 XDM d   1     -35.146  52.142  -1.588  0.00  0.00    -0.039 A 
ATOM     15  C12 XDM d   1     -36.051  52.107  -0.539  0.00  0.00    -0.075 A 
ATOM     16  C13 XDM d   1     -36.350  53.252   0.179  0.00  0.00    -0.081 A 
ATOM     17  H9  XDM d   1     -36.531  51.171  -0.277  0.00  0.00     0.084 H 
ATOM     18  C14 XDM d   1     -35.754  54.457  -0.145  0.00  0.00    -0.062 A 
ATOM     19  H10 XDM d   1     -37.056  53.204   1.000  0.00  0.00     0.083 H 
ATOM     20  C15 XDM d   1     -34.863  54.490  -1.194  0.00  0.00     0.034 A 
ATOM     21  H11 XDM d   1     -35.983  55.356   0.415  0.00  0.00     0.086 H 
ATOM     22  C16 XDM d   1     -34.548  53.355  -1.914  0.00  0.00    -0.054 A 
ATOM     23 CL   XDM d   1     -34.126  56.006  -1.637  0.00  0.00    -0.084 Cl
ATOM     24  H19 XDM d   1     -33.837  53.409  -2.731  0.00  0.00     0.086 H 
ENDBRANCH  11  14
ENDBRANCH   8  11
ENDBRANCH   3   7
BRANCH   2  25
ATOM     25  C6  XDM d   1     -30.912  50.685  -4.868  0.00  0.00    -0.041 C 
ATOM     26  H5  XDM d   1     -31.863  50.136  -4.812  0.00  0.00     0.039 H 
ATOM     27  H6  XDM d   1     -30.203  50.127  -5.498  0.00  0.00     0.039 H 
BRANCH  25  28
ATOM     28  C7  XDM d   1     -31.168  52.030  -5.505  0.00  0.00    -0.073 C 
ATOM     29  H12 XDM d   1     -31.585  51.885  -6.513  0.00  0.00     0.028 H 
ATOM     30  H13 XDM d   1     -30.223  52.588  -5.576  0.00  0.00     0.028 H 
ATOM     31  H14 XDM d   1     -31.883  52.597  -4.890  0.00  0.00     0.028 H 
ENDBRANCH  25  28
ENDBRANCH   2  25
BRANCH   1  32
ATOM     32  C3  XDM d   1     -27.765  50.916  -4.018  0.00  0.00     0.158 C 
ATOM     33  O   XDM d   1     -26.730  51.468  -3.645  0.00  0.00    -0.293 OA
BRANCH  32  34
ATOM     34  C4  XDM d   1     -27.790  50.264  -5.365  0.00  0.00    -0.017 C 
ATOM     35  H2  XDM d   1     -26.816  50.401  -5.857  0.00  0.00     0.038 H 
ATOM     36  H3  XDM d   1     -28.579  50.722  -5.980  0.00  0.00     0.038 H 
ATOM     37  H4  XDM d   1     -27.994  49.189  -5.248  0.00  0.00     0.038 H 
ENDBRANCH  32  34
ENDBRANCH   1  32
BRANCH   4  38
ATOM     38  C1  XDM d   1     -27.668  51.116  -0.851  0.00  0.00    -0.037 C 
ATOM     39  H15 XDM d   1     -28.002  51.101   0.197  0.00  0.00     0.035 H 
ATOM     40  H16 XDM d   1     -27.184  52.080  -1.068  0.00  0.00     0.035 H 
ATOM     41  H17 XDM d   1     -26.951  50.299  -1.019  0.00  0.00     0.035 H 
ENDBRANCH   4  38
TORSDOF 8
