REMARK  8 active torsions:
REMARK  status: ('A' for Active; 'I' for Inactive)
REMARK       I    between atoms: C9_7  and  N1_1 
REMARK    1  A    between atoms: N1_1  and  C10_9 
REMARK    2  A    between atoms: C2_2  and  C3_3 
REMARK    3  A    between atoms: C3_3  and  C4_4 
REMARK    4  A    between atoms: C5_5  and  C6_6 
REMARK    5  A    between atoms: C6_6  and  C7_16 
REMARK    6  A    between atoms: C9_7  and  C8_8 
REMARK    7  A    between atoms: C10_9  and  C11_10 
REMARK    8  A    between atoms: C_18  and  C1_19 
ROOT
ATOM      1  C2  XDM d   1     146.797 -60.976 145.855  0.00  0.00     0.040 A 
ATOM      2  C5  XDM d   1     147.647 -59.949 146.270  0.00  0.00    -0.010 A 
ATOM      3  C8  XDM d   1     148.302 -60.545 147.464  0.00  0.00     0.108 A 
ATOM      4  C   XDM d   1     146.954 -62.123 146.764  0.00  0.00     0.020 A 
ATOM      5  N   XDM d   1     147.848 -61.762 147.684  0.00  0.00    -0.354 N 
ATOM      6  H18 XDM d   1     148.146 -62.359 148.468  0.00  0.00     0.166 HD
ENDROOT
BRANCH   3   7
ATOM      7  C9  XDM d   1     149.294 -59.920 148.374  0.00  0.00     0.269 C 
ATOM      8  N1  XDM d   1     150.110 -58.927 148.009  0.00  0.00    -0.351 N 
ATOM      9  H1  XDM d   1     150.120 -58.602 147.063  0.00  0.00     0.163 HD
ATOM     10  O1  XDM d   1     149.313 -60.379 149.524  0.00  0.00    -0.266 OA
BRANCH   8  11
ATOM     11  C10 XDM d   1     150.980 -58.327 149.001  0.00  0.00     0.019 C 
ATOM     12  H7  XDM d   1     150.403 -58.125 149.915  0.00  0.00     0.071 H 
ATOM     13  H8  XDM d   1     151.384 -57.383 148.606  0.00  0.00     0.071 H 
BRANCH  11  14
ATOM     14  C11 XDM d   1     152.116 -59.255 149.327  0.00  0.00    -0.039 A 
ATOM     15  C12 XDM d   1     152.473 -59.471 150.651  0.00  0.00    -0.075 A 
ATOM     16  C13 XDM d   1     153.530 -60.306 150.987  0.00  0.00    -0.081 A 
ATOM     17  H9  XDM d   1     151.915 -58.978 151.439  0.00  0.00     0.084 H 
ATOM     18  C14 XDM d   1     154.219 -60.955 149.988  0.00  0.00    -0.062 A 
ATOM     19  H10 XDM d   1     153.810 -60.445 152.025  0.00  0.00     0.083 H 
ATOM     20  C15 XDM d   1     153.854 -60.725 148.671  0.00  0.00     0.034 A 
ATOM     21  H11 XDM d   1     155.031 -61.633 150.226  0.00  0.00     0.086 H 
ATOM     22  C16 XDM d   1     152.809 -59.898 148.327  0.00  0.00    -0.054 A 
ATOM     23 CL   XDM d   1     154.742 -61.554 147.383  0.00  0.00    -0.084 Cl
ATOM     24  H19 XDM d   1     152.537 -59.756 147.287  0.00  0.00     0.086 H 
ENDBRANCH  11  14
ENDBRANCH   8  11
ENDBRANCH   3   7
BRANCH   2  25
ATOM     25  C6  XDM d   1     147.842 -58.578 145.676  0.00  0.00    -0.041 C 
ATOM     26  H5  XDM d   1     148.319 -57.928 146.425  0.00  0.00     0.039 H 
ATOM     27  H6  XDM d   1     146.860 -58.164 145.403  0.00  0.00     0.039 H 
BRANCH  25  28
ATOM     28  C7  XDM d   1     148.725 -58.630 144.428  0.00  0.00    -0.073 C 
ATOM     29  H12 XDM d   1     148.846 -57.615 144.022  0.00  0.00     0.028 H 
ATOM     30  H13 XDM d   1     148.253 -59.274 143.671  0.00  0.00     0.028 H 
ATOM     31  H14 XDM d   1     149.711 -59.038 144.693  0.00  0.00     0.028 H 
ENDBRANCH  25  28
ENDBRANCH   2  25
BRANCH   1  32
ATOM     32  C3  XDM d   1     145.849 -60.996 144.704  0.00  0.00     0.158 C 
ATOM     33  O   XDM d   1     145.480 -62.046 144.239  0.00  0.00    -0.293 OA
BRANCH  32  34
ATOM     34  C4  XDM d   1     145.322 -59.713 144.158  0.00  0.00    -0.017 C 
ATOM     35  H2  XDM d   1     144.643 -59.923 143.319  0.00  0.00     0.038 H 
ATOM     36  H3  XDM d   1     146.159 -59.093 143.805  0.00  0.00     0.038 H 
ATOM     37  H4  XDM d   1     144.775 -59.176 144.947  0.00  0.00     0.038 H 
ENDBRANCH  32  34
ENDBRANCH   1  32
BRANCH   4  38
ATOM     38  C1  XDM d   1     146.304 -63.482 146.766  0.00  0.00    -0.037 C 
ATOM     39  H15 XDM d   1     146.684 -64.069 147.616  0.00  0.00     0.035 H 
ATOM     40  H16 XDM d   1     146.540 -64.003 145.826  0.00  0.00     0.035 H 
ATOM     41  H17 XDM d   1     145.214 -63.367 146.858  0.00  0.00     0.035 H 
ENDBRANCH   4  38
TORSDOF 8
