REMARK  8 active torsions:
REMARK  status: ('A' for Active; 'I' for Inactive)
REMARK    1  A    between atoms: C10_7  and  C11_17 
REMARK       I    between atoms: N_23  and  C10_7 
REMARK    2  A    between atoms: C13_8  and  C14_15 
REMARK    3  A    between atoms: C12_22  and  C13_8 
REMARK    4  A    between atoms: C15_9  and  C16_12 
REMARK    5  A    between atoms: C16_12  and  C17_10 
REMARK    6  A    between atoms: C18_14  and  C19_13 
REMARK    7  A    between atoms: C9_18  and  N_23 
REMARK    8  A    between atoms: C_24  and  O_25 
ROOT
ATOM      1  C10 71X d   1      98.901 -36.898  21.541  0.00  0.00     0.269 C 
ATOM      2  O1  71X d   1      98.842 -36.991  20.320  0.00  0.00    -0.266 OA
ATOM      3  N   71X d   1      98.819 -37.967  22.345  0.00  0.00    -0.344 N 
ATOM      4  H21 71X d   1      98.773 -37.845  23.337  0.00  0.00     0.163 HD
ENDROOT
BRANCH   1   5
ATOM      5  C11 71X d   1      99.036 -35.568  22.169  0.00  0.00     0.108 A 
ATOM      6  N1  71X d   1      99.187 -34.549  21.264  0.00  0.00    -0.354 N 
ATOM      7  C18 71X d   1      99.227 -33.344  21.903  0.00  0.00     0.020 A 
ATOM      8  H1  71X d   1      99.260 -34.675  20.244  0.00  0.00     0.166 HD
ATOM      9  C15 71X d   1      99.053 -33.579  23.264  0.00  0.00     0.040 A 
ATOM     10  C12 71X d   1      98.930 -35.004  23.452  0.00  0.00    -0.010 A 
BRANCH   7  11
ATOM     11  C19 71X d   1      99.480 -32.083  21.138  0.00  0.00    -0.037 C 
ATOM     12  H10 71X d   1      99.473 -31.227  21.829  0.00  0.00     0.035 H 
ATOM     13  H11 71X d   1      98.693 -31.949  20.381  0.00  0.00     0.035 H 
ATOM     14  H12 71X d   1     100.460 -32.146  20.641  0.00  0.00     0.035 H 
ENDBRANCH   7  11
BRANCH   9  15
ATOM     15  C16 71X d   1      98.988 -32.423  24.169  0.00  0.00     0.158 C 
ATOM     16  O2  71X d   1      99.523 -31.361  23.853  0.00  0.00    -0.293 OA
BRANCH  15  17
ATOM     17  C17 71X d   1      98.238 -32.491  25.463  0.00  0.00    -0.017 C 
ATOM     18  H7  71X d   1      98.316 -31.525  25.983  0.00  0.00     0.038 H 
ATOM     19  H8  71X d   1      98.667 -33.283  26.094  0.00  0.00     0.038 H 
ATOM     20  H9  71X d   1      97.180 -32.715  25.262  0.00  0.00     0.038 H 
ENDBRANCH  15  17
ENDBRANCH   9  15
BRANCH  10  21
ATOM     21  C13 71X d   1      98.727 -35.716  24.763  0.00  0.00    -0.041 C 
ATOM     22  H5  71X d   1      97.952 -35.185  25.335  0.00  0.00     0.039 H 
ATOM     23  H6  71X d   1      98.392 -36.743  24.557  0.00  0.00     0.039 H 
BRANCH  21  24
ATOM     24  C14 71X d   1      99.989 -35.777  25.599  0.00  0.00    -0.073 C 
ATOM     25  H13 71X d   1      99.780 -36.306  26.540  0.00  0.00     0.028 H 
ATOM     26  H14 71X d   1     100.332 -34.755  25.821  0.00  0.00     0.028 H 
ATOM     27  H15 71X d   1     100.772 -36.314  25.043  0.00  0.00     0.028 H 
ENDBRANCH  21  24
ENDBRANCH  10  21
ENDBRANCH   1   5
BRANCH   3  28
ATOM     28  C9  71X d   1      98.797 -39.307  21.773  0.00  0.00     0.063 C 
ATOM     29  C8  71X d   1     100.068 -39.561  20.979  0.00  0.00    -0.025 A 
ATOM     30  C7  71X d   1     101.272 -39.130  21.536  0.00  0.00    -0.053 A 
ATOM     31  C3  71X d   1     100.081 -40.229  19.748  0.00  0.00    -0.050 A 
ATOM     32  C6  71X d   1     102.462 -39.377  20.885  0.00  0.00     0.034 A 
ATOM     33  H4  71X d   1     101.272 -38.600  22.482  0.00  0.00     0.087 H 
ATOM     34  C5  71X d   1     102.494 -40.049  19.688  0.00  0.00    -0.061 A 
ATOM     35 CL   71X d   1     103.951 -38.804  21.589  0.00  0.00    -0.084 Cl
ATOM     36  C4  71X d   1     101.304 -40.468  19.123  0.00  0.00    -0.075 A 
ATOM     37  H3  71X d   1     103.438 -40.248  19.194  0.00  0.00     0.086 H 
ATOM     38  H2  71X d   1     101.322 -40.993  18.175  0.00  0.00     0.084 H 
ATOM     39  C2  71X d   1      98.799 -40.676  19.093  0.00  0.00    -0.038 C 
ATOM     40  C1  71X d   1      97.651 -40.783  20.083  0.00  0.00    -0.035 C 
ATOM     41  H17 71X d   1      98.962 -41.662  18.633  0.00  0.00     0.040 H 
ATOM     42  H18 71X d   1      98.527 -39.948  18.314  0.00  0.00     0.040 H 
ATOM     43  C   71X d   1      97.551 -39.504  20.893  0.00  0.00     0.059 C 
ATOM     44  H19 71X d   1      97.830 -41.631  20.760  0.00  0.00     0.037 H 
ATOM     45  H20 71X d   1      96.710 -40.943  19.536  0.00  0.00     0.037 H 
ATOM     46  H22 71X d   1      97.472 -38.655  20.198  0.00  0.00     0.086 H 
ATOM     47  H16 71X d   1      98.754 -40.034  22.597  0.00  0.00     0.084 H 
BRANCH  43  48
ATOM     48  O   71X d   1      96.387 -39.533  21.720  0.00  0.00    -0.393 OA
ATOM     49  H23 71X d   1      96.439 -40.274  22.313  0.00  0.00     0.210 HD
ENDBRANCH  43  48
ENDBRANCH   3  28
TORSDOF 8
