REMARK  8 active torsions:
REMARK  status: ('A' for Active; 'I' for Inactive)
REMARK    1  A    between atoms: N1_1  and  C10_7 
REMARK       I    between atoms: C9_18  and  N1_1 
REMARK    2  A    between atoms: C4_2  and  C8_6 
REMARK    3  A    between atoms: C5_3  and  C6_4 
REMARK    4  A    between atoms: C6_4  and  C7_5 
REMARK    5  A    between atoms: C11_17  and  O2_11 
REMARK    6  A    between atoms: C3_19  and  C9_18 
REMARK    7  A    between atoms: C2_20  and  C1_21 
REMARK    8  A    between atoms: C1_21  and  C_26 
ROOT
ATOM      1  N1  71Y d   1      39.979   5.433   9.469  0.00  0.00    -0.344 N 
ATOM      2  O1  71Y d   1      39.128   3.424  10.041  0.00  0.00    -0.266 OA
ATOM      3  C9  71Y d   1      39.295   4.629  10.285  0.00  0.00     0.269 C 
ATOM      4  H1  71Y d   1      40.149   6.386   9.719  0.00  0.00     0.163 HD
ENDROOT
BRANCH   3   5
ATOM      5  C3  71Y d   1      38.859   5.192  11.573  0.00  0.00     0.108 A 
ATOM      6  C2  71Y d   1      37.924   4.724  12.484  0.00  0.00    -0.010 A 
ATOM      7  C5  71Y d   1      37.882   5.699  13.545  0.00  0.00     0.040 A 
ATOM      8  C4  71Y d   1      38.793   6.693  13.237  0.00  0.00     0.020 A 
ATOM      9  N   71Y d   1      39.343   6.385  12.025  0.00  0.00    -0.354 N 
ATOM     10  H20 71Y d   1      40.026   6.970  11.524  0.00  0.00     0.166 HD
BRANCH   6  11
ATOM     11  C1  71Y d   1      37.086   3.483  12.362  0.00  0.00    -0.041 C 
ATOM     12  H16 71Y d   1      37.120   3.136  11.319  0.00  0.00     0.039 H 
ATOM     13  H17 71Y d   1      36.049   3.731  12.632  0.00  0.00     0.039 H 
BRANCH  11  14
ATOM     14  C   71Y d   1      37.556   2.389  13.240  0.00  0.00    -0.073 C 
ATOM     15  H21 71Y d   1      36.908   1.510  13.109  0.00  0.00     0.028 H 
ATOM     16  H22 71Y d   1      37.519   2.719  14.289  0.00  0.00     0.028 H 
ATOM     17  H23 71Y d   1      38.590   2.125  12.975  0.00  0.00     0.028 H 
ENDBRANCH  11  14
ENDBRANCH   6  11
BRANCH   7  18
ATOM     18  C6  71Y d   1      37.036   5.757  14.741  0.00  0.00     0.158 C 
ATOM     19  O   71Y d   1      37.355   6.474  15.693  0.00  0.00    -0.293 OA
BRANCH  18  20
ATOM     20  C7  71Y d   1      35.727   5.030  14.780  0.00  0.00    -0.017 C 
ATOM     21  H2  71Y d   1      35.245   5.195  15.755  0.00  0.00     0.038 H 
ATOM     22  H3  71Y d   1      35.901   3.954  14.635  0.00  0.00     0.038 H 
ATOM     23  H4  71Y d   1      35.074   5.407  13.979  0.00  0.00     0.038 H 
ENDBRANCH  18  20
ENDBRANCH   7  18
BRANCH   8  24
ATOM     24  C8  71Y d   1      39.260   7.879  14.020  0.00  0.00    -0.037 C 
ATOM     25  H5  71Y d   1      39.999   8.440  13.429  0.00  0.00     0.035 H 
ATOM     26  H6  71Y d   1      39.722   7.540  14.959  0.00  0.00     0.035 H 
ATOM     27  H7  71Y d   1      38.402   8.529  14.248  0.00  0.00     0.035 H 
ENDBRANCH   8  24
ENDBRANCH   3   5
BRANCH   1  28
ATOM     28  C10 71Y d   1      40.479   4.891   8.193  0.00  0.00     0.063 C 
ATOM     29  C19 71Y d   1      39.903   5.602   6.981  0.00  0.00    -0.025 A 
ATOM     30  C18 71Y d   1      38.621   6.149   7.041  0.00  0.00    -0.053 A 
ATOM     31  C14 71Y d   1      40.636   5.694   5.788  0.00  0.00    -0.050 A 
ATOM     32  C17 71Y d   1      38.086   6.769   5.931  0.00  0.00     0.034 A 
ATOM     33  H14 71Y d   1      38.046   6.087   7.958  0.00  0.00     0.087 H 
ATOM     34  C16 71Y d   1      38.791   6.869   4.757  0.00  0.00    -0.061 A 
ATOM     35 CL   71Y d   1      36.472   7.416   6.012  0.00  0.00    -0.084 Cl
ATOM     36  C15 71Y d   1      40.059   6.329   4.690  0.00  0.00    -0.075 A 
ATOM     37  H13 71Y d   1      38.358   7.365   3.896  0.00  0.00     0.086 H 
ATOM     38  H11 71Y d   1      40.618   6.400   3.764  0.00  0.00     0.084 H 
ATOM     39  C13 71Y d   1      42.038   5.148   5.662  0.00  0.00    -0.038 C 
ATOM     40  C12 71Y d   1      42.512   4.312   6.839  0.00  0.00    -0.035 C 
ATOM     41  H9  71Y d   1      42.726   5.999   5.549  0.00  0.00     0.040 H 
ATOM     42  H10 71Y d   1      42.080   4.520   4.760  0.00  0.00     0.040 H 
ATOM     43  C11 71Y d   1      42.012   4.912   8.138  0.00  0.00     0.059 C 
ATOM     44  H18 71Y d   1      43.612   4.288   6.849  0.00  0.00     0.037 H 
ATOM     45  H19 71Y d   1      42.124   3.288   6.738  0.00  0.00     0.037 H 
ATOM     46  H15 71Y d   1      42.364   5.952   8.208  0.00  0.00     0.086 H 
ATOM     47  H8  71Y d   1      40.158   3.840   8.140  0.00  0.00     0.084 H 
BRANCH  43  48
ATOM     48  O2  71Y d   1      42.506   4.170   9.251  0.00  0.00    -0.393 OA
ATOM     49  H12 71Y d   1      43.456   4.171   9.235  0.00  0.00     0.210 HD
ENDBRANCH  43  48
ENDBRANCH   1  28
TORSDOF 8
