REMARK  12 active torsions:
REMARK  status: ('A' for Active; 'I' for Inactive)
REMARK    1  A    between atoms: N_1  and  CA_2 
REMARK    2  A    between atoms: CA_2  and  C_3 
REMARK    3  A    between atoms: CA_2  and  CB_5 
REMARK       I    between atoms: C_3  and  N_6 
REMARK    4  A    between atoms: N_6  and  CA_7 
REMARK    5  A    between atoms: CA_7  and  C_8 
REMARK    6  A    between atoms: CA_7  and  CB_10 
REMARK       I    between atoms: C_8  and  N_11 
REMARK    7  A    between atoms: CA_12  and  C_13 
REMARK       I    between atoms: C_13  and  N_18 
REMARK    8  A    between atoms: N_18  and  CA_19 
REMARK    9  A    between atoms: CA_19  and  CB_20 
REMARK   10  A    between atoms: CA_19  and  B_21 
REMARK   11  A    between atoms: B_21  and  O1_22 
REMARK   12  A    between atoms: B_21  and  O2_23 
ROOT
ATOM      1  C   ALA d   1      13.601  36.076  17.492  0.00  0.00     0.243 C 
ATOM      2  O   ALA d   1      14.465  36.343  16.662  0.00  0.00    -0.271 OA
ATOM      3  N   PRO d   1      13.303  34.945  18.106  0.00  0.00    -0.337 N 
ATOM      4  CA  PRO d   1      14.087  33.728  17.780  0.00  0.00     0.091 C 
ATOM      5  CB  PRO d   1      13.462  32.712  18.741  0.00  0.00    -0.036 C 
ATOM      6  CG  PRO d   1      12.623  33.477  19.727  0.00  0.00    -0.048 C 
ATOM      7  CD  PRO d   1      12.169  34.754  19.033  0.00  0.00    -0.001 C 
ATOM      8  H13 PRO d   1      15.165  33.862  17.954  0.00  0.00     0.087 H 
ATOM      9  H14 PRO d   1      14.253  32.160  19.270  0.00  0.00     0.036 H 
ATOM     10  H15 PRO d   1      12.832  32.005  18.182  0.00  0.00     0.036 H 
ATOM     11  H16 PRO d   1      13.219  33.723  20.618  0.00  0.00     0.035 H 
ATOM     12  H17 PRO d   1      11.749  32.878  20.024  0.00  0.00     0.035 H 
ATOM     13  H18 PRO d   1      11.219  34.614  18.496  0.00  0.00     0.064 H 
ATOM     14  H19 PRO d   1      12.071  35.592  19.739  0.00  0.00     0.064 H 
ENDROOT
BRANCH   1  15
ATOM     15  CA  ALA d   1      12.727  37.285  17.856  0.00  0.00     0.086 C 
ATOM     16  H9  ALA d   1      12.432  37.237  18.915  0.00  0.00     0.086 H 
BRANCH  15  17
ATOM     17  N   ALA d   1      13.563  38.485  17.599  0.00  0.00    -0.346 N 
ATOM     18  C   ALA d   1      13.525  39.498  18.448  0.00  0.00     0.248 C 
ATOM     19  O   ALA d   1      12.823  39.503  19.478  0.00  0.00    -0.271 OA
ATOM     20  H8  ALA d   1      14.150  38.527  16.790  0.00  0.00     0.163 HD
BRANCH  18  21
ATOM     21  CA  ALA d   1      14.415  40.678  18.070  0.00  0.00     0.172 C 
ATOM     22  H4  ALA d   1      14.615  40.585  16.992  0.00  0.00     0.098 H 
BRANCH  21  23
ATOM     23  N   ALA d   1      13.902  42.057  18.256  0.00  0.00    -0.067 N 
ATOM     24  H1  ALA d   1      14.603  42.719  17.962  0.00  0.00     0.275 HD
ATOM     25  H2  ALA d   1      13.685  42.207  19.229  0.00  0.00     0.275 HD
ATOM     26  H3  ALA d   1      13.069  42.183  17.703  0.00  0.00     0.275 HD
ENDBRANCH  21  23
BRANCH  21  27
ATOM     27  CB  ALA d   1      15.728  40.458  18.812  0.00  0.00    -0.042 C 
ATOM     28  H5  ALA d   1      16.073  39.426  18.649  0.00  0.00     0.030 H 
ATOM     29  H6  ALA d   1      15.574  40.627  19.888  0.00  0.00     0.030 H 
ATOM     30  H7  ALA d   1      16.485  41.162  18.435  0.00  0.00     0.030 H 
ENDBRANCH  21  27
ENDBRANCH  18  21
ENDBRANCH  15  17
BRANCH  15  31
ATOM     31  CB  ALA d   1      11.493  37.344  16.987  0.00  0.00    -0.049 C 
ATOM     32  H10 ALA d   1      10.870  36.457  17.174  0.00  0.00     0.030 H 
ATOM     33  H11 ALA d   1      11.791  37.367  15.928  0.00  0.00     0.030 H 
ATOM     34  H12 ALA d   1      10.919  38.252  17.226  0.00  0.00     0.030 H 
ENDBRANCH  15  31
ENDBRANCH   1  15
BRANCH   4  35
ATOM     35  C   PRO d   1      13.822  33.314  16.333  0.00  0.00     0.240 C 
ATOM     36  O   PRO d   1      12.630  33.494  15.917  0.00  0.00    -0.271 OA
ATOM     37  N   B2A d   1      14.760  32.751  15.599  0.00  0.00    -0.358 N 
ATOM     38  H20 B2A d   1      15.662  32.617  16.009  0.00  0.00     0.162 HD
BRANCH  37  39
ATOM     39  CA  B2A d   1      14.553  32.302  14.192  0.00  0.00     0.042 C 
ATOM     40  H21 B2A d   1      13.497  32.474  13.935  0.00  0.00     0.064 H 
BRANCH  39  41
ATOM     41  CB  B2A d   1      15.404  33.207  13.261  0.00  0.00    -0.060 C 
ATOM     42  H22 B2A d   1      15.154  34.262  13.447  0.00  0.00     0.029 H 
ATOM     43  H23 B2A d   1      15.189  32.959  12.211  0.00  0.00     0.029 H 
ATOM     44  H24 B2A d   1      16.472  33.042  13.465  0.00  0.00     0.029 H 
ENDBRANCH  39  41
BRANCH  39  45
ATOM     45  B   B2A d   1      14.805  30.766  14.036  0.00  0.00     0.514 B 
BRANCH  45  46
ATOM     46  O1  B2A d   1      14.824  30.203  12.653  0.00  0.00    -0.436 OA
ATOM     47  H25 B2A d   1      15.149  29.311  12.680  0.00  0.00     0.184 HD
ENDBRANCH  45  46
BRANCH  45  48
ATOM     48  O2  B2A d   1      13.912  29.953  14.944  0.00  0.00    -0.436 OA
ATOM     49  H26 B2A d   1      13.918  30.332  15.815  0.00  0.00     0.184 HD
ENDBRANCH  45  48
ENDBRANCH  39  45
ENDBRANCH  37  39
ENDBRANCH   4  35
TORSDOF 12
