REMARK  5 active torsions:
REMARK  status: ('A' for Active; 'I' for Inactive)
REMARK    1  A    between atoms: C5_6  and  S1_7 
REMARK    2  A    between atoms: S1_7  and  C6_8 
REMARK    3  A    between atoms: C10_12  and  C11_13 
REMARK    4  A    between atoms: C13_17  and  C14_18 
REMARK    5  A    between atoms: N1_19  and  C15_20 
ROOT
ATOM      1 CL1  72P d   1     -12.307 -20.508  -1.386  0.00  0.00    -0.084 Cl
ATOM      2  C1  72P d   1     -13.197 -21.418  -0.193  0.00  0.00     0.036 A 
ATOM      3  C2  72P d   1     -14.215 -20.768   0.505  0.00  0.00    -0.061 A 
ATOM      4  C3  72P d   1     -14.943 -21.455   1.456  0.00  0.00    -0.068 A 
ATOM      5  C4  72P d   1     -14.641 -22.798   1.701  0.00  0.00     0.010 A 
ATOM      6  C5  72P d   1     -15.182 -23.778   2.605  0.00  0.00     0.041 A 
ATOM      7  C13 72P d   1     -14.502 -24.952   2.421  0.00  0.00     0.031 A 
ATOM      8  N1  72P d   1     -13.532 -24.754   1.445  0.00  0.00    -0.314 N 
ATOM      9  C21 72P d   1     -13.607 -23.431   0.991  0.00  0.00     0.053 A 
ATOM     10  C22 72P d   1     -12.865 -22.747   0.029  0.00  0.00    -0.035 A 
ATOM     11  H1  72P d   1     -14.434 -19.726   0.301  0.00  0.00     0.086 H 
ATOM     12  H2  72P d   1     -15.737 -20.961   2.004  0.00  0.00     0.085 H 
ATOM     13  H15 72P d   1     -12.066 -23.231  -0.520  0.00  0.00     0.089 H 
ENDROOT
BRANCH   6  14
ATOM     14  S1  72P d   1     -16.511 -23.508   3.715  0.00  0.00    -0.088 SA
BRANCH  14  15
ATOM     15  C6  72P d   1     -15.881 -22.390   4.950  0.00  0.00     0.006 A 
ATOM     16  C7  72P d   1     -14.666 -21.729   4.884  0.00  0.00    -0.066 A 
ATOM     17  C8  72P d   1     -14.279 -20.878   5.895  0.00  0.00    -0.081 A 
ATOM     18  H3  72P d   1     -14.015 -21.883   4.031  0.00  0.00     0.085 H 
ATOM     19  C9  72P d   1     -15.099 -20.675   6.989  0.00  0.00    -0.066 A 
ATOM     20  H4  72P d   1     -13.326 -20.365   5.833  0.00  0.00     0.083 H 
ATOM     21  C10 72P d   1     -16.320 -21.326   7.075  0.00  0.00     0.042 A 
ATOM     22  H5  72P d   1     -14.787 -20.005   7.782  0.00  0.00     0.085 H 
ATOM     23  C12 72P d   1     -16.703 -22.182   6.049  0.00  0.00    -0.050 A 
ATOM     24  H6  72P d   1     -17.657 -22.694   6.108  0.00  0.00     0.087 H 
BRANCH  21  25
ATOM     25  C11 72P d   1     -17.214 -21.112   8.254  0.00  0.00     0.209 C 
ATOM     26  O1  72P d   1     -18.347 -21.770   8.220  0.00  0.00    -0.644 OA
ATOM     27  O2  72P d   1     -16.906 -20.374   9.179  0.00  0.00    -0.644 OA
ENDBRANCH  21  25
ENDBRANCH  14  15
ENDBRANCH   6  14
BRANCH   7  28
ATOM     28  C14 72P d   1     -14.688 -26.259   3.106  0.00  0.00    -0.036 C 
ATOM     29  H7  72P d   1     -15.509 -26.178   3.834  0.00  0.00     0.035 H 
ATOM     30  H8  72P d   1     -13.760 -26.535   3.629  0.00  0.00     0.035 H 
ATOM     31  H9  72P d   1     -14.933 -27.031   2.362  0.00  0.00     0.035 H 
ENDBRANCH   7  28
BRANCH   8  32
ATOM     32  C15 72P d   1     -12.611 -25.747   0.973  0.00  0.00     0.039 A 
ATOM     33  C16 72P d   1     -11.310 -25.762   1.440  0.00  0.00    -0.057 A 
ATOM     34  C17 72P d   1     -10.434 -26.738   0.988  0.00  0.00    -0.081 A 
ATOM     35  H10 72P d   1     -10.977 -25.017   2.154  0.00  0.00     0.086 H 
ATOM     36  C18 72P d   1     -10.856 -27.697   0.093  0.00  0.00    -0.083 A 
ATOM     37  H11 72P d   1      -9.409 -26.746   1.342  0.00  0.00     0.083 H 
ATOM     38  C19 72P d   1     -12.157 -27.684  -0.357  0.00  0.00    -0.081 A 
ATOM     39  H12 72P d   1     -10.167 -28.458  -0.255  0.00  0.00     0.083 H 
ATOM     40  C20 72P d   1     -13.045 -26.714   0.086  0.00  0.00    -0.057 A 
ATOM     41  H13 72P d   1     -12.490 -28.437  -1.062  0.00  0.00     0.083 H 
ATOM     42  H14 72P d   1     -14.072 -26.715  -0.261  0.00  0.00     0.086 H 
ENDBRANCH   8  32
TORSDOF 5
