REMARK  19 active torsions:
REMARK  status: ('A' for Active; 'I' for Inactive)
REMARK       I    between atoms: C2_1  and  N1_6 
REMARK       I    between atoms: C2_1  and  N3_7 
REMARK    1  A    between atoms: C9_2  and  C12_3 
REMARK    2  A    between atoms: C6_10  and  C9_2 
REMARK    3  A    between atoms: C12_3  and  C20_4 
REMARK    4  A    between atoms: C12_3  and  N23_5 
REMARK       I    between atoms: N23_5  and  C25_13 
REMARK    5  A    between atoms: C5_9  and  N4_8 
REMARK    6  A    between atoms: C5_9  and  C6_10 
REMARK       I    between atoms: C25_13  and  N_15 
REMARK    7  A    between atoms: N_15  and  CA_16 
REMARK    8  A    between atoms: CA_25  and  CB_28 
REMARK    9  A    between atoms: CB_28  and  CG1_29 
REMARK   10  A    between atoms: CB_28  and  CG2_30 
REMARK   11  A    between atoms: C50_32  and  C52_34 
REMARK   12  A    between atoms: C52_34  and  C54_35 
REMARK   13  A    between atoms: C54_35  and  C57_36 
REMARK   14  A    between atoms: C62_39  and  O69_42 
REMARK   15  A    between atoms: N_44  and  CM_45 
REMARK   16  A    between atoms: CA_46  and  CB_47 
REMARK   17  A    between atoms: CA_51  and  CB_54 
REMARK   18  A    between atoms: C_52  and  O_53 
REMARK   19  A    between atoms: CB_54  and  CG_55 
ROOT
ATOM      1  CA  DLY d   1      20.541  -2.275   7.084  0.00  0.00     0.091 C 
ATOM      2  C   DLY d   1      19.709  -3.544   7.201  0.00  0.00     0.241 C 
ATOM      3  O   DLY d   1      18.514  -3.486   7.490  0.00  0.00    -0.271 OA
ATOM      4  CB  DLY d   1      20.752  -1.670   8.476  0.00  0.00    -0.038 C 
ATOM      5  CG  DLY d   1      21.194  -2.681   9.517  0.00  0.00    -0.061 C 
ATOM      6  CD  DLY d   1      21.451  -2.058  10.873  0.00  0.00    -0.039 C 
ATOM      7  CE  DLY d   1      22.458  -2.853  11.703  0.00  0.00     0.117 C 
ATOM      8  NZ  DLY d   1      22.137  -4.292  11.712  0.00  0.00     0.111 N 
ATOM      9  H15 DLY d   1      19.984  -1.556   6.465  0.00  0.00     0.087 H 
ATOM     10  H16 DLY d   1      19.804  -1.221   8.808  0.00  0.00     0.036 H 
ATOM     11  H17 DLY d   1      21.522  -0.888   8.402  0.00  0.00     0.036 H 
ATOM     12  H18 DLY d   1      22.121  -3.160   9.169  0.00  0.00     0.033 H 
ATOM     13  H19 DLY d   1      20.407  -3.442   9.624  0.00  0.00     0.033 H 
ATOM     14  H20 DLY d   1      20.500  -2.009  11.424  0.00  0.00     0.035 H 
ATOM     15  H21 DLY d   1      21.842  -1.040  10.725  0.00  0.00     0.035 H 
ATOM     16  H22 DLY d   1      22.444  -2.478  12.737  0.00  0.00     0.080 H 
ATOM     17  H23 DLY d   1      23.462  -2.714  11.276  0.00  0.00     0.080 H 
ATOM     18  H24 DLY d   1      21.202  -4.567  11.968  0.00  0.00     0.325 HD
ATOM     19  N   VAL d   1      20.369  -4.699   6.964  0.00  0.00    -0.346 N 
ATOM     20  CA  VAL d   1      19.623  -5.959   7.144  0.00  0.00     0.092 C 
ATOM     21  C   VAL d   1      19.398  -6.299   8.587  0.00  0.00     0.241 C 
ATOM     22  O   VAL d   1      20.331  -6.268   9.389  0.00  0.00    -0.271 OA
ATOM     23  H25 VAL d   1      21.327  -4.700   6.677  0.00  0.00     0.163 HD
ATOM     24  H26 VAL d   1      18.642  -5.848   6.660  0.00  0.00     0.088 H 
ATOM     25  N49 73O d   1      18.120  -6.638   8.915  0.00  0.00    -0.346 N 
ATOM     26  C50 73O d   1      17.973  -7.128  10.305  0.00  0.00     0.090 C 
ATOM     27  C51 73O d   1      18.575  -8.507  10.498  0.00  0.00     0.243 C 
ATOM     28  O85 73O d   1      18.413  -9.383   9.660  0.00  0.00    -0.271 OA
ATOM     29  H34 73O d   1      17.353  -6.563   8.277  0.00  0.00     0.163 HD
ATOM     30  H35 73O d   1      18.490  -6.426  10.976  0.00  0.00     0.087 H 
ATOM     31  N   MAA d   1      19.267  -8.668  11.642  0.00  0.00    -0.342 N 
ATOM     32  CA  MAA d   1      19.386  -7.525  12.564  0.00  0.00     0.088 C 
ATOM     33  C   MAA d   1      20.827  -7.121  12.743  0.00  0.00     0.240 C 
ATOM     34  O   MAA d   1      21.329  -7.054  13.863  0.00  0.00    -0.271 OA
ATOM     35  H48 MAA d   1      18.826  -6.674  12.149  0.00  0.00     0.087 H 
ATOM     36  N   PHE d   1      21.475  -6.848  11.605  0.00  0.00    -0.347 N 
ATOM     37  CA  PHE d   1      22.891  -6.588  11.753  0.00  0.00     0.102 C 
ATOM     38  C   PHE d   1      23.195  -5.131  11.850  0.00  0.00     0.414 A 
ATOM     39  OXT PHE d   1      22.294  -4.301  11.756  0.00  0.00    -0.124 OA
ATOM     40  H52 PHE d   1      21.015  -6.825  10.717  0.00  0.00     0.163 HD
ATOM     41  H53 PHE d   1      23.237  -7.078  12.675  0.00  0.00     0.084 H 
ENDROOT
BRANCH   1  42
ATOM     42  N   DLY d   1      21.833  -2.503   6.463  0.00  0.00    -0.330 N 
ATOM     43  C25 73N d   1      21.920  -2.464   5.142  0.00  0.00     0.317 C 
ATOM     44  N23 73N d   1      23.147  -2.240   4.636  0.00  0.00    -0.329 N 
ATOM     45  O26 73N d   1      20.925  -2.626   4.442  0.00  0.00    -0.247 OA
ATOM     46  H4  73N d   1      23.957  -2.189   5.220  0.00  0.00     0.165 HD
ATOM     47  H14 DLY d   1      22.642  -2.686   7.022  0.00  0.00     0.165 HD
BRANCH  44  48
ATOM     48  C12 73N d   1      23.229  -2.075   3.187  0.00  0.00     0.098 C 
ATOM     49  H3  73N d   1      22.529  -1.280   2.890  0.00  0.00     0.089 H 
BRANCH  48  50
ATOM     50  C9  73N d   1      24.654  -1.636   2.821  0.00  0.00    -0.035 C 
ATOM     51  H1  73N d   1      25.227  -1.537   3.755  0.00  0.00     0.036 H 
ATOM     52  H2  73N d   1      24.588  -0.656   2.326  0.00  0.00     0.036 H 
BRANCH  50  53
ATOM     53  C6  73N d   1      25.420  -2.570   1.903  0.00  0.00    -0.047 C 
ATOM     54  H12 73N d   1      24.703  -3.221   1.382  0.00  0.00     0.035 H 
ATOM     55  H13 73N d   1      26.099  -3.185   2.511  0.00  0.00     0.035 H 
BRANCH  53  56
ATOM     56  C5  73N d   1      26.240  -1.815   0.864  0.00  0.00     0.009 C 
ATOM     57  H10 73N d   1      25.569  -1.478   0.060  0.00  0.00     0.064 H 
ATOM     58  H11 73N d   1      26.704  -0.942   1.345  0.00  0.00     0.064 H 
BRANCH  56  59
ATOM     59  N4  73N d   1      27.299  -2.652   0.278  0.00  0.00    -0.227 N 
ATOM     60  C2  73N d   1      26.964  -3.721  -0.498  0.00  0.00     0.665 C 
ATOM     61  N1  73N d   1      26.359  -4.770   0.025  0.00  0.00    -0.235 N 
ATOM     62  N3  73N d   1      27.237  -3.716  -1.784  0.00  0.00    -0.235 N 
ATOM     63  H5  73N d   1      26.111  -5.572  -0.572  0.00  0.00     0.174 HD
ATOM     64  H6  73N d   1      26.135  -4.787   1.030  0.00  0.00     0.174 HD
ATOM     65  H7  73N d   1      27.709  -2.904  -2.207  0.00  0.00     0.174 HD
ATOM     66  H8  73N d   1      26.979  -4.524  -2.368  0.00  0.00     0.174 HD
ATOM     67  H9  73N d   1      28.290  -2.431   0.454  0.00  0.00     0.177 HD
ENDBRANCH  56  59
ENDBRANCH  53  56
ENDBRANCH  50  53
ENDBRANCH  48  50
BRANCH  48  68
ATOM     68  C20 73N d   1      22.841  -3.354   2.429  0.00  0.00     0.196 C 
ATOM     69  O21 73N d   1      22.996  -4.437   2.994  0.00  0.00    -0.646 OA
ATOM     70  O22 73N d   1      22.365  -3.253   1.276  0.00  0.00    -0.646 OA
ENDBRANCH  48  68
ENDBRANCH  44  48
ENDBRANCH   1  42
BRANCH  20  71
ATOM     71  CB  VAL d   1      20.392  -7.126   6.458  0.00  0.00    -0.033 C 
ATOM     72  H27 VAL d   1      21.413  -7.166   6.865  0.00  0.00     0.042 H 
BRANCH  71  73
ATOM     73  CG1 VAL d   1      19.696  -8.456   6.741  0.00  0.00    -0.071 C 
ATOM     74  H28 VAL d   1      20.249  -9.271   6.251  0.00  0.00     0.028 H 
ATOM     75  H29 VAL d   1      18.669  -8.423   6.349  0.00  0.00     0.028 H 
ATOM     76  H30 VAL d   1      19.669  -8.632   7.827  0.00  0.00     0.028 H 
ENDBRANCH  71  73
BRANCH  71  77
ATOM     77  CG2 VAL d   1      20.470  -6.888   4.960  0.00  0.00    -0.071 C 
ATOM     78  H31 VAL d   1      20.972  -5.929   4.767  0.00  0.00     0.028 H 
ATOM     79  H32 VAL d   1      19.454  -6.861   4.540  0.00  0.00     0.028 H 
ATOM     80  H33 VAL d   1      21.040  -7.702   4.489  0.00  0.00     0.028 H 
ENDBRANCH  71  77
ENDBRANCH  20  71
BRANCH  26  81
ATOM     81  C52 73O d   1      16.487  -7.171  10.678  0.00  0.00    -0.034 C 
ATOM     82  H36 73O d   1      16.411  -7.343  11.762  0.00  0.00     0.037 H 
ATOM     83  H37 73O d   1      16.023  -8.011  10.140  0.00  0.00     0.037 H 
BRANCH  81  84
ATOM     84  C54 73O d   1      15.710  -5.906  10.343  0.00  0.00    -0.039 C 
ATOM     85  H38 73O d   1      15.858  -5.638   9.287  0.00  0.00     0.040 H 
ATOM     86  H39 73O d   1      16.042  -5.075  10.982  0.00  0.00     0.040 H 
BRANCH  84  87
ATOM     87  C57 73O d   1      14.250  -6.217  10.605  0.00  0.00    -0.058 A 
ATOM     88  C60 73O d   1      13.653  -5.973  11.950  0.00  0.00    -0.074 A 
ATOM     89  C61 73O d   1      12.259  -6.345  12.227  0.00  0.00    -0.051 A 
ATOM     90  H40 73O d   1      14.253  -5.517  12.730  0.00  0.00     0.084 H 
ATOM     91  C62 73O d   1      11.461  -7.024  11.223  0.00  0.00     0.065 A 
ATOM     92  H41 73O d   1      11.822  -6.110  13.191  0.00  0.00     0.087 H 
ATOM     93  C63 73O d   1      12.064  -7.341   9.913  0.00  0.00    -0.051 A 
ATOM     94  C64 73O d   1      13.448  -6.890   9.589  0.00  0.00    -0.074 A 
ATOM     95  H42 73O d   1      11.497  -7.905   9.182  0.00  0.00     0.087 H 
ATOM     96  H43 73O d   1      13.857  -7.062   8.600  0.00  0.00     0.084 H 
BRANCH  91  97
ATOM     97  O69 73O d   1      10.161  -7.392  11.518  0.00  0.00    -0.361 OA
ATOM     98  H44 73O d   1       9.569  -6.984  10.898  0.00  0.00     0.217 HD
ENDBRANCH  91  97
ENDBRANCH  84  87
ENDBRANCH  81  84
ENDBRANCH  26  81
BRANCH  38  99
ATOM     99  O   PHE d   1      24.349  -4.748  12.025  0.00  0.00    -0.338 OA
ATOM    100  H54 PHE d   1      24.927  -5.500  12.077  0.00  0.00     0.215 HD
ENDBRANCH  38  99
BRANCH  37 101
ATOM    101  CB  PHE d   1      23.652  -7.173  10.562  0.00  0.00    -0.015 C 
ATOM    102  H55 PHE d   1      24.733  -7.099  10.749  0.00  0.00     0.043 H 
ATOM    103  H56 PHE d   1      23.397  -6.608   9.653  0.00  0.00     0.043 H 
BRANCH 101 104
ATOM    104  CG  PHE d   1      23.278  -8.610  10.373  0.00  0.00    -0.056 A 
ATOM    105  CD1 PHE d   1      23.856  -9.649  11.247  0.00  0.00    -0.077 A 
ATOM    106  CE1 PHE d   1      23.538 -11.070  11.010  0.00  0.00    -0.082 A 
ATOM    107  H57 PHE d   1      24.513  -9.368  12.062  0.00  0.00     0.084 H 
ATOM    108  CZ  PHE d   1      22.641 -11.449   9.913  0.00  0.00    -0.083 A 
ATOM    109  H59 PHE d   1      23.968 -11.835  11.647  0.00  0.00     0.083 H 
ATOM    110  CE2 PHE d   1      22.065 -10.407   9.056  0.00  0.00    -0.082 A 
ATOM    111  H61 PHE d   1      22.405 -12.492   9.737  0.00  0.00     0.083 H 
ATOM    112  CD2 PHE d   1      22.373  -8.987   9.294  0.00  0.00    -0.077 A 
ATOM    113  H60 PHE d   1      21.407 -10.685   8.241  0.00  0.00     0.083 H 
ATOM    114  H58 PHE d   1      21.927  -8.223   8.668  0.00  0.00     0.084 H 
ENDBRANCH 101 104
ENDBRANCH  37 101
BRANCH  31 115
ATOM    115  CM  MAA d   1      19.874  -9.918  12.057  0.00  0.00    -0.015 C 
ATOM    116  H45 MAA d   1      19.711 -10.680  11.281  0.00  0.00     0.056 H 
ATOM    117  H46 MAA d   1      19.417 -10.252  13.000  0.00  0.00     0.056 H 
ATOM    118  H47 MAA d   1      20.954  -9.770  12.204  0.00  0.00     0.056 H 
ENDBRANCH  31 115
BRANCH  32 119
ATOM    119  CB  MAA d   1      18.801  -7.899  13.917  0.00  0.00    -0.049 C 
ATOM    120  H49 MAA d   1      18.891  -7.045  14.604  0.00  0.00     0.030 H 
ATOM    121  H50 MAA d   1      19.349  -8.759  14.328  0.00  0.00     0.030 H 
ATOM    122  H51 MAA d   1      17.740  -8.163  13.797  0.00  0.00     0.030 H 
ENDBRANCH  32 119
TORSDOF 19
