REMARK  20 active torsions:
REMARK  status: ('A' for Active; 'I' for Inactive)
REMARK    1  A    between atoms: C5_11  and  C1_1 
REMARK    2  A    between atoms: C1_1  and  N1_12 
REMARK    3  A    between atoms: C9_2  and  C12_3 
REMARK    4  A    between atoms: C6_10  and  C9_2 
REMARK    5  A    between atoms: C12_3  and  C20_4 
REMARK    6  A    between atoms: C12_3  and  N23_5 
REMARK       I    between atoms: N23_5  and  C25_6 
REMARK       I    between atoms: C25_6  and  N_13 
REMARK    7  A    between atoms: C6_10  and  C5_11 
REMARK    8  A    between atoms: N_13  and  CA_14 
REMARK    9  A    between atoms: CA_23  and  CB_26 
REMARK   10  A    between atoms: CB_26  and  CG1_27 
REMARK   11  A    between atoms: CB_26  and  CG2_28 
REMARK   12  A    between atoms: C50_30  and  C52_32 
REMARK   13  A    between atoms: C52_32  and  C54_33 
REMARK   14  A    between atoms: C54_33  and  C57_34 
REMARK   15  A    between atoms: C62_37  and  O69_40 
REMARK   16  A    between atoms: N_42  and  CM_43 
REMARK   17  A    between atoms: CA_44  and  CB_45 
REMARK   18  A    between atoms: CA_49  and  CB_52 
REMARK   19  A    between atoms: C_50  and  O_51 
REMARK   20  A    between atoms: CB_52  and  CG_53 
ROOT
ATOM      1  CA  DLY d   1      20.300  -2.198   7.182  0.00  0.00     0.091 C 
ATOM      2  C   DLY d   1      19.466  -3.473   7.301  0.00  0.00     0.241 C 
ATOM      3  O   DLY d   1      18.251  -3.390   7.482  0.00  0.00    -0.271 OA
ATOM      4  CB  DLY d   1      20.453  -1.572   8.573  0.00  0.00    -0.038 C 
ATOM      5  CG  DLY d   1      21.419  -2.346   9.473  0.00  0.00    -0.061 C 
ATOM      6  CD  DLY d   1      21.309  -1.830  10.910  0.00  0.00    -0.039 C 
ATOM      7  CE  DLY d   1      22.296  -2.505  11.864  0.00  0.00     0.117 C 
ATOM      8  NZ  DLY d   1      22.100  -3.962  11.875  0.00  0.00     0.111 N 
ATOM      9  H15 DLY d   1      19.720  -1.497   6.564  0.00  0.00     0.087 H 
ATOM     10  H16 DLY d   1      19.466  -1.548   9.057  0.00  0.00     0.036 H 
ATOM     11  H17 DLY d   1      20.829  -0.545   8.456  0.00  0.00     0.036 H 
ATOM     12  H18 DLY d   1      22.448  -2.205   9.111  0.00  0.00     0.033 H 
ATOM     13  H19 DLY d   1      21.165  -3.416   9.448  0.00  0.00     0.033 H 
ATOM     14  H20 DLY d   1      20.287  -2.017  11.273  0.00  0.00     0.035 H 
ATOM     15  H21 DLY d   1      21.506  -0.748  10.910  0.00  0.00     0.035 H 
ATOM     16  H22 DLY d   1      22.141  -2.113  12.880  0.00  0.00     0.080 H 
ATOM     17  H23 DLY d   1      23.323  -2.282  11.538  0.00  0.00     0.080 H 
ATOM     18  H24 DLY d   1      21.261  -4.264  12.345  0.00  0.00     0.325 HD
ATOM     19  N   VAL d   1      20.108  -4.635   7.238  0.00  0.00    -0.346 N 
ATOM     20  CA  VAL d   1      19.375  -5.904   7.369  0.00  0.00     0.092 C 
ATOM     21  C   VAL d   1      19.174  -6.186   8.860  0.00  0.00     0.241 C 
ATOM     22  O   VAL d   1      20.083  -5.977   9.663  0.00  0.00    -0.271 OA
ATOM     23  H25 VAL d   1      21.098  -4.647   7.100  0.00  0.00     0.163 HD
ATOM     24  H26 VAL d   1      18.394  -5.817   6.879  0.00  0.00     0.088 H 
ATOM     25  N49 73O d   1      17.973  -6.653   9.194  0.00  0.00    -0.346 N 
ATOM     26  C50 73O d   1      17.620  -7.001  10.579  0.00  0.00     0.090 C 
ATOM     27  C51 73O d   1      18.249  -8.354  10.922  0.00  0.00     0.243 C 
ATOM     28  O85 73O d   1      18.061  -9.315  10.177  0.00  0.00    -0.271 OA
ATOM     29  H34 73O d   1      17.286  -6.772   8.477  0.00  0.00     0.163 HD
ATOM     30  H35 73O d   1      17.998  -6.226  11.262  0.00  0.00     0.087 H 
ATOM     31  N   MAA d   1      19.019  -8.396  12.009  0.00  0.00    -0.342 N 
ATOM     32  CA  MAA d   1      19.244  -7.202  12.841  0.00  0.00     0.088 C 
ATOM     33  C   MAA d   1      20.746  -6.975  13.020  0.00  0.00     0.240 C 
ATOM     34  O   MAA d   1      21.298  -7.188  14.099  0.00  0.00    -0.271 OA
ATOM     35  H48 MAA d   1      18.811  -6.327  12.334  0.00  0.00     0.087 H 
ATOM     36  N   PHE d   1      21.374  -6.530  11.935  0.00  0.00    -0.347 N 
ATOM     37  CA  PHE d   1      22.824  -6.284  11.913  0.00  0.00     0.102 C 
ATOM     38  C   PHE d   1      23.143  -4.787  11.907  0.00  0.00     0.414 A 
ATOM     39  OXT PHE d   1      22.236  -3.956  11.888  0.00  0.00    -0.124 OA
ATOM     40  H52 PHE d   1      20.842  -6.357  11.106  0.00  0.00     0.163 HD
ATOM     41  H53 PHE d   1      23.271  -6.736  12.811  0.00  0.00     0.084 H 
ENDROOT
BRANCH   1  42
ATOM     42  N   DLY d   1      21.606  -2.349   6.518  0.00  0.00    -0.330 N 
ATOM     43  C25 73P d   1      21.776  -2.274   5.197  0.00  0.00     0.317 C 
ATOM     44  N23 73P d   1      23.035  -2.335   4.750  0.00  0.00    -0.329 N 
ATOM     45  O26 73P d   1      20.824  -2.251   4.429  0.00  0.00    -0.247 OA
ATOM     46  H6  73P d   1      23.770  -2.439   5.420  0.00  0.00     0.165 HD
ATOM     47  H14 DLY d   1      22.410  -2.517   7.089  0.00  0.00     0.165 HD
BRANCH  44  48
ATOM     48  C12 73P d   1      23.399  -2.257   3.327  0.00  0.00     0.098 C 
ATOM     49  H5  73P d   1      23.130  -1.249   2.977  0.00  0.00     0.089 H 
BRANCH  48  50
ATOM     50  C9  73P d   1      24.912  -2.425   3.168  0.00  0.00    -0.036 C 
ATOM     51  H3  73P d   1      25.189  -3.439   3.491  0.00  0.00     0.036 H 
ATOM     52  H4  73P d   1      25.417  -1.685   3.807  0.00  0.00     0.036 H 
BRANCH  50  53
ATOM     53  C6  73P d   1      25.380  -2.226   1.723  0.00  0.00    -0.061 C 
ATOM     54  H7  73P d   1      25.134  -1.202   1.404  0.00  0.00     0.033 H 
ATOM     55  H8  73P d   1      24.860  -2.947   1.075  0.00  0.00     0.033 H 
BRANCH  53  56
ATOM     56  C5  73P d   1      26.890  -2.439   1.596  0.00  0.00    -0.043 C 
ATOM     57  H9  73P d   1      27.408  -1.707   2.233  0.00  0.00     0.035 H 
ATOM     58  H10 73P d   1      27.136  -3.457   1.933  0.00  0.00     0.035 H 
BRANCH  56  59
ATOM     59  C1  73P d   1      27.368  -2.266   0.152  0.00  0.00     0.080 C 
ATOM     60  H1  73P d   1      28.460  -2.389   0.112  0.00  0.00     0.075 H 
ATOM     61  H2  73P d   1      27.099  -1.260  -0.203  0.00  0.00     0.075 H 
BRANCH  59  62
ATOM     62  N1  73P d   1      26.733  -3.273  -0.710  0.00  0.00    -0.079 N 
ATOM     63  H11 73P d   1      27.052  -3.153  -1.659  0.00  0.00     0.274 HD
ATOM     64  H12 73P d   1      25.732  -3.161  -0.676  0.00  0.00     0.274 HD
ATOM     65  H13 73P d   1      26.979  -4.195  -0.387  0.00  0.00     0.274 HD
ENDBRANCH  59  62
ENDBRANCH  56  59
ENDBRANCH  53  56
ENDBRANCH  50  53
ENDBRANCH  48  50
BRANCH  48  66
ATOM     66  C20 73P d   1      22.658  -3.257   2.433  0.00  0.00     0.196 C 
ATOM     67  O22 73P d   1      22.047  -2.857   1.443  0.00  0.00    -0.646 OA
ATOM     68  O21 73P d   1      22.667  -4.462   2.679  0.00  0.00    -0.646 OA
ENDBRANCH  48  66
ENDBRANCH  44  48
ENDBRANCH   1  42
BRANCH  20  69
ATOM     69  CB  VAL d   1      20.171  -7.029   6.700  0.00  0.00    -0.033 C 
ATOM     70  H27 VAL d   1      21.223  -6.908   6.999  0.00  0.00     0.042 H 
BRANCH  69  71
ATOM     71  CG1 VAL d   1      19.731  -8.431   7.136  0.00  0.00    -0.071 C 
ATOM     72  H28 VAL d   1      20.343  -9.185   6.618  0.00  0.00     0.028 H 
ATOM     73  H29 VAL d   1      18.672  -8.579   6.879  0.00  0.00     0.028 H 
ATOM     74  H30 VAL d   1      19.863  -8.535   8.223  0.00  0.00     0.028 H 
ENDBRANCH  69  71
BRANCH  69  75
ATOM     75  CG2 VAL d   1      20.096  -6.902   5.177  0.00  0.00    -0.071 C 
ATOM     76  H31 VAL d   1      20.414  -5.893   4.877  0.00  0.00     0.028 H 
ATOM     77  H32 VAL d   1      19.061  -7.074   4.845  0.00  0.00     0.028 H 
ATOM     78  H33 VAL d   1      20.759  -7.648   4.714  0.00  0.00     0.028 H 
ENDBRANCH  69  75
ENDBRANCH  20  69
BRANCH  26  79
ATOM     79  C52 73O d   1      16.103  -7.120  10.726  0.00  0.00    -0.034 C 
ATOM     80  H36 73O d   1      15.873  -7.465  11.745  0.00  0.00     0.037 H 
ATOM     81  H37 73O d   1      15.734  -7.857   9.998  0.00  0.00     0.037 H 
BRANCH  79  82
ATOM     82  C54 73O d   1      15.386  -5.789  10.484  0.00  0.00    -0.039 C 
ATOM     83  H38 73O d   1      15.641  -5.418   9.480  0.00  0.00     0.040 H 
ATOM     84  H39 73O d   1      15.713  -5.059  11.239  0.00  0.00     0.040 H 
BRANCH  82  85
ATOM     85  C57 73O d   1      13.870  -5.969  10.583  0.00  0.00    -0.058 A 
ATOM     86  C60 73O d   1      13.130  -5.204  11.479  0.00  0.00    -0.074 A 
ATOM     87  C61 73O d   1      11.751  -5.377  11.571  0.00  0.00    -0.051 A 
ATOM     88  H40 73O d   1      13.627  -4.473  12.106  0.00  0.00     0.084 H 
ATOM     89  C62 73O d   1      11.113  -6.318  10.767  0.00  0.00     0.065 A 
ATOM     90  H41 73O d   1      11.175  -4.779  12.268  0.00  0.00     0.087 H 
ATOM     91  C63 73O d   1      11.852  -7.085   9.871  0.00  0.00    -0.051 A 
ATOM     92  C64 73O d   1      13.229  -6.909   9.779  0.00  0.00    -0.074 A 
ATOM     93  H42 73O d   1      11.355  -7.818   9.246  0.00  0.00     0.087 H 
ATOM     94  H43 73O d   1      13.805  -7.505   9.080  0.00  0.00     0.084 H 
BRANCH  89  95
ATOM     95  O69 73O d   1       9.768  -6.497  10.860  0.00  0.00    -0.361 OA
ATOM     96  H44 73O d   1       9.367  -6.320  10.017  0.00  0.00     0.217 HD
ENDBRANCH  89  95
ENDBRANCH  82  85
ENDBRANCH  79  82
ENDBRANCH  26  79
BRANCH  38  97
ATOM     97  O   PHE d   1      24.310  -4.398  11.921  0.00  0.00    -0.338 OA
ATOM     98  H54 PHE d   1      24.893  -5.148  11.935  0.00  0.00     0.215 HD
ENDBRANCH  38  97
BRANCH  37  99
ATOM     99  CB  PHE d   1      23.434  -6.934  10.669  0.00  0.00    -0.015 C 
ATOM    100  H55 PHE d   1      24.524  -6.790  10.694  0.00  0.00     0.043 H 
ATOM    101  H56 PHE d   1      23.020  -6.444   9.776  0.00  0.00     0.043 H 
BRANCH  99 102
ATOM    102  CG  PHE d   1      23.139  -8.434  10.587  0.00  0.00    -0.056 A 
ATOM    103  CD1 PHE d   1      23.730  -9.322  11.482  0.00  0.00    -0.077 A 
ATOM    104  CE1 PHE d   1      23.467 -10.685  11.388  0.00  0.00    -0.082 A 
ATOM    105  H57 PHE d   1      24.396  -8.951  12.253  0.00  0.00     0.084 H 
ATOM    106  CZ  PHE d   1      22.613 -11.163  10.398  0.00  0.00    -0.083 A 
ATOM    107  H59 PHE d   1      23.927 -11.375  12.086  0.00  0.00     0.083 H 
ATOM    108  CE2 PHE d   1      22.021 -10.277   9.503  0.00  0.00    -0.082 A 
ATOM    109  H61 PHE d   1      22.409 -12.225  10.324  0.00  0.00     0.083 H 
ATOM    110  CD2 PHE d   1      22.283  -8.913   9.599  0.00  0.00    -0.077 A 
ATOM    111  H60 PHE d   1      21.356 -10.649   8.732  0.00  0.00     0.083 H 
ATOM    112  H58 PHE d   1      21.820  -8.223   8.903  0.00  0.00     0.084 H 
ENDBRANCH  99 102
ENDBRANCH  37  99
BRANCH  31 113
ATOM    113  CM  MAA d   1      19.593  -9.717  12.308  0.00  0.00    -0.015 C 
ATOM    114  H45 MAA d   1      19.277 -10.437  11.539  0.00  0.00     0.056 H 
ATOM    115  H46 MAA d   1      19.241 -10.055  13.294  0.00  0.00     0.056 H 
ATOM    116  H47 MAA d   1      20.691  -9.647  12.315  0.00  0.00     0.056 H 
ENDBRANCH  31 113
BRANCH  32 117
ATOM    117  CB  MAA d   1      18.560  -7.370  14.201  0.00  0.00    -0.049 C 
ATOM    118  H49 MAA d   1      18.735  -6.473  14.813  0.00  0.00     0.030 H 
ATOM    119  H50 MAA d   1      18.975  -8.250  14.714  0.00  0.00     0.030 H 
ATOM    120  H51 MAA d   1      17.479  -7.508  14.053  0.00  0.00     0.030 H 
ENDBRANCH  32 117
TORSDOF 20
