REMARK  20 active torsions:
REMARK  status: ('A' for Active; 'I' for Inactive)
REMARK       I    between atoms: C2_1  and  N1_6 
REMARK       I    between atoms: N4_8  and  C2_1 
REMARK    1  A    between atoms: C9_2  and  C12_3 
REMARK    2  A    between atoms: C6_10  and  C9_2 
REMARK    3  A    between atoms: C12_3  and  C20_4 
REMARK    4  A    between atoms: C12_3  and  N23_5 
REMARK       I    between atoms: N23_5  and  C25_13 
REMARK    5  A    between atoms: C5_9  and  N4_8 
REMARK    6  A    between atoms: C5_9  and  C6_10 
REMARK       I    between atoms: C25_13  and  N_15 
REMARK    7  A    between atoms: N_15  and  CA_16 
REMARK    8  A    between atoms: CA_25  and  CB_28 
REMARK    9  A    between atoms: CB_28  and  CG2_29 
REMARK   10  A    between atoms: CB_28  and  CG1_30 
REMARK   11  A    between atoms: CG1_30  and  CD1_31 
REMARK   12  A    between atoms: C50_33  and  C52_35 
REMARK   13  A    between atoms: C52_35  and  C54_36 
REMARK   14  A    between atoms: C54_36  and  C57_37 
REMARK   15  A    between atoms: C62_40  and  O69_43 
REMARK   16  A    between atoms: N_45  and  CM_46 
REMARK   17  A    between atoms: CA_47  and  CB_48 
REMARK   18  A    between atoms: CA_52  and  CB_55 
REMARK   19  A    between atoms: C_53  and  O_54 
REMARK   20  A    between atoms: CB_55  and  CG_56 
ROOT
ATOM      1  CA  DLY d   1      20.322  -2.359   7.057  0.00  0.00     0.091 C 
ATOM      2  C   DLY d   1      19.512  -3.664   7.118  0.00  0.00     0.241 C 
ATOM      3  O   DLY d   1      18.319  -3.662   7.423  0.00  0.00    -0.271 OA
ATOM      4  CB  DLY d   1      20.457  -1.771   8.464  0.00  0.00    -0.038 C 
ATOM      5  CG  DLY d   1      21.376  -2.553   9.383  0.00  0.00    -0.061 C 
ATOM      6  CD  DLY d   1      21.185  -2.198  10.854  0.00  0.00    -0.039 C 
ATOM      7  CE  DLY d   1      22.226  -2.854  11.758  0.00  0.00     0.117 C 
ATOM      8  NZ  DLY d   1      22.053  -4.322  11.806  0.00  0.00     0.111 N 
ATOM      9  H15 DLY d   1      19.772  -1.645   6.426  0.00  0.00     0.087 H 
ATOM     10  H16 DLY d   1      19.457  -1.740   8.922  0.00  0.00     0.036 H 
ATOM     11  H17 DLY d   1      20.850  -0.748   8.373  0.00  0.00     0.036 H 
ATOM     12  H18 DLY d   1      22.418  -2.339   9.103  0.00  0.00     0.033 H 
ATOM     13  H19 DLY d   1      21.174  -3.626   9.252  0.00  0.00     0.033 H 
ATOM     14  H20 DLY d   1      20.185  -2.531  11.169  0.00  0.00     0.035 H 
ATOM     15  H21 DLY d   1      21.260  -1.106  10.965  0.00  0.00     0.035 H 
ATOM     16  H22 DLY d   1      22.123  -2.448  12.775  0.00  0.00     0.080 H 
ATOM     17  H23 DLY d   1      23.230  -2.625  11.372  0.00  0.00     0.080 H 
ATOM     18  H24 DLY d   1      21.218  -4.628  12.281  0.00  0.00     0.325 HD
ATOM     19  N   IIL d   1      20.191  -4.770   6.822  0.00  0.00    -0.346 N 
ATOM     20  CA  IIL d   1      19.499  -6.036   7.089  0.00  0.00     0.092 C 
ATOM     21  C   IIL d   1      19.270  -6.265   8.545  0.00  0.00     0.241 C 
ATOM     22  O   IIL d   1      20.191  -6.121   9.353  0.00  0.00    -0.271 OA
ATOM     23  H25 IIL d   1      21.115  -4.740   6.441  0.00  0.00     0.163 HD
ATOM     24  H26 IIL d   1      18.523  -6.015   6.582  0.00  0.00     0.088 H 
ATOM     25  N49 73O d   1      17.994  -6.609   8.897  0.00  0.00    -0.346 N 
ATOM     26  C50 73O d   1      17.866  -7.098  10.278  0.00  0.00     0.090 C 
ATOM     27  C51 73O d   1      18.442  -8.485  10.448  0.00  0.00     0.243 C 
ATOM     28  O85 73O d   1      18.212  -9.369   9.622  0.00  0.00    -0.271 OA
ATOM     29  H36 73O d   1      17.218  -6.535   8.271  0.00  0.00     0.163 HD
ATOM     30  H37 73O d   1      18.410  -6.410  10.942  0.00  0.00     0.087 H 
ATOM     31  N   MAA d   1      19.211  -8.646  11.561  0.00  0.00    -0.342 N 
ATOM     32  CA  MAA d   1      19.313  -7.534  12.517  0.00  0.00     0.088 C 
ATOM     33  C   MAA d   1      20.765  -7.163  12.713  0.00  0.00     0.240 C 
ATOM     34  O   MAA d   1      21.262  -7.127  13.839  0.00  0.00    -0.271 OA
ATOM     35  H50 MAA d   1      18.760  -6.666  12.129  0.00  0.00     0.087 H 
ATOM     36  N   PHE d   1      21.426  -6.895  11.595  0.00  0.00    -0.347 N 
ATOM     37  CA  PHE d   1      22.832  -6.617  11.741  0.00  0.00     0.102 C 
ATOM     38  C   PHE d   1      23.129  -5.144  11.809  0.00  0.00     0.414 A 
ATOM     39  OXT PHE d   1      22.210  -4.327  11.816  0.00  0.00    -0.124 OA
ATOM     40  H54 PHE d   1      20.975  -6.886  10.703  0.00  0.00     0.163 HD
ATOM     41  H55 PHE d   1      23.180  -7.084  12.674  0.00  0.00     0.084 H 
ENDROOT
BRANCH   1  42
ATOM     42  N   DLY d   1      21.663  -2.545   6.479  0.00  0.00    -0.330 N 
ATOM     43  C25 73N d   1      21.810  -2.639   5.146  0.00  0.00     0.317 C 
ATOM     44  N23 73N d   1      23.064  -2.521   4.702  0.00  0.00    -0.329 N 
ATOM     45  O26 73N d   1      20.867  -2.822   4.377  0.00  0.00    -0.247 OA
ATOM     46  H4  73N d   1      23.850  -2.565   5.319  0.00  0.00     0.165 HD
ATOM     47  H14 DLY d   1      22.463  -2.601   7.077  0.00  0.00     0.165 HD
BRANCH  44  48
ATOM     48  C12 73N d   1      23.220  -2.325   3.269  0.00  0.00     0.098 C 
ATOM     49  H3  73N d   1      22.582  -1.482   2.965  0.00  0.00     0.089 H 
BRANCH  48  50
ATOM     50  C9  73N d   1      24.675  -1.974   2.975  0.00  0.00    -0.035 C 
ATOM     51  H1  73N d   1      25.296  -2.358   3.798  0.00  0.00     0.036 H 
ATOM     52  H2  73N d   1      24.763  -0.878   2.929  0.00  0.00     0.036 H 
BRANCH  50  53
ATOM     53  C6  73N d   1      25.202  -2.548   1.675  0.00  0.00    -0.047 C 
ATOM     54  H12 73N d   1      24.447  -2.392   0.890  0.00  0.00     0.035 H 
ATOM     55  H13 73N d   1      25.372  -3.626   1.811  0.00  0.00     0.035 H 
BRANCH  53  56
ATOM     56  C5  73N d   1      26.504  -1.904   1.230  0.00  0.00     0.009 C 
ATOM     57  H10 73N d   1      26.278  -0.954   0.723  0.00  0.00     0.064 H 
ATOM     58  H11 73N d   1      27.126  -1.708   2.116  0.00  0.00     0.064 H 
BRANCH  56  59
ATOM     59  N4  73N d   1      27.258  -2.783   0.295  0.00  0.00    -0.227 N 
ATOM     60  C2  73N d   1      26.879  -3.836  -0.500  0.00  0.00     0.665 C 
ATOM     61  N1  73N d   1      26.273  -4.903   0.031  0.00  0.00    -0.235 N 
ATOM     62  N3  73N d   1      27.121  -3.806  -1.801  0.00  0.00    -0.235 N 
ATOM     63  H5  73N d   1      25.992  -5.689  -0.572  0.00  0.00     0.174 HD
ATOM     64  H6  73N d   1      26.087  -4.939   1.044  0.00  0.00     0.174 HD
ATOM     65  H7  73N d   1      27.587  -2.988  -2.219  0.00  0.00     0.174 HD
ATOM     66  H8  73N d   1      26.843  -4.600  -2.395  0.00  0.00     0.174 HD
ATOM     67  H9  73N d   1      28.261  -2.557   0.232  0.00  0.00     0.177 HD
ENDBRANCH  56  59
ENDBRANCH  53  56
ENDBRANCH  50  53
ENDBRANCH  48  50
BRANCH  48  68
ATOM     68  C20 73N d   1      22.806  -3.558   2.446  0.00  0.00     0.196 C 
ATOM     69  O21 73N d   1      22.891  -4.666   2.970  0.00  0.00    -0.646 OA
ATOM     70  O22 73N d   1      22.397  -3.393   1.285  0.00  0.00    -0.646 OA
ENDBRANCH  48  68
ENDBRANCH  44  48
ENDBRANCH   1  42
BRANCH  20  71
ATOM     71  CB  IIL d   1      20.333  -7.181   6.522  0.00  0.00    -0.030 C 
ATOM     72  H27 IIL d   1      21.306  -7.205   7.035  0.00  0.00     0.043 H 
BRANCH  71  73
ATOM     73  CG2 IIL d   1      20.551  -6.993   5.047  0.00  0.00    -0.071 C 
ATOM     74  H28 IIL d   1      21.153  -7.827   4.656  0.00  0.00     0.028 H 
ATOM     75  H29 IIL d   1      21.081  -6.045   4.872  0.00  0.00     0.028 H 
ATOM     76  H30 IIL d   1      19.579  -6.970   4.533  0.00  0.00     0.028 H 
ENDBRANCH  71  73
BRANCH  71  77
ATOM     77  CG1 IIL d   1      19.612  -8.513   6.735  0.00  0.00    -0.063 C 
ATOM     78  H31 IIL d   1      18.677  -8.507   6.156  0.00  0.00     0.033 H 
ATOM     79  H32 IIL d   1      19.381  -8.624   7.805  0.00  0.00     0.033 H 
BRANCH  77  80
ATOM     80  CD1 IIL d   1      20.442  -9.674   6.298  0.00  0.00    -0.076 C 
ATOM     81  H33 IIL d   1      19.886 -10.607   6.469  0.00  0.00     0.027 H 
ATOM     82  H34 IIL d   1      21.378  -9.694   6.876  0.00  0.00     0.027 H 
ATOM     83  H35 IIL d   1      20.674  -9.576   5.227  0.00  0.00     0.027 H 
ENDBRANCH  77  80
ENDBRANCH  71  77
ENDBRANCH  20  71
BRANCH  26  84
ATOM     84  C52 73O d   1      16.388  -7.117  10.679  0.00  0.00    -0.034 C 
ATOM     85  H38 73O d   1      16.319  -7.460  11.722  0.00  0.00     0.037 H 
ATOM     86  H39 73O d   1      15.863  -7.827  10.023  0.00  0.00     0.037 H 
BRANCH  84  87
ATOM     87  C54 73O d   1      15.688  -5.765  10.575  0.00  0.00    -0.039 C 
ATOM     88  H40 73O d   1      15.931  -5.297   9.610  0.00  0.00     0.040 H 
ATOM     89  H41 73O d   1      16.024  -5.112  11.394  0.00  0.00     0.040 H 
BRANCH  87  90
ATOM     90  C57 73O d   1      14.183  -5.975  10.675  0.00  0.00    -0.058 A 
ATOM     91  C60 73O d   1      13.426  -5.414  11.814  0.00  0.00    -0.074 A 
ATOM     92  C61 73O d   1      11.998  -5.777  12.004  0.00  0.00    -0.051 A 
ATOM     93  H42 73O d   1      13.912  -4.739  12.509  0.00  0.00     0.084 H 
ATOM     94  C62 73O d   1      11.348  -6.713  11.074  0.00  0.00     0.065 A 
ATOM     95  H43 73O d   1      11.435  -5.352  12.828  0.00  0.00     0.087 H 
ATOM     96  C63 73O d   1      12.090  -7.218   9.911  0.00  0.00    -0.051 A 
ATOM     97  C64 73O d   1      13.491  -6.816   9.688  0.00  0.00    -0.074 A 
ATOM     98  H44 73O d   1      11.605  -7.890   9.213  0.00  0.00     0.087 H 
ATOM     99  H45 73O d   1      14.011  -7.141   8.794  0.00  0.00     0.084 H 
BRANCH  94 100
ATOM    100  O69 73O d   1      10.047  -7.139  11.304  0.00  0.00    -0.361 OA
ATOM    101  H46 73O d   1       9.713  -6.722  12.089  0.00  0.00     0.217 HD
ENDBRANCH  94 100
ENDBRANCH  87  90
ENDBRANCH  84  87
ENDBRANCH  26  84
BRANCH  38 102
ATOM    102  O   PHE d   1      24.292  -4.749  11.858  0.00  0.00    -0.338 OA
ATOM    103  H56 PHE d   1      24.424  -4.255  12.659  0.00  0.00     0.215 HD
ENDBRANCH  38 102
BRANCH  37 104
ATOM    104  CB  PHE d   1      23.599  -7.224  10.565  0.00  0.00    -0.015 C 
ATOM    105  H57 PHE d   1      24.679  -7.113  10.740  0.00  0.00     0.043 H 
ATOM    106  H58 PHE d   1      23.322  -6.697   9.640  0.00  0.00     0.043 H 
BRANCH 104 107
ATOM    107  CG  PHE d   1      23.266  -8.685  10.424  0.00  0.00    -0.056 A 
ATOM    108  CD1 PHE d   1      23.855  -9.669  11.344  0.00  0.00    -0.077 A 
ATOM    109  CE1 PHE d   1      23.565 -11.107  11.170  0.00  0.00    -0.082 A 
ATOM    110  H59 PHE d   1      24.502  -9.340  12.149  0.00  0.00     0.084 H 
ATOM    111  CZ  PHE d   1      22.682 -11.562  10.086  0.00  0.00    -0.083 A 
ATOM    112  H61 PHE d   1      24.006 -11.831  11.846  0.00  0.00     0.083 H 
ATOM    113  CE2 PHE d   1      22.133 -10.576   9.150  0.00  0.00    -0.082 A 
ATOM    114  H63 PHE d   1      22.440 -12.613   9.980  0.00  0.00     0.083 H 
ATOM    115  CD2 PHE d   1      22.415  -9.137   9.320  0.00  0.00    -0.077 A 
ATOM    116  H62 PHE d   1      21.514 -10.907   8.324  0.00  0.00     0.083 H 
ATOM    117  H60 PHE d   1      21.993  -8.416   8.629  0.00  0.00     0.084 H 
ENDBRANCH 104 107
ENDBRANCH  37 104
BRANCH  31 118
ATOM    118  CM  MAA d   1      19.936  -9.852  11.886  0.00  0.00    -0.015 C 
ATOM    119  H47 MAA d   1      19.777 -10.600  11.095  0.00  0.00     0.056 H 
ATOM    120  H48 MAA d   1      19.574 -10.250  12.845  0.00  0.00     0.056 H 
ATOM    121  H49 MAA d   1      21.009  -9.625  11.965  0.00  0.00     0.056 H 
ENDBRANCH  31 118
BRANCH  32 122
ATOM    122  CB  MAA d   1      18.725  -7.957  13.853  0.00  0.00    -0.049 C 
ATOM    123  H51 MAA d   1      18.802  -7.124  14.568  0.00  0.00     0.030 H 
ATOM    124  H52 MAA d   1      19.280  -8.824  14.240  0.00  0.00     0.030 H 
ATOM    125  H53 MAA d   1      17.668  -8.229  13.719  0.00  0.00     0.030 H 
ENDBRANCH  32 122
TORSDOF 20
