REMARK  9 active torsions:
REMARK  status: ('A' for Active; 'I' for Inactive)
REMARK    1  A    between atoms: O_30  and  C1_1 
REMARK    2  A    between atoms: C1_1  and  C_31 
REMARK    3  A    between atoms: C2_2  and  O_30 
REMARK    4  A    between atoms: N5_32  and  C4_4 
REMARK    5  A    between atoms: C7_7  and  N_29 
REMARK    6  A    between atoms: N_29  and  C8_8 
REMARK    7  A    between atoms: N4_20  and  C19_15 
REMARK    8  A    between atoms: C23_17  and  O2_34 
REMARK    9  A    between atoms: N3_26  and  C20_27 
ROOT
ATOM      1  C2  MOL d   1      31.165   3.254 103.695  0.00  0.00     0.098 A 
ATOM      2  C3  MOL d   1      30.830   2.089 103.021  0.00  0.00    -0.023 A 
ATOM      3  C4  MOL d   1      31.823   1.327 102.391  0.00  0.00     0.033 A 
ATOM      4  C5  MOL d   1      33.144   1.752 102.482  0.00  0.00    -0.055 A 
ATOM      5  C6  MOL d   1      33.487   2.912 103.127  0.00  0.00    -0.052 A 
ATOM      6  C7  MOL d   1      32.501   3.673 103.752  0.00  0.00     0.082 A 
ATOM      7  H3  MOL d   1      29.796   1.767 102.981  0.00  0.00     0.091 H 
ATOM      8  H4  MOL d   1      33.924   1.149 102.031  0.00  0.00     0.087 H 
ATOM      9  H5  MOL d   1      34.521   3.236 103.151  0.00  0.00     0.087 H 
ENDROOT
BRANCH   6  10
ATOM     10  N   MOL d   1      32.791   4.819 104.535  0.00  0.00    -0.185 N 
ATOM     11  H22 MOL d   1      32.023   5.103 105.160  0.00  0.00     0.184 HD
BRANCH  10  12
ATOM     12  C8  MOL d   1      33.892   5.616 104.618  0.00  0.00     0.729 A 
ATOM     13  N1  MOL d   1      33.934   6.504 105.619  0.00  0.00    -0.073 NA
ATOM     14  C9  MOL d   1      34.989   7.318 105.659  0.00  0.00     0.051 A 
ATOM     15  C10 MOL d   1      36.056   7.217 104.766  0.00  0.00     0.102 A 
ATOM     16  H16 MOL d   1      35.019   8.091 106.418  0.00  0.00     0.119 H 
ATOM     17  C11 MOL d   1      35.928   6.258 103.733  0.00  0.00     0.177 A 
ATOM     18  N4  MOL d   1      37.112   8.181 104.725  0.00  0.00    -0.314 N 
ATOM     19  N3  MOL d   1      36.915   5.911 102.862  0.00  0.00    -0.333 N 
ATOM     20  N2  MOL d   1      34.859   5.451 103.698  0.00  0.00    -0.042 NA
ATOM     21  C12 MOL d   1      38.230   5.613 103.364  0.00  0.00     0.051 C 
ATOM     22  C17 MOL d   1      38.861   6.480 104.271  0.00  0.00     0.059 C 
ATOM     23  C13 MOL d   1      38.775   4.337 103.146  0.00  0.00    -0.056 C 
ATOM     24  C16 MOL d   1      40.085   6.106 104.783  0.00  0.00    -0.065 C 
ATOM     25  C18 MOL d   1      38.423   7.901 104.514  0.00  0.00     0.260 C 
ATOM     26  C15 MOL d   1      40.633   4.863 104.531  0.00  0.00    -0.082 C 
ATOM     27  H7  MOL d   1      40.633   6.808 105.401  0.00  0.00     0.085 H 
ATOM     28  C14 MOL d   1      40.003   4.011 103.654  0.00  0.00    -0.081 C 
ATOM     29  H6  MOL d   1      41.552   4.562 105.020  0.00  0.00     0.083 H 
ATOM     30  H17 MOL d   1      40.479   3.081 103.365  0.00  0.00     0.083 H 
ATOM     31  O1  MOL d   1      39.265   8.800 104.533  0.00  0.00    -0.267 OA
ATOM     32  H18 MOL d   1      38.219   3.605 102.571  0.00  0.00     0.087 H 
BRANCH  19  33
ATOM     33  C20 MOL d   1      36.524   5.443 101.530  0.00  0.00    -0.012 C 
ATOM     34  H19 MOL d   1      35.493   5.762 101.317  0.00  0.00     0.057 H 
ATOM     35  H20 MOL d   1      36.583   4.345 101.495  0.00  0.00     0.057 H 
ATOM     36  H21 MOL d   1      37.203   5.871 100.777  0.00  0.00     0.057 H 
ENDBRANCH  19  33
BRANCH  18  37
ATOM     37  C19 MOL d   1      36.661   9.579 104.822  0.00  0.00    -0.011 C 
ATOM     38  H8  MOL d   1      37.532  10.249 104.783  0.00  0.00     0.057 H 
ATOM     39  H9  MOL d   1      36.127   9.727 105.772  0.00  0.00     0.057 H 
ATOM     40  H10 MOL d   1      35.986   9.806 103.983  0.00  0.00     0.057 H 
ENDBRANCH  18  37
ENDBRANCH  10  12
ENDBRANCH   6  10
BRANCH   1  41
ATOM     41  O   MOL d   1      30.288   4.053 104.358  0.00  0.00    -0.349 OA
BRANCH  41  42
ATOM     42  C1  MOL d   1      28.882   3.832 104.237  0.00  0.00     0.023 C 
ATOM     43  H1  MOL d   1      28.609   2.852 104.656  0.00  0.00     0.074 H 
ATOM     44  H2  MOL d   1      28.575   3.878 103.182  0.00  0.00     0.074 H 
BRANCH  42  45
ATOM     45  C   MOL d   1      28.237   4.932 105.018  0.00  0.00    -0.056 C 
ATOM     46  H23 MOL d   1      27.143   4.824 104.969  0.00  0.00     0.030 H 
ATOM     47  H24 MOL d   1      28.529   5.904 104.593  0.00  0.00     0.030 H 
ATOM     48  H25 MOL d   1      28.564   4.877 106.067  0.00  0.00     0.030 H 
ENDBRANCH  42  45
ENDBRANCH  41  42
ENDBRANCH   1  41
BRANCH   3  49
ATOM     49  N5  MOL d   1      31.512   0.103 101.781  0.00  0.00    -0.381 N 
ATOM     50  C21 MOL d   1      32.595  -0.900 101.832  0.00  0.00    -0.003 C 
ATOM     51  C22 MOL d   1      32.375  -2.100 100.962  0.00  0.00    -0.026 C 
ATOM     52  H11 MOL d   1      32.696  -1.244 102.872  0.00  0.00     0.064 H 
ATOM     53  H12 MOL d   1      33.529  -0.413 101.515  0.00  0.00     0.064 H 
ATOM     54  C23 MOL d   1      30.989  -2.675 101.006  0.00  0.00     0.038 C 
ATOM     55  H29 MOL d   1      33.079  -2.884 101.279  0.00  0.00     0.039 H 
ATOM     56  H30 MOL d   1      32.591  -1.811  99.923  0.00  0.00     0.039 H 
ATOM     57  C24 MOL d   1      29.959  -1.600 100.749  0.00  0.00    -0.026 C 
ATOM     58  H13 MOL d   1      30.804  -3.106 102.001  0.00  0.00     0.083 H 
ATOM     59  C25 MOL d   1      30.128  -0.336 101.564  0.00  0.00    -0.003 C 
ATOM     60  H14 MOL d   1      28.967  -2.019 100.973  0.00  0.00     0.039 H 
ATOM     61  H15 MOL d   1      30.010  -1.328  99.684  0.00  0.00     0.039 H 
ATOM     62  H26 MOL d   1      29.669  -0.506 102.549  0.00  0.00     0.064 H 
ATOM     63  H27 MOL d   1      29.594   0.474 101.046  0.00  0.00     0.064 H 
BRANCH  54  64
ATOM     64  O2  MOL d   1      30.928  -3.703 100.035  0.00  0.00    -0.395 OA
ATOM     65  H28 MOL d   1      31.587  -4.359 100.228  0.00  0.00     0.210 HD
ENDBRANCH  54  64
ENDBRANCH   3  49
TORSDOF 9
