REMARK  13 active torsions:
REMARK  status: ('A' for Active; 'I' for Inactive)
REMARK    1  A    between atoms: CBK_1  and  CBH_2 
REMARK    2  A    between atoms: CBH_2  and  CBG_5 
REMARK    3  A    between atoms: CBG_5  and  NBD_6 
REMARK    4  A    between atoms: CBA_11  and  CAY_12 
REMARK    5  A    between atoms: CAY_12  and  CAZ_13 
REMARK    6  A    between atoms: CAY_12  and  NAQ_14 
REMARK    7  A    between atoms: CAP_15  and  CAX_16 
REMARK    8  A    between atoms: CAN_23  and  CAM_24 
REMARK       I    between atoms: CAM_24  and  NAL_26 
REMARK    9  A    between atoms: NAL_26  and  CAK_27 
REMARK   10  A    between atoms: CAK_27  and  CAC_28 
REMARK   11  A    between atoms: CAF_32  and  CAG_33 
REMARK   12  A    between atoms: CAB_35  and  OAI_36 
REMARK   13  A    between atoms: OAI_36  and  CAJ_37 
ROOT
ATOM      1  NAQ 74D d   1     209.437  -4.919  14.763  0.00  0.00    -0.344 N 
ATOM      2  CAP 74D d   1     208.254  -5.551  14.634  0.00  0.00     0.025 C 
ATOM      3  CAR 74D d   1     210.115  -5.543  15.892  0.00  0.00     0.046 C 
ATOM      4  CAT 74D d   1     211.402  -5.435  16.456  0.00  0.00    -0.056 C 
ATOM      5  CAU 74D d   1     211.779  -6.347  17.468  0.00  0.00    -0.081 C 
ATOM      6  CAV 74D d   1     210.944  -7.431  17.834  0.00  0.00    -0.082 C 
ATOM      7  CAW 74D d   1     209.679  -7.612  17.229  0.00  0.00    -0.070 C 
ATOM      8  CAS 74D d   1     209.295  -6.766  16.169  0.00  0.00     0.008 C 
ATOM      9  CAN 74D d   1     208.102  -6.603  15.468  0.00  0.00     0.066 C 
ATOM     10  H23 74D d   1     212.090  -4.667  16.120  0.00  0.00     0.087 H 
ATOM     11  H24 74D d   1     212.728  -6.214  17.975  0.00  0.00     0.083 H 
ATOM     12  H25 74D d   1     211.280  -8.132  18.589  0.00  0.00     0.083 H 
ATOM     13  H26 74D d   1     209.012  -8.393  17.576  0.00  0.00     0.084 H 
ENDROOT
BRANCH   1  14
ATOM     14  CAY 74D d   1     209.843  -3.688  14.077  0.00  0.00     0.017 C 
ATOM     15  H16 74D d   1     209.460  -3.724  13.046  0.00  0.00     0.073 H 
BRANCH  14  16
ATOM     16  CBA 74D d   1     209.262  -2.459  14.769  0.00  0.00    -0.031 C 
ATOM     17  CBF 74D d   1     209.906  -2.298  16.129  0.00  0.00    -0.037 C 
ATOM     18  CBE 74D d   1     209.391  -1.028  16.779  0.00  0.00     0.084 C 
ATOM     19  H9  74D d   1     209.653  -3.163  16.760  0.00  0.00     0.036 H 
ATOM     20  H10 74D d   1     210.998  -2.235  16.014  0.00  0.00     0.036 H 
ATOM     21  NBD 74D d   1     209.699   0.145  15.953  0.00  0.00    -0.065 N 
ATOM     22  H7  74D d   1     208.301  -1.104  16.904  0.00  0.00     0.076 H 
ATOM     23  H8  74D d   1     209.866  -0.909  17.764  0.00  0.00     0.076 H 
ATOM     24  CBC 74D d   1     209.041  -0.004  14.650  0.00  0.00     0.084 C 
ATOM     25  H6  74D d   1     210.696   0.219  15.825  0.00  0.00     0.280 HD
ATOM     26  CBB 74D d   1     209.556  -1.233  13.932  0.00  0.00    -0.037 C 
ATOM     27  H11 74D d   1     209.247   0.886  14.037  0.00  0.00     0.076 H 
ATOM     28  H12 74D d   1     207.956  -0.102  14.802  0.00  0.00     0.076 H 
ATOM     29  H13 74D d   1     210.642  -1.143  13.781  0.00  0.00     0.036 H 
ATOM     30  H14 74D d   1     209.056  -1.325  12.956  0.00  0.00     0.036 H 
ATOM     31  H15 74D d   1     208.175  -2.578  14.885  0.00  0.00     0.043 H 
BRANCH  21  32
ATOM     32  CBG 74D d   1     209.194   1.355  16.612  0.00  0.00     0.143 C 
ATOM     33  H4  74D d   1     208.107   1.265  16.751  0.00  0.00     0.085 H 
ATOM     34  H5  74D d   1     209.681   1.464  17.592  0.00  0.00     0.085 H 
BRANCH  32  35
ATOM     35  CBH 74D d   1     209.491   2.587  15.764  0.00  0.00     0.263 C 
ATOM     36  FBI 74D d   1     209.957   3.545  16.526  0.00  0.00    -0.205 F 
ATOM     37  FBJ 74D d   1     210.385   2.284  14.856  0.00  0.00    -0.205 F 
BRANCH  35  38
ATOM     38  CBK 74D d   1     208.210   3.061  15.076  0.00  0.00    -0.015 C 
ATOM     39  H1  74D d   1     207.458   3.316  15.837  0.00  0.00     0.035 H 
ATOM     40  H2  74D d   1     207.822   2.259  14.431  0.00  0.00     0.035 H 
ATOM     41  H3  74D d   1     208.429   3.949  14.465  0.00  0.00     0.035 H 
ENDBRANCH  35  38
ENDBRANCH  32  35
ENDBRANCH  21  32
ENDBRANCH  14  16
BRANCH  14  42
ATOM     42  CAZ 74D d   1     211.365  -3.569  14.029  0.00  0.00    -0.056 C 
ATOM     43  H17 74D d   1     211.786  -4.454  13.530  0.00  0.00     0.030 H 
ATOM     44  H18 74D d   1     211.760  -3.502  15.053  0.00  0.00     0.030 H 
ATOM     45  H19 74D d   1     211.645  -2.665  13.469  0.00  0.00     0.030 H 
ENDBRANCH  14  42
ENDBRANCH   1  14
BRANCH   2  46
ATOM     46  CAX 74D d   1     207.145  -5.190  13.649  0.00  0.00    -0.036 C 
ATOM     47  H20 74D d   1     206.301  -5.884  13.777  0.00  0.00     0.035 H 
ATOM     48  H21 74D d   1     207.529  -5.265  12.621  0.00  0.00     0.035 H 
ATOM     49  H22 74D d   1     206.806  -4.161  13.839  0.00  0.00     0.035 H 
ENDBRANCH   2  46
BRANCH   9  50
ATOM     50  CAM 74D d   1     207.079  -7.448  15.471  0.00  0.00     0.254 C 
ATOM     51  OAO 74D d   1     205.946  -7.065  15.187  0.00  0.00    -0.268 OA
ATOM     52  NAL 74D d   1     207.415  -8.736  15.593  0.00  0.00    -0.352 N 
ATOM     53  H27 74D d   1     208.356  -8.974  15.832  0.00  0.00     0.163 HD
BRANCH  52  54
ATOM     54  CAK 74D d   1     206.437  -9.809  15.385  0.00  0.00     0.027 C 
ATOM     55  H28 74D d   1     205.579  -9.418  14.818  0.00  0.00     0.071 H 
ATOM     56  H29 74D d   1     206.092 -10.184  16.360  0.00  0.00     0.071 H 
BRANCH  54  57
ATOM     57  CAC 74D d   1     207.028 -10.844  14.674  0.00  0.00     0.059 A 
ATOM     58  CAD 74D d   1     207.819 -11.774  15.336  0.00  0.00     0.277 A 
ATOM     59  OAH 74D d   1     208.003 -11.690  16.549  0.00  0.00    -0.265 OA
ATOM     60  NAE 74D d   1     208.412 -12.817  14.616  0.00  0.00    -0.219 NA
ATOM     61  CAF 74D d   1     208.209 -12.922  13.236  0.00  0.00     0.018 A 
ATOM     62  CAA 74D d   1     207.417 -11.989  12.578  0.00  0.00     0.016 A 
ATOM     63  CAB 74D d   1     206.834 -10.960  13.304  0.00  0.00     0.064 A 
ATOM     64  H33 74D d   1     206.599 -12.545  12.096  0.00  0.00     0.052 H 
ATOM     65  H34 74D d   1     208.046 -11.521  11.807  0.00  0.00     0.052 H 
BRANCH  61  66
ATOM     66  CAG 74D d   1     208.800 -13.959  12.526  0.00  0.00    -0.038 C 
ATOM     67  H30 74D d   1     208.529 -13.877  11.463  0.00  0.00     0.035 H 
ATOM     68  H31 74D d   1     208.446 -14.922  12.922  0.00  0.00     0.035 H 
ATOM     69  H32 74D d   1     209.893 -13.899  12.631  0.00  0.00     0.035 H 
ENDBRANCH  61  66
BRANCH  63  70
ATOM     70  OAI 74D d   1     206.050 -10.018  12.717  0.00  0.00    -0.359 OA
BRANCH  70  71
ATOM     71  CAJ 74D d   1     206.816  -9.312  11.739  0.00  0.00     0.010 C 
ATOM     72  H35 74D d   1     206.185  -8.548  11.261  0.00  0.00     0.066 H 
ATOM     73  H36 74D d   1     207.178 -10.018  10.977  0.00  0.00     0.066 H 
ATOM     74  H37 74D d   1     207.674  -8.826  12.226  0.00  0.00     0.066 H 
ENDBRANCH  70  71
ENDBRANCH  63  70
ENDBRANCH  54  57
ENDBRANCH  52  54
ENDBRANCH   9  50
TORSDOF 13
