REMARK  6 active torsions:
REMARK  status: ('A' for Active; 'I' for Inactive)
REMARK    1  A    between atoms: C16_21  and  C17_2 
REMARK       I    between atoms: C17_2  and  N18_22 
REMARK    2  A    between atoms: N18_22  and  C20_3 
REMARK    3  A    between atoms: S15_20  and  C02_8 
REMARK    4  A    between atoms: C05_11  and  C06_12 
REMARK    5  A    between atoms: C11_16  and  C12_17 
REMARK    6  A    between atoms: S15_20  and  C16_21 
ROOT
ATOM      1  S15 752 d   1     -30.188 -10.110  11.809  0.00  0.00    -0.081 SA
ENDROOT
BRANCH   1   2
ATOM      2  C02 752 d   1     -30.189  -8.827  10.603  0.00  0.00     0.190 A 
ATOM      3  N01 752 d   1     -30.991  -7.747  10.660  0.00  0.00    -0.317 N 
ATOM      4  C05 752 d   1     -30.686  -6.993   9.587  0.00  0.00     0.163 A 
ATOM      5  H4  752 d   1     -31.697  -7.539  11.381  0.00  0.00     0.169 HD
ATOM      6  N04 752 d   1     -29.721  -7.583   8.894  0.00  0.00    -0.129 NA
ATOM      7  N03 752 d   1     -29.416  -8.730   9.532  0.00  0.00    -0.122 NA
BRANCH   4   8
ATOM      8  C06 752 d   1     -31.362  -5.685   9.287  0.00  0.00     0.029 A 
ATOM      9  C10 752 d   1     -32.743  -5.626   9.385  0.00  0.00    -0.068 A 
ATOM     10  C09 752 d   1     -33.398  -4.438   9.132  0.00  0.00    -0.082 A 
ATOM     11  H1  752 d   1     -33.307  -6.510   9.659  0.00  0.00     0.085 H 
ATOM     12  C08 752 d   1     -32.665  -3.306   8.792  0.00  0.00    -0.082 A 
ATOM     13  H7  752 d   1     -34.479  -4.387   9.198  0.00  0.00     0.083 H 
ATOM     14  C07 752 d   1     -31.287  -3.369   8.733  0.00  0.00    -0.066 A 
ATOM     15  H6  752 d   1     -33.175  -2.375   8.573  0.00  0.00     0.083 H 
ATOM     16  C11 752 d   1     -30.627  -4.561   8.978  0.00  0.00     0.054 A 
ATOM     17  H5  752 d   1     -30.718  -2.478   8.493  0.00  0.00     0.085 H 
BRANCH  16  18
ATOM     18  C12 752 d   1     -29.129  -4.595   8.890  0.00  0.00     0.210 C 
ATOM     19  O13 752 d   1     -28.551  -5.258   7.993  0.00  0.00    -0.644 OA
ATOM     20  O14 752 d   1     -28.469  -3.900   9.712  0.00  0.00    -0.644 OA
ENDBRANCH  16  18
ENDBRANCH   4   8
ENDBRANCH   1   2
BRANCH   1  21
ATOM     21  C16 752 d   1     -31.864 -10.144  12.390  0.00  0.00     0.058 C 
ATOM     22  H8  752 d   1     -31.913 -10.842  13.239  0.00  0.00     0.064 H 
ATOM     23  H9  752 d   1     -32.123  -9.131  12.732  0.00  0.00     0.064 H 
BRANCH  21  24
ATOM     24  C17 752 d   1     -32.914 -10.576  11.368  0.00  0.00     0.233 C 
ATOM     25  N18 752 d   1     -34.255 -10.286  11.692  0.00  0.00    -0.305 N 
ATOM     26  H10 752 d   1     -34.447  -9.763  12.523  0.00  0.00     0.171 HD
ATOM     27  O19 752 d   1     -32.632 -11.112  10.300  0.00  0.00    -0.272 OA
BRANCH  25  28
ATOM     28  C20 752 d   1     -35.335 -10.705  10.889  0.00  0.00     0.174 A 
ATOM     29  S21 752 d   1     -35.266 -11.559   9.426  0.00  0.00    -0.050 SA
ATOM     30  C24 752 d   1     -36.963 -11.749   9.250  0.00  0.00     0.037 A 
ATOM     31  C23 752 d   1     -37.521 -11.129  10.381  0.00  0.00     0.076 A 
ATOM     32  C25 752 d   1     -37.792 -12.325   8.304  0.00  0.00    -0.064 A 
ATOM     33  C26 752 d   1     -38.909 -11.096  10.558  0.00  0.00    -0.054 A 
ATOM     34  N22 752 d   1     -36.601 -10.587  11.268  0.00  0.00    -0.223 NA
ATOM     35  C27 752 d   1     -39.736 -11.680   9.611  0.00  0.00    -0.081 A 
ATOM     36  H2  752 d   1     -39.335 -10.616  11.431  0.00  0.00     0.087 H 
ATOM     37  C28 752 d   1     -39.177 -12.290   8.481  0.00  0.00    -0.082 A 
ATOM     38  H12 752 d   1     -40.812 -11.665   9.745  0.00  0.00     0.083 H 
ATOM     39  H3  752 d   1     -39.825 -12.739   7.737  0.00  0.00     0.083 H 
ATOM     40  H11 752 d   1     -37.368 -12.802   7.428  0.00  0.00     0.085 H 
ENDBRANCH  25  28
ENDBRANCH  21  24
ENDBRANCH   1  21
TORSDOF 6
