REMARK  15 active torsions:
REMARK  status: ('A' for Active; 'I' for Inactive)
REMARK    1  A    between atoms: C6_3  and  N6_29 
REMARK    2  A    between atoms: CA_9  and  C_8 
REMARK    3  A    between atoms: CA_9  and  N_10 
REMARK    4  A    between atoms: CB_11  and  CA_9 
REMARK    5  A    between atoms: CAM_12  and  CB_11 
REMARK    6  A    between atoms: CAY_13  and  CAM_12 
REMARK    7  A    between atoms: CAY_13  and  NAR_14 
REMARK    8  A    between atoms: CAN_18  and  CAY_13 
REMARK    9  A    between atoms: NAR_14  and  CAK_15 
REMARK   10  A    between atoms: CAK_15  and  CAJ_16 
REMARK   11  A    between atoms: CAJ_16  and  CAA_17 
REMARK   12  A    between atoms: CBB_19  and  CAN_18 
REMARK   13  A    between atoms: CAZ_21  and  OAF_22 
REMARK   14  A    between atoms: CBA_23  and  OAG_24 
REMARK   15  A    between atoms: CBC_25  and  N9_26 
ROOT
ATOM      1  CAY 76H d   1      -4.761 -10.219  18.261  0.00  0.00     0.104 C 
ATOM      2  H10 76H d   1      -5.801 -10.434  18.549  0.00  0.00     0.084 H 
ENDROOT
BRANCH   1   3
ATOM      3  CAM 76H d   1      -3.901 -10.202  19.522  0.00  0.00    -0.036 C 
ATOM      4  H8  76H d   1      -3.423 -11.188  19.623  0.00  0.00     0.036 H 
ATOM      5  H9  76H d   1      -3.127  -9.430  19.397  0.00  0.00     0.036 H 
BRANCH   3   6
ATOM      6  CB  76H d   1      -4.653  -9.911  20.803  0.00  0.00    -0.027 C 
ATOM      7  H6  76H d   1      -5.099  -8.908  20.729  0.00  0.00     0.036 H 
ATOM      8  H7  76H d   1      -5.451 -10.659  20.920  0.00  0.00     0.036 H 
BRANCH   6   9
ATOM      9  CA  76H d   1      -3.760  -9.956  22.035  0.00  0.00     0.182 C 
ATOM     10  H2  76H d   1      -3.122 -10.848  21.951  0.00  0.00     0.101 H 
BRANCH   9  11
ATOM     11  C   76H d   1      -4.560 -10.072  23.344  0.00  0.00     0.204 C 
ATOM     12  O   76H d   1      -5.469 -10.929  23.384  0.00  0.00    -0.646 OA
ATOM     13  OXT 76H d   1      -4.247  -9.300  24.280  0.00  0.00    -0.646 OA
ENDBRANCH   9  11
BRANCH   9  14
ATOM     14  N   76H d   1      -2.875  -8.752  22.091  0.00  0.00    -0.065 N 
ATOM     15  H3  76H d   1      -2.352  -8.679  21.232  0.00  0.00     0.275 HD
ATOM     16  H4  76H d   1      -2.237  -8.840  22.866  0.00  0.00     0.275 HD
ATOM     17  H5  76H d   1      -3.439  -7.926  22.212  0.00  0.00     0.275 HD
ENDBRANCH   9  14
ENDBRANCH   6   9
ENDBRANCH   3   6
ENDBRANCH   1   3
BRANCH   1  18
ATOM     18  NAR 76H d   1      -4.254 -11.339  17.373  0.00  0.00    -0.071 N 
ATOM     19  H11 76H d   1      -4.312 -12.196  17.901  0.00  0.00     0.277 HD
ATOM     20  H12 76H d   1      -3.289 -11.143  17.157  0.00  0.00     0.277 HD
BRANCH  18  21
ATOM     21  CAK 76H d   1      -4.970 -11.557  16.080  0.00  0.00     0.082 C 
ATOM     22  H13 76H d   1      -4.802 -10.686  15.430  0.00  0.00     0.075 H 
ATOM     23  H14 76H d   1      -6.046 -11.661  16.283  0.00  0.00     0.075 H 
BRANCH  21  24
ATOM     24  CAJ 76H d   1      -4.484 -12.804  15.363  0.00  0.00    -0.046 C 
ATOM     25  H15 76H d   1      -4.687 -13.676  16.002  0.00  0.00     0.034 H 
ATOM     26  H16 76H d   1      -3.400 -12.713  15.200  0.00  0.00     0.034 H 
BRANCH  24  27
ATOM     27  CAA 76H d   1      -5.152 -13.023  14.029  0.00  0.00    -0.075 C 
ATOM     28  H17 76H d   1      -4.755 -13.939  13.566  0.00  0.00     0.027 H 
ATOM     29  H18 76H d   1      -4.951 -12.164  13.373  0.00  0.00     0.027 H 
ATOM     30  H19 76H d   1      -6.237 -13.127  14.175  0.00  0.00     0.027 H 
ENDBRANCH  24  27
ENDBRANCH  21  24
ENDBRANCH  18  21
ENDBRANCH   1  18
BRANCH   1  31
ATOM     31  CAN 76H d   1      -4.745  -8.875  17.513  0.00  0.00    -0.012 C 
ATOM     32  H20 76H d   1      -5.404  -8.971  16.637  0.00  0.00     0.040 H 
ATOM     33  H21 76H d   1      -3.714  -8.690  17.177  0.00  0.00     0.040 H 
BRANCH  31  34
ATOM     34  CBB 76H d   1      -5.201  -7.655  18.307  0.00  0.00     0.070 C 
ATOM     35  OAS 76H d   1      -4.166  -7.196  19.207  0.00  0.00    -0.355 OA
ATOM     36  CBC 76H d   1      -4.029  -5.775  19.154  0.00  0.00     0.139 C 
ATOM     37  CBA 76H d   1      -5.258  -5.262  18.367  0.00  0.00     0.105 C 
ATOM     38  H27 76H d   1      -4.040  -5.350  20.169  0.00  0.00     0.122 H 
ATOM     39  CAZ 76H d   1      -5.517  -6.445  17.414  0.00  0.00     0.089 C 
ATOM     40  H25 76H d   1      -5.022  -4.341  17.814  0.00  0.00     0.093 H 
ATOM     41  H23 76H d   1      -4.827  -6.396  16.559  0.00  0.00     0.091 H 
ATOM     42  H22 76H d   1      -6.098  -7.932  18.880  0.00  0.00     0.087 H 
BRANCH  36  43
ATOM     43  N9  76H d   1      -2.753  -5.450  18.518  0.00  0.00    -0.294 N 
ATOM     44  C4  76H d   1      -2.166  -4.214  18.425  0.00  0.00     0.167 A 
ATOM     45  C5  76H d   1      -0.987  -4.408  17.746  0.00  0.00     0.149 A 
ATOM     46  N3  76H d   1      -2.637  -3.039  18.898  0.00  0.00    -0.222 NA
ATOM     47  C6  76H d   1      -0.194  -3.272  17.522  0.00  0.00     0.155 A 
ATOM     48  N7  76H d   1      -0.829  -5.745  17.415  0.00  0.00    -0.236 NA
ATOM     49  N1  76H d   1      -0.634  -2.073  17.983  0.00  0.00    -0.222 NA
ATOM     50  C2  76H d   1      -1.813  -2.032  18.633  0.00  0.00     0.091 A 
ATOM     51  H28 76H d   1      -2.128  -1.056  18.983  0.00  0.00     0.146 H 
ATOM     52  C8  76H d   1      -1.903  -6.334  17.892  0.00  0.00     0.071 A 
ATOM     53  H1  76H d   1      -2.099  -7.402  17.802  0.00  0.00     0.144 H 
BRANCH  47  54
ATOM     54  N6  76H d   1       0.974  -3.312  16.877  0.00  0.00    -0.382 N 
ATOM     55  H29 76H d   1       1.516  -2.447  16.740  0.00  0.00     0.157 HD
ATOM     56  H30 76H d   1       1.333  -4.208  16.516  0.00  0.00     0.157 HD
ENDBRANCH  47  54
ENDBRANCH  36  43
BRANCH  37  57
ATOM     57  OAG 76H d   1      -6.373  -5.033  19.206  0.00  0.00    -0.388 OA
ATOM     58  H26 76H d   1      -6.543  -5.811  19.724  0.00  0.00     0.210 HD
ENDBRANCH  37  57
BRANCH  39  59
ATOM     59  OAF 76H d   1      -6.843  -6.535  16.914  0.00  0.00    -0.390 OA
ATOM     60  H24 76H d   1      -7.025  -5.782  16.364  0.00  0.00     0.210 HD
ENDBRANCH  39  59
ENDBRANCH  31  34
ENDBRANCH   1  31
TORSDOF 15
