REMARK  14 active torsions:
REMARK  status: ('A' for Active; 'I' for Inactive)
REMARK    1  A    between atoms: C2_1  and  N1_16 
REMARK    2  A    between atoms: C11_5  and  N7_20 
REMARK    3  A    between atoms: C14_7  and  C13_6 
REMARK    4  A    between atoms: C15_8  and  C14_7 
REMARK    5  A    between atoms: C15_8  and  C16_9 
REMARK    6  A    between atoms: N23_29  and  C15_8 
REMARK    7  A    between atoms: C16_9  and  C17_23 
REMARK    8  A    between atoms: C24_10  and  C25_11 
REMARK    9  A    between atoms: C24_10  and  N23_29 
REMARK   10  A    between atoms: C31_15  and  O32_32 
REMARK   11  A    between atoms: C17_23  and  C18_24 
REMARK   12  A    between atoms: C18_24  and  N19_25 
REMARK   13  A    between atoms: C18_24  and  C20_26 
REMARK   14  A    between atoms: C33_33  and  O34_34 
ROOT
ATOM      1  C15 76O d   1       2.996  25.302 -16.373  0.00  0.00     0.105 C 
ATOM      2  H6  76O d   1       2.086  25.551 -16.939  0.00  0.00     0.084 H 
ENDROOT
BRANCH   1   3
ATOM      3  C14 76O d   1       3.340  26.503 -15.491  0.00  0.00    -0.012 C 
ATOM      4  H4  76O d   1       2.436  26.782 -14.930  0.00  0.00     0.040 H 
ATOM      5  H5  76O d   1       4.127  26.193 -14.788  0.00  0.00     0.040 H 
BRANCH   3   6
ATOM      6  C13 76O d   1       3.830  27.732 -16.228  0.00  0.00     0.070 C 
ATOM      7  C31 76O d   1       3.603  29.066 -15.512  0.00  0.00     0.089 C 
ATOM      8  C33 76O d   1       3.648  30.052 -16.689  0.00  0.00     0.105 C 
ATOM      9  H14 76O d   1       2.626  29.094 -15.008  0.00  0.00     0.091 H 
ATOM     10  C11 76O d   1       2.994  29.233 -17.821  0.00  0.00     0.139 C 
ATOM     11  H29 76O d   1       3.068  30.961 -16.469  0.00  0.00     0.093 H 
ATOM     12  O12 76O d   1       3.125  27.859 -17.460  0.00  0.00    -0.355 OA
ATOM     13  H2  76O d   1       3.527  29.433 -18.762  0.00  0.00     0.122 H 
ATOM     14  H3  76O d   1       4.906  27.608 -16.418  0.00  0.00     0.087 H 
BRANCH   7  15
ATOM     15  O32 76O d   1       4.629  29.304 -14.561  0.00  0.00    -0.390 OA
ATOM     16  H28 76O d   1       4.471  30.135 -14.128  0.00  0.00     0.210 HD
ENDBRANCH   7  15
BRANCH   8  17
ATOM     17  O34 76O d   1       4.981  30.412 -17.013  0.00  0.00    -0.388 OA
ATOM     18  H30 76O d   1       5.469  29.633 -17.253  0.00  0.00     0.210 HD
ENDBRANCH   8  17
BRANCH  10  19
ATOM     19  N7  76O d   1       1.579  29.513 -18.015  0.00  0.00    -0.294 N 
ATOM     20  C6  76O d   1       1.026  30.726 -18.328  0.00  0.00     0.167 A 
ATOM     21  C10 76O d   1      -0.330  30.516 -18.411  0.00  0.00     0.149 A 
ATOM     22  N5  76O d   1       1.672  31.888 -18.517  0.00  0.00    -0.222 NA
ATOM     23  C2  76O d   1      -1.121  31.630 -18.725  0.00  0.00     0.155 A 
ATOM     24  N9  76O d   1      -0.630  29.189 -18.154  0.00  0.00    -0.236 NA
ATOM     25  N3  76O d   1      -0.508  32.825 -18.924  0.00  0.00    -0.222 NA
ATOM     26  C4  76O d   1       0.835  32.878 -18.809  0.00  0.00     0.091 A 
ATOM     27  H17 76O d   1       1.288  33.849 -18.976  0.00  0.00     0.146 H 
ATOM     28  C8  76O d   1       0.539  28.619 -17.921  0.00  0.00     0.071 A 
ATOM     29  H1  76O d   1       0.664  27.564 -17.682  0.00  0.00     0.144 H 
BRANCH  23  30
ATOM     30  N1  76O d   1      -2.446  31.571 -18.838  0.00  0.00    -0.382 N 
ATOM     31  H15 76O d   1      -2.981  32.420 -19.071  0.00  0.00     0.157 HD
ATOM     32  H16 76O d   1      -2.936  30.677 -18.693  0.00  0.00     0.157 HD
ENDBRANCH  23  30
ENDBRANCH  10  19
ENDBRANCH   3   6
ENDBRANCH   1   3
BRANCH   1  33
ATOM     33  C16 76O d   1       4.082  24.911 -17.376  0.00  0.00    -0.036 C 
ATOM     34  H7  76O d   1       4.478  23.926 -17.086  0.00  0.00     0.036 H 
ATOM     35  H8  76O d   1       4.886  25.660 -17.321  0.00  0.00     0.036 H 
BRANCH  33  36
ATOM     36  C17 76O d   1       3.613  24.827 -18.814  0.00  0.00    -0.027 C 
ATOM     37  H18 76O d   1       2.547  25.097 -18.846  0.00  0.00     0.036 H 
ATOM     38  H19 76O d   1       3.739  23.790 -19.158  0.00  0.00     0.036 H 
BRANCH  36  39
ATOM     39  C18 76O d   1       4.369  25.745 -19.773  0.00  0.00     0.182 C 
ATOM     40  H20 76O d   1       4.633  26.665 -19.230  0.00  0.00     0.101 H 
BRANCH  39  41
ATOM     41  N19 76O d   1       3.498  26.107 -20.930  0.00  0.00    -0.065 N 
ATOM     42  H21 76O d   1       4.006  26.712 -21.556  0.00  0.00     0.275 HD
ATOM     43  H22 76O d   1       2.675  26.584 -20.595  0.00  0.00     0.275 HD
ATOM     44  H23 76O d   1       3.225  25.270 -21.420  0.00  0.00     0.275 HD
ENDBRANCH  39  41
BRANCH  39  45
ATOM     45  C20 76O d   1       5.666  25.101 -20.288  0.00  0.00     0.204 C 
ATOM     46  O21 76O d   1       6.294  24.371 -19.490  0.00  0.00    -0.646 OA
ATOM     47  O22 76O d   1       6.008  25.349 -21.466  0.00  0.00    -0.646 OA
ENDBRANCH  39  45
ENDBRANCH  36  39
ENDBRANCH  33  36
ENDBRANCH   1  33
BRANCH   1  48
ATOM     48  N23 76O d   1       2.718  24.112 -15.495  0.00  0.00    -0.067 N 
ATOM     49  H24 76O d   1       3.519  23.968 -14.900  0.00  0.00     0.277 HD
ATOM     50  H25 76O d   1       2.592  23.308 -16.089  0.00  0.00     0.277 HD
BRANCH  48  51
ATOM     51  C24 76O d   1       1.513  24.239 -14.626  0.00  0.00     0.105 C 
ATOM     52  H9  76O d   1       1.685  25.043 -13.895  0.00  0.00     0.083 H 
ATOM     53  H10 76O d   1       0.647  24.493 -15.254  0.00  0.00     0.083 H 
BRANCH  51  54
ATOM     54  C25 76O d   1       1.219  22.962 -13.885  0.00  0.00    -0.033 A 
ATOM     55  C26 76O d   1       1.649  22.790 -12.579  0.00  0.00    -0.075 A 
ATOM     56  C27 76O d   1       1.379  21.623 -11.904  0.00  0.00    -0.082 A 
ATOM     57  H11 76O d   1       2.202  23.581 -12.086  0.00  0.00     0.084 H 
ATOM     58  C28 76O d   1       0.680  20.618 -12.522  0.00  0.00    -0.083 A 
ATOM     59  H12 76O d   1       1.719  21.497 -10.882  0.00  0.00     0.083 H 
ATOM     60  C29 76O d   1       0.248  20.774 -13.815  0.00  0.00    -0.082 A 
ATOM     61  H13 76O d   1       0.468  19.699 -11.988  0.00  0.00     0.083 H 
ATOM     62  C30 76O d   1       0.515  21.939 -14.496  0.00  0.00    -0.075 A 
ATOM     63  H26 76O d   1      -0.305  19.978 -14.301  0.00  0.00     0.083 H 
ATOM     64  H27 76O d   1       0.172  22.056 -15.518  0.00  0.00     0.084 H 
ENDBRANCH  51  54
ENDBRANCH  48  51
ENDBRANCH   1  48
TORSDOF 14
