REMARK  16 active torsions:
REMARK  status: ('A' for Active; 'I' for Inactive)
REMARK    1  A    between atoms: C2_2  and  C1_1 
REMARK    2  A    between atoms: C2_2  and  C3_3 
REMARK    3  A    between atoms: C4_14  and  C2_2 
REMARK    4  A    between atoms: C6_4  and  C7_5 
REMARK    5  A    between atoms: C14_8  and  C6_4 
REMARK    6  A    between atoms: C6_4  and  N5_15 
REMARK    7  A    between atoms: C7_5  and  C8_6 
REMARK    8  A    between atoms: C8_6  and  C9_16 
REMARK    9  A    between atoms: C9_16  and  C11_7 
REMARK   10  A    between atoms: C15_9  and  C14_8 
REMARK   11  A    between atoms: C26_12  and  N27_28 
REMARK   12  A    between atoms: N5_15  and  C4_14 
REMARK   13  A    between atoms: C9_16  and  N10_17 
REMARK   14  A    between atoms: C17_21  and  N22_26 
REMARK   15  A    between atoms: C18_22  and  O19_23 
REMARK   16  A    between atoms: C20_24  and  O21_25 
ROOT
ATOM      1  C6  76M d   1      13.836  16.128  30.154  0.00  0.00     0.104 C 
ATOM      2  H8  76M d   1      13.757  15.740  29.128  0.00  0.00     0.084 H 
ENDROOT
BRANCH   1   3
ATOM      3  C7  76M d   1      15.155  16.893  30.290  0.00  0.00    -0.036 C 
ATOM      4  H9  76M d   1      15.531  16.746  31.313  0.00  0.00     0.036 H 
ATOM      5  H10 76M d   1      14.949  17.961  30.125  0.00  0.00     0.036 H 
BRANCH   3   6
ATOM      6  C8  76M d   1      16.241  16.470  29.325  0.00  0.00    -0.027 C 
ATOM      7  H11 76M d   1      15.855  16.571  28.300  0.00  0.00     0.036 H 
ATOM      8  H12 76M d   1      16.491  15.417  29.521  0.00  0.00     0.036 H 
BRANCH   6   9
ATOM      9  C9  76M d   1      17.516  17.301  29.447  0.00  0.00     0.182 C 
ATOM     10  H21 76M d   1      17.218  18.353  29.567  0.00  0.00     0.101 H 
BRANCH   9  11
ATOM     11  C11 76M d   1      18.402  17.208  28.195  0.00  0.00     0.204 C 
ATOM     12  O12 76M d   1      17.844  17.382  27.078  0.00  0.00    -0.646 OA
ATOM     13  O13 76M d   1      19.627  16.966  28.371  0.00  0.00    -0.646 OA
ENDBRANCH   9  11
BRANCH   9  14
ATOM     14  N10 76M d   1      18.284  16.896  30.663  0.00  0.00    -0.065 N 
ATOM     15  H22 76M d   1      19.122  17.452  30.732  0.00  0.00     0.275 HD
ATOM     16  H23 76M d   1      18.532  15.921  30.595  0.00  0.00     0.275 HD
ATOM     17  H24 76M d   1      17.716  17.042  31.483  0.00  0.00     0.275 HD
ENDBRANCH   9  14
ENDBRANCH   6   9
ENDBRANCH   3   6
ENDBRANCH   1   3
BRANCH   1  18
ATOM     18  C14 76M d   1      13.733  14.942  31.111  0.00  0.00    -0.012 C 
ATOM     19  H13 76M d   1      12.745  14.478  30.972  0.00  0.00     0.040 H 
ATOM     20  H14 76M d   1      13.816  15.326  32.138  0.00  0.00     0.040 H 
BRANCH  18  21
ATOM     21  C15 76M d   1      14.785  13.866  30.928  0.00  0.00     0.070 C 
ATOM     22  O16 76M d   1      16.052  14.281  31.483  0.00  0.00    -0.355 OA
ATOM     23  C17 76M d   1      16.662  13.200  32.216  0.00  0.00     0.139 C 
ATOM     24  C18 76M d   1      15.842  11.940  31.856  0.00  0.00     0.105 C 
ATOM     25  H25 76M d   1      17.716  13.072  31.928  0.00  0.00     0.122 H 
ATOM     26  C20 76M d   1      14.437  12.555  31.628  0.00  0.00     0.089 C 
ATOM     27  H26 76M d   1      15.829  11.225  32.692  0.00  0.00     0.093 H 
ATOM     28  H28 76M d   1      13.919  12.724  32.584  0.00  0.00     0.091 H 
ATOM     29  H15 76M d   1      14.898  13.679  29.850  0.00  0.00     0.087 H 
BRANCH  23  30
ATOM     30  N22 76M d   1      16.565  13.486  33.635  0.00  0.00    -0.294 N 
ATOM     31  C23 76M d   1      15.920  14.560  34.208  0.00  0.00     0.071 A 
ATOM     32  N24 76M d   1      16.006  14.542  35.515  0.00  0.00    -0.236 NA
ATOM     33  H16 76M d   1      15.401  15.332  33.642  0.00  0.00     0.144 H 
ATOM     34  C25 76M d   1      16.740  13.402  35.812  0.00  0.00     0.149 A 
ATOM     35  C26 76M d   1      17.168  12.830  37.018  0.00  0.00     0.155 A 
ATOM     36  C31 76M d   1      17.090  12.743  34.661  0.00  0.00     0.167 A 
ATOM     37  N28 76M d   1      17.891  11.677  36.980  0.00  0.00    -0.222 NA
ATOM     38  C29 76M d   1      18.162  11.138  35.771  0.00  0.00     0.091 A 
ATOM     39  N30 76M d   1      17.805  11.598  34.572  0.00  0.00    -0.222 NA
ATOM     40  H32 76M d   1      18.739  10.221  35.777  0.00  0.00     0.146 H 
BRANCH  35  41
ATOM     41  N27 76M d   1      16.892  13.376  38.210  0.00  0.00    -0.382 N 
ATOM     42  H30 76M d   1      17.225  12.924  39.073  0.00  0.00     0.157 HD
ATOM     43  H31 76M d   1      16.346  14.248  38.263  0.00  0.00     0.157 HD
ENDBRANCH  35  41
ENDBRANCH  23  30
BRANCH  24  44
ATOM     44  O19 76M d   1      16.337  11.283  30.699  0.00  0.00    -0.388 OA
ATOM     45  H27 76M d   1      15.803  10.518  30.518  0.00  0.00     0.210 HD
ENDBRANCH  24  44
BRANCH  26  46
ATOM     46  O21 76M d   1      13.613  11.773  30.770  0.00  0.00    -0.390 OA
ATOM     47  H29 76M d   1      13.491  10.911  31.150  0.00  0.00     0.210 HD
ENDBRANCH  26  46
ENDBRANCH  18  21
ENDBRANCH   1  18
BRANCH   1  48
ATOM     48  N5  76M d   1      12.728  17.125  30.390  0.00  0.00    -0.070 N 
ATOM     49  H19 76M d   1      12.743  17.783  29.626  0.00  0.00     0.277 HD
ATOM     50  H20 76M d   1      12.930  17.606  31.252  0.00  0.00     0.277 HD
BRANCH  48  51
ATOM     51  C4  76M d   1      11.343  16.585  30.491  0.00  0.00     0.085 C 
ATOM     52  H17 76M d   1      11.251  15.713  29.826  0.00  0.00     0.076 H 
ATOM     53  H18 76M d   1      11.157  16.275  31.530  0.00  0.00     0.076 H 
BRANCH  51  54
ATOM     54  C2  76M d   1      10.300  17.623  30.091  0.00  0.00    -0.038 C 
ATOM     55  H4  76M d   1      10.491  17.913  29.047  0.00  0.00     0.041 H 
BRANCH  54  56
ATOM     56  C1  76M d   1       8.900  17.015  30.169  0.00  0.00    -0.072 C 
ATOM     57  H1  76M d   1       8.155  17.771  29.879  0.00  0.00     0.028 H 
ATOM     58  H2  76M d   1       8.702  16.681  31.198  0.00  0.00     0.028 H 
ATOM     59  H3  76M d   1       8.835  16.155  29.486  0.00  0.00     0.028 H 
ENDBRANCH  54  56
BRANCH  54  60
ATOM     60  C3  76M d   1      10.395  18.881  30.953  0.00  0.00    -0.072 C 
ATOM     61  H5  76M d   1      11.410  19.299  30.881  0.00  0.00     0.028 H 
ATOM     62  H6  76M d   1      10.178  18.625  32.001  0.00  0.00     0.028 H 
ATOM     63  H7  76M d   1       9.666  19.624  30.599  0.00  0.00     0.028 H 
ENDBRANCH  54  60
ENDBRANCH  51  54
ENDBRANCH  48  51
ENDBRANCH   1  48
TORSDOF 16
