REMARK  6 active torsions:
REMARK  status: ('A' for Active; 'I' for Inactive)
REMARK    1  A    between atoms: N_1  and  CA_2 
REMARK    2  A    between atoms: CA_2  and  C_3 
REMARK    3  A    between atoms: CA_2  and  CB_5 
REMARK    4  A    between atoms: CB_5  and  CG_6 
REMARK    5  A    between atoms: CG_6  and  CD_7 
REMARK    6  A    between atoms: CD_7  and  NE_8 
REMARK       I    between atoms: NE_8  and  CZ_9 
REMARK       I    between atoms: CZ_9  and  NH1_10 
ROOT
ATOM      1  CG  ARG d   1     -10.135  28.659  14.472  0.00  0.00    -0.047 C 
ATOM      2  H7  ARG d   1      -9.539  29.174  15.240  0.00  0.00     0.035 H 
ATOM      3  H8  ARG d   1     -11.168  29.035  14.496  0.00  0.00     0.035 H 
ENDROOT
BRANCH   1   4
ATOM      4  CB  ARG d   1     -10.148  27.171  14.778  0.00  0.00    -0.028 C 
ATOM      5  H5  ARG d   1     -11.120  26.761  14.466  0.00  0.00     0.036 H 
ATOM      6  H6  ARG d   1      -9.345  26.690  14.200  0.00  0.00     0.036 H 
BRANCH   4   7
ATOM      7  CA  ARG d   1      -9.939  26.847  16.259  0.00  0.00     0.182 C 
ATOM      8  H4  ARG d   1     -10.873  27.067  16.797  0.00  0.00     0.101 H 
BRANCH   7   9
ATOM      9  N   ARG d   1      -8.884  27.683  16.821  0.00  0.00    -0.065 N 
ATOM     10  H1  ARG d   1      -9.120  28.654  16.691  0.00  0.00     0.275 HD
ATOM     11  H2  ARG d   1      -8.013  27.483  16.355  0.00  0.00     0.275 HD
ATOM     12  H3  ARG d   1      -8.790  27.489  17.806  0.00  0.00     0.275 HD
ENDBRANCH   7   9
BRANCH   7  13
ATOM     13  C   ARG d   1      -9.626  25.363  16.433  0.00  0.00     0.204 C 
ATOM     14  O   ARG d   1     -10.361  24.499  15.954  0.00  0.00    -0.646 OA
ATOM     15  OXT ARG d   1      -8.632  24.993  17.057  0.00  0.00    -0.646 OA
ENDBRANCH   7  13
ENDBRANCH   4   7
ENDBRANCH   1   4
BRANCH   1  16
ATOM     16  CD  ARG d   1      -9.539  28.954  13.111  0.00  0.00     0.009 C 
ATOM     17  H9  ARG d   1      -8.661  28.309  12.962  0.00  0.00     0.064 H 
ATOM     18  H10 ARG d   1      -9.228  30.009  13.082  0.00  0.00     0.064 H 
BRANCH  16  19
ATOM     19  NE  ARG d   1     -10.485  28.715  12.027  0.00  0.00    -0.227 N 
ATOM     20  CZ  ARG d   1     -10.270  29.086  10.770  0.00  0.00     0.665 C 
ATOM     21  NH1 ARG d   1      -9.148  29.714  10.459  0.00  0.00    -0.235 N 
ATOM     22  NH2 ARG d   1     -11.171  28.837   9.830  0.00  0.00    -0.235 N 
ATOM     23  H12 ARG d   1      -8.973  30.005   9.487  0.00  0.00     0.174 HD
ATOM     24  H13 ARG d   1      -8.449  29.912  11.189  0.00  0.00     0.174 HD
ATOM     25  H14 ARG d   1     -12.045  28.348  10.071  0.00  0.00     0.174 HD
ATOM     26  H15 ARG d   1     -10.997  29.132   8.859  0.00  0.00     0.174 HD
ATOM     27  H11 ARG d   1     -11.368  28.232  12.248  0.00  0.00     0.177 HD
ENDBRANCH  16  19
ENDBRANCH   1  16
TORSDOF 6
