REMARK  5 active torsions:
REMARK  status: ('A' for Active; 'I' for Inactive)
REMARK    1  A    between atoms: N_1  and  CA_2 
REMARK    2  A    between atoms: CA_2  and  C_3 
REMARK    3  A    between atoms: CA_2  and  CB_5 
REMARK    4  A    between atoms: CB_5  and  CG_6 
REMARK    5  A    between atoms: CG_6  and  CD_7 
REMARK       I    between atoms: CD_7  and  NE2_9 
ROOT
ATOM      1  CB  GLN d   1      45.551  68.568  24.163  0.00  0.00    -0.021 C 
ATOM      2  H5  GLN d   1      45.057  67.590  24.063  0.00  0.00     0.037 H 
ATOM      3  H6  GLN d   1      44.792  69.348  24.324  0.00  0.00     0.037 H 
ENDROOT
BRANCH   1   4
ATOM      4  CA  GLN d   1      46.275  68.872  22.852  0.00  0.00     0.183 C 
ATOM      5  H4  GLN d   1      45.700  68.427  22.027  0.00  0.00     0.101 H 
BRANCH   4   6
ATOM      6  N   GLN d   1      47.604  68.279  22.854  0.00  0.00    -0.065 N 
ATOM      7  H1  GLN d   1      47.528  67.285  23.006  0.00  0.00     0.275 HD
ATOM      8  H2  GLN d   1      48.154  68.690  23.591  0.00  0.00     0.275 HD
ATOM      9  H3  GLN d   1      48.050  68.451  21.966  0.00  0.00     0.275 HD
ENDBRANCH   4   6
BRANCH   4  10
ATOM     10  C   GLN d   1      46.351  70.377  22.625  0.00  0.00     0.204 C 
ATOM     11  O   GLN d   1      47.149  70.851  21.817  0.00  0.00    -0.646 OA
ATOM     12  OXT GLN d   1      45.616  71.153  23.235  0.00  0.00    -0.646 OA
ENDBRANCH   4  10
ENDBRANCH   1   4
BRANCH   1  13
ATOM     13  CG  GLN d   1      46.448  68.521  25.389  0.00  0.00     0.011 C 
ATOM     14  H7  GLN d   1      46.569  69.543  25.778  0.00  0.00     0.047 H 
ATOM     15  H8  GLN d   1      47.430  68.122  25.094  0.00  0.00     0.047 H 
BRANCH  13  16
ATOM     16  CD  GLN d   1      45.877  67.646  26.488  0.00  0.00     0.215 C 
ATOM     17  OE1 GLN d   1      44.878  66.955  26.289  0.00  0.00    -0.274 OA
ATOM     18  NE2 GLN d   1      46.501  67.681  27.660  0.00  0.00    -0.370 N 
ATOM     19  H9  GLN d   1      46.168  67.124  28.421  0.00  0.00     0.159 HD
ATOM     20  H10 GLN d   1      47.304  68.264  27.782  0.00  0.00     0.159 HD
ENDBRANCH  13  16
ENDBRANCH   1  13
TORSDOF 5
