REMARK  31 active torsions:
REMARK  status: ('A' for Active; 'I' for Inactive)
REMARK    1  A    between atoms: N_1  and  CA_2 
REMARK    2  A    between atoms: CA_2  and  C_3 
REMARK    3  A    between atoms: CA_2  and  CB_5 
REMARK       I    between atoms: C_3  and  N_12 
REMARK    4  A    between atoms: CB_5  and  CG_6 
REMARK    5  A    between atoms: CG_6  and  CD_7 
REMARK    6  A    between atoms: CD_7  and  NE_8 
REMARK       I    between atoms: NE_8  and  CZ_9 
REMARK       I    between atoms: CZ_9  and  NH1_10 
REMARK       I    between atoms: CZ_9  and  NH2_11 
REMARK    7  A    between atoms: N_12  and  CA_13 
REMARK    8  A    between atoms: CA_13  and  C_14 
REMARK    9  A    between atoms: CA_13  and  CB_16 
REMARK       I    between atoms: C_14  and  N_23 
REMARK   10  A    between atoms: CB_16  and  CG_17 
REMARK   11  A    between atoms: CG_17  and  CD_18 
REMARK   12  A    between atoms: CD_18  and  NE_19 
REMARK       I    between atoms: NE_19  and  CZ_20 
REMARK       I    between atoms: CZ_20  and  NH1_21 
REMARK   13  A    between atoms: N_23  and  CA_24 
REMARK   14  A    between atoms: CA_24  and  C_25 
REMARK   15  A    between atoms: CA_24  and  CB_27 
REMARK       I    between atoms: C_25  and  N_28 
REMARK   16  A    between atoms: N_28  and  CA_29 
REMARK   17  A    between atoms: CA_29  and  CB_30 
REMARK   18  A    between atoms: CA_29  and  C_32 
REMARK   19  A    between atoms: CB_30  and  OG_31 
REMARK   20  A    between atoms: OG_31  and  P_34 
REMARK       I    between atoms: C_32  and  N_38 
REMARK   21  A    between atoms: N_38  and  CA_39 
REMARK   22  A    between atoms: CA_39  and  C_40 
REMARK   23  A    between atoms: CA_39  and  CB_42 
REMARK       I    between atoms: C_40  and  N_43 
REMARK   24  A    between atoms: CA_44  and  C_45 
REMARK       I    between atoms: C_45  and  N_50 
REMARK   25  A    between atoms: N_50  and  CA_51 
REMARK   26  A    between atoms: CA_51  and  C_52 
REMARK   27  A    between atoms: CA_51  and  CB_54 
REMARK       I    between atoms: C_52  and  N_58 
REMARK   28  A    between atoms: CB_54  and  CG_55 
REMARK   29  A    between atoms: CG_55  and  CD1_56 
REMARK   30  A    between atoms: CG_55  and  CD2_57 
REMARK   31  A    between atoms: CA_59  and  C_60 
ROOT
ATOM      1  CA  SEP d   1      26.603  19.519  14.384  0.00  0.00     0.110 C 
ATOM      2  H35 SEP d   1      26.349  20.570  14.179  0.00  0.00     0.090 H 
ENDROOT
BRANCH   1   3
ATOM      3  N   SEP d   1      25.628  18.699  13.680  0.00  0.00    -0.344 N 
ATOM      4  C   ALA d   1      24.585  19.201  13.062  0.00  0.00     0.240 C 
ATOM      5  O   ALA d   1      24.274  20.388  13.136  0.00  0.00    -0.271 OA
ATOM      6  H34 SEP d   1      25.759  17.708  13.667  0.00  0.00     0.163 HD
BRANCH   4   7
ATOM      7  CA  ALA d   1      23.754  18.207  12.262  0.00  0.00     0.086 C 
ATOM      8  H30 ALA d   1      23.893  17.202  12.688  0.00  0.00     0.086 H 
BRANCH   7   9
ATOM      9  N   ALA d   1      22.349  18.554  12.325  0.00  0.00    -0.346 N 
ATOM     10  C   ARG d   1      21.433  17.773  12.877  0.00  0.00     0.241 C 
ATOM     11  O   ARG d   1      21.693  16.667  13.345  0.00  0.00    -0.271 OA
ATOM     12  H29 ALA d   1      22.056  19.426  11.932  0.00  0.00     0.163 HD
BRANCH  10  13
ATOM     13  CA  ARG d   1      19.993  18.319  12.867  0.00  0.00     0.089 C 
ATOM     14  H17 ARG d   1      19.812  18.700  11.851  0.00  0.00     0.087 H 
BRANCH  13  15
ATOM     15  N   ARG d   1      19.013  17.269  13.120  0.00  0.00    -0.346 N 
ATOM     16  C   ARG d   1      18.646  16.294  12.284  0.00  0.00     0.248 C 
ATOM     17  O   ARG d   1      19.137  16.140  11.164  0.00  0.00    -0.271 OA
ATOM     18  H16 ARG d   1      18.568  17.280  14.015  0.00  0.00     0.163 HD
BRANCH  16  19
ATOM     19  CA  ARG d   1      17.545  15.357  12.814  0.00  0.00     0.176 C 
ATOM     20  H4  ARG d   1      17.108  15.845  13.698  0.00  0.00     0.099 H 
BRANCH  19  21
ATOM     21  N   ARG d   1      16.468  15.183  11.846  0.00  0.00    -0.067 N 
ATOM     22  H1  ARG d   1      15.769  14.565  12.228  0.00  0.00     0.275 HD
ATOM     23  H2  ARG d   1      16.840  14.786  10.998  0.00  0.00     0.275 HD
ATOM     24  H3  ARG d   1      16.051  16.078  11.643  0.00  0.00     0.275 HD
ENDBRANCH  19  21
BRANCH  19  25
ATOM     25  CB  ARG d   1      18.113  13.994  13.284  0.00  0.00    -0.029 C 
ATOM     26  H5  ARG d   1      18.577  13.505  12.415  0.00  0.00     0.036 H 
ATOM     27  H6  ARG d   1      17.271  13.384  13.642  0.00  0.00     0.036 H 
BRANCH  25  28
ATOM     28  CG  ARG d   1      19.168  14.053  14.413  0.00  0.00    -0.047 C 
ATOM     29  H7  ARG d   1      19.894  14.841  14.164  0.00  0.00     0.035 H 
ATOM     30  H8  ARG d   1      19.681  13.081  14.455  0.00  0.00     0.035 H 
BRANCH  28  31
ATOM     31  CD  ARG d   1      18.597  14.351  15.798  0.00  0.00     0.009 C 
ATOM     32  H9  ARG d   1      17.899  13.548  16.077  0.00  0.00     0.064 H 
ATOM     33  H10 ARG d   1      18.058  15.310  15.764  0.00  0.00     0.064 H 
BRANCH  31  34
ATOM     34  NE  ARG d   1      19.659  14.435  16.811  0.00  0.00    -0.227 N 
ATOM     35  CZ  ARG d   1      19.483  14.836  18.069  0.00  0.00     0.665 C 
ATOM     36  NH1 ARG d   1      18.281  15.203  18.496  0.00  0.00    -0.235 N 
ATOM     37  NH2 ARG d   1      20.511  14.878  18.907  0.00  0.00    -0.235 N 
ATOM     38  H12 ARG d   1      18.153  15.512  19.470  0.00  0.00     0.174 HD
ATOM     39  H13 ARG d   1      17.477  15.179  17.853  0.00  0.00     0.174 HD
ATOM     40  H14 ARG d   1      21.448  14.596  18.587  0.00  0.00     0.174 HD
ATOM     41  H15 ARG d   1      20.372  15.193  19.878  0.00  0.00     0.174 HD
ATOM     42  H11 ARG d   1      20.611  14.163  16.527  0.00  0.00     0.177 HD
ENDBRANCH  31  34
ENDBRANCH  28  31
ENDBRANCH  25  28
ENDBRANCH  19  25
ENDBRANCH  16  19
ENDBRANCH  13  15
BRANCH  13  43
ATOM     43  CB  ARG d   1      19.744  19.514  13.853  0.00  0.00    -0.036 C 
ATOM     44  H18 ARG d   1      18.950  19.188  14.541  0.00  0.00     0.036 H 
ATOM     45  H19 ARG d   1      19.378  20.351  13.240  0.00  0.00     0.036 H 
BRANCH  43  46
ATOM     46  CG  ARG d   1      20.860  20.076  14.722  0.00  0.00    -0.048 C 
ATOM     47  H20 ARG d   1      20.660  21.144  14.893  0.00  0.00     0.035 H 
ATOM     48  H21 ARG d   1      21.810  19.964  14.179  0.00  0.00     0.035 H 
BRANCH  46  49
ATOM     49  CD  ARG d   1      20.999  19.394  16.073  0.00  0.00     0.009 C 
ATOM     50  H22 ARG d   1      20.025  18.977  16.368  0.00  0.00     0.064 H 
ATOM     51  H23 ARG d   1      21.322  20.135  16.819  0.00  0.00     0.064 H 
BRANCH  49  52
ATOM     52  NE  ARG d   1      21.984  18.315  16.012  0.00  0.00    -0.227 N 
ATOM     53  CZ  ARG d   1      22.710  17.889  17.036  0.00  0.00     0.665 C 
ATOM     54  NH1 ARG d   1      22.578  18.448  18.232  0.00  0.00    -0.235 N 
ATOM     55  NH2 ARG d   1      23.574  16.900  16.875  0.00  0.00    -0.235 N 
ATOM     56  H25 ARG d   1      23.145  18.112  19.023  0.00  0.00     0.174 HD
ATOM     57  H26 ARG d   1      21.908  19.218  18.369  0.00  0.00     0.174 HD
ATOM     58  H27 ARG d   1      23.685  16.458  15.951  0.00  0.00     0.174 HD
ATOM     59  H28 ARG d   1      24.136  16.572  17.674  0.00  0.00     0.174 HD
ATOM     60  H24 ARG d   1      22.125  17.850  15.104  0.00  0.00     0.177 HD
ENDBRANCH  49  52
ENDBRANCH  46  49
ENDBRANCH  43  46
ENDBRANCH  13  43
ENDBRANCH  10  13
ENDBRANCH   7   9
BRANCH   7  61
ATOM     61  CB  ALA d   1      24.213  18.201  10.817  0.00  0.00    -0.049 C 
ATOM     62  H31 ALA d   1      25.280  17.937  10.772  0.00  0.00     0.030 H 
ATOM     63  H32 ALA d   1      24.064  19.200  10.381  0.00  0.00     0.030 H 
ATOM     64  H33 ALA d   1      23.628  17.462  10.250  0.00  0.00     0.030 H 
ENDBRANCH   7  61
ENDBRANCH   4   7
ENDBRANCH   1   3
BRANCH   1  65
ATOM     65  CB  SEP d   1      26.552  19.409  15.912  0.00  0.00     0.059 C 
ATOM     66  H36 SEP d   1      25.519  19.554  16.260  0.00  0.00     0.079 H 
ATOM     67  H37 SEP d   1      27.201  20.175  16.361  0.00  0.00     0.079 H 
BRANCH  65  68
ATOM     68  OG  SEP d   1      27.004  18.125  16.283  0.00  0.00    -0.280 OA
BRANCH  68  69
ATOM     69  P   SEP d   1      26.924  17.798  17.777  0.00  0.00     0.422 P 
ATOM     70  O1P SEP d   1      26.900  16.309  17.909  0.00  0.00    -0.617 OA
ATOM     71  O2P SEP d   1      28.246  18.260  18.357  0.00  0.00    -0.617 OA
ATOM     72  O3P SEP d   1      25.651  18.259  18.510  0.00  0.00    -0.617 OA
ENDBRANCH  68  69
ENDBRANCH  65  68
ENDBRANCH   1  65
BRANCH   1  73
ATOM     73  C   SEP d   1      27.927  19.251  13.664  0.00  0.00     0.243 C 
ATOM     74  O   SEP d   1      27.993  18.311  12.854  0.00  0.00    -0.271 OA
ATOM     75  N   ALA d   1      28.948  20.103  13.897  0.00  0.00    -0.346 N 
ATOM     76  H38 ALA d   1      28.783  20.867  14.521  0.00  0.00     0.163 HD
BRANCH  75  77
ATOM     77  CA  ALA d   1      30.298  19.985  13.291  0.00  0.00     0.086 C 
ATOM     78  H39 ALA d   1      30.221  20.313  12.244  0.00  0.00     0.086 H 
BRANCH  77  79
ATOM     79  C   ALA d   1      30.836  18.530  13.285  0.00  0.00     0.243 C 
ATOM     80  O   ALA d   1      30.736  17.831  14.305  0.00  0.00    -0.271 OA
ATOM     81  N   PRO d   1      31.351  18.035  12.135  0.00  0.00    -0.337 N 
ATOM     82  CA  PRO d   1      31.844  16.655  12.095  0.00  0.00     0.091 C 
ATOM     83  CD  PRO d   1      31.552  18.712  10.836  0.00  0.00    -0.001 C 
ATOM     84  CB  PRO d   1      31.913  16.367  10.597  0.00  0.00    -0.036 C 
ATOM     85  H43 PRO d   1      31.116  15.986  12.576  0.00  0.00     0.087 H 
ATOM     86  CG  PRO d   1      32.258  17.687   9.997  0.00  0.00    -0.048 C 
ATOM     87  H44 PRO d   1      30.943  16.008  10.222  0.00  0.00     0.036 H 
ATOM     88  H45 PRO d   1      32.691  15.621  10.377  0.00  0.00     0.036 H 
ATOM     89  H46 PRO d   1      31.909  17.738   8.955  0.00  0.00     0.035 H 
ATOM     90  H47 PRO d   1      33.346  17.850  10.027  0.00  0.00     0.035 H 
ATOM     91  H48 PRO d   1      32.172  19.613  10.956  0.00  0.00     0.064 H 
ATOM     92  H49 PRO d   1      30.587  18.988  10.386  0.00  0.00     0.064 H 
BRANCH  82  93
ATOM     93  C   PRO d   1      33.197  16.456  12.788  0.00  0.00     0.241 C 
ATOM     94  O   PRO d   1      33.812  17.417  13.255  0.00  0.00    -0.271 OA
ATOM     95  N   LEU d   1      33.663  15.199  12.855  0.00  0.00    -0.346 N 
ATOM     96  H50 LEU d   1      33.108  14.458  12.476  0.00  0.00     0.163 HD
BRANCH  95  97
ATOM     97  CA  LEU d   1      34.949  14.875  13.460  0.00  0.00     0.090 C 
ATOM     98  H51 LEU d   1      35.020  15.405  14.421  0.00  0.00     0.087 H 
BRANCH  97  99
ATOM     99  C   LEU d   1      36.120  15.333  12.573  0.00  0.00     0.243 C 
ATOM    100  O   LEU d   1      36.095  15.080  11.359  0.00  0.00    -0.271 OA
ATOM    101  N   PRO d   1      37.172  15.962  13.171  0.00  0.00    -0.336 N 
ATOM    102  CA  PRO d   1      38.340  16.374  12.361  0.00  0.00     0.098 C 
ATOM    103  CD  PRO d   1      37.341  16.325  14.600  0.00  0.00    -0.001 C 
ATOM    104  CB  PRO d   1      39.135  17.267  13.315  0.00  0.00    -0.035 C 
ATOM    105  H61 PRO d   1      37.996  16.958  11.495  0.00  0.00     0.089 H 
ATOM    106  CG  PRO d   1      38.760  16.800  14.694  0.00  0.00    -0.048 C 
ATOM    107  H62 PRO d   1      38.858  18.323  13.176  0.00  0.00     0.036 H 
ATOM    108  H63 PRO d   1      40.215  17.146  13.147  0.00  0.00     0.036 H 
ATOM    109  H64 PRO d   1      38.838  17.629  15.412  0.00  0.00     0.035 H 
ATOM    110  H65 PRO d   1      39.418  15.977  15.011  0.00  0.00     0.035 H 
ATOM    111  H66 PRO d   1      37.179  15.450  15.246  0.00  0.00     0.064 H 
ATOM    112  H67 PRO d   1      36.642  17.125  14.884  0.00  0.00     0.064 H 
BRANCH 102 113
ATOM    113  C   PRO d   1      39.203  15.215  11.836  0.00  0.00     0.196 C 
ATOM    114  O   PRO d   1      38.877  14.035  11.997  0.00  0.00    -0.646 OA
ATOM    115  OXT PRO d   1      40.261  15.413  11.230  0.00  0.00    -0.646 OA
ENDBRANCH 102 113
ENDBRANCH  97  99
BRANCH  97 116
ATOM    116  CB  LEU d   1      35.042  13.357  13.732  0.00  0.00    -0.035 C 
ATOM    117  H52 LEU d   1      35.983  13.008  13.282  0.00  0.00     0.037 H 
ATOM    118  H53 LEU d   1      34.192  12.887  13.215  0.00  0.00     0.037 H 
BRANCH 116 119
ATOM    119  CG  LEU d   1      35.023  12.846  15.177  0.00  0.00    -0.059 C 
ATOM    120  H54 LEU d   1      35.952  12.276  15.329  0.00  0.00     0.038 H 
BRANCH 119 121
ATOM    121  CD1 LEU d   1      35.024  13.961  16.189  0.00  0.00    -0.073 C 
ATOM    122  H55 LEU d   1      35.010  13.536  17.203  0.00  0.00     0.028 H 
ATOM    123  H56 LEU d   1      34.133  14.590  16.043  0.00  0.00     0.028 H 
ATOM    124  H57 LEU d   1      35.929  14.572  16.060  0.00  0.00     0.028 H 
ENDBRANCH 119 121
BRANCH 119 125
ATOM    125  CD2 LEU d   1      33.898  11.915  15.395  0.00  0.00    -0.073 C 
ATOM    126  H58 LEU d   1      33.931  11.117  14.639  0.00  0.00     0.028 H 
ATOM    127  H59 LEU d   1      32.947  12.462  15.310  0.00  0.00     0.028 H 
ATOM    128  H60 LEU d   1      33.977  11.473  16.399  0.00  0.00     0.028 H 
ENDBRANCH 119 125
ENDBRANCH 116 119
ENDBRANCH  97 116
ENDBRANCH  95  97
ENDBRANCH  82  93
ENDBRANCH  77  79
BRANCH  77 129
ATOM    129  CB  ALA d   1      31.269  20.905  14.001  0.00  0.00    -0.049 C 
ATOM    130  H40 ALA d   1      32.265  20.810  13.544  0.00  0.00     0.030 H 
ATOM    131  H41 ALA d   1      31.325  20.629  15.064  0.00  0.00     0.030 H 
ATOM    132  H42 ALA d   1      30.922  21.945  13.910  0.00  0.00     0.030 H 
ENDBRANCH  77 129
ENDBRANCH  75  77
ENDBRANCH   1  73
TORSDOF 31
