REMARK  3 active torsions:
REMARK  status: ('A' for Active; 'I' for Inactive)
REMARK    1  A    between atoms: CAS_1  and  CAR_2 
REMARK    2  A    between atoms: CAR_2  and  CAP_3 
REMARK       I    between atoms: CAP_3  and  NAH_5 
REMARK    3  A    between atoms: CAE_13  and  CAJ_14 
ROOT
ATOM      1  CAP 77X d   1      33.208  17.690   0.351  0.00  0.00     0.219 C 
ATOM      2  OAQ 77X d   1      34.368  18.021   0.129  0.00  0.00    -0.273 OA
ATOM      3  NAH 77X d   1      32.846  16.423   0.185  0.00  0.00    -0.347 N 
ATOM      4  CAG 77X d   1      33.859  15.451  -0.280  0.00  0.00     0.003 C 
ATOM      5  CAF 77X d   1      33.658  15.279  -1.802  0.00  0.00    -0.010 C 
ATOM      6  CAI 77X d   1      31.445  15.941   0.246  0.00  0.00     0.025 C 
ATOM      7  CAD 77X d   1      31.176  15.429  -1.159  0.00  0.00     0.015 A 
ATOM      8  CAC 77X d   1      32.167  15.133  -2.080  0.00  0.00     0.039 A 
ATOM      9  NAB 77X d   1      31.561  14.722  -3.197  0.00  0.00    -0.281 N 
ATOM     10  NAA 77X d   1      30.332  14.726  -3.012  0.00  0.00    -0.173 NA
ATOM     11  CAE 77X d   1      29.979  15.154  -1.793  0.00  0.00     0.097 A 
ATOM     12  H6  77X d   1      33.719  14.487   0.230  0.00  0.00     0.065 H 
ATOM     13  H7  77X d   1      34.870  15.832  -0.074  0.00  0.00     0.065 H 
ATOM     14  H8  77X d   1      34.189  14.380  -2.147  0.00  0.00     0.044 H 
ATOM     15  H9  77X d   1      34.049  16.161  -2.330  0.00  0.00     0.044 H 
ATOM     16  H10 77X d   1      30.759  16.762   0.502  0.00  0.00     0.071 H 
ATOM     17  H11 77X d   1      31.341  15.132   0.984  0.00  0.00     0.071 H 
ATOM     18  H12 77X d   1      32.035  14.447  -4.069  0.00  0.00     0.189 HD
ENDROOT
BRANCH  11  19
ATOM     19  CAJ 77X d   1      28.686  15.231  -1.226  0.00  0.00    -0.005 A 
ATOM     20  CAK 77X d   1      28.458  15.037   0.149  0.00  0.00    -0.071 A 
ATOM     21  CAL 77X d   1      27.185  15.030   0.746  0.00  0.00    -0.082 A 
ATOM     22  H13 77X d   1      29.319  14.883   0.789  0.00  0.00     0.084 H 
ATOM     23  CAM 77X d   1      26.081  15.205  -0.055  0.00  0.00    -0.083 A 
ATOM     24  H14 77X d   1      27.076  14.890   1.815  0.00  0.00     0.083 H 
ATOM     25  CAN 77X d   1      26.293  15.380  -1.422  0.00  0.00    -0.082 A 
ATOM     26  H15 77X d   1      25.080  15.207   0.362  0.00  0.00     0.083 H 
ATOM     27  CAO 77X d   1      27.558  15.381  -2.028  0.00  0.00    -0.071 A 
ATOM     28  H16 77X d   1      25.426  15.524  -2.056  0.00  0.00     0.083 H 
ATOM     29  H17 77X d   1      27.655  15.496  -3.101  0.00  0.00     0.084 H 
ENDBRANCH  11  19
BRANCH   1  30
ATOM     30  CAR 77X d   1      32.177  18.795   0.680  0.00  0.00     0.006 C 
ATOM     31  H4  77X d   1      32.644  19.777   0.515  0.00  0.00     0.046 H 
ATOM     32  H5  77X d   1      31.311  18.684   0.011  0.00  0.00     0.046 H 
BRANCH  30  33
ATOM     33  CAS 77X d   1      31.702  18.715   2.107  0.00  0.00    -0.068 C 
ATOM     34  H1  77X d   1      30.973  19.517   2.296  0.00  0.00     0.028 H 
ATOM     35  H2  77X d   1      32.559  18.832   2.786  0.00  0.00     0.028 H 
ATOM     36  H3  77X d   1      31.227  17.738   2.281  0.00  0.00     0.028 H 
ENDBRANCH  30  33
ENDBRANCH   1  30
TORSDOF 3
