REMARK WARNING: 32 MAX_TORS EXCEEDED!!!
REMARK  54 active torsions:
REMARK  status: ('A' for Active; 'I' for Inactive)
REMARK    1  A    between atoms: CA_2  and  C_3 
REMARK       I    between atoms: C_3  and  N_8 
REMARK    2  A    between atoms: N_8  and  CA_9 
REMARK    3  A    between atoms: CA_9  and  C_10 
REMARK    4  A    between atoms: CA_9  and  CB_12 
REMARK       I    between atoms: C_10  and  N_14 
REMARK    5  A    between atoms: CB_12  and  OG_13 
REMARK    6  A    between atoms: N_14  and  CA_15 
REMARK    7  A    between atoms: CA_15  and  C_16 
REMARK    8  A    between atoms: CA_15  and  CB_18 
REMARK       I    between atoms: C_16  and  N_26 
REMARK    9  A    between atoms: CB_18  and  CG_19 
REMARK   10  A    between atoms: CZ_24  and  OH_25 
REMARK   11  A    between atoms: N_26  and  CA_27 
REMARK   12  A    between atoms: CA_27  and  C_28 
REMARK   13  A    between atoms: CA_27  and  CB_30 
REMARK       I    between atoms: C_28  and  N_32 
REMARK   14  A    between atoms: CB_30  and  OG_31 
REMARK   15  A    between atoms: CA_33  and  C_34 
REMARK       I    between atoms: C_34  and  N_39 
REMARK   16  A    between atoms: N_39  and  CA_40 
REMARK   17  A    between atoms: CA_40  and  CB_41 
REMARK   18  A    between atoms: CA_40  and  C_48 
REMARK   19  A    between atoms: CB_41  and  CG2_42 
REMARK   20  A    between atoms: CB_41  and  OG1_43 
REMARK   21  A    between atoms: OG1_43  and  P_44 
REMARK       I    between atoms: C_48  and  N_50 
REMARK   22  A    between atoms: N_50  and  CA_51 
REMARK   23  A    between atoms: CA_51  and  C_52 
REMARK   24  A    between atoms: CA_51  and  CB_54 
REMARK       I    between atoms: C_52  and  N_56 
REMARK   25  A    between atoms: CB_54  and  OG_55 
REMARK   26  A    between atoms: CA_57  and  C_58 
REMARK       I    between atoms: C_58  and  N_63 
REMARK   27  A    between atoms: N_63  and  CA_64 
REMARK   28  A    between atoms: CA_64  and  C_65 
REMARK   29  A    between atoms: CA_64  and  CB_67 
REMARK       I    between atoms: C_65  and  N_69 
REMARK   30  A    between atoms: CB_67  and  OG_68 
REMARK   31  A    between atoms: N_69  and  CA_70 
REMARK   32  A    between atoms: CA_70  and  C_71 
REMARK   33  A    between atoms: CA_70  and  CB_73 
REMARK       I    between atoms: C_71  and  N_81 
REMARK   34  A    between atoms: CB_73  and  CG_74 
REMARK   35  A    between atoms: CZ_79  and  OH_80 
REMARK   36  A    between atoms: N_81  and  CA_82 
REMARK   37  A    between atoms: CA_82  and  C_83 
REMARK   38  A    between atoms: CA_82  and  CB_85 
REMARK       I    between atoms: C_83  and  N_87 
REMARK   39  A    between atoms: CB_85  and  OG_86 
REMARK   40  A    between atoms: CA_88  and  C_89 
REMARK       I    between atoms: C_89  and  N_94 
REMARK   41  A    between atoms: N_94  and  CA_95 
REMARK   42  A    between atoms: CA_95  and  C_96 
REMARK   43  A    between atoms: CA_95  and  CB_98 
REMARK       I    between atoms: C_96  and  N_101 
REMARK   44  A    between atoms: CB_98  and  OG1_99 
REMARK   45  A    between atoms: CB_98  and  CG2_100 
REMARK   46  A    between atoms: N_101  and  CA_102 
REMARK   47  A    between atoms: CA_102  and  C_103 
REMARK   48  A    between atoms: CA_102  and  CB_105 
REMARK       I    between atoms: C_103  and  N_107 
REMARK   49  A    between atoms: CB_105  and  OG_106 
REMARK   50  A    between atoms: CA_108  and  C_109 
REMARK       I    between atoms: C_109  and  N_114 
REMARK   51  A    between atoms: N_114  and  CA_115 
REMARK   52  A    between atoms: CA_115  and  C_116 
REMARK   53  A    between atoms: CA_115  and  CB_118 
REMARK   54  A    between atoms: CB_118  and  OG_119 
ROOT
ATOM      1  N   PRO d   1      -2.694   5.702 -32.649  0.00  0.00    -0.337 N 
ATOM      2  CA  PRO d   1      -2.897   4.466 -33.391  0.00  0.00     0.091 C 
ATOM      3  CB  PRO d   1      -1.735   4.417 -34.379  0.00  0.00    -0.036 C 
ATOM      4  CG  PRO d   1      -0.611   5.112 -33.615  0.00  0.00    -0.048 C 
ATOM      5  CD  PRO d   1      -1.351   6.212 -32.856  0.00  0.00    -0.001 C 
ATOM      6  H47 PRO d   1      -3.857   4.499 -33.926  0.00  0.00     0.087 H 
ATOM      7  H48 PRO d   1      -1.979   4.959 -35.305  0.00  0.00     0.036 H 
ATOM      8  H49 PRO d   1      -1.465   3.379 -34.622  0.00  0.00     0.036 H 
ATOM      9  H50 PRO d   1       0.133   5.537 -34.304  0.00  0.00     0.035 H 
ATOM     10  H51 PRO d   1      -0.114   4.417 -32.922  0.00  0.00     0.035 H 
ATOM     11  H52 PRO d   1      -0.862   6.410 -31.891  0.00  0.00     0.064 H 
ATOM     12  H53 PRO d   1      -1.378   7.138 -33.450  0.00  0.00     0.064 H 
ATOM     13  C   SER d   1      -3.649   6.261 -31.891  0.00  0.00     0.245 C 
ATOM     14  O   SER d   1      -4.780   5.786 -31.835  0.00  0.00    -0.271 OA
ENDROOT
BRANCH   2  15
ATOM     15  C   PRO d   1      -2.875   3.236 -32.481  0.00  0.00     0.241 C 
ATOM     16  O   PRO d   1      -3.201   2.140 -32.938  0.00  0.00    -0.271 OA
ATOM     17  N   SER d   1      -2.499   3.391 -31.204  0.00  0.00    -0.344 N 
ATOM     18  H54 SER d   1      -2.294   4.308 -30.863  0.00  0.00     0.163 HD
BRANCH  17  19
ATOM     19  CA  SER d   1      -2.383   2.253 -30.303  0.00  0.00     0.109 C 
ATOM     20  H55 SER d   1      -1.935   1.418 -30.862  0.00  0.00     0.090 H 
BRANCH  19  21
ATOM     21  C   SER d   1      -3.753   1.803 -29.797  0.00  0.00     0.243 C 
ATOM     22  O   SER d   1      -4.531   2.611 -29.292  0.00  0.00    -0.271 OA
ATOM     23  N   TYR d   1      -4.034   0.503 -29.938  0.00  0.00    -0.346 N 
ATOM     24  H59 TYR d   1      -3.364  -0.068 -30.413  0.00  0.00     0.163 HD
BRANCH  23  25
ATOM     25  CA  TYR d   1      -5.244  -0.139 -29.450  0.00  0.00     0.093 C 
ATOM     26  H60 TYR d   1      -5.405   0.139 -28.398  0.00  0.00     0.088 H 
BRANCH  25  27
ATOM     27  C   TYR d   1      -5.071  -1.655 -29.547  0.00  0.00     0.241 C 
ATOM     28  O   TYR d   1      -4.184  -2.137 -30.251  0.00  0.00    -0.271 OA
ATOM     29  N   SER d   1      -5.920  -2.410 -28.840  0.00  0.00    -0.344 N 
ATOM     30  H68 SER d   1      -6.606  -1.953 -28.274  0.00  0.00     0.163 HD
BRANCH  29  31
ATOM     31  CA  SER d   1      -5.893  -3.865 -28.856  0.00  0.00     0.109 C 
ATOM     32  H69 SER d   1      -5.606  -4.212 -29.860  0.00  0.00     0.090 H 
BRANCH  31  33
ATOM     33  C   SER d   1      -7.285  -4.403 -28.524  0.00  0.00     0.245 C 
ATOM     34  O   SER d   1      -7.991  -3.793 -27.722  0.00  0.00    -0.271 OA
ATOM     35  N   PRO d   1      -7.700  -5.530 -29.119  0.00  0.00    -0.337 N 
ATOM     36  CA  PRO d   1      -9.005  -6.125 -28.885  0.00  0.00     0.091 C 
ATOM     37  CD  PRO d   1      -6.950  -6.315 -30.079  0.00  0.00    -0.001 C 
ATOM     38  CB  PRO d   1      -9.014  -7.426 -29.692  0.00  0.00    -0.036 C 
ATOM     39  H73 PRO d   1      -9.790  -5.450 -29.256  0.00  0.00     0.087 H 
ATOM     40  CG  PRO d   1      -7.993  -7.162 -30.796  0.00  0.00    -0.048 C 
ATOM     41  H74 PRO d   1     -10.011  -7.620 -30.115  0.00  0.00     0.036 H 
ATOM     42  H75 PRO d   1      -8.708  -8.279 -29.068  0.00  0.00     0.036 H 
ATOM     43  H76 PRO d   1      -8.446  -6.611 -31.634  0.00  0.00     0.035 H 
ATOM     44  H77 PRO d   1      -7.556  -8.101 -31.168  0.00  0.00     0.035 H 
ATOM     45  H78 PRO d   1      -6.218  -6.956 -29.566  0.00  0.00     0.064 H 
ATOM     46  H79 PRO d   1      -6.428  -5.659 -30.791  0.00  0.00     0.064 H 
BRANCH  36  47
ATOM     47  C   PRO d   1      -9.258  -6.396 -27.403  0.00  0.00     0.241 C 
ATOM     48  O   PRO d   1      -8.327  -6.640 -26.637  0.00  0.00    -0.271 OA
ATOM     49  N   THR d   1     -10.531  -6.352 -26.998  0.00  0.00    -0.344 N 
ATOM     50  H80 THR d   1     -11.245  -6.144 -27.666  0.00  0.00     0.163 HD
BRANCH  49  51
ATOM     51  CA  THR d   1     -10.910  -6.597 -25.616  0.00  0.00     0.113 C 
ATOM     52  H81 THR d   1     -10.198  -6.079 -24.956  0.00  0.00     0.091 H 
BRANCH  51  53
ATOM     53  C   THR d   1     -10.845  -8.092 -25.318  0.00  0.00     0.243 C 
ATOM     54  O   THR d   1     -11.183  -8.909 -26.170  0.00  0.00    -0.271 OA
ATOM     55  N   SER d   1     -10.412  -8.452 -24.107  0.00  0.00    -0.344 N 
ATOM     56  H87 SER d   1     -10.161  -7.737 -23.455  0.00  0.00     0.163 HD
BRANCH  55  57
ATOM     57  CA  SER d   1     -10.290  -9.846 -23.697  0.00  0.00     0.109 C 
ATOM     58  H88 SER d   1     -11.125 -10.424 -24.120  0.00  0.00     0.090 H 
BRANCH  57  59
ATOM     59  C   SER d   1     -10.341  -9.948 -22.175  0.00  0.00     0.245 C 
ATOM     60  O   SER d   1      -9.824  -9.066 -21.492  0.00  0.00    -0.271 OA
ATOM     61  N   PRO d   1     -10.955 -11.007 -21.628  0.00  0.00    -0.337 N 
ATOM     62  CA  PRO d   1     -11.036 -11.239 -20.194  0.00  0.00     0.091 C 
ATOM     63  CD  PRO d   1     -11.619 -12.067 -22.364  0.00  0.00    -0.001 C 
ATOM     64  CB  PRO d   1     -12.070 -12.353 -20.042  0.00  0.00    -0.036 C 
ATOM     65  H92 PRO d   1     -11.372 -10.328 -19.678  0.00  0.00     0.087 H 
ATOM     66  CG  PRO d   1     -11.900 -13.156 -21.330  0.00  0.00    -0.048 C 
ATOM     67  H93 PRO d   1     -13.087 -11.941 -19.964  0.00  0.00     0.036 H 
ATOM     68  H94 PRO d   1     -11.857 -12.973 -19.159  0.00  0.00     0.036 H 
ATOM     69  H95 PRO d   1     -12.817 -13.711 -21.576  0.00  0.00     0.035 H 
ATOM     70  H96 PRO d   1     -11.056 -13.858 -21.253  0.00  0.00     0.035 H 
ATOM     71  H97 PRO d   1     -10.966 -12.451 -23.161  0.00  0.00     0.064 H 
ATOM     72  H98 PRO d   1     -12.558 -11.701 -22.804  0.00  0.00     0.064 H 
BRANCH  62  73
ATOM     73  C   PRO d   1      -9.690 -11.674 -19.619  0.00  0.00     0.241 C 
ATOM     74  O   PRO d   1      -9.531 -11.727 -18.402  0.00  0.00    -0.271 OA
ATOM     75  N   SER d   1      -8.720 -11.984 -20.488  0.00  0.00    -0.343 N 
ATOM     76  H99 SER d   1      -8.926 -11.930 -21.465  0.00  0.00     0.163 HD
BRANCH  75  77
ATOM     77  CA  SER d   1      -7.383 -12.395 -20.088  0.00  0.00     0.116 C 
ATOM     78 0H10 SER d   1      -7.070 -11.793 -19.222  0.00  0.00     0.093 H 
BRANCH  77  79
ATOM     79  C   SER d   1      -6.394 -12.167 -21.228  0.00  0.00     0.198 C 
ATOM     80  O   SER d   1      -6.801 -11.541 -22.231  0.00  0.00    -0.646 OA
ATOM     81  OXT SER d   1      -5.237 -12.621 -21.090  0.00  0.00    -0.646 OA
ENDBRANCH  77  79
BRANCH  77  82
ATOM     82  CB  SER d   1      -7.398 -13.869 -19.686  0.00  0.00     0.045 C 
ATOM     83 1H10 SER d   1      -7.764 -14.480 -20.524  0.00  0.00     0.077 H 
ATOM     84 2H10 SER d   1      -8.054 -14.011 -18.814  0.00  0.00     0.077 H 
BRANCH  82  85
ATOM     85  OG  SER d   1      -6.082 -14.248 -19.359  0.00  0.00    -0.398 OA
ATOM     86 3H10 SER d   1      -5.520 -14.120 -20.114  0.00  0.00     0.209 HD
ENDBRANCH  82  85
ENDBRANCH  77  82
ENDBRANCH  75  77
ENDBRANCH  62  73
ENDBRANCH  57  59
BRANCH  57  87
ATOM     87  CB  SER d   1      -8.971 -10.403 -24.236  0.00  0.00     0.044 C 
ATOM     88  H89 SER d   1      -8.151  -9.726 -23.953  0.00  0.00     0.077 H 
ATOM     89  H90 SER d   1      -9.029 -10.470 -25.332  0.00  0.00     0.077 H 
BRANCH  87  90
ATOM     90  OG  SER d   1      -8.715 -11.685 -23.708  0.00  0.00    -0.398 OA
ATOM     91  H91 SER d   1      -8.661 -11.631 -22.761  0.00  0.00     0.209 HD
ENDBRANCH  87  90
ENDBRANCH  57  87
ENDBRANCH  55  57
ENDBRANCH  51  53
BRANCH  51  92
ATOM     92  CB  THR d   1     -12.310  -6.035 -25.355  0.00  0.00     0.060 C 
ATOM     93  H82 THR d   1     -13.028  -6.539 -26.018  0.00  0.00     0.086 H 
BRANCH  92  94
ATOM     94  OG1 THR d   1     -12.317  -4.649 -25.623  0.00  0.00    -0.393 OA
ATOM     95  H83 THR d   1     -13.186  -4.301 -25.461  0.00  0.00     0.210 HD
ENDBRANCH  92  94
BRANCH  92  96
ATOM     96  CG2 THR d   1     -12.727  -6.260 -23.904  0.00  0.00    -0.050 C 
ATOM     97  H84 THR d   1     -13.734  -5.848 -23.744  0.00  0.00     0.031 H 
ATOM     98  H85 THR d   1     -12.014  -5.756 -23.235  0.00  0.00     0.031 H 
ATOM     99  H86 THR d   1     -12.733  -7.338 -23.687  0.00  0.00     0.031 H 
ENDBRANCH  92  96
ENDBRANCH  51  92
ENDBRANCH  49  51
ENDBRANCH  36  47
ENDBRANCH  31  33
BRANCH  31 100
ATOM    100  CB  SER d   1      -4.861  -4.360 -27.845  0.00  0.00     0.044 C 
ATOM    101  H70 SER d   1      -5.126  -3.986 -26.845  0.00  0.00     0.077 H 
ATOM    102  H71 SER d   1      -3.868  -3.981 -28.127  0.00  0.00     0.077 H 
BRANCH 100 103
ATOM    103  OG  SER d   1      -4.830  -5.770 -27.820  0.00  0.00    -0.398 OA
ATOM    104  H72 SER d   1      -4.184  -6.060 -27.187  0.00  0.00     0.209 HD
ENDBRANCH 100 103
ENDBRANCH  31 100
ENDBRANCH  29  31
ENDBRANCH  25  27
BRANCH  25 105
ATOM    105  CB  TYR d   1      -6.448   0.327 -30.277  0.00  0.00    -0.014 C 
ATOM    106  H61 TYR d   1      -6.178   0.262 -31.341  0.00  0.00     0.043 H 
ATOM    107  H62 TYR d   1      -6.659   1.375 -30.015  0.00  0.00     0.043 H 
BRANCH 105 108
ATOM    108  CG  TYR d   1      -7.710  -0.475 -30.061  0.00  0.00    -0.056 A 
ATOM    109  CD1 TYR d   1      -8.261  -1.213 -31.119  0.00  0.00    -0.074 A 
ATOM    110  CE1 TYR d   1      -9.432  -1.960 -30.925  0.00  0.00    -0.051 A 
ATOM    111  H63 TYR d   1      -7.780  -1.206 -32.090  0.00  0.00     0.084 H 
ATOM    112  CZ  TYR d   1     -10.059  -1.970 -29.663  0.00  0.00     0.065 A 
ATOM    113  H65 TYR d   1      -9.854  -2.529 -31.745  0.00  0.00     0.087 H 
ATOM    114  CE2 TYR d   1      -9.503  -1.229 -28.601  0.00  0.00    -0.051 A 
ATOM    115  CD2 TYR d   1      -8.335  -0.480 -28.804  0.00  0.00    -0.074 A 
ATOM    116  H66 TYR d   1      -9.978  -1.238 -27.627  0.00  0.00     0.087 H 
ATOM    117  H64 TYR d   1      -7.914   0.097 -27.988  0.00  0.00     0.084 H 
BRANCH 112 118
ATOM    118  OH  TYR d   1     -11.198  -2.691 -29.465  0.00  0.00    -0.361 OA
ATOM    119  H67 TYR d   1     -11.439  -3.129 -30.273  0.00  0.00     0.217 HD
ENDBRANCH 112 118
ENDBRANCH 105 108
ENDBRANCH  25 105
ENDBRANCH  23  25
ENDBRANCH  19  21
BRANCH  19 120
ATOM    120  CB  SER d   1      -1.461   2.596 -29.134  0.00  0.00     0.044 C 
ATOM    121  H56 SER d   1      -1.860   3.468 -28.596  0.00  0.00     0.077 H 
ATOM    122  H57 SER d   1      -0.456   2.829 -29.516  0.00  0.00     0.077 H 
BRANCH 120 123
ATOM    123  OG  SER d   1      -1.387   1.493 -28.254  0.00  0.00    -0.398 OA
ATOM    124  H58 SER d   1      -0.814   1.707 -27.527  0.00  0.00     0.209 HD
ENDBRANCH 120 123
ENDBRANCH  19 120
ENDBRANCH  17  19
ENDBRANCH   2  15
BRANCH  13 125
ATOM    125  CA  SER d   1      -3.284   7.519 -31.092  0.00  0.00     0.109 C 
ATOM    126  H43 SER d   1      -2.435   7.992 -31.608  0.00  0.00     0.090 H 
BRANCH 125 127
ATOM    127  N   SER d   1      -4.361   8.500 -31.037  0.00  0.00    -0.344 N 
ATOM    128  C   TPO d   1      -5.572   8.278 -30.507  0.00  0.00     0.243 C 
ATOM    129  O   TPO d   1      -5.900   7.223 -29.974  0.00  0.00    -0.271 OA
ATOM    130  H42 SER d   1      -4.183   9.405 -31.423  0.00  0.00     0.163 HD
BRANCH 128 131
ATOM    131  CA  TPO d   1      -6.567   9.422 -30.587  0.00  0.00     0.114 C 
ATOM    132  H37 TPO d   1      -7.487   9.123 -30.064  0.00  0.00     0.091 H 
BRANCH 131 133
ATOM    133  N   TPO d   1      -6.006  10.595 -29.933  0.00  0.00    -0.344 N 
ATOM    134  C   PRO d   1      -6.551  11.195 -28.868  0.00  0.00     0.241 C 
ATOM    135  O   PRO d   1      -7.546  10.757 -28.293  0.00  0.00    -0.271 OA
ATOM    136  H36 TPO d   1      -5.159  10.977 -30.303  0.00  0.00     0.163 HD
BRANCH 134 137
ATOM    137  CA  PRO d   1      -5.876  12.480 -28.377  0.00  0.00     0.091 C 
ATOM    138  N   PRO d   1      -4.935  12.988 -29.367  0.00  0.00    -0.337 N 
ATOM    139  C   SER d   1      -3.754  12.421 -29.649  0.00  0.00     0.245 C 
ATOM    140  CD  PRO d   1      -5.468  14.183 -29.999  0.00  0.00    -0.001 C 
ATOM    141  O   SER d   1      -3.345  11.435 -29.044  0.00  0.00    -0.271 OA
ATOM    142  CG  PRO d   1      -6.926  14.270 -29.553  0.00  0.00    -0.048 C 
ATOM    143  H34 PRO d   1      -5.406  14.098 -31.094  0.00  0.00     0.064 H 
ATOM    144  H35 PRO d   1      -4.912  15.073 -29.668  0.00  0.00     0.064 H 
ATOM    145  CB  PRO d   1      -6.894  13.601 -28.184  0.00  0.00    -0.036 C 
ATOM    146  H32 PRO d   1      -7.256  15.316 -29.476  0.00  0.00     0.035 H 
ATOM    147  H33 PRO d   1      -7.586  13.727 -30.245  0.00  0.00     0.035 H 
ATOM    148  H30 PRO d   1      -6.564  14.306 -27.407  0.00  0.00     0.036 H 
ATOM    149  H31 PRO d   1      -7.882  13.197 -27.918  0.00  0.00     0.036 H 
ATOM    150  H29 PRO d   1      -5.356  12.272 -27.430  0.00  0.00     0.087 H 
BRANCH 139 151
ATOM    151  CA  SER d   1      -2.901  13.028 -30.759  0.00  0.00     0.109 C 
ATOM    152  H25 SER d   1      -3.371  13.961 -31.104  0.00  0.00     0.090 H 
BRANCH 151 153
ATOM    153  N   SER d   1      -1.566  13.320 -30.256  0.00  0.00    -0.344 N 
ATOM    154  C   TYR d   1      -1.155  14.547 -29.916  0.00  0.00     0.241 C 
ATOM    155  O   TYR d   1      -1.860  15.548 -30.038  0.00  0.00    -0.271 OA
ATOM    156  H24 SER d   1      -0.921  12.562 -30.159  0.00  0.00     0.163 HD
BRANCH 154 157
ATOM    157  CA  TYR d   1       0.264  14.652 -29.357  0.00  0.00     0.093 C 
ATOM    158  H16 TYR d   1       0.856  13.833 -29.791  0.00  0.00     0.088 H 
BRANCH 157 159
ATOM    159  N   TYR d   1       0.898  15.916 -29.717  0.00  0.00    -0.346 N 
ATOM    160  C   SER d   1       1.339  16.155 -30.957  0.00  0.00     0.243 C 
ATOM    161  O   SER d   1       1.139  15.365 -31.881  0.00  0.00    -0.271 OA
ATOM    162  H15 TYR d   1       1.006  16.623 -29.018  0.00  0.00     0.163 HD
BRANCH 160 163
ATOM    163  CA  SER d   1       2.114  17.449 -31.236  0.00  0.00     0.109 C 
ATOM    164  H11 SER d   1       1.516  18.071 -31.918  0.00  0.00     0.090 H 
BRANCH 163 165
ATOM    165  N   SER d   1       2.384  18.227 -30.030  0.00  0.00    -0.344 N 
ATOM    166  C   PRO d   1       2.866  19.476 -30.073  0.00  0.00     0.249 C 
ATOM    167  O   PRO d   1       3.098  20.060 -31.129  0.00  0.00    -0.271 OA
ATOM    168  H10 SER d   1       2.202  17.812 -29.139  0.00  0.00     0.163 HD
BRANCH 166 169
ATOM    169  CA  PRO d   1       3.127  20.172 -28.735  0.00  0.00     0.178 C 
ATOM    170  N   PRO d   1       4.247  21.125 -28.830  0.00  0.00    -0.062 N 
ATOM    171  CD  PRO d   1       3.632  22.371 -29.335  0.00  0.00     0.083 C 
ATOM    172  H1  PRO d   1       4.948  20.788 -29.472  0.00  0.00     0.278 HD
ATOM    173  H2  PRO d   1       4.665  21.275 -27.925  0.00  0.00     0.278 HD
ATOM    174  CG  PRO d   1       2.114  22.277 -29.140  0.00  0.00    -0.040 C 
ATOM    175  H8  PRO d   1       3.862  22.492 -30.404  0.00  0.00     0.075 H 
ATOM    176  H9  PRO d   1       4.025  23.233 -28.776  0.00  0.00     0.075 H 
ATOM    177  CB  PRO d   1       1.930  21.008 -28.311  0.00  0.00    -0.028 C 
ATOM    178  H6  PRO d   1       1.733  23.156 -28.600  0.00  0.00     0.035 H 
ATOM    179  H7  PRO d   1       1.599  22.190 -30.108  0.00  0.00     0.035 H 
ATOM    180  H4  PRO d   1       1.958  21.228 -27.234  0.00  0.00     0.036 H 
ATOM    181  H5  PRO d   1       0.984  20.504 -28.558  0.00  0.00     0.036 H 
ATOM    182  H3  PRO d   1       3.345  19.409 -27.973  0.00  0.00     0.099 H 
ENDBRANCH 166 169
ENDBRANCH 163 165
BRANCH 163 183
ATOM    183  CB  SER d   1       3.436  17.084 -31.922  0.00  0.00     0.044 C 
ATOM    184  H12 SER d   1       4.106  17.956 -31.907  0.00  0.00     0.077 H 
ATOM    185  H13 SER d   1       3.236  16.793 -32.964  0.00  0.00     0.077 H 
BRANCH 183 186
ATOM    186  OG  SER d   1       4.054  16.012 -31.251  0.00  0.00    -0.398 OA
ATOM    187  H14 SER d   1       3.478  15.257 -31.265  0.00  0.00     0.209 HD
ENDBRANCH 183 186
ENDBRANCH 163 183
ENDBRANCH 160 163
ENDBRANCH 157 159
BRANCH 157 188
ATOM    188  CB  TYR d   1       0.285  14.504 -27.831  0.00  0.00    -0.014 C 
ATOM    189  H17 TYR d   1      -0.193  15.393 -27.393  0.00  0.00     0.043 H 
ATOM    190  H18 TYR d   1       1.334  14.453 -27.505  0.00  0.00     0.043 H 
BRANCH 188 191
ATOM    191  CG  TYR d   1      -0.432  13.277 -27.312  0.00  0.00    -0.056 A 
ATOM    192  CD1 TYR d   1       0.252  12.061 -27.179  0.00  0.00    -0.074 A 
ATOM    193  CE1 TYR d   1      -0.416  10.921 -26.711  0.00  0.00    -0.051 A 
ATOM    194  H19 TYR d   1       1.303  12.002 -27.439  0.00  0.00     0.084 H 
ATOM    195  CZ  TYR d   1      -1.777  11.000 -26.362  0.00  0.00     0.065 A 
ATOM    196  H21 TYR d   1       0.115   9.980 -26.618  0.00  0.00     0.087 H 
ATOM    197  CE2 TYR d   1      -2.455  12.228 -26.476  0.00  0.00    -0.051 A 
ATOM    198  CD2 TYR d   1      -1.785  13.357 -26.961  0.00  0.00    -0.074 A 
ATOM    199  H22 TYR d   1      -3.498  12.300 -26.188  0.00  0.00     0.087 H 
ATOM    200  H20 TYR d   1      -2.315  14.297 -27.065  0.00  0.00     0.084 H 
BRANCH 195 201
ATOM    201  OH  TYR d   1      -2.438   9.897 -25.918  0.00  0.00    -0.361 OA
ATOM    202  H23 TYR d   1      -3.163   9.707 -26.502  0.00  0.00     0.217 HD
ENDBRANCH 195 201
ENDBRANCH 188 191
ENDBRANCH 157 188
ENDBRANCH 154 157
ENDBRANCH 151 153
BRANCH 151 203
ATOM    203  CB  SER d   1      -2.795  12.054 -31.932  0.00  0.00     0.044 C 
ATOM    204  H26 SER d   1      -1.994  11.329 -31.724  0.00  0.00     0.077 H 
ATOM    205  H27 SER d   1      -2.552  12.617 -32.845  0.00  0.00     0.077 H 
BRANCH 203 206
ATOM    206  OG  SER d   1      -4.006  11.357 -32.131  0.00  0.00    -0.398 OA
ATOM    207  H28 SER d   1      -4.701  11.978 -32.315  0.00  0.00     0.209 HD
ENDBRANCH 203 206
ENDBRANCH 151 203
ENDBRANCH 139 151
ENDBRANCH 134 137
ENDBRANCH 131 133
BRANCH 131 208
ATOM    208  CB  TPO d   1      -6.920   9.777 -32.036  0.00  0.00     0.076 C 
ATOM    209  H38 TPO d   1      -5.996  10.053 -32.565  0.00  0.00     0.087 H 
BRANCH 208 210
ATOM    210  CG2 TPO d   1      -7.560   8.607 -32.783  0.00  0.00    -0.049 C 
ATOM    211  H39 TPO d   1      -7.793   8.913 -33.813  0.00  0.00     0.031 H 
ATOM    212  H40 TPO d   1      -8.487   8.308 -32.271  0.00  0.00     0.031 H 
ATOM    213  H41 TPO d   1      -6.861   7.758 -32.802  0.00  0.00     0.031 H 
ENDBRANCH 208 210
BRANCH 208 214
ATOM    214  OG1 TPO d   1      -7.783  10.894 -32.008  0.00  0.00    -0.275 OA
BRANCH 214 215
ATOM    215  P   TPO d   1      -7.672  12.050 -33.119  0.00  0.00     0.422 P 
ATOM    216  O1P TPO d   1      -8.167  11.383 -34.340  0.00  0.00    -0.617 OA
ATOM    217  O2P TPO d   1      -8.567  13.099 -32.585  0.00  0.00    -0.617 OA
ATOM    218  O3P TPO d   1      -6.232  12.400 -33.121  0.00  0.00    -0.617 OA
ENDBRANCH 214 215
ENDBRANCH 208 214
ENDBRANCH 131 208
ENDBRANCH 128 131
ENDBRANCH 125 127
BRANCH 125 219
ATOM    219  CB  SER d   1      -2.831   7.173 -29.669  0.00  0.00     0.044 C 
ATOM    220  H44 SER d   1      -3.688   6.785 -29.100  0.00  0.00     0.077 H 
ATOM    221  H45 SER d   1      -2.447   8.080 -29.180  0.00  0.00     0.077 H 
BRANCH 219 222
ATOM    222  OG  SER d   1      -1.813   6.195 -29.702  0.00  0.00    -0.398 OA
ATOM    223  H46 SER d   1      -1.543   5.991 -28.814  0.00  0.00     0.209 HD
ENDBRANCH 219 222
ENDBRANCH 125 219
ENDBRANCH  13 125
TORSDOF 54
