REMARK  6 active torsions:
REMARK  status: ('A' for Active; 'I' for Inactive)
REMARK    1  A    between atoms: O5'_1  and  C5'_2 
REMARK    2  A    between atoms: C5'_2  and  C4'_3 
REMARK    3  A    between atoms: C3'_5  and  O3'_6 
REMARK    4  A    between atoms: C2'_7  and  O2'_8 
REMARK    5  A    between atoms: C1'_9  and  N9_10 
REMARK    6  A    between atoms: C6_14  and  N6_15 
ROOT
ATOM      1  C4' ADN d   1     -18.588  18.481 -10.279  0.00  0.00     0.088 C 
ATOM      2  O4' ADN d   1     -17.204  18.179 -10.646  0.00  0.00    -0.353 OA
ATOM      3  C3' ADN d   1     -18.701  18.026  -8.827  0.00  0.00     0.091 C 
ATOM      4  C2' ADN d   1     -17.769  16.816  -8.779  0.00  0.00     0.105 C 
ATOM      5  C1' ADN d   1     -16.657  17.247  -9.738  0.00  0.00     0.139 C 
ATOM      6  H4  ADN d   1     -19.278  17.884 -10.894  0.00  0.00     0.090 H 
ATOM      7  H5  ADN d   1     -18.318  18.811  -8.159  0.00  0.00     0.091 H 
ATOM      8  H7  ADN d   1     -17.397  16.630  -7.761  0.00  0.00     0.093 H 
ATOM      9  H9  ADN d   1     -16.258  16.375 -10.277  0.00  0.00     0.122 H 
ENDROOT
BRANCH   5  10
ATOM     10  N9  ADN d   1     -15.589  17.903  -8.975  0.00  0.00    -0.294 N 
ATOM     11  C8  ADN d   1     -15.612  19.179  -8.482  0.00  0.00     0.071 A 
ATOM     12  N7  ADN d   1     -14.490  19.373  -7.810  0.00  0.00    -0.236 NA
ATOM     13  H10 ADN d   1     -16.412  19.905  -8.619  0.00  0.00     0.144 H 
ATOM     14  C5  ADN d   1     -13.775  18.231  -7.909  0.00  0.00     0.149 A 
ATOM     15  C6  ADN d   1     -12.559  17.929  -7.413  0.00  0.00     0.155 A 
ATOM     16  C4  ADN d   1     -14.455  17.304  -8.613  0.00  0.00     0.167 A 
ATOM     17  N1  ADN d   1     -12.017  16.724  -7.577  0.00  0.00    -0.222 NA
ATOM     18  C2  ADN d   1     -12.727  15.808  -8.294  0.00  0.00     0.091 A 
ATOM     19  N3  ADN d   1     -13.950  16.105  -8.805  0.00  0.00    -0.222 NA
ATOM     20  H13 ADN d   1     -12.307  14.822  -8.460  0.00  0.00     0.146 H 
BRANCH  15  21
ATOM     21  N6  ADN d   1     -11.694  18.789  -6.609  0.00  0.00    -0.382 N 
ATOM     22  H11 ADN d   1     -10.779  18.442  -6.286  0.00  0.00     0.157 HD
ATOM     23  H12 ADN d   1     -11.999  19.742  -6.365  0.00  0.00     0.157 HD
ENDBRANCH  15  21
ENDBRANCH   5  10
BRANCH   4  24
ATOM     24  O2' ADN d   1     -18.381  15.655  -9.298  0.00  0.00    -0.388 OA
ATOM     25  H8  ADN d   1     -17.771  14.928  -9.250  0.00  0.00     0.210 HD
ENDBRANCH   4  24
BRANCH   1  26
ATOM     26  C5' ADN d   1     -18.894  19.943 -10.530  0.00  0.00     0.043 C 
ATOM     27  H2  ADN d   1     -18.563  20.208 -11.545  0.00  0.00     0.078 H 
ATOM     28  H3  ADN d   1     -19.980  20.100 -10.446  0.00  0.00     0.078 H 
BRANCH  26  29
ATOM     29  O5' ADN d   1     -18.229  20.789  -9.590  0.00  0.00    -0.398 OA
ATOM     30  H1  ADN d   1     -18.442  21.696  -9.776  0.00  0.00     0.209 HD
ENDBRANCH  26  29
ENDBRANCH   1  26
BRANCH   3  31
ATOM     31  O3' ADN d   1     -20.043  17.748  -8.439  0.00  0.00    -0.390 OA
ATOM     32  H6  ADN d   1     -20.394  17.057  -8.989  0.00  0.00     0.210 HD
ENDBRANCH   3  31
TORSDOF 6
