REMARK  13 active torsions:
REMARK  status: ('A' for Active; 'I' for Inactive)
REMARK    1  A    between atoms: C3_2  and  C2_1 
REMARK    2  A    between atoms: C4_3  and  C3_2 
REMARK    3  A    between atoms: C5_4  and  C4_3 
REMARK    4  A    between atoms: C6_5  and  C5_4 
REMARK    5  A    between atoms: C7_6  and  C6_5 
REMARK    6  A    between atoms: C8_7  and  C7_6 
REMARK    7  A    between atoms: C9_28  and  C8_7 
REMARK    8  A    between atoms: C11_8  and  C10_29 
REMARK    9  A    between atoms: C13_30  and  C12_9 
REMARK   10  A    between atoms: N22_16  and  C18_13 
REMARK   11  A    between atoms: C23_17  and  N22_16 
REMARK   12  A    between atoms: C25_36  and  C33_22 
REMARK   13  A    between atoms: C10_29  and  C9_28 
ROOT
ATOM      1  C15 79B d   1      -0.668 -36.369 -24.011  0.00  0.00    -0.075 A 
ATOM      2  C16 79B d   1      -0.582 -35.955 -25.320  0.00  0.00    -0.050 A 
ATOM      3  C17 79B d   1      -1.163 -36.655 -26.496  0.00  0.00    -0.021 C 
ATOM      4  C18 79B d   1      -0.340 -36.062 -27.643  0.00  0.00     0.018 C 
ATOM      5  C19 79B d   1       0.057 -34.653 -27.164  0.00  0.00    -0.021 C 
ATOM      6  C21 79B d   1       0.738 -34.054 -24.714  0.00  0.00    -0.058 A 
ATOM      7  C13 79B d   1       0.641 -34.444 -23.364  0.00  0.00     0.018 A 
ATOM      8  C20 79B d   1       0.104 -34.838 -25.676  0.00  0.00    -0.048 A 
ATOM      9  C14 79B d   1      -0.049 -35.608 -23.026  0.00  0.00    -0.064 A 
ATOM     10  H14 79B d   1      -1.209 -37.272 -23.752  0.00  0.00     0.084 H 
ATOM     11  H15 79B d   1      -2.233 -36.428 -26.610  0.00  0.00     0.043 H 
ATOM     12  H16 79B d   1      -1.025 -37.744 -26.424  0.00  0.00     0.043 H 
ATOM     13  H17 79B d   1       0.571 -36.657 -27.804  0.00  0.00     0.073 H 
ATOM     14  H18 79B d   1      -0.697 -33.905 -27.451  0.00  0.00     0.043 H 
ATOM     15  H19 79B d   1       1.038 -34.356 -27.562  0.00  0.00     0.043 H 
ATOM     16  H20 79B d   1       1.292 -33.166 -24.997  0.00  0.00     0.086 H 
ATOM     17  H32 79B d   1      -0.103 -35.921 -21.990  0.00  0.00     0.085 H 
ENDROOT
BRANCH   7  18
ATOM     18  C12 79B d   1       1.217 -33.767 -22.412  0.00  0.00    -0.067 C 
ATOM     19  C11 79B d   1       1.745 -33.407 -21.406  0.00  0.00    -0.101 C 
BRANCH  19  20
ATOM     20  C10 79B d   1       2.458 -32.867 -20.236  0.00  0.00    -0.009 C 
ATOM     21  H30 79B d   1       3.523 -32.747 -20.484  0.00  0.00     0.051 H 
ATOM     22  H31 79B d   1       2.354 -33.567 -19.394  0.00  0.00     0.051 H 
BRANCH  20  23
ATOM     23  C9  79B d   1       1.884 -31.524 -19.842  0.00  0.00    -0.056 C 
ATOM     24  H28 79B d   1       0.786 -31.590 -19.858  0.00  0.00     0.034 H 
ATOM     25  H29 79B d   1       2.222 -31.279 -18.824  0.00  0.00     0.034 H 
BRANCH  23  26
ATOM     26  C8  79B d   1       2.319 -30.421 -20.778  0.00  0.00    -0.064 C 
ATOM     27  H12 79B d   1       3.289 -30.027 -20.440  0.00  0.00     0.033 H 
ATOM     28  H13 79B d   1       2.424 -30.833 -21.793  0.00  0.00     0.033 H 
BRANCH  26  29
ATOM     29  C7  79B d   1       1.308 -29.287 -20.807  0.00  0.00    -0.065 C 
ATOM     30  H10 79B d   1       0.318 -29.666 -21.099  0.00  0.00     0.033 H 
ATOM     31  H11 79B d   1       1.241 -28.810 -19.818  0.00  0.00     0.033 H 
BRANCH  29  32
ATOM     32  C6  79B d   1       1.816 -28.295 -21.837  0.00  0.00    -0.065 C 
ATOM     33  H8  79B d   1       2.862 -28.045 -21.604  0.00  0.00     0.033 H 
ATOM     34  H9  79B d   1       1.763 -28.759 -22.833  0.00  0.00     0.033 H 
BRANCH  32  35
ATOM     35  C5  79B d   1       0.998 -27.016 -21.849  0.00  0.00    -0.065 C 
ATOM     36  H6  79B d   1       0.058 -27.186 -21.305  0.00  0.00     0.033 H 
ATOM     37  H7  79B d   1       1.570 -26.219 -21.352  0.00  0.00     0.033 H 
BRANCH  35  38
ATOM     38  C4  79B d   1       0.676 -26.583 -23.278  0.00  0.00    -0.059 C 
ATOM     39  H4  79B d   1       0.677 -25.484 -23.330  0.00  0.00     0.033 H 
ATOM     40  H5  79B d   1       1.444 -26.983 -23.956  0.00  0.00     0.033 H 
BRANCH  38  41
ATOM     41  C3  79B d   1      -0.690 -27.100 -23.712  0.00  0.00    -0.017 C 
ATOM     42  H2  79B d   1      -1.368 -27.033 -22.849  0.00  0.00     0.043 H 
ATOM     43  H3  79B d   1      -1.058 -26.450 -24.519  0.00  0.00     0.043 H 
BRANCH  41  44
ATOM     44  C2  79B d   1      -0.713 -28.536 -24.218  0.00  0.00     0.088 C 
ATOM     45  O1  79B d   1       0.099 -28.918 -25.046  0.00  0.00    -0.307 OA
ATOM     46  H1  79B d   1      -1.461 -29.230 -23.837  0.00  0.00     0.143 H 
ENDBRANCH  41  44
ENDBRANCH  38  41
ENDBRANCH  35  38
ENDBRANCH  32  35
ENDBRANCH  29  32
ENDBRANCH  26  29
ENDBRANCH  23  26
ENDBRANCH  20  23
ENDBRANCH  19  20
ENDBRANCH   7  18
BRANCH   4  47
ATOM     47  N22 79B d   1      -1.146 -36.096 -28.897  0.00  0.00    -0.369 N 
ATOM     48  H21 79B d   1      -2.108 -35.731 -28.936  0.00  0.00     0.161 HD
BRANCH  47  49
ATOM     49  C23 79B d   1      -0.520 -36.653 -30.018  0.00  0.00     0.139 A 
ATOM     50  C32 79B d   1      -1.228 -36.793 -31.222  0.00  0.00     0.038 A 
ATOM     51  C27 79B d   1      -0.552 -37.358 -32.306  0.00  0.00     0.073 A 
ATOM     52  C31 79B d   1      -2.572 -36.406 -31.393  0.00  0.00    -0.067 A 
ATOM     53  C28 79B d   1      -1.188 -37.522 -33.541  0.00  0.00    -0.054 A 
ATOM     54  N26 79B d   1       0.730 -37.736 -32.170  0.00  0.00    -0.228 NA
ATOM     55  C29 79B d   1      -2.510 -37.119 -33.701  0.00  0.00    -0.081 A 
ATOM     56  H34 79B d   1      -0.651 -37.963 -34.373  0.00  0.00     0.087 H 
ATOM     57  C30 79B d   1      -3.217 -36.562 -32.621  0.00  0.00    -0.082 A 
ATOM     58  H33 79B d   1      -2.997 -37.235 -34.663  0.00  0.00     0.083 H 
ATOM     59  H22 79B d   1      -4.250 -36.257 -32.740  0.00  0.00     0.083 H 
ATOM     60  C25 79B d   1       1.396 -37.609 -30.997  0.00  0.00     0.164 A 
ATOM     61  N24 79B d   1       0.774 -37.056 -29.947  0.00  0.00    -0.210 NA
ATOM     62  H23 79B d   1      -3.114 -35.980 -30.557  0.00  0.00     0.085 H 
BRANCH  60  63
ATOM     63  C33 79B d   1       2.826 -37.998 -30.929  0.00  0.00     0.029 A 
ATOM     64  C34 79B d   1       3.371 -38.921 -31.822  0.00  0.00    -0.067 A 
ATOM     65  C35 79B d   1       4.720 -39.203 -31.757  0.00  0.00    -0.065 A 
ATOM     66  H24 79B d   1       2.743 -39.410 -32.557  0.00  0.00     0.085 H 
ATOM     67  C36 79B d   1       5.516 -38.548 -30.820  0.00  0.00     0.002 A 
ATOM     68  H25 79B d   1       5.158 -39.930 -32.431  0.00  0.00     0.085 H 
ATOM     69  N37 79B d   1       4.983 -37.639 -29.989  0.00  0.00    -0.272 NA
ATOM     70  H26 79B d   1       6.574 -38.774 -30.762  0.00  0.00     0.114 H 
ATOM     71  C38 79B d   1       3.667 -37.347 -30.030  0.00  0.00     0.015 A 
ATOM     72  H27 79B d   1       3.261 -36.600 -29.358  0.00  0.00     0.116 H 
ENDBRANCH  60  63
ENDBRANCH  47  49
ENDBRANCH   4  47
TORSDOF 13
