REMARK  12 active torsions:
REMARK  status: ('A' for Active; 'I' for Inactive)
REMARK    1  A    between atoms: C1_38  and  C_2 
REMARK    2  A    between atoms: C9_17  and  N2_5 
REMARK    3  A    between atoms: C15_8  and  C16_9 
REMARK    4  A    between atoms: N3_10  and  C14_11 
REMARK    5  A    between atoms: C12_12  and  C13_13 
REMARK    6  A    between atoms: C8_18  and  C9_17 
REMARK    7  A    between atoms: N5_19  and  C19_20 
REMARK    8  A    between atoms: C20_21  and  C21_22 
REMARK    9  A    between atoms: C4_31  and  C5_30 
REMARK   10  A    between atoms: C2_32  and  C3_33 
REMARK   11  A    between atoms: C24_34  and  C25_35 
REMARK   12  A    between atoms: N8_36  and  C26_37 
ROOT
ATOM      1  N   7B2 d   1      -3.488   4.169   5.379  0.00  0.00    -0.127 NA
ATOM      2  C8  7B2 d   1      -3.458   0.442   8.079  0.00  0.00     0.046 A 
ATOM      3  N5  7B2 d   1      -3.423  -0.005   9.383  0.00  0.00    -0.355 N 
ATOM      4  C20 7B2 d   1      -3.282   1.087  10.229  0.00  0.00     0.020 A 
ATOM      5  C22 7B2 d   1      -3.243   2.231   9.457  0.00  0.00     0.021 A 
ATOM      6  C7  7B2 d   1      -3.357   1.813   8.080  0.00  0.00     0.052 A 
ATOM      7  C23 7B2 d   1      -3.170   3.614   9.753  0.00  0.00     0.035 A 
ATOM      8  N6  7B2 d   1      -3.227   4.557   8.874  0.00  0.00    -0.175 NA
ATOM      9  N7  7B2 d   1      -3.328   4.130   7.574  0.00  0.00    -0.192 N 
ATOM     10  C6  7B2 d   1      -3.381   2.835   7.106  0.00  0.00     0.188 A 
ATOM     11  N1  7B2 d   1      -3.478   2.853   5.782  0.00  0.00    -0.127 NA
ATOM     12  C5  7B2 d   1      -3.411   4.935   6.462  0.00  0.00     0.188 A 
ATOM     13  H22 7B2 d   1      -3.058   3.902  10.797  0.00  0.00     0.118 H 
ENDROOT
BRANCH   2  14
ATOM     14  C9  7B2 d   1      -3.556  -0.431   6.870  0.00  0.00     0.055 C 
ATOM     15  H14 7B2 d   1      -3.130   0.099   6.005  0.00  0.00     0.076 H 
ATOM     16  H15 7B2 d   1      -2.992  -1.359   7.046  0.00  0.00     0.076 H 
BRANCH  14  17
ATOM     17  N2  7B2 d   1      -4.945  -0.761   6.592  0.00  0.00    -0.273 N 
ATOM     18  C10 7B2 d   1      -5.761  -0.162   5.708  0.00  0.00     0.012 C 
ATOM     19  C11 7B2 d   1      -6.972  -0.603   5.364  0.00  0.00     0.019 A 
ATOM     20  H13 7B2 d   1      -5.407   0.753   5.237  0.00  0.00     0.115 H 
ATOM     21  C17 7B2 d   1      -7.523  -1.688   6.112  0.00  0.00     0.042 A 
ATOM     22  C12 7B2 d   1      -7.960  -0.181   4.476  0.00  0.00     0.020 A 
ATOM     23  C18 7B2 d   1      -6.638  -2.228   7.118  0.00  0.00     0.159 C 
ATOM     24  C15 7B2 d   1      -8.782  -1.947   5.601  0.00  0.00     0.022 A 
ATOM     25 CL   7B2 d   1      -7.202  -3.504   8.122  0.00  0.00    -0.060 Cl
ATOM     26  N4  7B2 d   1      -5.426  -1.816   7.326  0.00  0.00    -0.159 NA
ATOM     27  N3  7B2 d   1      -9.022  -1.004   4.610  0.00  0.00    -0.357 N 
BRANCH  24  28
ATOM     28  C16 7B2 d   1      -9.768  -3.007   5.948  0.00  0.00    -0.036 C 
ATOM     29  H4  7B2 d   1      -9.363  -3.634   6.756  0.00  0.00     0.035 H 
ATOM     30  H5  7B2 d   1      -9.963  -3.631   5.063  0.00  0.00     0.035 H 
ATOM     31  H6  7B2 d   1     -10.707  -2.540   6.281  0.00  0.00     0.035 H 
ENDBRANCH  24  28
BRANCH  27  32
ATOM     32  C14 7B2 d   1     -10.284  -0.934   3.850  0.00  0.00    -0.014 C 
ATOM     33  H7  7B2 d   1     -10.957  -1.738   4.182  0.00  0.00     0.057 H 
ATOM     34  H8  7B2 d   1     -10.073  -1.053   2.777  0.00  0.00     0.057 H 
ATOM     35  H9  7B2 d   1     -10.763   0.041   4.024  0.00  0.00     0.057 H 
ENDBRANCH  27  32
BRANCH  22  36
ATOM     36  C13 7B2 d   1      -7.789   0.909   3.476  0.00  0.00    -0.036 C 
ATOM     37  H10 7B2 d   1      -6.814   1.396   3.627  0.00  0.00     0.035 H 
ATOM     38  H11 7B2 d   1      -8.592   1.650   3.600  0.00  0.00     0.035 H 
ATOM     39  H12 7B2 d   1      -7.834   0.486   2.462  0.00  0.00     0.035 H 
ENDBRANCH  22  36
ENDBRANCH  14  17
ENDBRANCH   2  14
BRANCH   3  40
ATOM     40  C19 7B2 d   1      -3.527  -1.391   9.847  0.00  0.00    -0.014 C 
ATOM     41  H16 7B2 d   1      -3.630  -2.061   8.981  0.00  0.00     0.057 H 
ATOM     42  H17 7B2 d   1      -4.408  -1.495  10.498  0.00  0.00     0.057 H 
ATOM     43  H18 7B2 d   1      -2.621  -1.658  10.411  0.00  0.00     0.057 H 
ENDBRANCH   3  40
BRANCH   4  44
ATOM     44  C21 7B2 d   1      -3.172   0.932  11.706  0.00  0.00    -0.036 C 
ATOM     45  H19 7B2 d   1      -3.069   1.923  12.172  0.00  0.00     0.035 H 
ATOM     46  H20 7B2 d   1      -2.290   0.320  11.946  0.00  0.00     0.035 H 
ATOM     47  H21 7B2 d   1      -4.076   0.438  12.091  0.00  0.00     0.035 H 
ENDBRANCH   4  44
BRANCH  12  48
ATOM     48  C4  7B2 d   1      -3.492   6.412   6.502  0.00  0.00     0.051 A 
ATOM     49  C2  7B2 d   1      -2.423   7.315   6.870  0.00  0.00     0.040 A 
ATOM     50  C1  7B2 d   1      -2.914   8.605   6.749  0.00  0.00     0.021 A 
ATOM     51  N8  7B2 d   1      -4.225   8.502   6.318  0.00  0.00    -0.357 N 
ATOM     52  C24 7B2 d   1      -4.591   7.174   6.164  0.00  0.00     0.022 A 
BRANCH  49  53
ATOM     53  C3  7B2 d   1      -1.086   6.949   7.259  0.00  0.00     0.121 C 
ATOM     54  O   7B2 d   1      -0.647   5.822   7.216  0.00  0.00    -0.301 OA
ATOM     55  H23 7B2 d   1      -0.426   7.739   7.615  0.00  0.00     0.151 H 
ENDBRANCH  49  53
BRANCH  50  56
ATOM     56  C   7B2 d   1      -2.264   9.922   7.003  0.00  0.00    -0.036 C 
ATOM     57  H1  7B2 d   1      -1.228   9.761   7.336  0.00  0.00     0.035 H 
ATOM     58  H2  7B2 d   1      -2.821  10.461   7.784  0.00  0.00     0.035 H 
ATOM     59  H3  7B2 d   1      -2.264  10.515   6.077  0.00  0.00     0.035 H 
ENDBRANCH  50  56
BRANCH  51  60
ATOM     60  C26 7B2 d   1      -5.094   9.637   6.007  0.00  0.00    -0.014 C 
ATOM     61  H27 7B2 d   1      -6.080   9.268   5.689  0.00  0.00     0.057 H 
ATOM     62  H28 7B2 d   1      -4.646  10.230   5.196  0.00  0.00     0.057 H 
ATOM     63  H29 7B2 d   1      -5.210  10.266   6.902  0.00  0.00     0.057 H 
ENDBRANCH  51  60
BRANCH  52  64
ATOM     64  C25 7B2 d   1      -5.940   6.772   5.681  0.00  0.00    -0.036 C 
ATOM     65  H24 7B2 d   1      -6.002   5.675   5.638  0.00  0.00     0.035 H 
ATOM     66  H25 7B2 d   1      -6.109   7.188   4.677  0.00  0.00     0.035 H 
ATOM     67  H26 7B2 d   1      -6.706   7.156   6.371  0.00  0.00     0.035 H 
ENDBRANCH  52  64
ENDBRANCH  12  48
TORSDOF 12
