REMARK  3 active torsions:
REMARK  status: ('A' for Active; 'I' for Inactive)
REMARK    1  A    between atoms: C5_2  and  C10_5 
REMARK    2  A    between atoms: C8_4  and  C13_6 
REMARK       I    between atoms: C10_5  and  N11_14 
REMARK    3  A    between atoms: C13_6  and  C18_18 
ROOT
ATOM      1  C4  78P d   1      43.694  16.822  80.026  0.00  0.00     0.101 A 
ATOM      2  C5  78P d   1      43.522  16.056  78.843  0.00  0.00     0.062 A 
ATOM      3  C6  78P d   1      44.621  15.239  78.433  0.00  0.00    -0.065 A 
ATOM      4  C8  78P d   1      43.484  18.127  81.795  0.00  0.00     0.141 A 
ATOM      5  C1  78P d   1      45.837  15.263  79.166  0.00  0.00    -0.080 A 
ATOM      6  C2  78P d   1      45.941  16.037  80.350  0.00  0.00    -0.055 A 
ATOM      7  C3  78P d   1      44.892  16.789  80.762  0.00  0.00     0.063 A 
ATOM      8  N7  78P d   1      44.726  17.604  81.846  0.00  0.00    -0.340 N 
ATOM      9  N9  78P d   1      42.850  17.660  80.710  0.00  0.00    -0.230 NA
ATOM     10  H1  78P d   1      44.526  14.601  77.562  0.00  0.00     0.085 H 
ATOM     11  H6  78P d   1      46.688  14.688  78.820  0.00  0.00     0.083 H 
ATOM     12  H7  78P d   1      46.860  16.027  80.925  0.00  0.00     0.087 H 
ATOM     13  H8  78P d   1      45.429  17.787  82.576  0.00  0.00     0.167 HD
ENDROOT
BRANCH   4  14
ATOM     14  C13 78P d   1      42.886  19.092  82.836  0.00  0.00     0.181 C 
ATOM     15  C17 78P d   1      43.777  20.337  83.009  0.00  0.00    -0.026 C 
ATOM     16  C16 78P d   1      42.832  21.504  83.291  0.00  0.00    -0.040 C 
ATOM     17  H4  78P d   1      44.351  20.525  82.090  0.00  0.00     0.037 H 
ATOM     18  H5  78P d   1      44.470  20.196  83.852  0.00  0.00     0.037 H 
ATOM     19  C15 78P d   1      41.423  20.980  83.052  0.00  0.00     0.083 C 
ATOM     20  H13 78P d   1      42.942  21.840  84.333  0.00  0.00     0.035 H 
ATOM     21  H14 78P d   1      43.047  22.341  82.611  0.00  0.00     0.035 H 
ATOM     22  N14 78P d   1      41.639  19.694  82.334  0.00  0.00    -0.059 N 
ATOM     23  H2  78P d   1      40.900  20.814  84.005  0.00  0.00     0.075 H 
ATOM     24  H3  78P d   1      40.844  21.681  82.434  0.00  0.00     0.075 H 
ATOM     25  H11 78P d   1      40.865  19.072  82.508  0.00  0.00     0.278 HD
ATOM     26  H12 78P d   1      41.717  19.865  81.344  0.00  0.00     0.278 HD
BRANCH  14  27
ATOM     27  C18 78P d   1      42.624  18.348  84.169  0.00  0.00    -0.038 C 
ATOM     28  H15 78P d   1      43.563  17.904  84.532  0.00  0.00     0.031 H 
ATOM     29  H16 78P d   1      41.882  17.553  84.005  0.00  0.00     0.031 H 
ATOM     30  H17 78P d   1      42.242  19.059  84.917  0.00  0.00     0.031 H 
ENDBRANCH  14  27
ENDBRANCH   4  14
BRANCH   2  31
ATOM     31  C10 78P d   1      42.285  15.980  78.089  0.00  0.00     0.251 C 
ATOM     32  N11 78P d   1      41.299  16.791  78.437  0.00  0.00    -0.366 N 
ATOM     33  H9  78P d   1      40.432  16.766  77.939  0.00  0.00     0.159 HD
ATOM     34  H10 78P d   1      41.421  17.429  79.198  0.00  0.00     0.159 HD
ATOM     35  O12 78P d   1      42.112  15.111  77.180  0.00  0.00    -0.268 OA
ENDBRANCH   2  31
TORSDOF 3
