REMARK  1 active torsions:
REMARK  status: ('A' for Active; 'I' for Inactive)
REMARK    1  A    between atoms: N05_11  and  C15_12 
ROOT
ATOM      1  C13 7A9 d   1      34.977 -29.486  52.434  0.00  0.00    -0.067 A 
ATOM      2  C14 7A9 d   1      39.267 -29.561  51.743  0.00  0.00    -0.040 C 
ATOM      3  C11 7A9 d   1      36.893 -30.260  51.175  0.00  0.00    -0.076 A 
ATOM      4  O07 7A9 d   1      34.066 -27.942  54.516  0.00  0.00    -0.267 OA
ATOM      5  C06 7A9 d   1      35.281 -27.911  54.354  0.00  0.00     0.254 C 
ATOM      6  N05 7A9 d   1      36.123 -27.160  55.099  0.00  0.00    -0.341 N 
ATOM      7  C04 7A9 d   1      37.572 -26.969  54.853  0.00  0.00     0.006 C 
ATOM      8  C08 7A9 d   1      35.841 -28.734  53.240  0.00  0.00     0.039 A 
ATOM      9  C12 7A9 d   1      35.506 -30.241  51.394  0.00  0.00    -0.081 A 
ATOM     10  C10 7A9 d   1      37.758 -29.516  51.984  0.00  0.00    -0.050 A 
ATOM     11  C01 7A9 d   1      40.031 -28.269  52.101  0.00  0.00    -0.061 C 
ATOM     12  C09 7A9 d   1      37.229 -28.748  53.022  0.00  0.00    -0.030 A 
ATOM     13  C03 7A9 d   1      38.201 -27.990  53.888  0.00  0.00    -0.011 C 
ATOM     14  C02 7A9 d   1      39.290 -27.304  53.038  0.00  0.00    -0.056 C 
ATOM     15  H3  7A9 d   1      33.909 -29.479  52.619  0.00  0.00     0.085 H 
ATOM     16  H6  7A9 d   1      39.435 -29.770  50.676  0.00  0.00     0.040 H 
ATOM     17  H7  7A9 d   1      39.683 -30.380  52.347  0.00  0.00     0.040 H 
ATOM     18  H8  7A9 d   1      37.299 -30.859  50.368  0.00  0.00     0.084 H 
ATOM     19  H18 7A9 d   1      38.096 -27.042  55.818  0.00  0.00     0.065 H 
ATOM     20  H19 7A9 d   1      37.718 -25.964  54.431  0.00  0.00     0.065 H 
ATOM     21  H20 7A9 d   1      34.848 -30.815  50.752  0.00  0.00     0.083 H 
ATOM     22  H21 7A9 d   1      40.249 -27.733  51.165  0.00  0.00     0.033 H 
ATOM     23  H22 7A9 d   1      40.975 -28.556  52.587  0.00  0.00     0.033 H 
ATOM     24  H23 7A9 d   1      38.702 -28.742  54.515  0.00  0.00     0.050 H 
ATOM     25  H24 7A9 d   1      38.815 -26.522  52.428  0.00  0.00     0.034 H 
ATOM     26  H25 7A9 d   1      40.024 -26.845  53.717  0.00  0.00     0.034 H 
ENDROOT
BRANCH   6  27
ATOM     27  C15 7A9 d   1      35.540 -26.376  56.226  0.00  0.00     0.042 C 
ATOM     28  C16 7A9 d   1      36.257 -25.025  56.543  0.00  0.00     0.102 C 
ATOM     29  N17 7A9 d   1      36.224 -24.819  57.997  0.00  0.00    -0.069 N 
ATOM     30  H9  7A9 d   1      35.735 -24.199  56.038  0.00  0.00     0.079 H 
ATOM     31  H10 7A9 d   1      37.300 -25.067  56.196  0.00  0.00     0.079 H 
ATOM     32  C22 7A9 d   1      34.826 -25.034  58.425  0.00  0.00     0.084 C 
ATOM     33  C18 7A9 d   1      37.144 -25.803  58.630  0.00  0.00     0.084 C 
ATOM     34  H17 7A9 d   1      36.516 -23.883  58.230  0.00  0.00     0.280 HD
ATOM     35  C21 7A9 d   1      34.496 -26.539  58.452  0.00  0.00    -0.037 C 
ATOM     36  H1  7A9 d   1      34.687 -24.615  59.432  0.00  0.00     0.076 H 
ATOM     37  H2  7A9 d   1      34.150 -24.527  57.721  0.00  0.00     0.076 H 
ATOM     38  C20 7A9 d   1      35.468 -27.233  57.503  0.00  0.00    -0.030 C 
ATOM     39  H4  7A9 d   1      33.461 -26.704  58.118  0.00  0.00     0.036 H 
ATOM     40  H5  7A9 d   1      34.619 -26.933  59.471  0.00  0.00     0.036 H 
ATOM     41  C19 7A9 d   1      36.780 -27.247  58.266  0.00  0.00    -0.037 C 
ATOM     42  H11 7A9 d   1      35.146 -28.256  57.258  0.00  0.00     0.043 H 
ATOM     43  H12 7A9 d   1      37.571 -27.682  57.637  0.00  0.00     0.036 H 
ATOM     44  H13 7A9 d   1      36.670 -27.845  59.183  0.00  0.00     0.036 H 
ATOM     45  H15 7A9 d   1      38.170 -25.599  58.290  0.00  0.00     0.076 H 
ATOM     46  H16 7A9 d   1      37.090 -25.688  59.723  0.00  0.00     0.076 H 
ATOM     47  H14 7A9 d   1      34.510 -26.126  55.933  0.00  0.00     0.076 H 
ENDBRANCH   6  27
TORSDOF 1
