REMARK WARNING: 32 MAX_TORS EXCEEDED!!!
REMARK  36 active torsions:
REMARK  status: ('A' for Active; 'I' for Inactive)
REMARK    1  A    between atoms: C02_3  and  C03_4 
REMARK       I    between atoms: C03_4  and  N05_6 
REMARK    2  A    between atoms: CA_12  and  CB_15 
REMARK    3  A    between atoms: CB_15  and  CG_16 
REMARK    4  A    between atoms: CZ_21  and  OH_22 
REMARK    5  A    between atoms: CA_24  and  CB_27 
REMARK    6  A    between atoms: CB_27  and  CG1_28 
REMARK    7  A    between atoms: CB_27  and  CG2_29 
REMARK    8  A    between atoms: CA_31  and  CB_34 
REMARK    9  A    between atoms: CB_34  and  CG_35 
REMARK   10  A    between atoms: CZ_40  and  OH_41 
REMARK   11  A    between atoms: CA_43  and  CB_46 
REMARK   12  A    between atoms: CB_46  and  CG_47 
REMARK       I    between atoms: CG_47  and  ND2_49 
REMARK   13  A    between atoms: CA_51  and  CB_54 
REMARK   14  A    between atoms: CB_54  and  OG1_55 
REMARK   15  A    between atoms: CB_54  and  CG2_56 
REMARK   16  A    between atoms: CA_58  and  CB_61 
REMARK   17  A    between atoms: CB_61  and  CG_62 
REMARK   18  A    between atoms: CG_62  and  CD_63 
REMARK   19  A    between atoms: CD_63  and  NE_64 
REMARK       I    between atoms: NE_64  and  CZ_65 
REMARK       I    between atoms: CZ_65  and  NH1_66 
REMARK       I    between atoms: CZ_65  and  NH2_67 
REMARK   20  A    between atoms: CA_69  and  CB_72 
REMARK   21  A    between atoms: CB_72  and  OG_73 
REMARK   22  A    between atoms: CA_79  and  CB_82 
REMARK   23  A    between atoms: CB_82  and  CG_83 
REMARK   24  A    between atoms: CA_93  and  CB_96 
REMARK   25  A    between atoms: CB_96  and  CG_97 
REMARK   26  A    between atoms: CG_97  and  CD_98 
REMARK   27  A    between atoms: CD_98  and  NE_99 
REMARK       I    between atoms: NE_99  and  CZ_100 
REMARK       I    between atoms: CZ_100  and  NH1_101 
REMARK   28  A    between atoms: CZ_100  and  NH2_102 
REMARK   29  A    between atoms: CA_104  and  CB_107 
REMARK   30  A    between atoms: CB_107  and  CG_108 
REMARK   31  A    between atoms: CA_118  and  CB_121 
REMARK   32  A    between atoms: CB_121  and  CG_122 
REMARK   33  A    between atoms: CZ_127  and  OH_128 
REMARK   34  A    between atoms: CA_130  and  CB_133 
REMARK   35  A    between atoms: CB_133  and  OG1_134 
REMARK   36  A    between atoms: CB_133  and  CG2_135 
ROOT
ATOM      1  O10 48V d   1     -11.346 -38.546 -29.604  0.00  0.00    -0.273 OA
ATOM      2  N01 48V d   1     -15.060 -41.166 -27.149  0.00  0.00    -0.076 NA
ATOM      3  C02 48V d   1     -15.243 -41.832 -28.440  0.00  0.00     0.256 A 
ATOM      4  C06 48V d   1     -14.073 -42.445 -29.125  0.00  0.00     0.032 C 
ATOM      5  S07 48V d   1     -13.022 -41.166 -29.763  0.00  0.00    -0.155 SA
ATOM      6  C08 48V d   1     -12.000 -40.532 -28.451  0.00  0.00     0.051 C 
ATOM      7  C09 48V d   1     -11.598 -39.122 -28.554  0.00  0.00     0.227 C 
ATOM      8  H3  48V d   1     -14.424 -43.078 -29.953  0.00  0.00     0.056 H 
ATOM      9  H4  48V d   1     -13.509 -43.059 -28.408  0.00  0.00     0.056 H 
ATOM     10  H5  48V d   1     -11.083 -41.139 -28.419  0.00  0.00     0.063 H 
ATOM     11  H6  48V d   1     -12.553 -40.653 -27.508  0.00  0.00     0.063 H 
ATOM     12  N   DTY d   1     -11.397 -38.289 -27.332  0.00  0.00    -0.347 N 
ATOM     13  CA  DTY d   1     -10.807 -36.946 -27.182  0.00  0.00     0.093 C 
ATOM     14  C   DTY d   1     -11.761 -35.899 -26.587  0.00  0.00     0.241 C 
ATOM     15  O   DTY d   1     -12.735 -36.175 -25.833  0.00  0.00    -0.271 OA
ATOM     16  H7  DTY d   1     -11.712 -38.708 -26.480  0.00  0.00     0.163 HD
ATOM     17  H8  DTY d   1     -10.632 -36.595 -28.210  0.00  0.00     0.088 H 
ATOM     18  N   VAL d   1     -11.533 -34.643 -26.958  0.00  0.00    -0.346 N 
ATOM     19  CA  VAL d   1     -12.313 -33.520 -26.437  0.00  0.00     0.092 C 
ATOM     20  C   VAL d   1     -12.759 -32.470 -27.474  0.00  0.00     0.241 C 
ATOM     21  O   VAL d   1     -12.135 -32.321 -28.499  0.00  0.00    -0.271 OA
ATOM     22  H16 VAL d   1     -10.803 -34.459 -27.616  0.00  0.00     0.163 HD
ATOM     23  H17 VAL d   1     -13.224 -33.934 -25.981  0.00  0.00     0.088 H 
ATOM     24  N   TYR d   1     -13.874 -31.789 -27.223  0.00  0.00    -0.346 N 
ATOM     25  CA  TYR d   1     -14.359 -30.706 -28.061  0.00  0.00     0.093 C 
ATOM     26  C   TYR d   1     -14.905 -29.597 -27.199  0.00  0.00     0.241 C 
ATOM     27  O   TYR d   1     -15.379 -29.842 -26.117  0.00  0.00    -0.271 OA
ATOM     28  N   TYR d   1     -15.662 -36.685 -24.980  0.00  0.00    -0.346 N 
ATOM     29  CA  TYR d   1     -16.424 -37.770 -25.516  0.00  0.00     0.093 C 
ATOM     30  C   TYR d   1     -15.468 -38.901 -25.551  0.00  0.00     0.241 C 
ATOM     31  O   TYR d   1     -14.467 -38.865 -26.234  0.00  0.00    -0.271 OA
ATOM     32  H25 TYR d   1     -14.407 -32.036 -26.414  0.00  0.00     0.163 HD
ATOM     33  H26 TYR d   1     -13.483 -30.301 -28.588  0.00  0.00     0.088 H 
ATOM     34 1H10 TYR d   1     -14.992 -36.208 -25.549  0.00  0.00     0.163 HD
ATOM     35 2H10 TYR d   1     -17.264 -38.010 -24.848  0.00  0.00     0.088 H 
ATOM     36  N   ASN d   1     -14.819 -28.368 -27.668  0.00  0.00    -0.346 N 
ATOM     37  CA  ASN d   1     -15.314 -27.267 -26.878  0.00  0.00     0.097 C 
ATOM     38  C   ASN d   1     -16.784 -26.956 -27.147  0.00  0.00     0.241 C 
ATOM     39  O   ASN d   1     -17.234 -26.967 -28.271  0.00  0.00    -0.271 OA
ATOM     40  H34 ASN d   1     -14.413 -28.200 -28.566  0.00  0.00     0.163 HD
ATOM     41  H35 ASN d   1     -15.248 -27.575 -25.824  0.00  0.00     0.088 H 
ATOM     42  N   THR d   1     -17.511 -26.726 -26.050  0.00  0.00    -0.344 N 
ATOM     43  CA  THR d   1     -18.942 -26.426 -25.999  0.00  0.00     0.113 C 
ATOM     44  C   THR d   1     -19.223 -25.224 -25.109  0.00  0.00     0.243 C 
ATOM     45  O   THR d   1     -18.375 -24.794 -24.378  0.00  0.00    -0.271 OA
ATOM     46  N   THR d   1     -15.754 -39.937 -24.778  0.00  0.00    -0.344 N 
ATOM     47  CA  THR d   1     -14.837 -41.041 -24.677  0.00  0.00     0.111 C 
ATOM     48  C   THR d   1     -15.043 -41.903 -25.945  0.00  0.00     0.251 C 
ATOM     49  O   THR d   1     -15.263 -43.119 -25.889  0.00  0.00    -0.275 OA
ATOM     50  OXT THR d   1     -14.999 -41.424 -27.084  0.00  0.00    -0.252 OA
ATOM     51  H40 THR d   1     -17.028 -26.763 -25.175  0.00  0.00     0.163 HD
ATOM     52  H41 THR d   1     -19.260 -26.178 -27.022  0.00  0.00     0.091 H 
ATOM     53 0H11 THR d   1     -16.611 -39.952 -24.262  0.00  0.00     0.163 HD
ATOM     54 1H11 THR d   1     -13.828 -40.612 -24.765  0.00  0.00     0.090 H 
ATOM     55  N   ARG d   1     -20.421 -24.670 -25.176  0.00  0.00    -0.346 N 
ATOM     56  CA  ARG d   1     -20.728 -23.454 -24.417  0.00  0.00     0.089 C 
ATOM     57  C   ARG d   1     -20.457 -23.606 -22.936  0.00  0.00     0.241 C 
ATOM     58  O   ARG d   1     -19.987 -22.710 -22.275  0.00  0.00    -0.271 OA
ATOM     59  N   ARG d   1     -15.983 -30.685 -23.247  0.00  0.00    -0.346 N 
ATOM     60  CA  ARG d   1     -16.780 -31.890 -23.132  0.00  0.00     0.089 C 
ATOM     61  C   ARG d   1     -15.940 -33.050 -23.619  0.00  0.00     0.241 C 
ATOM     62  O   ARG d   1     -15.382 -32.993 -24.688  0.00  0.00    -0.271 OA
ATOM     63  H47 ARG d   1     -21.126 -25.085 -25.751  0.00  0.00     0.163 HD
ATOM     64  H48 ARG d   1     -20.079 -22.652 -24.798  0.00  0.00     0.087 H 
ATOM     65  H78 ARG d   1     -15.773 -30.336 -24.160  0.00  0.00     0.163 HD
ATOM     66  H79 ARG d   1     -17.054 -32.048 -22.078  0.00  0.00     0.087 H 
ATOM     67  N   SER d   1     -20.783 -24.770 -22.428  0.00  0.00    -0.344 N 
ATOM     68  CA  SER d   1     -20.632 -25.110 -21.044  0.00  0.00     0.109 C 
ATOM     69  C   SER d   1     -19.235 -25.591 -20.674  0.00  0.00     0.242 C 
ATOM     70  O   SER d   1     -19.041 -26.070 -19.585  0.00  0.00    -0.271 OA
ATOM     71  H60 SER d   1     -21.160 -25.462 -23.044  0.00  0.00     0.163 HD
ATOM     72  H61 SER d   1     -20.841 -24.210 -20.447  0.00  0.00     0.090 H 
ATOM     73  N   GLY d   1     -18.296 -25.568 -21.608  0.00  0.00    -0.350 N 
ATOM     74  CA  GLY d   1     -16.956 -25.999 -21.295  0.00  0.00     0.069 C 
ATOM     75  C   GLY d   1     -16.286 -26.949 -22.254  0.00  0.00     0.236 C 
ATOM     76  O   GLY d   1     -16.518 -26.932 -23.432  0.00  0.00    -0.272 OA
ATOM     77  H65 GLY d   1     -18.517 -25.252 -22.531  0.00  0.00     0.163 HD
ATOM     78  H66 GLY d   1     -16.990 -26.493 -20.313  0.00  0.00     0.078 H 
ATOM     79  H67 GLY d   1     -16.327 -25.099 -21.231  0.00  0.00     0.078 H 
ATOM     80  N   TRP d   1     -15.411 -27.768 -21.709  0.00  0.00    -0.346 N 
ATOM     81  CA  TRP d   1     -14.718 -28.768 -22.457  0.00  0.00     0.093 C 
ATOM     82  C   TRP d   1     -15.520 -30.025 -22.192  0.00  0.00     0.241 C 
ATOM     83  O   TRP d   1     -15.743 -30.365 -21.059  0.00  0.00    -0.271 OA
ATOM     84  N   TRP d   1     -15.808 -34.095 -22.824  0.00  0.00    -0.346 N 
ATOM     85  CA  TRP d   1     -14.989 -35.214 -23.219  0.00  0.00     0.093 C 
ATOM     86  C   TRP d   1     -15.854 -36.319 -23.718  0.00  0.00     0.241 C 
ATOM     87  O   TRP d   1     -16.706 -36.813 -23.017  0.00  0.00    -0.271 OA
ATOM     88  H68 TRP d   1     -15.224 -27.686 -20.730  0.00  0.00     0.163 HD
ATOM     89  H69 TRP d   1     -14.703 -28.528 -23.530  0.00  0.00     0.088 H 
ATOM     90  H91 TRP d   1     -16.279 -34.111 -21.942  0.00  0.00     0.163 HD
ATOM     91  H92 TRP d   1     -14.310 -34.896 -24.024  0.00  0.00     0.088 H 
ENDROOT
BRANCH  56  92
ATOM     92  CB  ARG d   1     -22.182 -23.033 -24.629  0.00  0.00    -0.036 C 
ATOM     93  H49 ARG d   1     -22.831 -23.764 -24.124  0.00  0.00     0.036 H 
ATOM     94  H50 ARG d   1     -22.391 -23.041 -25.709  0.00  0.00     0.036 H 
BRANCH  92  95
ATOM     95  CG  ARG d   1     -22.509 -21.651 -24.090  0.00  0.00    -0.048 C 
ATOM     96  H51 ARG d   1     -21.794 -20.927 -24.509  0.00  0.00     0.035 H 
ATOM     97  H52 ARG d   1     -22.416 -21.666 -22.994  0.00  0.00     0.035 H 
BRANCH  95  98
ATOM     98  CD  ARG d   1     -23.911 -21.221 -24.456  0.00  0.00     0.009 C 
ATOM     99  H53 ARG d   1     -24.624 -21.963 -24.067  0.00  0.00     0.064 H 
ATOM    100  H54 ARG d   1     -23.994 -21.171 -25.552  0.00  0.00     0.064 H 
BRANCH  98 101
ATOM    101  NE  ARG d   1     -24.236 -19.917 -23.899  0.00  0.00    -0.227 N 
ATOM    102  CZ  ARG d   1     -24.782 -19.730 -22.717  0.00  0.00     0.665 C 
ATOM    103  NH1 ARG d   1     -25.093 -20.755 -21.971  0.00  0.00    -0.235 N 
ATOM    104  NH2 ARG d   1     -25.008 -18.525 -22.282  0.00  0.00    -0.235 N 
ATOM    105  H56 ARG d   1     -25.520 -20.608 -21.046  0.00  0.00     0.174 HD
ATOM    106  H57 ARG d   1     -24.911 -21.711 -22.308  0.00  0.00     0.174 HD
ATOM    107  H58 ARG d   1     -24.765 -17.712 -22.866  0.00  0.00     0.174 HD
ATOM    108  H59 ARG d   1     -25.430 -18.384 -21.353  0.00  0.00     0.174 HD
ATOM    109  H55 ARG d   1     -24.024 -19.085 -24.468  0.00  0.00     0.177 HD
ENDBRANCH  98 101
ENDBRANCH  95  98
ENDBRANCH  92  95
ENDBRANCH  56  92
BRANCH  43 110
ATOM    110  CB  THR d   1     -19.800 -27.610 -25.514  0.00  0.00     0.060 C 
ATOM    111  H42 THR d   1     -20.839 -27.445 -25.834  0.00  0.00     0.086 H 
BRANCH 110 112
ATOM    112  OG1 THR d   1     -19.763 -27.695 -24.093  0.00  0.00    -0.393 OA
ATOM    113  H43 THR d   1     -20.103 -26.890 -23.720  0.00  0.00     0.210 HD
ENDBRANCH 110 112
BRANCH 110 114
ATOM    114  CG2 THR d   1     -19.320 -28.876 -26.094  0.00  0.00    -0.050 C 
ATOM    115  H44 THR d   1     -19.947 -29.705 -25.734  0.00  0.00     0.031 H 
ATOM    116  H45 THR d   1     -18.277 -29.046 -25.790  0.00  0.00     0.031 H 
ATOM    117  H46 THR d   1     -19.378 -28.822 -27.191  0.00  0.00     0.031 H 
ENDBRANCH 110 114
ENDBRANCH  43 110
BRANCH  68 118
ATOM    118  CB  SER d   1     -21.669 -26.168 -20.711  0.00  0.00     0.044 C 
ATOM    119  H62 SER d   1     -21.707 -26.907 -21.525  0.00  0.00     0.077 H 
ATOM    120  H63 SER d   1     -22.654 -25.689 -20.605  0.00  0.00     0.077 H 
BRANCH 118 121
ATOM    121  OG  SER d   1     -21.342 -26.814 -19.520  0.00  0.00    -0.398 OA
ATOM    122  H64 SER d   1     -20.493 -27.231 -19.610  0.00  0.00     0.209 HD
ENDBRANCH 118 121
ENDBRANCH  68 118
BRANCH  37 123
ATOM    123  CB  ASN d   1     -14.417 -26.045 -27.041  0.00  0.00     0.036 C 
ATOM    124  H36 ASN d   1     -14.473 -25.703 -28.085  0.00  0.00     0.051 H 
ATOM    125  H37 ASN d   1     -13.382 -26.333 -26.805  0.00  0.00     0.051 H 
BRANCH 123 126
ATOM    126  CG  ASN d   1     -14.820 -24.911 -26.139  0.00  0.00     0.217 C 
ATOM    127  OD1 ASN d   1     -14.643 -24.962 -24.941  0.00  0.00    -0.274 OA
ATOM    128  ND2 ASN d   1     -15.392 -23.880 -26.725  0.00  0.00    -0.370 N 
ATOM    129  H38 ASN d   1     -15.683 -23.093 -26.180  0.00  0.00     0.159 HD
ATOM    130  H39 ASN d   1     -15.535 -23.883 -27.715  0.00  0.00     0.159 HD
ENDBRANCH 123 126
ENDBRANCH  37 123
BRANCH  25 131
ATOM    131  CB  TYR d   1     -15.344 -31.139 -29.149  0.00  0.00    -0.014 C 
ATOM    132  H27 TYR d   1     -14.789 -31.767 -29.861  0.00  0.00     0.043 H 
ATOM    133  H28 TYR d   1     -15.691 -30.227 -29.657  0.00  0.00     0.043 H 
BRANCH 131 134
ATOM    134  CG  TYR d   1     -16.560 -31.906 -28.733  0.00  0.00    -0.056 A 
ATOM    135  CD1 TYR d   1     -17.496 -31.364 -27.897  0.00  0.00    -0.074 A 
ATOM    136  CE1 TYR d   1     -18.634 -32.062 -27.552  0.00  0.00    -0.051 A 
ATOM    137  H29 TYR d   1     -17.341 -30.368 -27.498  0.00  0.00     0.084 H 
ATOM    138  CZ  TYR d   1     -18.860 -33.309 -28.060  0.00  0.00     0.065 A 
ATOM    139  H31 TYR d   1     -19.353 -31.618 -26.873  0.00  0.00     0.087 H 
ATOM    140  CE2 TYR d   1     -17.952 -33.861 -28.920  0.00  0.00    -0.051 A 
ATOM    141  CD2 TYR d   1     -16.813 -33.155 -29.252  0.00  0.00    -0.074 A 
ATOM    142  H32 TYR d   1     -18.125 -34.846 -29.338  0.00  0.00     0.087 H 
ATOM    143  H30 TYR d   1     -16.100 -33.596 -29.939  0.00  0.00     0.084 H 
BRANCH 138 144
ATOM    144  OH  TYR d   1     -19.991 -34.015 -27.696  0.00  0.00    -0.361 OA
ATOM    145  H33 TYR d   1     -19.734 -34.824 -27.269  0.00  0.00     0.217 HD
ENDBRANCH 138 144
ENDBRANCH 131 134
ENDBRANCH  25 131
BRANCH  81 146
ATOM    146  CB  TRP d   1     -13.294 -28.897 -21.938  0.00  0.00    -0.012 C 
ATOM    147  H70 TRP d   1     -12.971 -29.942 -22.058  0.00  0.00     0.044 H 
ATOM    148  H71 TRP d   1     -13.285 -28.631 -20.871  0.00  0.00     0.044 H 
BRANCH 146 149
ATOM    149  CG  TRP d   1     -12.332 -28.020 -22.651  0.00  0.00    -0.028 A 
ATOM    150  CD1 TRP d   1     -12.636 -26.981 -23.442  0.00  0.00    -0.015 A 
ATOM    151  NE1 TRP d   1     -11.519 -26.417 -23.930  0.00  0.00    -0.365 N 
ATOM    152  H72 TRP d   1     -13.648 -26.642 -23.659  0.00  0.00     0.112 H 
ATOM    153  CE2 TRP d   1     -10.440 -27.092 -23.449  0.00  0.00     0.042 A 
ATOM    154  H73 TRP d   1     -11.485 -25.606 -24.564  0.00  0.00     0.165 HD
ATOM    155  CD2 TRP d   1     -10.919 -28.106 -22.636  0.00  0.00    -0.002 A 
ATOM    156  CZ2 TRP d   1      -9.109 -26.898 -23.670  0.00  0.00    -0.056 A 
ATOM    157  CE3 TRP d   1     -10.014 -28.956 -22.030  0.00  0.00    -0.070 A 
ATOM    158  CZ3 TRP d   1      -8.701 -28.759 -22.237  0.00  0.00    -0.082 A 
ATOM    159  H74 TRP d   1     -10.357 -29.768 -21.399  0.00  0.00     0.084 H 
ATOM    160  CH2 TRP d   1      -8.251 -27.746 -23.052  0.00  0.00    -0.081 A 
ATOM    161  H76 TRP d   1      -7.983 -29.411 -21.753  0.00  0.00     0.083 H 
ATOM    162  H77 TRP d   1      -7.185 -27.623 -23.203  0.00  0.00     0.083 H 
ATOM    163  H75 TRP d   1      -8.752 -26.101 -24.312  0.00  0.00     0.086 H 
ENDBRANCH 146 149
ENDBRANCH  81 146
BRANCH  19 164
ATOM    164  CB  VAL d   1     -11.477 -32.829 -25.337  0.00  0.00    -0.033 C 
ATOM    165  H18 VAL d   1     -10.932 -33.620 -24.801  0.00  0.00     0.042 H 
BRANCH 164 166
ATOM    166  CG1 VAL d   1     -10.446 -31.899 -25.934  0.00  0.00    -0.071 C 
ATOM    167  H19 VAL d   1      -9.869 -31.424 -25.127  0.00  0.00     0.028 H 
ATOM    168  H20 VAL d   1     -10.952 -31.124 -26.528  0.00  0.00     0.028 H 
ATOM    169  H21 VAL d   1      -9.767 -32.472 -26.582  0.00  0.00     0.028 H 
ENDBRANCH 164 166
BRANCH 164 170
ATOM    170  CG2 VAL d   1     -12.341 -32.119 -24.320  0.00  0.00    -0.071 C 
ATOM    171  H22 VAL d   1     -13.077 -32.825 -23.908  0.00  0.00     0.028 H 
ATOM    172  H23 VAL d   1     -12.866 -31.283 -24.805  0.00  0.00     0.028 H 
ATOM    173  H24 VAL d   1     -11.708 -31.733 -23.507  0.00  0.00     0.028 H 
ENDBRANCH 164 170
ENDBRANCH  19 164
BRANCH  60 174
ATOM    174  CB  ARG d   1     -18.055 -31.786 -23.968  0.00  0.00    -0.036 C 
ATOM    175  H80 ARG d   1     -17.774 -31.732 -25.030  0.00  0.00     0.036 H 
ATOM    176  H81 ARG d   1     -18.588 -30.867 -23.682  0.00  0.00     0.036 H 
BRANCH 174 177
ATOM    177  CG  ARG d   1     -18.990 -32.968 -23.774  0.00  0.00    -0.048 C 
ATOM    178  H82 ARG d   1     -19.390 -32.921 -22.750  0.00  0.00     0.035 H 
ATOM    179  H83 ARG d   1     -18.402 -33.890 -23.896  0.00  0.00     0.035 H 
BRANCH 177 180
ATOM    180  CD  ARG d   1     -20.164 -33.030 -24.734  0.00  0.00     0.009 C 
ATOM    181  H84 ARG d   1     -20.720 -33.960 -24.547  0.00  0.00     0.064 H 
ATOM    182  H85 ARG d   1     -19.775 -33.035 -25.763  0.00  0.00     0.064 H 
BRANCH 180 183
ATOM    183  NE  ARG d   1     -21.075 -31.911 -24.591  0.00  0.00    -0.227 N 
ATOM    184  CZ  ARG d   1     -21.720 -31.320 -25.591  0.00  0.00     0.665 C 
ATOM    185  NH1 ARG d   1     -21.554 -31.705 -26.841  0.00  0.00    -0.235 N 
ATOM    186  H87 ARG d   1     -22.066 -31.230 -27.598  0.00  0.00     0.174 HD
ATOM    187  H88 ARG d   1     -20.912 -32.480 -27.060  0.00  0.00     0.174 HD
ATOM    188  H86 ARG d   1     -21.234 -31.546 -23.641  0.00  0.00     0.177 HD
BRANCH 184 189
ATOM    189  NH2 ARG d   1     -22.530 -30.322 -25.337  0.00  0.00    -0.235 N 
ATOM    190  H89 ARG d   1     -22.672 -30.008 -24.366  0.00  0.00     0.174 HD
ATOM    191  H90 ARG d   1     -23.025 -29.852 -26.108  0.00  0.00     0.174 HD
ENDBRANCH 184 189
ENDBRANCH 180 183
ENDBRANCH 177 180
ENDBRANCH 174 177
ENDBRANCH  60 174
BRANCH  13 192
ATOM    192  CB  DTY d   1      -9.394 -37.023 -26.547  0.00  0.00    -0.014 C 
ATOM    193  H9  DTY d   1      -8.818 -37.795 -27.078  0.00  0.00     0.043 H 
ATOM    194  H10 DTY d   1      -9.505 -37.310 -25.491  0.00  0.00     0.043 H 
BRANCH 192 195
ATOM    195  CG  DTY d   1      -8.611 -35.717 -26.607  0.00  0.00    -0.056 A 
ATOM    196  CD1 DTY d   1      -7.887 -35.284 -27.712  0.00  0.00    -0.074 A 
ATOM    197  CE1 DTY d   1      -7.228 -34.049 -27.661  0.00  0.00    -0.051 A 
ATOM    198  H11 DTY d   1      -7.833 -35.896 -28.605  0.00  0.00     0.084 H 
ATOM    199  CZ  DTY d   1      -7.298 -33.232 -26.528  0.00  0.00     0.065 A 
ATOM    200  H13 DTY d   1      -6.652 -33.719 -28.518  0.00  0.00     0.087 H 
ATOM    201  CE2 DTY d   1      -8.031 -33.665 -25.434  0.00  0.00    -0.051 A 
ATOM    202  CD2 DTY d   1      -8.685 -34.891 -25.487  0.00  0.00    -0.074 A 
ATOM    203  H14 DTY d   1      -8.094 -33.051 -24.543  0.00  0.00     0.087 H 
ATOM    204  H12 DTY d   1      -9.269 -35.214 -24.633  0.00  0.00     0.084 H 
BRANCH 199 205
ATOM    205  OH  DTY d   1      -6.648 -32.037 -26.492  0.00  0.00    -0.361 OA
ATOM    206  H15 DTY d   1      -6.199 -31.897 -27.317  0.00  0.00     0.217 HD
ENDBRANCH 199 205
ENDBRANCH 192 195
ENDBRANCH  13 192
BRANCH  85 207
ATOM    207  CB  TRP d   1     -14.166 -35.701 -22.040  0.00  0.00    -0.012 C 
ATOM    208  H93 TRP d   1     -13.457 -36.461 -22.401  0.00  0.00     0.044 H 
ATOM    209  H94 TRP d   1     -14.847 -36.155 -21.305  0.00  0.00     0.044 H 
BRANCH 207 210
ATOM    210  CG  TRP d   1     -13.402 -34.634 -21.369  0.00  0.00    -0.028 A 
ATOM    211  CD1 TRP d   1     -13.865 -33.759 -20.446  0.00  0.00    -0.015 A 
ATOM    212  NE1 TRP d   1     -12.879 -32.921 -20.051  0.00  0.00    -0.365 N 
ATOM    213  H95 TRP d   1     -14.888 -33.733 -20.073  0.00  0.00     0.112 H 
ATOM    214  CE2 TRP d   1     -11.736 -33.252 -20.720  0.00  0.00     0.042 A 
ATOM    215  H96 TRP d   1     -12.975 -32.161 -19.362  0.00  0.00     0.165 HD
ATOM    216  CD2 TRP d   1     -12.036 -34.318 -21.553  0.00  0.00    -0.002 A 
ATOM    217  CZ2 TRP d   1     -10.481 -32.692 -20.662  0.00  0.00    -0.056 A 
ATOM    218  CE3 TRP d   1     -11.037 -34.848 -22.356  0.00  0.00    -0.070 A 
ATOM    219  CZ3 TRP d   1      -9.804 -34.299 -22.290  0.00  0.00    -0.082 A 
ATOM    220  H97 TRP d   1     -11.240 -35.681 -23.019  0.00  0.00     0.084 H 
ATOM    221  CH2 TRP d   1      -9.529 -33.237 -21.458  0.00  0.00    -0.081 A 
ATOM    222  H99 TRP d   1      -9.011 -34.705 -22.908  0.00  0.00     0.083 H 
ATOM    223 0H10 TRP d   1      -8.526 -32.827 -21.439  0.00  0.00     0.083 H 
ATOM    224  H98 TRP d   1     -10.264 -31.854 -20.010  0.00  0.00     0.086 H 
ENDBRANCH 207 210
ENDBRANCH  85 207
BRANCH  29 225
ATOM    225  CB  TYR d   1     -16.986 -37.431 -26.902  0.00  0.00    -0.014 C 
ATOM    226 3H10 TYR d   1     -17.674 -36.580 -26.789  0.00  0.00     0.043 H 
ATOM    227 4H10 TYR d   1     -17.543 -38.307 -27.264  0.00  0.00     0.043 H 
BRANCH 225 228
ATOM    228  CG  TYR d   1     -15.977 -37.069 -27.939  0.00  0.00    -0.056 A 
ATOM    229  CD1 TYR d   1     -15.235 -35.922 -27.835  0.00  0.00    -0.074 A 
ATOM    230  CE1 TYR d   1     -14.320 -35.576 -28.794  0.00  0.00    -0.051 A 
ATOM    231 5H10 TYR d   1     -15.375 -35.275 -26.977  0.00  0.00     0.084 H 
ATOM    232  CZ  TYR d   1     -14.143 -36.377 -29.886  0.00  0.00     0.065 A 
ATOM    233 7H10 TYR d   1     -13.738 -34.668 -28.686  0.00  0.00     0.087 H 
ATOM    234  CE2 TYR d   1     -14.878 -37.524 -30.019  0.00  0.00    -0.051 A 
ATOM    235  CD2 TYR d   1     -15.792 -37.851 -29.055  0.00  0.00    -0.074 A 
ATOM    236 8H10 TYR d   1     -14.737 -38.167 -30.880  0.00  0.00     0.087 H 
ATOM    237 6H10 TYR d   1     -16.386 -38.750 -29.174  0.00  0.00     0.084 H 
BRANCH 232 238
ATOM    238  OH  TYR d   1     -13.232 -36.040 -30.842  0.00  0.00    -0.361 OA
ATOM    239 9H10 TYR d   1     -12.579 -36.727 -30.912  0.00  0.00     0.217 HD
ENDBRANCH 232 238
ENDBRANCH 225 228
ENDBRANCH  29 225
BRANCH   3 240
ATOM    240  C03 48V d   1     -16.511 -42.594 -28.665  0.00  0.00     0.271 C 
ATOM    241  O04 48V d   1     -16.521 -43.816 -28.974  0.00  0.00    -0.269 OA
ATOM    242  N05 48V d   1     -17.641 -41.945 -28.405  0.00  0.00    -0.366 N 
ATOM    243  H1  48V d   1     -18.521 -42.401 -28.536  0.00  0.00     0.159 HD
ATOM    244  H2  48V d   1     -17.611 -41.000 -28.078  0.00  0.00     0.159 HD
ENDBRANCH   3 240
BRANCH  47 245
ATOM    245  CB  THR d   1     -14.819 -41.783 -23.301  0.00  0.00     0.059 C 
ATOM    246 2H11 THR d   1     -14.390 -42.782 -23.470  0.00  0.00     0.086 H 
BRANCH 245 247
ATOM    247  OG1 THR d   1     -16.144 -41.953 -22.783  0.00  0.00    -0.393 OA
ATOM    248 3H11 THR d   1     -16.101 -42.406 -21.949  0.00  0.00     0.210 HD
ENDBRANCH 245 247
BRANCH 245 249
ATOM    249  CG2 THR d   1     -13.968 -41.088 -22.294  0.00  0.00    -0.050 C 
ATOM    250 4H11 THR d   1     -13.989 -41.648 -21.347  0.00  0.00     0.031 H 
ATOM    251 5H11 THR d   1     -14.353 -40.071 -22.127  0.00  0.00     0.031 H 
ATOM    252 6H11 THR d   1     -12.934 -41.032 -22.664  0.00  0.00     0.031 H 
ENDBRANCH 245 249
ENDBRANCH  47 245
TORSDOF 36
