REMARK WARNING: 32 MAX_TORS EXCEEDED!!!
REMARK  40 active torsions:
REMARK  status: ('A' for Active; 'I' for Inactive)
REMARK    1  A    between atoms: C02_3  and  C03_4 
REMARK       I    between atoms: C03_4  and  N05_6 
REMARK    2  A    between atoms: CA_12  and  CB_15 
REMARK    3  A    between atoms: CB_15  and  CG_16 
REMARK    4  A    between atoms: CZ_21  and  OH_22 
REMARK    5  A    between atoms: CA_24  and  CB_27 
REMARK    6  A    between atoms: CB_27  and  CG1_28 
REMARK    7  A    between atoms: CB_27  and  CG2_29 
REMARK    8  A    between atoms: CA_31  and  CB_34 
REMARK    9  A    between atoms: CB_34  and  CG_35 
REMARK   10  A    between atoms: CZ_40  and  OH_41 
REMARK   11  A    between atoms: CA_43  and  CB_46 
REMARK   12  A    between atoms: CB_46  and  CG_47 
REMARK       I    between atoms: CG_47  and  ND2_49 
REMARK   13  A    between atoms: CA_51  and  CB_54 
REMARK   14  A    between atoms: CB_54  and  OG1_55 
REMARK   15  A    between atoms: CB_54  and  CG2_56 
REMARK   16  A    between atoms: CA_58  and  CB_59 
REMARK   17  A    between atoms: CB_59  and  CG_60 
REMARK   18  A    between atoms: CG_60  and  CD_61 
REMARK   19  A    between atoms: CD_61  and  CE_62 
REMARK   20  A    between atoms: CE_62  and  NZ_63 
REMARK   21  A    between atoms: NZ_63  and  CM1_66 
REMARK   22  A    between atoms: NZ_63  and  CM2_67 
REMARK   23  A    between atoms: NZ_63  and  CM3_68 
REMARK   24  A    between atoms: CA_70  and  CB_73 
REMARK   25  A    between atoms: CB_73  and  OG_74 
REMARK   26  A    between atoms: CA_80  and  CB_83 
REMARK   27  A    between atoms: CB_83  and  CG_84 
REMARK   28  A    between atoms: CA_94  and  CB_97 
REMARK   29  A    between atoms: CB_97  and  CG_98 
REMARK   30  A    between atoms: CG_98  and  CD_99 
REMARK   31  A    between atoms: CD_99  and  NE_100 
REMARK       I    between atoms: NE_100  and  CZ_101 
REMARK       I    between atoms: CZ_101  and  NH1_102 
REMARK   32  A    between atoms: CZ_101  and  NH2_103 
REMARK   33  A    between atoms: CA_105  and  CB_108 
REMARK   34  A    between atoms: CB_108  and  CG_109 
REMARK   35  A    between atoms: CA_119  and  CB_122 
REMARK   36  A    between atoms: CB_122  and  CG_123 
REMARK   37  A    between atoms: CZ_128  and  OH_129 
REMARK   38  A    between atoms: CA_131  and  CB_134 
REMARK   39  A    between atoms: CB_134  and  OG1_135 
REMARK   40  A    between atoms: CB_134  and  CG2_136 
ROOT
ATOM      1  O10 48V d   1     -37.945   0.710 -40.993  0.00  0.00    -0.273 OA
ATOM      2  N01 48V d   1     -34.878  -3.329 -41.724  0.00  0.00    -0.076 NA
ATOM      3  C02 48V d   1     -34.920  -3.759 -40.428  0.00  0.00     0.256 A 
ATOM      4  C06 48V d   1     -34.992  -2.534 -39.479  0.00  0.00     0.032 C 
ATOM      5  S07 48V d   1     -36.448  -1.600 -39.699  0.00  0.00    -0.155 SA
ATOM      6  C08 48V d   1     -35.839  -0.518 -40.936  0.00  0.00     0.051 C 
ATOM      7  C09 48V d   1     -36.927   0.400 -41.596  0.00  0.00     0.227 C 
ATOM      8  H3  48V d   1     -34.125  -1.886 -39.674  0.00  0.00     0.056 H 
ATOM      9  H4  48V d   1     -34.956  -2.891 -38.439  0.00  0.00     0.056 H 
ATOM     10  H5  48V d   1     -35.378  -1.127 -41.728  0.00  0.00     0.063 H 
ATOM     11  H6  48V d   1     -35.075   0.129 -40.480  0.00  0.00     0.063 H 
ATOM     12  N   DTY d   1     -36.579   0.845 -43.038  0.00  0.00    -0.347 N 
ATOM     13  CA  DTY d   1     -37.357   2.069 -43.107  0.00  0.00     0.093 C 
ATOM     14  C   DTY d   1     -36.663   3.101 -43.993  0.00  0.00     0.241 C 
ATOM     15  O   DTY d   1     -35.948   2.703 -44.928  0.00  0.00    -0.271 OA
ATOM     16  H7  DTY d   1     -35.990   0.415 -43.722  0.00  0.00     0.163 HD
ATOM     17  H8  DTY d   1     -37.476   2.502 -42.103  0.00  0.00     0.088 H 
ATOM     18  N   VAL d   1     -36.811   4.403 -43.744  0.00  0.00    -0.346 N 
ATOM     19  CA  VAL d   1     -36.111   5.371 -44.565  0.00  0.00     0.092 C 
ATOM     20  C   VAL d   1     -35.445   6.419 -43.719  0.00  0.00     0.241 C 
ATOM     21  O   VAL d   1     -35.968   6.808 -42.737  0.00  0.00    -0.271 OA
ATOM     22  H16 VAL d   1     -37.401   4.709 -42.996  0.00  0.00     0.163 HD
ATOM     23  H17 VAL d   1     -35.317   4.830 -45.101  0.00  0.00     0.088 H 
ATOM     24  N   TYR d   1     -34.267   6.856 -44.102  0.00  0.00    -0.346 N 
ATOM     25  CA  TYR d   1     -33.506   7.848 -43.372  0.00  0.00     0.093 C 
ATOM     26  C   TYR d   1     -33.102   8.926 -44.362  0.00  0.00     0.241 C 
ATOM     27  O   TYR d   1     -32.445   8.623 -45.330  0.00  0.00    -0.271 OA
ATOM     28  N   TYR d   1     -32.980   1.604 -45.620  0.00  0.00    -0.346 N 
ATOM     29  CA  TYR d   1     -32.356   0.605 -44.818  0.00  0.00     0.093 C 
ATOM     30  C   TYR d   1     -33.385  -0.374 -44.381  0.00  0.00     0.241 C 
ATOM     31  O   TYR d   1     -34.497  -0.068 -44.162  0.00  0.00    -0.271 OA
ATOM     32  H25 TYR d   1     -33.875   6.484 -44.943  0.00  0.00     0.163 HD
ATOM     33  H26 TYR d   1     -34.090   8.281 -42.547  0.00  0.00     0.088 H 
ATOM     34 7H10 TYR d   1     -33.728   2.135 -45.221  0.00  0.00     0.163 HD
ATOM     35 8H10 TYR d   1     -31.603   0.081 -45.425  0.00  0.00     0.088 H 
ATOM     36  N   ASN d   1     -33.448  10.189 -44.119  0.00  0.00    -0.346 N 
ATOM     37  CA  ASN d   1     -33.094  11.226 -45.093  0.00  0.00     0.097 C 
ATOM     38  C   ASN d   1     -31.811  12.030 -44.921  0.00  0.00     0.241 C 
ATOM     39  O   ASN d   1     -31.789  13.054 -44.286  0.00  0.00    -0.271 OA
ATOM     40  H34 ASN d   1     -33.943  10.427 -43.283  0.00  0.00     0.163 HD
ATOM     41  H35 ASN d   1     -32.873  10.631 -45.992  0.00  0.00     0.088 H 
ATOM     42  N   THR d   1     -30.776  11.532 -45.603  0.00  0.00    -0.344 N 
ATOM     43  CA  THR d   1     -29.434  12.114 -45.692  0.00  0.00     0.113 C 
ATOM     44  C   THR d   1     -29.333  13.200 -46.780  0.00  0.00     0.243 C 
ATOM     45  O   THR d   1     -30.251  13.372 -47.583  0.00  0.00    -0.271 OA
ATOM     46  N   THR d   1     -32.988  -1.597 -44.299  0.00  0.00    -0.344 N 
ATOM     47  CA  THR d   1     -33.865  -2.701 -43.906  0.00  0.00     0.111 C 
ATOM     48  C   THR d   1     -33.693  -3.129 -42.444  0.00  0.00     0.251 C 
ATOM     49  O   THR d   1     -32.605  -3.416 -41.997  0.00  0.00    -0.275 OA
ATOM     50  OXT THR d   1     -34.640  -3.193 -41.692  0.00  0.00    -0.252 OA
ATOM     51  H40 THR d   1     -30.932  10.679 -46.101  0.00  0.00     0.163 HD
ATOM     52  H41 THR d   1     -29.212  12.583 -44.722  0.00  0.00     0.091 H 
ATOM     53 6H11 THR d   1     -32.033  -1.802 -44.515  0.00  0.00     0.163 HD
ATOM     54 7H11 THR d   1     -34.903  -2.361 -44.041  0.00  0.00     0.090 H 
ATOM     55  N   M3L d   1     -28.214  13.923 -46.793  0.00  0.00    -0.346 N 
ATOM     56  CA  M3L d   1     -27.961  15.013 -47.741  0.00  0.00     0.089 C 
ATOM     57  C   M3L d   1     -27.932  14.627 -49.185  0.00  0.00     0.241 C 
ATOM     58  O   M3L d   1     -27.989  15.518 -50.060  0.00  0.00    -0.271 OA
ATOM     59  H47 M3L d   1     -27.507  13.710 -46.118  0.00  0.00     0.163 HD
ATOM     60  H48 M3L d   1     -28.775  15.741 -47.609  0.00  0.00     0.087 H 
ATOM     61  N   SER d   1     -27.827  13.325 -49.431  0.00  0.00    -0.344 N 
ATOM     62  CA  SER d   1     -27.827  12.666 -50.723  0.00  0.00     0.109 C 
ATOM     63  C   SER d   1     -29.197  12.071 -50.993  0.00  0.00     0.242 C 
ATOM     64  O   SER d   1     -29.374  11.368 -51.965  0.00  0.00    -0.271 OA
ATOM     65  H66 SER d   1     -27.738  12.730 -48.632  0.00  0.00     0.163 HD
ATOM     66  H67 SER d   1     -27.590  13.409 -51.499  0.00  0.00     0.090 H 
ATOM     67  N   GLY d   1     -30.139  12.277 -50.083  0.00  0.00    -0.350 N 
ATOM     68  CA  GLY d   1     -31.482  11.821 -50.277  0.00  0.00     0.069 C 
ATOM     69  C   GLY d   1     -31.966  10.754 -49.375  0.00  0.00     0.236 C 
ATOM     70  O   GLY d   1     -31.389  10.447 -48.381  0.00  0.00    -0.272 OA
ATOM     71  H71 GLY d   1     -29.906  12.763 -49.241  0.00  0.00     0.163 HD
ATOM     72  H72 GLY d   1     -31.559  11.444 -51.308  0.00  0.00     0.078 H 
ATOM     73  H73 GLY d   1     -32.148  12.688 -50.153  0.00  0.00     0.078 H 
ATOM     74  N   TRP d   1     -33.092  10.218 -49.746  0.00  0.00    -0.346 N 
ATOM     75  CA  TRP d   1     -33.686   9.184 -48.991  0.00  0.00     0.093 C 
ATOM     76  C   TRP d   1     -32.817   7.970 -49.101  0.00  0.00     0.241 C 
ATOM     77  O   TRP d   1     -32.490   7.550 -50.183  0.00  0.00    -0.271 OA
ATOM     78  N   TRP d   1     -32.554   4.006 -47.973  0.00  0.00    -0.346 N 
ATOM     79  CA  TRP d   1     -33.424   2.950 -47.515  0.00  0.00     0.093 C 
ATOM     80  C   TRP d   1     -32.623   1.861 -46.853  0.00  0.00     0.241 C 
ATOM     81  O   TRP d   1     -31.740   1.279 -47.424  0.00  0.00    -0.271 OA
ATOM     82  H74 TRP d   1     -33.543  10.543 -50.577  0.00  0.00     0.163 HD
ATOM     83  H75 TRP d   1     -33.751   9.480 -47.934  0.00  0.00     0.088 H 
ATOM     84  H97 TRP d   1     -31.987   3.869 -48.785  0.00  0.00     0.163 HD
ATOM     85  H98 TRP d   1     -34.099   3.379 -46.760  0.00  0.00     0.088 H 
ATOM     86  N   ARG d   1     -32.461   7.408 -47.949  0.00  0.00    -0.346 N 
ATOM     87  CA  ARG d   1     -31.626   6.214 -47.870  0.00  0.00     0.089 C 
ATOM     88  C   ARG d   1     -32.505   5.150 -47.323  0.00  0.00     0.241 C 
ATOM     89  O   ARG d   1     -33.134   5.357 -46.332  0.00  0.00    -0.271 OA
ATOM     90  H84 ARG d   1     -32.781   7.823 -47.097  0.00  0.00     0.163 HD
ATOM     91  H85 ARG d   1     -31.275   5.941 -48.876  0.00  0.00     0.087 H 
ENDROOT
BRANCH  56  92
ATOM     92  CB  M3L d   1     -26.642  15.709 -47.449  0.00  0.00    -0.038 C 
ATOM     93  H49 M3L d   1     -25.873  15.326 -48.136  0.00  0.00     0.036 H 
ATOM     94  H50 M3L d   1     -26.345  15.497 -46.411  0.00  0.00     0.036 H 
BRANCH  92  95
ATOM     95  CG  M3L d   1     -26.769  17.210 -47.632  0.00  0.00    -0.061 C 
ATOM     96  H51 M3L d   1     -27.236  17.623 -46.726  0.00  0.00     0.033 H 
ATOM     97  H52 M3L d   1     -27.424  17.391 -48.497  0.00  0.00     0.033 H 
BRANCH  95  98
ATOM     98  CD  M3L d   1     -25.463  17.957 -47.868  0.00  0.00    -0.042 C 
ATOM     99  H53 M3L d   1     -24.683  17.524 -47.225  0.00  0.00     0.035 H 
ATOM    100  H54 M3L d   1     -25.606  19.016 -47.608  0.00  0.00     0.035 H 
BRANCH  98 101
ATOM    101  CE  M3L d   1     -25.020  17.862 -49.303  0.00  0.00     0.084 C 
ATOM    102  H55 M3L d   1     -25.773  18.376 -49.919  0.00  0.00     0.076 H 
ATOM    103  H56 M3L d   1     -24.991  16.796 -49.573  0.00  0.00     0.076 H 
BRANCH 101 104
ATOM    104  NZ  M3L d   1     -23.713  18.437 -49.630  0.00  0.00    -0.079 N 
BRANCH 104 105
ATOM    105  CM1 M3L d   1     -23.686  19.882 -49.524  0.00  0.00     0.067 C 
ATOM    106  H57 M3L d   1     -22.682  20.250 -49.781  0.00  0.00     0.068 H 
ATOM    107  H58 M3L d   1     -23.933  20.179 -48.494  0.00  0.00     0.068 H 
ATOM    108  H59 M3L d   1     -24.423  20.314 -50.217  0.00  0.00     0.068 H 
ENDBRANCH 104 105
BRANCH 104 109
ATOM    109  CM2 M3L d   1     -23.410  18.043 -50.996  0.00  0.00     0.067 C 
ATOM    110  H60 M3L d   1     -23.431  16.946 -51.074  0.00  0.00     0.068 H 
ATOM    111  H61 M3L d   1     -22.410  18.411 -51.271  0.00  0.00     0.068 H 
ATOM    112  H62 M3L d   1     -24.159  18.474 -51.677  0.00  0.00     0.068 H 
ENDBRANCH 104 109
BRANCH 104 113
ATOM    113  CM3 M3L d   1     -22.708  17.909 -48.744  0.00  0.00     0.067 C 
ATOM    114  H63 M3L d   1     -22.937  18.207 -47.710  0.00  0.00     0.068 H 
ATOM    115  H64 M3L d   1     -21.722  18.305 -49.030  0.00  0.00     0.068 H 
ATOM    116  H65 M3L d   1     -22.697  16.811 -48.815  0.00  0.00     0.068 H 
ENDBRANCH 104 113
ENDBRANCH 101 104
ENDBRANCH  98 101
ENDBRANCH  95  98
ENDBRANCH  92  95
ENDBRANCH  56  92
BRANCH  43 117
ATOM    117  CB  THR d   1     -28.368  11.035 -45.959  0.00  0.00     0.060 C 
ATOM    118  H42 THR d   1     -27.380  11.514 -46.019  0.00  0.00     0.086 H 
BRANCH 117 119
ATOM    119  OG1 THR d   1     -28.651  10.376 -47.200  0.00  0.00    -0.393 OA
ATOM    120  H43 THR d   1     -29.508   9.969 -47.153  0.00  0.00     0.210 HD
ENDBRANCH 117 119
BRANCH 117 121
ATOM    121  CG2 THR d   1     -28.356  10.009 -44.836  0.00  0.00    -0.050 C 
ATOM    122  H44 THR d   1     -27.590   9.247 -45.043  0.00  0.00     0.031 H 
ATOM    123  H45 THR d   1     -29.343   9.527 -44.769  0.00  0.00     0.031 H 
ATOM    124  H46 THR d   1     -28.127  10.510 -43.884  0.00  0.00     0.031 H 
ENDBRANCH 117 121
ENDBRANCH  43 117
BRANCH  62 125
ATOM    125  CB  SER d   1     -26.812  11.552 -50.782  0.00  0.00     0.044 C 
ATOM    126  H68 SER d   1     -26.948  10.990 -51.718  0.00  0.00     0.077 H 
ATOM    127  H69 SER d   1     -26.965  10.880 -49.925  0.00  0.00     0.077 H 
BRANCH 125 128
ATOM    128  OG  SER d   1     -25.516  12.058 -50.739  0.00  0.00    -0.398 OA
ATOM    129  H70 SER d   1     -25.393  12.542 -49.931  0.00  0.00     0.209 HD
ENDBRANCH 125 128
ENDBRANCH  62 125
BRANCH  37 130
ATOM    130  CB  ASN d   1     -34.308  12.094 -45.525  0.00  0.00     0.036 C 
ATOM    131  H36 ASN d   1     -35.163  11.424 -45.697  0.00  0.00     0.051 H 
ATOM    132  H37 ASN d   1     -34.047  12.604 -46.464  0.00  0.00     0.051 H 
BRANCH 130 133
ATOM    133  CG  ASN d   1     -34.727  13.139 -44.527  0.00  0.00     0.217 C 
ATOM    134  OD1 ASN d   1     -34.249  13.157 -43.425  0.00  0.00    -0.274 OA
ATOM    135  ND2 ASN d   1     -35.641  14.004 -44.921  0.00  0.00    -0.370 N 
ATOM    136  H38 ASN d   1     -35.955  14.719 -44.296  0.00  0.00     0.159 HD
ATOM    137  H39 ASN d   1     -36.020  13.945 -45.844  0.00  0.00     0.159 HD
ENDBRANCH 130 133
ENDBRANCH  37 130
BRANCH  25 138
ATOM    138  CB  TYR d   1     -32.289   7.117 -42.848  0.00  0.00    -0.014 C 
ATOM    139  H27 TYR d   1     -31.699   6.804 -43.722  0.00  0.00     0.043 H 
ATOM    140  H28 TYR d   1     -32.652   6.227 -42.313  0.00  0.00     0.043 H 
BRANCH 138 141
ATOM    141  CG  TYR d   1     -31.358   7.836 -41.924  0.00  0.00    -0.056 A 
ATOM    142  CD1 TYR d   1     -30.340   8.598 -42.411  0.00  0.00    -0.074 A 
ATOM    143  CE1 TYR d   1     -29.472   9.231 -41.574  0.00  0.00    -0.051 A 
ATOM    144  H29 TYR d   1     -30.218   8.703 -43.483  0.00  0.00     0.084 H 
ATOM    145  CZ  TYR d   1     -29.597   9.078 -40.231  0.00  0.00     0.065 A 
ATOM    146  H31 TYR d   1     -28.684   9.855 -41.979  0.00  0.00     0.087 H 
ATOM    147  CE2 TYR d   1     -30.593   8.313 -39.719  0.00  0.00    -0.051 A 
ATOM    148  CD2 TYR d   1     -31.461   7.685 -40.570  0.00  0.00    -0.074 A 
ATOM    149  H32 TYR d   1     -30.700   8.200 -38.646  0.00  0.00     0.087 H 
ATOM    150  H30 TYR d   1     -32.245   7.056 -40.163  0.00  0.00     0.084 H 
BRANCH 145 151
ATOM    151  OH  TYR d   1     -28.731   9.704 -39.401  0.00  0.00    -0.361 OA
ATOM    152  H33 TYR d   1     -28.100  10.194 -39.915  0.00  0.00     0.217 HD
ENDBRANCH 145 151
ENDBRANCH 138 141
ENDBRANCH  25 138
BRANCH  75 153
ATOM    153  CB  TRP d   1     -35.086   8.968 -49.527  0.00  0.00    -0.012 C 
ATOM    154  H76 TRP d   1     -35.462   7.992 -49.187  0.00  0.00     0.044 H 
ATOM    155  H77 TRP d   1     -35.065   8.989 -50.627  0.00  0.00     0.044 H 
BRANCH 153 156
ATOM    156  CG  TRP d   1     -35.974  10.035 -49.033  0.00  0.00    -0.028 A 
ATOM    157  CD1 TRP d   1     -35.590  11.190 -48.511  0.00  0.00    -0.015 A 
ATOM    158  NE1 TRP d   1     -36.646  11.935 -48.153  0.00  0.00    -0.365 N 
ATOM    159  H78 TRP d   1     -34.552  11.495 -48.388  0.00  0.00     0.112 H 
ATOM    160  CE2 TRP d   1     -37.780  11.261 -48.467  0.00  0.00     0.042 A 
ATOM    161  H79 TRP d   1     -36.603  12.865 -47.712  0.00  0.00     0.165 HD
ATOM    162  CD2 TRP d   1     -37.396  10.062 -49.042  0.00  0.00    -0.002 A 
ATOM    163  CZ2 TRP d   1     -39.082  11.616 -48.334  0.00  0.00    -0.056 A 
ATOM    164  CE3 TRP d   1     -38.371   9.185 -49.474  0.00  0.00    -0.070 A 
ATOM    165  CZ3 TRP d   1     -39.663   9.528 -49.321  0.00  0.00    -0.082 A 
ATOM    166  H80 TRP d   1     -38.101   8.238 -49.928  0.00  0.00     0.084 H 
ATOM    167  CH2 TRP d   1     -40.015  10.726 -48.759  0.00  0.00    -0.081 A 
ATOM    168  H82 TRP d   1     -40.438   8.845 -49.648  0.00  0.00     0.083 H 
ATOM    169  H83 TRP d   1     -41.066  10.970 -48.651  0.00  0.00     0.083 H 
ATOM    170  H81 TRP d   1     -39.366  12.571 -47.906  0.00  0.00     0.086 H 
ENDBRANCH 153 156
ENDBRANCH  75 153
BRANCH  19 171
ATOM    171  CB  VAL d   1     -37.025   5.998 -45.625  0.00  0.00    -0.033 C 
ATOM    172  H18 VAL d   1     -37.651   5.201 -46.052  0.00  0.00     0.042 H 
BRANCH 171 173
ATOM    173  CG1 VAL d   1     -37.937   7.045 -45.031  0.00  0.00    -0.071 C 
ATOM    174  H19 VAL d   1     -38.574   7.468 -45.822  0.00  0.00     0.028 H 
ATOM    175  H20 VAL d   1     -37.332   7.845 -44.580  0.00  0.00     0.028 H 
ATOM    176  H21 VAL d   1     -38.570   6.584 -44.258  0.00  0.00     0.028 H 
ENDBRANCH 171 173
BRANCH 171 177
ATOM    177  CG2 VAL d   1     -36.201   6.600 -46.729  0.00  0.00    -0.071 C 
ATOM    178  H22 VAL d   1     -35.541   5.830 -47.155  0.00  0.00     0.028 H 
ATOM    179  H23 VAL d   1     -35.593   7.423 -46.326  0.00  0.00     0.028 H 
ATOM    180  H24 VAL d   1     -36.867   6.987 -47.514  0.00  0.00     0.028 H 
ENDBRANCH 171 177
ENDBRANCH  19 171
BRANCH  87 181
ATOM    181  CB  ARG d   1     -30.425   6.388 -46.962  0.00  0.00    -0.036 C 
ATOM    182  H86 ARG d   1     -30.780   6.571 -45.937  0.00  0.00     0.036 H 
ATOM    183  H87 ARG d   1     -29.842   7.254 -47.308  0.00  0.00     0.036 H 
BRANCH 181 184
ATOM    184  CG  ARG d   1     -29.525   5.163 -46.957  0.00  0.00    -0.048 C 
ATOM    185  H88 ARG d   1     -28.930   5.168 -47.882  0.00  0.00     0.035 H 
ATOM    186  H89 ARG d   1     -30.162   4.267 -46.935  0.00  0.00     0.035 H 
BRANCH 184 187
ATOM    187  CD  ARG d   1     -28.582   5.099 -45.791  0.00  0.00     0.009 C 
ATOM    188  H90 ARG d   1     -28.227   4.063 -45.683  0.00  0.00     0.064 H 
ATOM    189  H91 ARG d   1     -29.126   5.397 -44.883  0.00  0.00     0.064 H 
BRANCH 187 190
ATOM    190  NE  ARG d   1     -27.445   5.958 -45.945  0.00  0.00    -0.227 N 
ATOM    191  CZ  ARG d   1     -26.841   6.577 -44.948  0.00  0.00     0.665 C 
ATOM    192  NH1 ARG d   1     -25.805   7.335 -45.182  0.00  0.00    -0.235 N 
ATOM    193  H93 ARG d   1     -25.334   7.818 -44.404  0.00  0.00     0.174 HD
ATOM    194  H94 ARG d   1     -25.458   7.450 -46.145  0.00  0.00     0.174 HD
ATOM    195  H92 ARG d   1     -27.075   6.102 -46.896  0.00  0.00     0.177 HD
BRANCH 191 196
ATOM    196  NH2 ARG d   1     -27.268   6.420 -43.725  0.00  0.00    -0.235 N 
ATOM    197  H95 ARG d   1     -28.086   5.822 -43.538  0.00  0.00     0.174 HD
ATOM    198  H96 ARG d   1     -26.788   6.894 -42.947  0.00  0.00     0.174 HD
ENDBRANCH 191 196
ENDBRANCH 187 190
ENDBRANCH 184 187
ENDBRANCH 181 184
ENDBRANCH  87 181
BRANCH  13 199
ATOM    199  CB  DTY d   1     -38.712   1.615 -43.629  0.00  0.00    -0.014 C 
ATOM    200  H9  DTY d   1     -39.220   1.048 -42.835  0.00  0.00     0.043 H 
ATOM    201  H10 DTY d   1     -38.550   0.963 -44.500  0.00  0.00     0.043 H 
BRANCH 199 202
ATOM    202  CG  DTY d   1     -39.592   2.744 -44.041  0.00  0.00    -0.056 A 
ATOM    203  CD1 DTY d   1     -40.420   3.336 -43.139  0.00  0.00    -0.074 A 
ATOM    204  CE1 DTY d   1     -41.219   4.381 -43.551  0.00  0.00    -0.051 A 
ATOM    205  H11 DTY d   1     -40.451   2.991 -42.112  0.00  0.00     0.084 H 
ATOM    206  CZ  DTY d   1     -41.205   4.802 -44.851  0.00  0.00     0.065 A 
ATOM    207  H13 DTY d   1     -41.866   4.875 -42.835  0.00  0.00     0.087 H 
ATOM    208  CE2 DTY d   1     -40.393   4.204 -45.760  0.00  0.00    -0.051 A 
ATOM    209  CD2 DTY d   1     -39.594   3.167 -45.343  0.00  0.00    -0.074 A 
ATOM    210  H14 DTY d   1     -40.376   4.537 -46.791  0.00  0.00     0.087 H 
ATOM    211  H12 DTY d   1     -38.950   2.672 -46.062  0.00  0.00     0.084 H 
BRANCH 206 212
ATOM    212  OH  DTY d   1     -41.991   5.795 -45.230  0.00  0.00    -0.361 OA
ATOM    213  H15 DTY d   1     -42.492   6.103 -44.484  0.00  0.00     0.217 HD
ENDBRANCH 206 212
ENDBRANCH 199 202
ENDBRANCH  13 199
BRANCH  79 214
ATOM    214  CB  TRP d   1     -34.293   2.386 -48.643  0.00  0.00    -0.012 C 
ATOM    215  H99 TRP d   1     -35.081   1.771 -48.185  0.00  0.00     0.044 H 
ATOM    216 0H10 TRP d   1     -33.654   1.752 -49.275  0.00  0.00     0.044 H 
BRANCH 214 217
ATOM    217  CG  TRP d   1     -34.958   3.399 -49.531  0.00  0.00    -0.028 A 
ATOM    218  CD1 TRP d   1     -34.390   4.085 -50.534  0.00  0.00    -0.015 A 
ATOM    219  NE1 TRP d   1     -35.284   4.887 -51.132  0.00  0.00    -0.365 N 
ATOM    220 1H10 TRP d   1     -33.344   4.002 -50.824  0.00  0.00     0.112 H 
ATOM    221  CE2 TRP d   1     -36.491   4.732 -50.530  0.00  0.00     0.042 A 
ATOM    222 2H10 TRP d   1     -35.086   5.519 -51.921  0.00  0.00     0.165 HD
ATOM    223  CD2 TRP d   1     -36.323   3.795 -49.513  0.00  0.00    -0.002 A 
ATOM    224  CZ2 TRP d   1     -37.705   5.331 -50.782  0.00  0.00    -0.056 A 
ATOM    225  CE3 TRP d   1     -37.417   3.455 -48.734  0.00  0.00    -0.070 A 
ATOM    226  CZ3 TRP d   1     -38.606   4.046 -48.992  0.00  0.00    -0.082 A 
ATOM    227 3H10 TRP d   1     -37.322   2.730 -47.934  0.00  0.00     0.084 H 
ATOM    228  CH2 TRP d   1     -38.750   4.967 -50.004  0.00  0.00    -0.081 A 
ATOM    229 5H10 TRP d   1     -39.467   3.788 -48.386  0.00  0.00     0.083 H 
ATOM    230 6H10 TRP d   1     -39.723   5.411 -50.182  0.00  0.00     0.083 H 
ATOM    231 4H10 TRP d   1     -37.819   6.065 -51.572  0.00  0.00     0.086 H 
ENDBRANCH 214 217
ENDBRANCH  79 214
BRANCH  29 232
ATOM    232  CB  TYR d   1     -31.666   1.226 -43.633  0.00  0.00    -0.014 C 
ATOM    233 9H10 TYR d   1     -30.958   1.978 -44.011  0.00  0.00     0.043 H 
ATOM    234 0H11 TYR d   1     -31.113   0.432 -43.111  0.00  0.00     0.043 H 
BRANCH 232 235
ATOM    235  CG  TYR d   1     -32.543   1.885 -42.652  0.00  0.00    -0.056 A 
ATOM    236  CD1 TYR d   1     -32.981   3.150 -42.858  0.00  0.00    -0.074 A 
ATOM    237  CE1 TYR d   1     -33.772   3.774 -41.940  0.00  0.00    -0.051 A 
ATOM    238 1H11 TYR d   1     -32.699   3.673 -43.765  0.00  0.00     0.084 H 
ATOM    239  CZ  TYR d   1     -34.128   3.121 -40.800  0.00  0.00     0.065 A 
ATOM    240 3H11 TYR d   1     -34.116   4.787 -42.117  0.00  0.00     0.087 H 
ATOM    241  CE2 TYR d   1     -33.704   1.853 -40.580  0.00  0.00    -0.051 A 
ATOM    242  CD2 TYR d   1     -32.909   1.248 -41.507  0.00  0.00    -0.074 A 
ATOM    243 4H11 TYR d   1     -33.993   1.326 -39.678  0.00  0.00     0.087 H 
ATOM    244 2H11 TYR d   1     -32.561   0.237 -41.328  0.00  0.00     0.084 H 
BRANCH 239 245
ATOM    245  OH  TYR d   1     -34.925   3.738 -39.887  0.00  0.00    -0.361 OA
ATOM    246 5H11 TYR d   1     -35.131   4.615 -40.189  0.00  0.00     0.217 HD
ENDBRANCH 239 245
ENDBRANCH 232 235
ENDBRANCH  29 232
BRANCH   3 247
ATOM    247  C03 48V d   1     -36.175  -4.583 -40.245  0.00  0.00     0.271 C 
ATOM    248  O04 48V d   1     -36.220  -5.633 -40.972  0.00  0.00    -0.269 OA
ATOM    249  N05 48V d   1     -37.189  -4.279 -39.390  0.00  0.00    -0.366 N 
ATOM    250  H1  48V d   1     -37.987  -4.878 -39.328  0.00  0.00     0.159 HD
ATOM    251  H2  48V d   1     -37.136  -3.457 -38.824  0.00  0.00     0.159 HD
ENDBRANCH   3 247
BRANCH  47 252
ATOM    252  CB  THR d   1     -33.635  -3.936 -44.800  0.00  0.00     0.059 C 
ATOM    253 8H11 THR d   1     -34.280  -4.756 -44.451  0.00  0.00     0.086 H 
BRANCH 252 254
ATOM    254  OG1 THR d   1     -32.263  -4.343 -44.712  0.00  0.00    -0.393 OA
ATOM    255 9H11 THR d   1     -32.056  -4.561 -43.811  0.00  0.00     0.210 HD
ENDBRANCH 252 254
BRANCH 252 256
ATOM    256  CG2 THR d   1     -33.973  -3.620 -46.249  0.00  0.00    -0.050 C 
ATOM    257 0H12 THR d   1     -33.802  -4.513 -46.868  0.00  0.00     0.031 H 
ATOM    258 1H12 THR d   1     -33.333  -2.799 -46.604  0.00  0.00     0.031 H 
ATOM    259 2H12 THR d   1     -35.029  -3.319 -46.322  0.00  0.00     0.031 H 
ENDBRANCH 252 256
ENDBRANCH  47 252
TORSDOF 40
