REMARK WARNING: 32 MAX_TORS EXCEEDED!!!
REMARK  77 active torsions:
REMARK  status: ('A' for Active; 'I' for Inactive)
REMARK    1  A    between atoms: N_1  and  CA_2 
REMARK    2  A    between atoms: CA_2  and  C_3 
REMARK       I    between atoms: C_3  and  N_5 
REMARK    3  A    between atoms: N_5  and  CA_6 
REMARK    4  A    between atoms: CA_6  and  C_7 
REMARK       I    between atoms: C_7  and  N_9 
REMARK    5  A    between atoms: N_9  and  CA_10 
REMARK    6  A    between atoms: CA_10  and  C_11 
REMARK    7  A    between atoms: CA_10  and  CB_13 
REMARK       I    between atoms: C_11  and  N_17 
REMARK    8  A    between atoms: CB_13  and  CG1_14 
REMARK    9  A    between atoms: CB_13  and  CG2_15 
REMARK   10  A    between atoms: CG1_14  and  CD1_16 
REMARK   11  A    between atoms: N_17  and  CA_18 
REMARK   12  A    between atoms: CA_18  and  C_19 
REMARK       I    between atoms: C_19  and  N_21 
REMARK   13  A    between atoms: N_21  and  CA_22 
REMARK   14  A    between atoms: CA_22  and  C_23 
REMARK   15  A    between atoms: CA_22  and  CB_25 
REMARK       I    between atoms: C_23  and  N_30 
REMARK   16  A    between atoms: CB_25  and  CG_26 
REMARK   17  A    between atoms: CG_26  and  CD_27 
REMARK   18  A    between atoms: N_30  and  CA_31 
REMARK   19  A    between atoms: CA_31  and  C_32 
REMARK   20  A    between atoms: CA_31  and  CB_34 
REMARK       I    between atoms: C_32  and  N_38 
REMARK   21  A    between atoms: CB_34  and  CG_35 
REMARK       I    between atoms: CG_35  and  ND2_37 
REMARK   22  A    between atoms: N_38  and  CA_39 
REMARK   23  A    between atoms: CA_39  and  C_40 
REMARK   24  A    between atoms: CA_39  and  CB_42 
REMARK       I    between atoms: C_40  and  N_47 
REMARK   25  A    between atoms: CB_42  and  CG_43 
REMARK   26  A    between atoms: CG_43  and  CD_44 
REMARK   27  A    between atoms: N_47  and  CA_48 
REMARK   28  A    between atoms: CA_48  and  C_49 
REMARK   29  A    between atoms: CA_48  and  CB_51 
REMARK       I    between atoms: C_49  and  N_61 
REMARK   30  A    between atoms: CB_51  and  CG_52 
REMARK   31  A    between atoms: N_61  and  CA_62 
REMARK   32  A    between atoms: CA_62  and  C_63 
REMARK   33  A    between atoms: CA_62  and  CB_65 
REMARK       I    between atoms: C_63  and  N_68 
REMARK   34  A    between atoms: CB_65  and  CG1_66 
REMARK   35  A    between atoms: CB_65  and  CG2_67 
REMARK   36  A    between atoms: N_68  and  CA_69 
REMARK   37  A    between atoms: CA_69  and  C_70 
REMARK   38  A    between atoms: CA_69  and  CB_72 
REMARK       I    between atoms: C_70  and  N_77 
REMARK   39  A    between atoms: CB_72  and  CG_73 
REMARK   40  A    between atoms: CG_73  and  CD_74 
REMARK   41  A    between atoms: CD_74  and  CE_75 
REMARK   42  A    between atoms: CE_75  and  NZ_76 
REMARK   43  A    between atoms: N_77  and  CA_78 
REMARK   44  A    between atoms: CA_78  and  C_79 
REMARK   45  A    between atoms: CA_78  and  CB_81 
REMARK       I    between atoms: C_79  and  N_85 
REMARK   46  A    between atoms: CB_81  and  CG1_82 
REMARK   47  A    between atoms: CB_81  and  CG2_83 
REMARK   48  A    between atoms: CG1_82  and  CD1_84 
REMARK   49  A    between atoms: N_85  and  CA_86 
REMARK   50  A    between atoms: CA_86  and  C_87 
REMARK   51  A    between atoms: CA_86  and  CB_89 
REMARK       I    between atoms: C_87  and  N_93 
REMARK   52  A    between atoms: CB_89  and  CG_90 
REMARK   53  A    between atoms: CG_90  and  CD1_91 
REMARK   54  A    between atoms: CG_90  and  CD2_92 
REMARK   55  A    between atoms: N_93  and  CA_94 
REMARK   56  A    between atoms: CA_94  and  C_95 
REMARK   57  A    between atoms: CA_94  and  CB_97 
REMARK       I    between atoms: C_95  and  N_104 
REMARK   58  A    between atoms: CB_97  and  CG_98 
REMARK   59  A    between atoms: CG_98  and  CD_99 
REMARK   60  A    between atoms: CD_99  and  NE_100 
REMARK       I    between atoms: NE_100  and  CZ_101 
REMARK       I    between atoms: CZ_101  and  NH1_102 
REMARK       I    between atoms: CZ_101  and  NH2_103 
REMARK   61  A    between atoms: N_104  and  CA_105 
REMARK   62  A    between atoms: CA_105  and  C_106 
REMARK   63  A    between atoms: CA_105  and  CB_108 
REMARK       I    between atoms: C_106  and  N_110 
REMARK   64  A    between atoms: CB_108  and  OG_109 
REMARK   65  A    between atoms: N_110  and  CA_111 
REMARK   66  A    between atoms: CA_111  and  C_112 
REMARK   67  A    between atoms: CA_111  and  CB_114 
REMARK       I    between atoms: C_112  and  N_119 
REMARK   68  A    between atoms: CB_114  and  CG_115 
REMARK   69  A    between atoms: CG_115  and  CD_116 
REMARK   70  A    between atoms: CD_116  and  CE_117 
REMARK   71  A    between atoms: CE_117  and  NZ_118 
REMARK   72  A    between atoms: N_119  and  CA_120 
REMARK   73  A    between atoms: CA_120  and  C_121 
REMARK   74  A    between atoms: CA_120  and  CB_123 
REMARK   75  A    between atoms: CB_123  and  CG_124 
REMARK   76  A    between atoms: CG_124  and  CD_125 
REMARK   77  A    between atoms: CD_125  and  NE_126 
REMARK       I    between atoms: NE_126  and  CZ_127 
REMARK       I    between atoms: CZ_127  and  NH1_128 
ROOT
ATOM      1  CA  LYS d   1       7.457 -18.888 -14.143  0.00  0.00     0.089 C 
ATOM      2  H61 LYS d   1       7.308 -19.213 -13.103  0.00  0.00     0.087 H 
ENDROOT
BRANCH   1   3
ATOM      3  N   LYS d   1       6.151 -18.852 -14.801  0.00  0.00    -0.346 N 
ATOM      4  C   VAL d   1       5.138 -18.177 -14.243  0.00  0.00     0.241 C 
ATOM      5  O   VAL d   1       5.270 -17.586 -13.166  0.00  0.00    -0.271 OA
ATOM      6  H60 LYS d   1       6.015 -19.332 -15.668  0.00  0.00     0.163 HD
BRANCH   4   7
ATOM      7  CA  VAL d   1       3.816 -18.135 -15.006  0.00  0.00     0.092 C 
ATOM      8  H52 VAL d   1       3.211 -17.317 -14.588  0.00  0.00     0.088 H 
BRANCH   7   9
ATOM      9  N   VAL d   1       4.058 -17.846 -16.420  0.00  0.00    -0.346 N 
ATOM     10  C   TRP d   1       4.618 -16.688 -16.782  0.00  0.00     0.241 C 
ATOM     11  O   TRP d   1       4.969 -15.841 -15.955  0.00  0.00    -0.271 OA
ATOM     12  H51 VAL d   1       3.804 -18.517 -17.117  0.00  0.00     0.163 HD
BRANCH  10  13
ATOM     13  CA  TRP d   1       4.823 -16.407 -18.266  0.00  0.00     0.093 C 
ATOM     14  H42 TRP d   1       5.781 -15.880 -18.387  0.00  0.00     0.088 H 
BRANCH  13  15
ATOM     15  N   TRP d   1       4.879 -17.626 -19.066  0.00  0.00    -0.346 N 
ATOM     16  C   GLU d   1       5.920 -18.458 -18.964  0.00  0.00     0.241 C 
ATOM     17  O   GLU d   1       6.881 -18.226 -18.221  0.00  0.00    -0.271 OA
ATOM     18  H41 TRP d   1       4.132 -17.841 -19.696  0.00  0.00     0.163 HD
BRANCH  16  19
ATOM     19  CA  GLU d   1       5.921 -19.730 -19.806  0.00  0.00     0.090 C 
ATOM     20  H36 GLU d   1       6.307 -20.549 -19.181  0.00  0.00     0.087 H 
BRANCH  19  21
ATOM     21  N   GLU d   1       4.589 -20.110 -20.268  0.00  0.00    -0.346 N 
ATOM     22  C   ASN d   1       3.646 -20.522 -19.414  0.00  0.00     0.241 C 
ATOM     23  O   ASN d   1       3.804 -20.521 -18.190  0.00  0.00    -0.271 OA
ATOM     24  H35 GLU d   1       4.377 -20.061 -21.244  0.00  0.00     0.163 HD
BRANCH  22  25
ATOM     25  CA  ASN d   1       2.330 -20.998 -20.025  0.00  0.00     0.097 C 
ATOM     26  H30 ASN d   1       2.403 -20.915 -21.119  0.00  0.00     0.088 H 
BRANCH  25  27
ATOM     27  N   ASN d   1       2.090 -22.393 -19.673  0.00  0.00    -0.346 N 
ATOM     28  C   GLU d   1       2.704 -23.397 -20.296  0.00  0.00     0.241 C 
ATOM     29  O   GLU d   1       3.588 -23.210 -21.141  0.00  0.00    -0.271 OA
ATOM     30  H29 ASN d   1       1.443 -22.602 -18.940  0.00  0.00     0.163 HD
BRANCH  28  31
ATOM     31  CA  GLU d   1       2.303 -24.824 -19.936  0.00  0.00     0.090 C 
ATOM     32  H24 GLU d   1       3.203 -25.350 -19.586  0.00  0.00     0.087 H 
BRANCH  31  33
ATOM     33  N   GLU d   1       1.307 -24.884 -18.874  0.00  0.00    -0.346 N 
ATOM     34  C   GLY d   1       1.641 -25.038 -17.597  0.00  0.00     0.236 C 
ATOM     35  O   GLY d   1       2.818 -25.103 -17.231  0.00  0.00    -0.272 OA
ATOM     36  H23 GLU d   1       0.339 -24.807 -19.114  0.00  0.00     0.163 HD
BRANCH  34  37
ATOM     37  CA  GLY d   1       0.514 -25.141 -16.586  0.00  0.00     0.069 C 
ATOM     38  H21 GLY d   1       0.240 -26.201 -16.479  0.00  0.00     0.078 H 
ATOM     39  H22 GLY d   1       0.877 -24.757 -15.621  0.00  0.00     0.078 H 
BRANCH  37  40
ATOM     40  N   GLY d   1      -0.679 -24.394 -16.957  0.00  0.00    -0.351 N 
ATOM     41  C   ILE d   1      -0.631 -23.066 -17.088  0.00  0.00     0.241 C 
ATOM     42  O   ILE d   1       0.432 -22.441 -16.986  0.00  0.00    -0.271 OA
ATOM     43  H20 GLY d   1      -1.540 -24.878 -17.115  0.00  0.00     0.163 HD
BRANCH  41  44
ATOM     44  CA  ILE d   1      -1.942 -22.338 -17.380  0.00  0.00     0.092 C 
ATOM     45  H10 ILE d   1      -1.695 -21.390 -17.880  0.00  0.00     0.088 H 
BRANCH  44  46
ATOM     46  N   ILE d   1      -2.781 -23.122 -18.282  0.00  0.00    -0.346 N 
ATOM     47  C   GLY d   1      -2.482 -23.200 -19.580  0.00  0.00     0.236 C 
ATOM     48  O   GLY d   1      -1.464 -22.701 -20.058  0.00  0.00    -0.272 OA
ATOM     49  H9  ILE d   1      -3.583 -23.602 -17.926  0.00  0.00     0.163 HD
BRANCH  47  50
ATOM     50  CA  GLY d   1      -3.484 -23.955 -20.436  0.00  0.00     0.069 C 
ATOM     51  H7  GLY d   1      -3.287 -25.033 -20.345  0.00  0.00     0.078 H 
ATOM     52  H8  GLY d   1      -4.498 -23.735 -20.071  0.00  0.00     0.078 H 
BRANCH  50  53
ATOM     53  N   GLY d   1      -3.400 -23.583 -21.830  0.00  0.00    -0.351 N 
ATOM     54  C   GLY d   1      -3.981 -22.465 -22.273  0.00  0.00     0.243 C 
ATOM     55  O   GLY d   1      -4.703 -21.761 -21.567  0.00  0.00    -0.272 OA
ATOM     56  H6  GLY d   1      -2.902 -24.169 -22.469  0.00  0.00     0.163 HD
BRANCH  54  57
ATOM     57  CA  GLY d   1      -3.718 -22.096 -23.721  0.00  0.00     0.152 C 
ATOM     58  H4  GLY d   1      -4.676 -21.836 -24.195  0.00  0.00     0.090 H 
ATOM     59  H5  GLY d   1      -3.049 -21.223 -23.743  0.00  0.00     0.090 H 
BRANCH  57  60
ATOM     60  N   GLY d   1      -3.103 -23.169 -24.482  0.00  0.00    -0.071 N 
ATOM     61  H1  GLY d   1      -2.954 -22.865 -25.431  0.00  0.00     0.274 HD
ATOM     62  H2  GLY d   1      -3.710 -23.974 -24.478  0.00  0.00     0.274 HD
ATOM     63  H3  GLY d   1      -2.219 -23.413 -24.065  0.00  0.00     0.274 HD
ENDBRANCH  57  60
ENDBRANCH  54  57
ENDBRANCH  50  53
ENDBRANCH  47  50
ENDBRANCH  44  46
BRANCH  44  64
ATOM     64  CB  ILE d   1      -2.715 -22.005 -16.090  0.00  0.00    -0.030 C 
ATOM     65  H11 ILE d   1      -2.939 -22.944 -15.562  0.00  0.00     0.043 H 
BRANCH  64  66
ATOM     66  CG1 ILE d   1      -4.043 -21.322 -16.449  0.00  0.00    -0.063 C 
ATOM     67  H12 ILE d   1      -4.713 -22.085 -16.871  0.00  0.00     0.033 H 
ATOM     68  H13 ILE d   1      -3.835 -20.555 -17.210  0.00  0.00     0.033 H 
BRANCH  66  69
ATOM     69  CD1 ILE d   1      -4.767 -20.650 -15.291  0.00  0.00    -0.076 C 
ATOM     70  H17 ILE d   1      -5.700 -20.195 -15.656  0.00  0.00     0.027 H 
ATOM     71  H18 ILE d   1      -4.123 -19.870 -14.859  0.00  0.00     0.027 H 
ATOM     72  H19 ILE d   1      -5.002 -21.399 -14.521  0.00  0.00     0.027 H 
ENDBRANCH  66  69
ENDBRANCH  64  66
BRANCH  64  73
ATOM     73  CG2 ILE d   1      -1.861 -21.132 -15.171  0.00  0.00    -0.071 C 
ATOM     74  H14 ILE d   1      -0.922 -21.655 -14.938  0.00  0.00     0.028 H 
ATOM     75  H15 ILE d   1      -2.411 -20.933 -14.239  0.00  0.00     0.028 H 
ATOM     76  H16 ILE d   1      -1.636 -20.180 -15.675  0.00  0.00     0.028 H 
ENDBRANCH  64  73
ENDBRANCH  44  64
ENDBRANCH  41  44
ENDBRANCH  37  40
ENDBRANCH  34  37
ENDBRANCH  31  33
BRANCH  31  77
ATOM     77  CB  GLU d   1       1.771 -25.542 -21.180  0.00  0.00    -0.029 C 
ATOM     78  H25 GLU d   1       1.502 -26.571 -20.898  0.00  0.00     0.037 H 
ATOM     79  H26 GLU d   1       2.571 -25.566 -21.935  0.00  0.00     0.037 H 
BRANCH  77  80
ATOM     80  CG  GLU d   1       0.545 -24.877 -21.799  0.00  0.00     0.018 C 
ATOM     81  H27 GLU d   1       0.883 -24.065 -22.460  0.00  0.00     0.049 H 
ATOM     82  H28 GLU d   1      -0.072 -24.458 -20.991  0.00  0.00     0.049 H 
BRANCH  80  83
ATOM     83  CD  GLU d   1      -0.306 -25.838 -22.609  0.00  0.00     0.172 C 
ATOM     84  OE1 GLU d   1       0.202 -26.915 -22.990  0.00  0.00    -0.648 OA
ATOM     85  OE2 GLU d   1      -1.488 -25.517 -22.858  0.00  0.00    -0.648 OA
ENDBRANCH  80  83
ENDBRANCH  77  80
ENDBRANCH  31  77
ENDBRANCH  28  31
ENDBRANCH  25  27
BRANCH  25  86
ATOM     86  CB  ASN d   1       1.156 -20.143 -19.547  0.00  0.00     0.036 C 
ATOM     87  H31 ASN d   1       1.187 -20.087 -18.449  0.00  0.00     0.051 H 
ATOM     88  H32 ASN d   1       0.219 -20.625 -19.863  0.00  0.00     0.051 H 
BRANCH  86  89
ATOM     89  CG  ASN d   1       1.187 -18.733 -20.105  0.00  0.00     0.217 C 
ATOM     90  OD1 ASN d   1       2.187 -18.029 -19.986  0.00  0.00    -0.274 OA
ATOM     91  ND2 ASN d   1       0.089 -18.320 -20.726  0.00  0.00    -0.370 N 
ATOM     92  H33 ASN d   1       0.051 -17.399 -21.115  0.00  0.00     0.159 HD
ATOM     93  H34 ASN d   1      -0.700 -18.930 -20.805  0.00  0.00     0.159 HD
ENDBRANCH  86  89
ENDBRANCH  25  86
ENDBRANCH  22  25
ENDBRANCH  19  21
BRANCH  19  94
ATOM     94  CB  GLU d   1       6.860 -19.548 -21.006  0.00  0.00    -0.029 C 
ATOM     95  H37 GLU d   1       7.849 -19.246 -20.631  0.00  0.00     0.037 H 
ATOM     96  H38 GLU d   1       6.453 -18.754 -21.649  0.00  0.00     0.037 H 
BRANCH  94  97
ATOM     97  CG  GLU d   1       7.026 -20.808 -21.843  0.00  0.00     0.018 C 
ATOM     98  H39 GLU d   1       6.035 -21.123 -22.200  0.00  0.00     0.049 H 
ATOM     99  H40 GLU d   1       7.454 -21.596 -21.206  0.00  0.00     0.049 H 
BRANCH  97 100
ATOM    100  CD  GLU d   1       7.934 -20.615 -23.047  0.00  0.00     0.172 C 
ATOM    101  OE1 GLU d   1       8.176 -19.456 -23.449  0.00  0.00    -0.648 OA
ATOM    102  OE2 GLU d   1       8.408 -21.634 -23.595  0.00  0.00    -0.648 OA
ENDBRANCH  97 100
ENDBRANCH  94  97
ENDBRANCH  19  94
ENDBRANCH  16  19
ENDBRANCH  13  15
BRANCH  13 103
ATOM    103  CB  TRP d   1       3.698 -15.493 -18.752  0.00  0.00    -0.012 C 
ATOM    104  H43 TRP d   1       3.458 -14.794 -17.937  0.00  0.00     0.044 H 
ATOM    105  H44 TRP d   1       2.822 -16.123 -18.965  0.00  0.00     0.044 H 
BRANCH 103 106
ATOM    106  CG  TRP d   1       3.990 -14.678 -19.986  0.00  0.00    -0.028 A 
ATOM    107  CD1 TRP d   1       3.598 -14.955 -21.262  0.00  0.00    -0.015 A 
ATOM    108  NE1 TRP d   1       4.019 -13.961 -22.115  0.00  0.00    -0.365 N 
ATOM    109  H45 TRP d   1       3.033 -15.836 -21.563  0.00  0.00     0.112 H 
ATOM    110  CE2 TRP d   1       4.693 -13.011 -21.395  0.00  0.00     0.042 A 
ATOM    111  H46 TRP d   1       3.854 -13.935 -23.131  0.00  0.00     0.165 HD
ATOM    112  CD2 TRP d   1       4.686 -13.421 -20.045  0.00  0.00    -0.002 A 
ATOM    113  CZ2 TRP d   1       5.292 -11.825 -21.811  0.00  0.00    -0.056 A 
ATOM    114  CE3 TRP d   1       5.320 -12.617 -19.090  0.00  0.00    -0.070 A 
ATOM    115  CZ3 TRP d   1       5.914 -11.442 -19.501  0.00  0.00    -0.082 A 
ATOM    116  H47 TRP d   1       5.344 -12.912 -18.047  0.00  0.00     0.084 H 
ATOM    117  CH2 TRP d   1       5.904 -11.058 -20.856  0.00  0.00    -0.081 A 
ATOM    118  H49 TRP d   1       6.396 -10.804 -18.769  0.00  0.00     0.083 H 
ATOM    119  H50 TRP d   1       6.391 -10.135 -21.149  0.00  0.00     0.083 H 
ATOM    120  H48 TRP d   1       5.274 -11.521 -22.851  0.00  0.00     0.086 H 
ENDBRANCH 103 106
ENDBRANCH  13 103
ENDBRANCH  10  13
ENDBRANCH   7   9
BRANCH   7 121
ATOM    121  CB  VAL d   1       3.013 -19.441 -14.849  0.00  0.00    -0.033 C 
ATOM    122  H53 VAL d   1       3.537 -20.236 -15.399  0.00  0.00     0.042 H 
BRANCH 121 123
ATOM    123  CG1 VAL d   1       2.902 -19.860 -13.380  0.00  0.00    -0.071 C 
ATOM    124  H54 VAL d   1       2.324 -20.793 -13.308  0.00  0.00     0.028 H 
ATOM    125  H55 VAL d   1       2.393 -19.069 -12.810  0.00  0.00     0.028 H 
ATOM    126  H56 VAL d   1       3.909 -20.019 -12.967  0.00  0.00     0.028 H 
ENDBRANCH 121 123
BRANCH 121 127
ATOM    127  CG2 VAL d   1       1.614 -19.278 -15.439  0.00  0.00    -0.071 C 
ATOM    128  H57 VAL d   1       1.694 -18.977 -16.494  0.00  0.00     0.028 H 
ATOM    129  H58 VAL d   1       1.067 -18.506 -14.878  0.00  0.00     0.028 H 
ATOM    130  H59 VAL d   1       1.073 -20.233 -15.370  0.00  0.00     0.028 H 
ENDBRANCH 121 127
ENDBRANCH   7 121
ENDBRANCH   4   7
ENDBRANCH   1   3
BRANCH   1 131
ATOM    131  C   LYS d   1       8.108 -17.506 -14.121  0.00  0.00     0.241 C 
ATOM    132  O   LYS d   1       8.740 -17.127 -13.128  0.00  0.00    -0.271 OA
ATOM    133  N   ILE d   1       7.981 -16.745 -15.210  0.00  0.00    -0.346 N 
ATOM    134  H73 ILE d   1       7.467 -17.089 -15.996  0.00  0.00     0.163 HD
BRANCH 133 135
ATOM    135  CA  ILE d   1       8.585 -15.414 -15.268  0.00  0.00     0.092 C 
ATOM    136  H74 ILE d   1       9.662 -15.512 -15.069  0.00  0.00     0.088 H 
BRANCH 135 137
ATOM    137  C   ILE d   1       7.983 -14.513 -14.197  0.00  0.00     0.241 C 
ATOM    138  O   ILE d   1       8.698 -13.810 -13.472  0.00  0.00    -0.271 OA
ATOM    139  N   LEU d   1       6.655 -14.520 -14.083  0.00  0.00    -0.346 N 
ATOM    140  H84 LEU d   1       6.110 -15.138 -14.649  0.00  0.00     0.163 HD
BRANCH 139 141
ATOM    141  CA  LEU d   1       5.994 -13.628 -13.135  0.00  0.00     0.089 C 
ATOM    142  H85 LEU d   1       6.401 -12.615 -13.273  0.00  0.00     0.087 H 
BRANCH 141 143
ATOM    143  C   LEU d   1       6.268 -14.052 -11.694  0.00  0.00     0.241 C 
ATOM    144  O   LEU d   1       6.504 -13.200 -10.827  0.00  0.00    -0.271 OA
ATOM    145  N   ARG d   1       6.255 -15.362 -11.416  0.00  0.00    -0.346 N 
ATOM    146  H95 ARG d   1       6.062 -16.020 -12.144  0.00  0.00     0.163 HD
BRANCH 145 147
ATOM    147  CA  ARG d   1       6.520 -15.840 -10.061  0.00  0.00     0.089 C 
ATOM    148  H96 ARG d   1       5.843 -15.305  -9.379  0.00  0.00     0.087 H 
BRANCH 147 149
ATOM    149  C   ARG d   1       7.951 -15.567  -9.610  0.00  0.00     0.241 C 
ATOM    150  O   ARG d   1       8.221 -15.611  -8.404  0.00  0.00    -0.271 OA
ATOM    151  N   SER d   1       8.870 -15.289 -10.538  0.00  0.00    -0.344 N 
ATOM    152 8H10 SER d   1       8.610 -15.303 -11.503  0.00  0.00     0.163 HD
BRANCH 151 153
ATOM    153  CA  SER d   1      10.245 -14.966 -10.175  0.00  0.00     0.109 C 
ATOM    154 9H10 SER d   1      10.526 -15.606  -9.326  0.00  0.00     0.090 H 
BRANCH 153 155
ATOM    155  C   SER d   1      10.434 -13.513  -9.752  0.00  0.00     0.243 C 
ATOM    156  O   SER d   1      11.510 -13.172  -9.248  0.00  0.00    -0.271 OA
ATOM    157  N   LYS d   1       9.432 -12.656  -9.932  0.00  0.00    -0.346 N 
ATOM    158 3H11 LYS d   1       8.547 -12.992 -10.255  0.00  0.00     0.163 HD
BRANCH 157 159
ATOM    159  CA  LYS d   1       9.606 -11.233  -9.665  0.00  0.00     0.089 C 
ATOM    160 4H11 LYS d   1      10.526 -10.897 -10.166  0.00  0.00     0.087 H 
BRANCH 159 161
ATOM    161  C   LYS d   1       9.745 -10.969  -8.170  0.00  0.00     0.241 C 
ATOM    162  O   LYS d   1       9.074 -11.596  -7.344  0.00  0.00    -0.271 OA
ATOM    163  N   ARG d   1      10.613 -10.020  -7.827  0.00  0.00    -0.345 N 
ATOM    164 6H12 ARG d   1      11.121  -9.544  -8.545  0.00  0.00     0.163 HD
BRANCH 163 165
ATOM    165  CA  ARG d   1      10.845  -9.653  -6.432  0.00  0.00     0.096 C 
ATOM    166 7H12 ARG d   1      10.032 -10.077  -5.825  0.00  0.00     0.089 H 
BRANCH 165 167
ATOM    167  C   ARG d   1      10.838  -8.135  -6.253  0.00  0.00     0.196 C 
ATOM    168  O   ARG d   1      11.218  -7.389  -7.155  0.00  0.00    -0.646 OA
ATOM    169  OXT ARG d   1      10.452  -7.623  -5.203  0.00  0.00    -0.646 OA
ENDBRANCH 165 167
BRANCH 165 170
ATOM    170  CB  ARG d   1      12.173 -10.232  -5.937  0.00  0.00    -0.035 C 
ATOM    171 8H12 ARG d   1      12.333  -9.890  -4.904  0.00  0.00     0.036 H 
ATOM    172 9H12 ARG d   1      12.977  -9.846  -6.580  0.00  0.00     0.036 H 
BRANCH 170 173
ATOM    173  CG  ARG d   1      12.242 -11.754  -5.951  0.00  0.00    -0.047 C 
ATOM    174 0H13 ARG d   1      13.261 -12.064  -5.678  0.00  0.00     0.035 H 
ATOM    175 1H13 ARG d   1      12.009 -12.109  -6.966  0.00  0.00     0.035 H 
BRANCH 173 176
ATOM    176  CD  ARG d   1      11.259 -12.387  -4.973  0.00  0.00     0.009 C 
ATOM    177 2H13 ARG d   1      10.236 -12.103  -5.260  0.00  0.00     0.064 H 
ATOM    178 3H13 ARG d   1      11.472 -12.014  -3.960  0.00  0.00     0.064 H 
BRANCH 176 179
ATOM    179  NE  ARG d   1      11.366 -13.846  -4.975  0.00  0.00    -0.227 N 
ATOM    180  CZ  ARG d   1      10.621 -14.664  -5.716  0.00  0.00     0.665 C 
ATOM    181  NH1 ARG d   1      10.811 -15.974  -5.641  0.00  0.00    -0.235 N 
ATOM    182  NH2 ARG d   1       9.686 -14.185  -6.528  0.00  0.00    -0.235 N 
ATOM    183 5H13 ARG d   1      10.238 -16.611  -6.212  0.00  0.00     0.174 HD
ATOM    184 6H13 ARG d   1      11.532 -16.355  -5.012  0.00  0.00     0.174 HD
ATOM    185 7H13 ARG d   1       9.531 -13.169  -6.593  0.00  0.00     0.174 HD
ATOM    186 8H13 ARG d   1       9.115 -14.830  -7.093  0.00  0.00     0.174 HD
ATOM    187 4H13 ARG d   1      12.071 -14.273  -4.357  0.00  0.00     0.177 HD
ENDBRANCH 176 179
ENDBRANCH 173 176
ENDBRANCH 170 173
ENDBRANCH 165 170
ENDBRANCH 163 165
ENDBRANCH 159 161
BRANCH 159 188
ATOM    188  CB  LYS d   1       8.427 -10.433 -10.221  0.00  0.00    -0.038 C 
ATOM    189 5H11 LYS d   1       8.492  -9.409  -9.825  0.00  0.00     0.036 H 
ATOM    190 6H11 LYS d   1       7.498 -10.904  -9.868  0.00  0.00     0.036 H 
BRANCH 188 191
ATOM    191  CG  LYS d   1       8.367 -10.349 -11.736  0.00  0.00    -0.061 C 
ATOM    192 7H11 LYS d   1       8.196 -11.355 -12.147  0.00  0.00     0.033 H 
ATOM    193 8H11 LYS d   1       9.322  -9.956 -12.114  0.00  0.00     0.033 H 
BRANCH 191 194
ATOM    194  CD  LYS d   1       7.240  -9.431 -12.177  0.00  0.00    -0.043 C 
ATOM    195 9H11 LYS d   1       7.329  -8.477 -11.636  0.00  0.00     0.035 H 
ATOM    196 0H12 LYS d   1       6.280  -9.906 -11.927  0.00  0.00     0.035 H 
BRANCH 194 197
ATOM    197  CE  LYS d   1       7.271  -9.149 -13.670  0.00  0.00     0.080 C 
ATOM    198 1H12 LYS d   1       6.263  -8.853 -13.997  0.00  0.00     0.075 H 
ATOM    199 2H12 LYS d   1       7.574 -10.065 -14.199  0.00  0.00     0.075 H 
BRANCH 197 200
ATOM    200  NZ  LYS d   1       8.227  -8.058 -14.009  0.00  0.00    -0.079 N 
ATOM    201 3H12 LYS d   1       8.219  -7.901 -15.005  0.00  0.00     0.274 HD
ATOM    202 4H12 LYS d   1       9.155  -8.322 -13.718  0.00  0.00     0.274 HD
ATOM    203 5H12 LYS d   1       7.954  -7.212 -13.534  0.00  0.00     0.274 HD
ENDBRANCH 197 200
ENDBRANCH 194 197
ENDBRANCH 191 194
ENDBRANCH 188 191
ENDBRANCH 159 188
ENDBRANCH 157 159
ENDBRANCH 153 155
BRANCH 153 204
ATOM    204  CB  SER d   1      11.188 -15.267 -11.348  0.00  0.00     0.044 C 
ATOM    205 0H11 SER d   1      12.208 -14.957 -11.078  0.00  0.00     0.077 H 
ATOM    206 1H11 SER d   1      10.855 -14.703 -12.232  0.00  0.00     0.077 H 
BRANCH 204 207
ATOM    207  OG  SER d   1      11.190 -16.651 -11.655  0.00  0.00    -0.398 OA
ATOM    208 2H11 SER d   1      10.311 -16.923 -11.892  0.00  0.00     0.209 HD
ENDBRANCH 204 207
ENDBRANCH 153 204
ENDBRANCH 151 153
ENDBRANCH 147 149
BRANCH 147 209
ATOM    209  CB  ARG d   1       6.224 -17.339  -9.954  0.00  0.00    -0.036 C 
ATOM    210  H97 ARG d   1       6.639 -17.706  -9.003  0.00  0.00     0.036 H 
ATOM    211  H98 ARG d   1       6.721 -17.850 -10.792  0.00  0.00     0.036 H 
BRANCH 209 212
ATOM    212  CG  ARG d   1       4.748 -17.685  -9.994  0.00  0.00    -0.048 C 
ATOM    213  H99 ARG d   1       4.320 -17.308 -10.935  0.00  0.00     0.035 H 
ATOM    214 0H10 ARG d   1       4.247 -17.201  -9.143  0.00  0.00     0.035 H 
BRANCH 212 215
ATOM    215  CD  ARG d   1       4.511 -19.189  -9.914  0.00  0.00     0.009 C 
ATOM    216 1H10 ARG d   1       5.111 -19.603  -9.090  0.00  0.00     0.064 H 
ATOM    217 2H10 ARG d   1       4.822 -19.652 -10.862  0.00  0.00     0.064 H 
BRANCH 215 218
ATOM    218  NE  ARG d   1       3.102 -19.493  -9.676  0.00  0.00    -0.227 N 
ATOM    219  CZ  ARG d   1       2.539 -20.683  -9.861  0.00  0.00     0.665 C 
ATOM    220  NH1 ARG d   1       3.256 -21.712 -10.305  0.00  0.00    -0.235 N 
ATOM    221  NH2 ARG d   1       1.246 -20.842  -9.607  0.00  0.00    -0.235 N 
ATOM    222 4H10 ARG d   1       2.809 -22.629 -10.444  0.00  0.00     0.174 HD
ATOM    223 5H10 ARG d   1       4.258 -21.591 -10.509  0.00  0.00     0.174 HD
ATOM    224 6H10 ARG d   1       0.687 -20.048  -9.263  0.00  0.00     0.174 HD
ATOM    225 7H10 ARG d   1       0.801 -21.759  -9.754  0.00  0.00     0.174 HD
ATOM    226 3H10 ARG d   1       2.500 -18.728  -9.340  0.00  0.00     0.177 HD
ENDBRANCH 215 218
ENDBRANCH 212 215
ENDBRANCH 209 212
ENDBRANCH 147 209
ENDBRANCH 145 147
ENDBRANCH 141 143
BRANCH 141 227
ATOM    227  CB  LEU d   1       4.490 -13.585 -13.428  0.00  0.00    -0.035 C 
ATOM    228  H86 LEU d   1       4.007 -13.016 -12.620  0.00  0.00     0.037 H 
ATOM    229  H87 LEU d   1       4.117 -14.620 -13.421  0.00  0.00     0.037 H 
BRANCH 227 230
ATOM    230  CG  LEU d   1       4.075 -12.946 -14.765  0.00  0.00    -0.059 C 
ATOM    231  H88 LEU d   1       4.681 -13.413 -15.555  0.00  0.00     0.038 H 
BRANCH 230 232
ATOM    232  CD1 LEU d   1       2.601 -13.200 -15.096  0.00  0.00    -0.073 C 
ATOM    233  H89 LEU d   1       2.354 -12.725 -16.057  0.00  0.00     0.028 H 
ATOM    234  H90 LEU d   1       1.968 -12.774 -14.303  0.00  0.00     0.028 H 
ATOM    235  H91 LEU d   1       2.422 -14.283 -15.165  0.00  0.00     0.028 H 
ENDBRANCH 230 232
BRANCH 230 236
ATOM    236  CD2 LEU d   1       4.359 -11.446 -14.780  0.00  0.00    -0.073 C 
ATOM    237  H92 LEU d   1       5.418 -11.271 -14.542  0.00  0.00     0.028 H 
ATOM    238  H93 LEU d   1       3.727 -10.946 -14.031  0.00  0.00     0.028 H 
ATOM    239  H94 LEU d   1       4.136 -11.040 -15.778  0.00  0.00     0.028 H 
ENDBRANCH 230 236
ENDBRANCH 227 230
ENDBRANCH 141 227
ENDBRANCH 139 141
ENDBRANCH 135 137
BRANCH 135 240
ATOM    240  CB  ILE d   1       8.408 -14.811 -16.673  0.00  0.00    -0.030 C 
ATOM    241  H75 ILE d   1       7.358 -14.938 -16.974  0.00  0.00     0.043 H 
BRANCH 240 242
ATOM    242  CG1 ILE d   1       9.291 -15.557 -17.677  0.00  0.00    -0.063 C 
ATOM    243  H76 ILE d   1       9.206 -16.636 -17.479  0.00  0.00     0.033 H 
ATOM    244  H77 ILE d   1      10.333 -15.237 -17.527  0.00  0.00     0.033 H 
BRANCH 242 245
ATOM    245  CD1 ILE d   1       8.919 -15.307 -19.116  0.00  0.00    -0.076 C 
ATOM    246  H81 ILE d   1       9.595 -15.874 -19.773  0.00  0.00     0.027 H 
ATOM    247  H82 ILE d   1       9.009 -14.233 -19.337  0.00  0.00     0.027 H 
ATOM    248  H83 ILE d   1       7.882 -15.632 -19.288  0.00  0.00     0.027 H 
ENDBRANCH 242 245
ENDBRANCH 240 242
BRANCH 240 249
ATOM    249  CG2 ILE d   1       8.727 -13.309 -16.671  0.00  0.00    -0.071 C 
ATOM    250  H78 ILE d   1       8.080 -12.798 -15.943  0.00  0.00     0.028 H 
ATOM    251  H79 ILE d   1       8.548 -12.895 -17.674  0.00  0.00     0.028 H 
ATOM    252  H80 ILE d   1       9.781 -13.158 -16.394  0.00  0.00     0.028 H 
ENDBRANCH 240 249
ENDBRANCH 135 240
ENDBRANCH 133 135
ENDBRANCH   1 131
BRANCH   1 253
ATOM    253  CB  LYS d   1       8.373 -19.901 -14.838  0.00  0.00    -0.038 C 
ATOM    254  H62 LYS d   1       8.566 -19.548 -15.862  0.00  0.00     0.036 H 
ATOM    255  H63 LYS d   1       7.852 -20.869 -14.877  0.00  0.00     0.036 H 
BRANCH 253 256
ATOM    256  CG  LYS d   1       9.719 -20.105 -14.136  0.00  0.00    -0.061 C 
ATOM    257  H64 LYS d   1       9.545 -20.202 -13.054  0.00  0.00     0.033 H 
ATOM    258  H65 LYS d   1      10.356 -19.229 -14.328  0.00  0.00     0.033 H 
BRANCH 256 259
ATOM    259  CD  LYS d   1      10.438 -21.357 -14.634  0.00  0.00    -0.043 C 
ATOM    260  H66 LYS d   1      10.526 -21.305 -15.729  0.00  0.00     0.035 H 
ATOM    261  H67 LYS d   1       9.846 -22.241 -14.355  0.00  0.00     0.035 H 
BRANCH 259 262
ATOM    262  CE  LYS d   1      11.835 -21.488 -14.032  0.00  0.00     0.080 C 
ATOM    263  H68 LYS d   1      11.741 -21.583 -12.940  0.00  0.00     0.075 H 
ATOM    264  H69 LYS d   1      12.409 -20.581 -14.273  0.00  0.00     0.075 H 
BRANCH 262 265
ATOM    265  NZ  LYS d   1      12.576 -22.675 -14.553  0.00  0.00    -0.079 N 
ATOM    266  H70 LYS d   1      13.488 -22.715 -14.126  0.00  0.00     0.274 HD
ATOM    267  H71 LYS d   1      12.676 -22.596 -15.553  0.00  0.00     0.274 HD
ATOM    268  H72 LYS d   1      12.064 -23.515 -14.332  0.00  0.00     0.274 HD
ENDBRANCH 262 265
ENDBRANCH 259 262
ENDBRANCH 256 259
ENDBRANCH 253 256
ENDBRANCH   1 253
TORSDOF 77
