REMARK  14 active torsions:
REMARK  status: ('A' for Active; 'I' for Inactive)
REMARK    1  A    between atoms: CBL_2  and  CBI_4 
REMARK    2  A    between atoms: CBG_9  and  SAY_10 
REMARK    3  A    between atoms: SAY_10  and  NAX_13 
REMARK    4  A    between atoms: NAX_13  and  CAW_14 
REMARK    5  A    between atoms: CAW_14  and  CAV_15 
REMARK    6  A    between atoms: CAV_15  and  NAU_16 
REMARK    7  A    between atoms: CAS_20  and  CAR_21 
REMARK    8  A    between atoms: CAR_21  and  CAQ_22 
REMARK    9  A    between atoms: CAQ_22  and  NAP_23 
REMARK       I    between atoms: NAP_23  and  CAO_24 
REMARK   10  A    between atoms: CAO_24  and  CAN_26 
REMARK   11  A    between atoms: CAN_26  and  CAM_27 
REMARK   12  A    between atoms: CAM_27  and  CAL_28 
REMARK       I    between atoms: CAL_28  and  NAK_30 
REMARK   13  A    between atoms: NAK_30  and  CAJ_31 
REMARK   14  A    between atoms: CAH_36  and  CAG_37 
REMARK       I    between atoms: CAG_37  and  NAA_39 
ROOT
ATOM      1  CAR 7B8 d   1      55.024  77.719  13.505  0.00  0.00    -0.007 C 
ATOM      2  H11 7B8 d   1      54.899  76.977  14.307  0.00  0.00     0.044 H 
ATOM      3  H12 7B8 d   1      54.085  78.275  13.370  0.00  0.00     0.044 H 
ENDROOT
BRANCH   1   4
ATOM      4  CAS 7B8 d   1      55.349  76.976  12.193  0.00  0.00     0.077 A 
ATOM      5  CAT 7B8 d   1      56.197  75.973  12.019  0.00  0.00     0.025 A 
ATOM      6  NAU 7B8 d   1      56.116  75.665  10.717  0.00  0.00    -0.259 N 
ATOM      7  H10 7B8 d   1      56.825  75.500  12.772  0.00  0.00     0.117 H 
ATOM      8  NAD 7B8 d   1      55.285  76.429  10.181  0.00  0.00    -0.066 NA
ATOM      9  NAC 7B8 d   1      54.792  77.225  11.016  0.00  0.00    -0.135 NA
BRANCH   6  10
ATOM     10  CAV 7B8 d   1      56.881  74.607   9.986  0.00  0.00     0.033 C 
ATOM     11  H8  7B8 d   1      57.568  75.094   9.278  0.00  0.00     0.070 H 
ATOM     12  H9  7B8 d   1      57.460  74.023  10.716  0.00  0.00     0.070 H 
BRANCH  10  13
ATOM     13  CAW 7B8 d   1      55.965  73.652   9.206  0.00  0.00     0.019 C 
ATOM     14  H6  7B8 d   1      54.916  73.881   9.445  0.00  0.00     0.067 H 
ATOM     15  H7  7B8 d   1      56.134  73.788   8.128  0.00  0.00     0.067 H 
BRANCH  13  16
ATOM     16  NAX 7B8 d   1      56.253  72.246   9.571  0.00  0.00    -0.314 N 
ATOM     17  H5  7B8 d   1      57.136  71.818   9.381  0.00  0.00     0.172 HD
BRANCH  16  18
ATOM     18  SAY 7B8 d   1      54.887  71.340  10.394  0.00  0.00     0.258 S 
ATOM     19  OAZ 7B8 d   1      54.918  69.828  10.149  0.00  0.00    -0.201 OA
ATOM     20  OAE 7B8 d   1      53.512  71.914  10.024  0.00  0.00    -0.201 OA
BRANCH  18  21
ATOM     21  CBG 7B8 d   1      55.181  71.493  12.013  0.00  0.00     0.080 A 
ATOM     22  CBJ 7B8 d   1      54.180  71.455  12.980  0.00  0.00    -0.044 A 
ATOM     23  CBI 7B8 d   1      54.543  71.594  14.328  0.00  0.00     0.042 A 
ATOM     24  H1  7B8 d   1      53.142  71.321  12.697  0.00  0.00     0.087 H 
ATOM     25  CBH 7B8 d   1      55.861  71.761  14.694  0.00  0.00    -0.066 A 
ATOM     26  CBE 7B8 d   1      56.815  71.785  13.718  0.00  0.00    -0.081 A 
ATOM     27  H2  7B8 d   1      56.135  71.871  15.737  0.00  0.00     0.085 H 
ATOM     28  CBF 7B8 d   1      56.506  71.645  12.389  0.00  0.00    -0.060 A 
ATOM     29  H3  7B8 d   1      57.852  71.919  14.003  0.00  0.00     0.083 H 
ATOM     30  H4  7B8 d   1      57.290  71.653  11.641  0.00  0.00     0.085 H 
BRANCH  23  31
ATOM     31  CBL 7B8 d   1      53.618  71.567  15.332  0.00  0.00     0.209 C 
ATOM     32  OBK 7B8 d   1      52.609  70.871  15.150  0.00  0.00    -0.644 OA
ATOM     33  OBM 7B8 d   1      53.818  72.192  16.407  0.00  0.00    -0.644 OA
ENDBRANCH  23  31
ENDBRANCH  18  21
ENDBRANCH  16  18
ENDBRANCH  13  16
ENDBRANCH  10  13
ENDBRANCH   6  10
ENDBRANCH   1   4
BRANCH   1  34
ATOM     34  CAQ 7B8 d   1      56.128  78.712  13.922  0.00  0.00     0.000 C 
ATOM     35  H13 7B8 d   1      56.953  78.662  13.195  0.00  0.00     0.064 H 
ATOM     36  H14 7B8 d   1      56.502  78.439  14.920  0.00  0.00     0.064 H 
BRANCH  34  37
ATOM     37  NAP 7B8 d   1      55.594  80.101  13.962  0.00  0.00    -0.361 N 
ATOM     38  CAO 7B8 d   1      55.695  81.033  14.965  0.00  0.00     0.217 C 
ATOM     39  OAB 7B8 d   1      55.197  82.153  14.858  0.00  0.00    -0.274 OA
ATOM     40  H15 7B8 d   1      55.094  80.395  13.148  0.00  0.00     0.162 HD
BRANCH  38  41
ATOM     41  CAN 7B8 d   1      56.409  80.667  16.285  0.00  0.00     0.017 C 
ATOM     42  H16 7B8 d   1      57.307  80.077  16.048  0.00  0.00     0.047 H 
ATOM     43  H17 7B8 d   1      55.725  80.064  16.900  0.00  0.00     0.047 H 
BRANCH  41  44
ATOM     44  CAM 7B8 d   1      56.845  81.943  17.114  0.00  0.00     0.017 C 
ATOM     45  H18 7B8 d   1      55.953  82.392  17.576  0.00  0.00     0.047 H 
ATOM     46  H19 7B8 d   1      57.310  82.671  16.433  0.00  0.00     0.047 H 
BRANCH  44  47
ATOM     47  CAL 7B8 d   1      57.862  81.573  18.231  0.00  0.00     0.222 C 
ATOM     48  OBD 7B8 d   1      58.732  82.365  18.605  0.00  0.00    -0.273 OA
ATOM     49  NAK 7B8 d   1      57.577  80.371  18.753  0.00  0.00    -0.327 N 
ATOM     50  H20 7B8 d   1      56.732  79.954  18.418  0.00  0.00     0.169 HD
BRANCH  49  51
ATOM     51  CAJ 7B8 d   1      58.245  79.646  19.649  0.00  0.00     0.035 A 
ATOM     52  CAI 7B8 d   1      57.526  78.504  20.022  0.00  0.00    -0.042 A 
ATOM     53  CAH 7B8 d   1      57.990  77.542  20.918  0.00  0.00     0.034 A 
ATOM     54  H21 7B8 d   1      56.544  78.358  19.586  0.00  0.00     0.088 H 
ATOM     55  CBA 7B8 d   1      59.277  77.713  21.404  0.00  0.00    -0.068 A 
ATOM     56  CBB 7B8 d   1      60.047  78.822  21.038  0.00  0.00    -0.080 A 
ATOM     57  H24 7B8 d   1      59.694  76.975  22.079  0.00  0.00     0.085 H 
ATOM     58  CBC 7B8 d   1      59.548  79.805  20.150  0.00  0.00    -0.057 A 
ATOM     59  H23 7B8 d   1      61.047  78.931  21.443  0.00  0.00     0.083 H 
ATOM     60  H22 7B8 d   1      60.154  80.657  19.864  0.00  0.00     0.086 H 
BRANCH  53  61
ATOM     61  CAG 7B8 d   1      57.186  76.417  21.235  0.00  0.00     0.249 C 
ATOM     62  OAF 7B8 d   1      57.286  75.754  22.278  0.00  0.00    -0.268 OA
ATOM     63  NAA 7B8 d   1      56.250  76.084  20.379  0.00  0.00    -0.366 N 
ATOM     64  H25 7B8 d   1      55.661  75.297  20.564  0.00  0.00     0.159 HD
ATOM     65  H26 7B8 d   1      56.126  76.617  19.542  0.00  0.00     0.159 HD
ENDBRANCH  53  61
ENDBRANCH  49  51
ENDBRANCH  44  47
ENDBRANCH  41  44
ENDBRANCH  38  41
ENDBRANCH  34  37
ENDBRANCH   1  34
TORSDOF 14
