REMARK  5 active torsions:
REMARK  status: ('A' for Active; 'I' for Inactive)
REMARK    1  A    between atoms: C6_16  and  C1_1 
REMARK    2  A    between atoms: O7_17  and  C8_4 
REMARK    3  A    between atoms: C13_9  and  C23_23 
REMARK    4  A    between atoms: N5_15  and  C14_10 
REMARK    5  A    between atoms: C6_16  and  O7_17 
ROOT
ATOM      1  C1  7BH d   1      26.822  17.298  15.613  0.00  0.00     0.034 C 
ATOM      2  C2  7BH d   1      26.256  15.915  15.289  0.00  0.00    -0.043 C 
ATOM      3  C3  7BH d   1      24.858  15.938  15.886  0.00  0.00    -0.048 C 
ATOM      4  C4  7BH d   1      24.387  17.360  15.686  0.00  0.00    -0.003 C 
ATOM      5  N5  7BH d   1      25.624  18.153  15.633  0.00  0.00    -0.357 N 
ATOM      6  H1  7BH d   1      27.490  17.617  14.799  0.00  0.00     0.076 H 
ATOM      7  H2  7BH d   1      26.866  15.125  15.752  0.00  0.00     0.036 H 
ATOM      8  H3  7BH d   1      26.214  15.755  14.201  0.00  0.00     0.036 H 
ATOM      9  H4  7BH d   1      24.887  15.685  16.956  0.00  0.00     0.035 H 
ATOM     10  H5  7BH d   1      24.198  15.232  15.360  0.00  0.00     0.035 H 
ATOM     11  H12 7BH d   1      23.754  17.682  16.526  0.00  0.00     0.064 H 
ATOM     12  H13 7BH d   1      23.824  17.455  14.746  0.00  0.00     0.064 H 
ENDROOT
BRANCH   1  13
ATOM     13  C6  7BH d   1      27.616  17.365  16.905  0.00  0.00     0.045 C 
ATOM     14  H14 7BH d   1      27.172  16.701  17.661  0.00  0.00     0.078 H 
ATOM     15  H15 7BH d   1      27.636  18.396  17.288  0.00  0.00     0.078 H 
BRANCH  13  16
ATOM     16  O7  7BH d   1      28.944  16.929  16.577  0.00  0.00    -0.349 OA
BRANCH  16  17
ATOM     17  C8  7BH d   1      29.956  17.039  17.496  0.00  0.00     0.074 A 
ATOM     18  C9  7BH d   1      29.792  17.462  18.814  0.00  0.00    -0.050 A 
ATOM     19  C10 7BH d   1      30.884  17.457  19.670  0.00  0.00    -0.080 A 
ATOM     20  H6  7BH d   1      28.821  17.791  19.167  0.00  0.00     0.087 H 
ATOM     21  C11 7BH d   1      32.122  17.038  19.217  0.00  0.00    -0.082 A 
ATOM     22  H7  7BH d   1      30.767  17.783  20.697  0.00  0.00     0.083 H 
ATOM     23  C12 7BH d   1      32.282  16.636  17.900  0.00  0.00    -0.075 A 
ATOM     24  H8  7BH d   1      32.969  17.024  19.893  0.00  0.00     0.083 H 
ATOM     25  C13 7BH d   1      31.208  16.628  17.013  0.00  0.00    -0.029 A 
ATOM     26  H9  7BH d   1      33.260  16.322  17.554  0.00  0.00     0.084 H 
BRANCH  25  27
ATOM     27  C23 7BH d   1      31.388  16.202  15.578  0.00  0.00    -0.049 C 
ATOM     28  H17 7BH d   1      30.424  16.268  15.052  0.00  0.00     0.033 H 
ATOM     29  H18 7BH d   1      31.753  15.165  15.546  0.00  0.00     0.033 H 
ATOM     30  H19 7BH d   1      32.118  16.863  15.088  0.00  0.00     0.033 H 
ENDBRANCH  25  27
ENDBRANCH  16  17
ENDBRANCH  13  16
ENDBRANCH   1  13
BRANCH   5  31
ATOM     31  C14 7BH d   1      25.643  19.540  15.583  0.00  0.00     0.158 A 
ATOM     32  C19 7BH d   1      24.489  20.350  15.529  0.00  0.00     0.128 A 
ATOM     33  C18 7BH d   1      24.698  21.717  15.522  0.00  0.00     0.182 A 
ATOM     34  N20 7BH d   1      23.129  20.075  15.488  0.00  0.00    -0.345 N 
ATOM     35  N15 7BH d   1      25.898  22.337  15.609  0.00  0.00    -0.220 NA
ATOM     36  N22 7BH d   1      23.456  22.285  15.457  0.00  0.00    -0.222 NA
ATOM     37  C16 7BH d   1      26.907  21.469  15.668  0.00  0.00     0.091 A 
ATOM     38  N17 7BH d   1      26.866  20.126  15.643  0.00  0.00    -0.222 NA
ATOM     39  H10 7BH d   1      27.896  21.906  15.747  0.00  0.00     0.146 H 
ATOM     40  C21 7BH d   1      22.572  21.269  15.457  0.00  0.00     0.067 A 
ATOM     41  H11 7BH d   1      21.494  21.421  15.434  0.00  0.00     0.143 H 
ATOM     42  H16 7BH d   1      22.665  19.155  15.483  0.00  0.00     0.167 HD
ENDBRANCH   5  31
TORSDOF 5
