REMARK  4 active torsions:
REMARK  status: ('A' for Active; 'I' for Inactive)
REMARK    1  A    between atoms: O4_4  and  C1_1 
REMARK    2  A    between atoms: C17_22  and  O4_4 
REMARK    3  A    between atoms: C12_9  and  C17_22 
REMARK    4  A    between atoms: N16_21  and  C18_23 
ROOT
ATOM      1  C12 7BF d   1     -26.337 -17.444  15.781  0.00  0.00     0.034 C 
ATOM      2  C13 7BF d   1     -26.152 -16.030  15.192  0.00  0.00    -0.043 C 
ATOM      3  C14 7BF d   1     -24.822 -15.570  15.850  0.00  0.00    -0.048 C 
ATOM      4  C15 7BF d   1     -24.024 -16.881  16.023  0.00  0.00    -0.003 C 
ATOM      5  N16 7BF d   1     -24.983 -18.013  15.936  0.00  0.00    -0.358 N 
ATOM      6  H6  7BF d   1     -26.897 -18.060  15.062  0.00  0.00     0.076 H 
ATOM      7  H7  7BF d   1     -26.985 -15.369  15.473  0.00  0.00     0.036 H 
ATOM      8  H8  7BF d   1     -26.064 -16.063  14.096  0.00  0.00     0.036 H 
ATOM      9  H9  7BF d   1     -25.011 -15.095  16.824  0.00  0.00     0.035 H 
ATOM     10  H10 7BF d   1     -24.284 -14.867  15.197  0.00  0.00     0.035 H 
ATOM     11  H11 7BF d   1     -23.525 -16.888  17.003  0.00  0.00     0.064 H 
ATOM     12  H12 7BF d   1     -23.270 -16.968  15.227  0.00  0.00     0.064 H 
ENDROOT
BRANCH   1  13
ATOM     13  C17 7BF d   1     -27.136 -17.418  17.091  0.00  0.00     0.045 C 
ATOM     14  H16 7BF d   1     -26.823 -18.256  17.731  0.00  0.00     0.078 H 
ATOM     15  H17 7BF d   1     -26.953 -16.469  17.616  0.00  0.00     0.078 H 
BRANCH  13  16
ATOM     16  O4  7BF d   1     -28.531 -17.539  16.788  0.00  0.00    -0.348 OA
BRANCH  16  17
ATOM     17  C1  7BF d   1     -29.488 -17.336  17.744  0.00  0.00     0.080 A 
ATOM     18  C2  7BF d   1     -29.241 -17.544  19.094  0.00  0.00    -0.050 A 
ATOM     19  C3  7BF d   1     -30.247 -17.351  20.054  0.00  0.00    -0.079 A 
ATOM     20  H1  7BF d   1     -28.255 -17.861  19.412  0.00  0.00     0.087 H 
ATOM     21  C5  7BF d   1     -31.518 -16.975  19.691  0.00  0.00    -0.071 A 
ATOM     22  H2  7BF d   1     -30.017 -17.502  21.102  0.00  0.00     0.083 H 
ATOM     23  C7  7BF d   1     -31.822 -16.764  18.328  0.00  0.00    -0.006 A 
ATOM     24  H15 7BF d   1     -32.283 -16.841  20.447  0.00  0.00     0.084 H 
ATOM     25  C8  7BF d   1     -33.115 -16.368  17.903  0.00  0.00     0.013 A 
ATOM     26  C6  7BF d   1     -30.794 -16.938  17.333  0.00  0.00     0.010 A 
ATOM     27  N9  7BF d   1     -33.350 -16.178  16.613  0.00  0.00    -0.272 NA
ATOM     28  H3  7BF d   1     -33.907 -16.221  18.629  0.00  0.00     0.116 H 
ATOM     29  C10 7BF d   1     -32.408 -16.323  15.667  0.00  0.00     0.003 A 
ATOM     30  C11 7BF d   1     -31.125 -16.705  15.972  0.00  0.00    -0.053 A 
ATOM     31  H4  7BF d   1     -32.668 -16.133  14.632  0.00  0.00     0.114 H 
ATOM     32  H5  7BF d   1     -30.382 -16.826  15.192  0.00  0.00     0.087 H 
ENDBRANCH  16  17
ENDBRANCH  13  16
ENDBRANCH   1  13
BRANCH   5  33
ATOM     33  C18 7BF d   1     -24.613 -19.362  15.905  0.00  0.00     0.147 A 
ATOM     34  C21 7BF d   1     -23.256 -19.721  15.819  0.00  0.00    -0.021 A 
ATOM     35  C20 7BF d   1     -22.888 -21.068  15.771  0.00  0.00     0.025 A 
ATOM     36  H14 7BF d   1     -22.490 -18.947  15.790  0.00  0.00     0.091 H 
ATOM     37  N19 7BF d   1     -23.823 -21.997  15.792  0.00  0.00    -0.073 NA
ATOM     38  H13 7BF d   1     -21.837 -21.348  15.717  0.00  0.00     0.115 H 
ATOM     39  C22 7BF d   1     -25.132 -21.688  15.880  0.00  0.00     0.752 A 
ATOM     40  N23 7BF d   1     -25.546 -20.373  15.951  0.00  0.00    -0.042 N 
ATOM     41  N26 7BF d   1     -26.222 -22.435  15.938  0.00  0.00    -0.052 NA
ATOM     42  N24 7BF d   1     -26.951 -20.417  16.039  0.00  0.00    -0.143 NA
ATOM     43  C25 7BF d   1     -27.305 -21.673  16.030  0.00  0.00     0.126 A 
ATOM     44  H18 7BF d   1     -28.329 -22.039  16.089  0.00  0.00     0.150 H 
ENDBRANCH   5  33
TORSDOF 4
