REMARK  4 active torsions:
REMARK  status: ('A' for Active; 'I' for Inactive)
REMARK    1  A    between atoms: O6_16  and  C5_3 
REMARK    2  A    between atoms: C8_5  and  C7_4 
REMARK    3  A    between atoms: C7_4  and  O6_16 
REMARK    4  A    between atoms: N9_17  and  C8_5 
ROOT
ATOM      1  C10 7BJ d   1      28.189   3.596  -1.731  0.00  0.00     0.326 A 
ATOM      2  C13 7BJ d   1      27.146   1.492  -1.732  0.00  0.00     0.116 A 
ATOM      3  C14 7BJ d   1      26.816   0.723  -3.017  0.00  0.00    -0.033 C 
ATOM      4  C15 7BJ d   1      27.706  -0.493  -3.220  0.00  0.00    -0.062 C 
ATOM      5  C16 7BJ d   1      27.663  -1.408  -2.007  0.00  0.00    -0.065 C 
ATOM      6  C19 7BJ d   1      26.129   2.607  -1.507  0.00  0.00     0.256 A 
ATOM      7  N9  7BJ d   1      26.826   3.784  -1.462  0.00  0.00    -0.266 N 
ATOM      8  O11 7BJ d   1      29.018   4.482  -1.827  0.00  0.00    -0.247 OA
ATOM      9  N12 7BJ d   1      28.373   2.274  -1.854  0.00  0.00    -0.324 N 
ATOM     10  C17 7BJ d   1      28.065  -0.660  -0.746  0.00  0.00    -0.062 C 
ATOM     11  C18 7BJ d   1      27.174   0.550  -0.525  0.00  0.00    -0.033 C 
ATOM     12  O20 7BJ d   1      24.934   2.485  -1.389  0.00  0.00    -0.270 OA
ATOM     13  H6  7BJ d   1      26.944   1.400  -3.875  0.00  0.00     0.037 H 
ATOM     14  H7  7BJ d   1      25.769   0.388  -2.967  0.00  0.00     0.037 H 
ATOM     15  H8  7BJ d   1      28.741  -0.158  -3.381  0.00  0.00     0.033 H 
ATOM     16  H9  7BJ d   1      27.359  -1.050  -4.103  0.00  0.00     0.033 H 
ATOM     17  H10 7BJ d   1      28.357  -2.247  -2.164  0.00  0.00     0.033 H 
ATOM     18  H11 7BJ d   1      26.641  -1.796  -1.885  0.00  0.00     0.033 H 
ATOM     19  H15 7BJ d   1      29.269   1.861  -2.015  0.00  0.00     0.165 HD
ATOM     20  H16 7BJ d   1      29.108  -0.326  -0.843  0.00  0.00     0.033 H 
ATOM     21  H17 7BJ d   1      27.975  -1.336   0.117  0.00  0.00     0.033 H 
ATOM     22  H18 7BJ d   1      26.150   0.201  -0.327  0.00  0.00     0.037 H 
ATOM     23  H19 7BJ d   1      27.547   1.107   0.347  0.00  0.00     0.037 H 
ENDROOT
BRANCH   7  24
ATOM     24  C8  7BJ d   1      26.225   5.071  -1.138  0.00  0.00     0.027 C 
ATOM     25  H4  7BJ d   1      25.468   4.921  -0.354  0.00  0.00     0.068 H 
ATOM     26  H5  7BJ d   1      27.011   5.744  -0.765  0.00  0.00     0.068 H 
BRANCH  24  27
ATOM     27  C7  7BJ d   1      25.568   5.708  -2.327  0.00  0.00     0.041 C 
ATOM     28  H2  7BJ d   1      24.852   5.003  -2.775  0.00  0.00     0.077 H 
ATOM     29  H3  7BJ d   1      26.332   5.976  -3.071  0.00  0.00     0.077 H 
BRANCH  27  30
ATOM     30  O6  7BJ d   1      24.877   6.890  -1.899  0.00  0.00    -0.350 OA
BRANCH  30  31
ATOM     31  C5  7BJ d   1      24.119   7.562  -2.827  0.00  0.00     0.069 A 
ATOM     32  C21 7BJ d   1      23.436   8.673  -2.353  0.00  0.00    -0.048 A 
ATOM     33  C22 7BJ d   1      22.647   9.410  -3.217  0.00  0.00    -0.043 A 
ATOM     34  H12 7BJ d   1      23.520   8.961  -1.312  0.00  0.00     0.087 H 
ATOM     35  C2  7BJ d   1      22.558   9.026  -4.526  0.00  0.00     0.116 A 
ATOM     36  H13 7BJ d   1      22.107  10.280  -2.861  0.00  0.00     0.088 H 
ATOM     37  C3  7BJ d   1      23.216   7.942  -5.019  0.00  0.00    -0.043 A 
ATOM     38  F1  7BJ d   1      21.780   9.756  -5.372  0.00  0.00    -0.206 F 
ATOM     39  C4  7BJ d   1      24.006   7.198  -4.168  0.00  0.00    -0.048 A 
ATOM     40  H1  7BJ d   1      23.121   7.668  -6.063  0.00  0.00     0.088 H 
ATOM     41  H14 7BJ d   1      24.539   6.331  -4.542  0.00  0.00     0.087 H 
ENDBRANCH  30  31
ENDBRANCH  27  30
ENDBRANCH  24  27
ENDBRANCH   7  24
TORSDOF 4
