REMARK  3 active torsions:
REMARK  status: ('A' for Active; 'I' for Inactive)
REMARK    1  A    between atoms: N4_1  and  C5_2 
REMARK    2  A    between atoms: S2_12  and  N4_1 
REMARK    3  A    between atoms: C8_5  and  S2_12 
ROOT
ATOM      1  C8  7BX d   1      24.111   7.326  -2.948  0.00  0.00     0.081 A 
ATOM      2  C10 7BX d   1      23.043   7.770  -5.042  0.00  0.00    -0.080 A 
ATOM      3  C11 7BX d   1      22.295   8.766  -4.449  0.00  0.00    -0.063 A 
ATOM      4  C12 7BX d   1      22.451   9.050  -3.094  0.00  0.00     0.046 A 
ATOM      5  C13 7BX d   1      21.671  10.089  -2.473  0.00  0.00     0.099 C 
ATOM      6  C15 7BX d   1      23.369   8.319  -2.347  0.00  0.00    -0.040 A 
ATOM      7  C9  7BX d   1      23.950   7.050  -4.296  0.00  0.00    -0.060 A 
ATOM      8  N14 7BX d   1      21.054  10.912  -1.981  0.00  0.00    -0.191 NA
ATOM      9  H7  7BX d   1      22.917   7.554  -6.097  0.00  0.00     0.083 H 
ATOM     10  H8  7BX d   1      21.583   9.330  -5.040  0.00  0.00     0.085 H 
ATOM     11  H9  7BX d   1      23.500   8.531  -1.292  0.00  0.00     0.088 H 
ATOM     12  H10 7BX d   1      24.537   6.268  -4.763  0.00  0.00     0.085 H 
ENDROOT
BRANCH   1  13
ATOM     13  S2  7BX d   1      25.269   6.409  -1.996  0.00  0.00     0.259 S 
ATOM     14  O1  7BX d   1      24.677   6.142  -0.721  0.00  0.00    -0.201 OA
ATOM     15  O3  7BX d   1      26.509   7.112  -2.065  0.00  0.00    -0.201 OA
BRANCH  13  16
ATOM     16  N4  7BX d   1      25.473   4.966  -2.716  0.00  0.00    -0.311 N 
ATOM     17  H1  7BX d   1      25.723   4.940  -3.684  0.00  0.00     0.172 HD
BRANCH  16  18
ATOM     18  C5  7BX d   1      25.308   3.733  -2.013  0.00  0.00     0.020 A 
ATOM     19  C6  7BX d   1      23.967   3.066  -2.038  0.00  0.00    -0.044 A 
ATOM     20  C7  7BX d   1      25.106   2.473  -2.797  0.00  0.00    -0.044 A 
ATOM     21  H3  7BX d   1      23.131   3.534  -2.578  0.00  0.00     0.036 H 
ATOM     22  H4  7BX d   1      23.586   2.563  -1.137  0.00  0.00     0.036 H 
ATOM     23  H5  7BX d   1      25.564   1.533  -2.455  0.00  0.00     0.036 H 
ATOM     24  H6  7BX d   1      25.109   2.503  -3.897  0.00  0.00     0.036 H 
ATOM     25  H2  7BX d   1      25.919   3.732  -1.098  0.00  0.00     0.073 H 
ENDBRANCH  16  18
ENDBRANCH  13  16
ENDBRANCH   1  13
TORSDOF 3
