REMARK  8 active torsions:
REMARK  status: ('A' for Active; 'I' for Inactive)
REMARK    1  A    between atoms: C2_2  and  C1_1 
REMARK    2  A    between atoms: C2_2  and  C3_3 
REMARK    3  A    between atoms: C5_4  and  C2_2 
REMARK    4  A    between atoms: C2_2  and  C4_13 
REMARK    5  A    between atoms: C9_15  and  C10_6 
REMARK    6  A    between atoms: C10_6  and  O11_16 
REMARK    7  A    between atoms: O11_16  and  C12_7 
REMARK    8  A    between atoms: N8_14  and  C9_15 
ROOT
ATOM      1  C12 7BP d   1      24.128   7.531  -2.905  0.00  0.00     0.070 A 
ATOM      2  C13 7BP d   1      24.060   7.296  -4.277  0.00  0.00    -0.048 A 
ATOM      3  C14 7BP d   1      23.265   8.088  -5.081  0.00  0.00    -0.042 A 
ATOM      4  C15 7BP d   1      22.543   9.106  -4.514  0.00  0.00     0.137 A 
ATOM      5  F16 7BP d   1      21.758   9.889  -5.295  0.00  0.00    -0.204 F 
ATOM      6  C17 7BP d   1      22.594   9.359  -3.151  0.00  0.00     0.085 A 
ATOM      7  C18 7BP d   1      21.809  10.452  -2.593  0.00  0.00     0.102 C 
ATOM      8  N19 7BP d   1      21.207  11.291  -2.166  0.00  0.00    -0.191 NA
ATOM      9  C20 7BP d   1      23.392   8.565  -2.342  0.00  0.00    -0.028 A 
ATOM     10  H12 7BP d   1      24.634   6.487  -4.715  0.00  0.00     0.087 H 
ATOM     11  H13 7BP d   1      23.212   7.907  -6.149  0.00  0.00     0.088 H 
ATOM     12  H21 7BP d   1      23.441   8.751  -1.275  0.00  0.00     0.090 H 
ENDROOT
BRANCH   1  13
ATOM     13  O11 7BP d   1      24.890   6.797  -2.029  0.00  0.00    -0.349 OA
BRANCH  13  14
ATOM     14  C10 7BP d   1      25.660   5.707  -2.550  0.00  0.00     0.041 C 
ATOM     15  H10 7BP d   1      24.999   5.009  -3.085  0.00  0.00     0.077 H 
ATOM     16  H11 7BP d   1      26.425   6.091  -3.241  0.00  0.00     0.077 H 
BRANCH  14  17
ATOM     17  C9  7BP d   1      26.323   4.998  -1.405  0.00  0.00     0.018 C 
ATOM     18  H19 7BP d   1      25.551   4.709  -0.676  0.00  0.00     0.067 H 
ATOM     19  H20 7BP d   1      27.036   5.688  -0.930  0.00  0.00     0.067 H 
BRANCH  17  20
ATOM     20  N8  7BP d   1      27.039   3.804  -1.820  0.00  0.00    -0.350 N 
ATOM     21  C7  7BP d   1      26.390   2.504  -1.922  0.00  0.00     0.002 C 
ATOM     22  C5  7BP d   1      27.450   1.629  -2.600  0.00  0.00    -0.024 C 
ATOM     23  H8  7BP d   1      26.135   2.112  -0.926  0.00  0.00     0.065 H 
ATOM     24  H9  7BP d   1      25.480   2.566  -2.536  0.00  0.00     0.065 H 
ATOM     25  C23 7BP d   1      28.773   2.344  -2.301  0.00  0.00     0.015 C 
ATOM     26  H7  7BP d   1      27.284   1.694  -3.685  0.00  0.00     0.044 H 
ATOM     27  C21 7BP d   1      28.359   3.770  -2.062  0.00  0.00     0.220 C 
ATOM     28  H14 7BP d   1      29.460   2.273  -3.157  0.00  0.00     0.047 H 
ATOM     29  H15 7BP d   1      29.255   1.920  -1.408  0.00  0.00     0.047 H 
ATOM     30  O22 7BP d   1      29.093   4.748  -2.080  0.00  0.00    -0.273 OA
BRANCH  22  31
ATOM     31  C2  7BP d   1      27.386   0.103  -2.274  0.00  0.00    -0.046 C 
BRANCH  31  32
ATOM     32  C1  7BP d   1      25.990  -0.443  -2.641  0.00  0.00    -0.069 C 
ATOM     33  H1  7BP d   1      25.945  -1.518  -2.412  0.00  0.00     0.028 H 
ATOM     34  H2  7BP d   1      25.807  -0.289  -3.715  0.00  0.00     0.028 H 
ATOM     35  H3  7BP d   1      25.223   0.089  -2.058  0.00  0.00     0.028 H 
ENDBRANCH  31  32
BRANCH  31  36
ATOM     36  C3  7BP d   1      27.645  -0.144  -0.776  0.00  0.00    -0.069 C 
ATOM     37  H4  7BP d   1      28.639   0.243  -0.507  0.00  0.00     0.028 H 
ATOM     38  H5  7BP d   1      27.604  -1.224  -0.570  0.00  0.00     0.028 H 
ATOM     39  H6  7BP d   1      26.877   0.372  -0.181  0.00  0.00     0.028 H 
ENDBRANCH  31  36
BRANCH  31  40
ATOM     40  C4  7BP d   1      28.446  -0.648  -3.103  0.00  0.00    -0.069 C 
ATOM     41  H16 7BP d   1      28.399  -1.722  -2.872  0.00  0.00     0.028 H 
ATOM     42  H17 7BP d   1      29.446  -0.263  -2.855  0.00  0.00     0.028 H 
ATOM     43  H18 7BP d   1      28.250  -0.495  -4.174  0.00  0.00     0.028 H 
ENDBRANCH  31  40
ENDBRANCH  22  31
ENDBRANCH  17  20
ENDBRANCH  14  17
ENDBRANCH  13  14
ENDBRANCH   1  13
TORSDOF 8
