REMARK  6 active torsions:
REMARK  status: ('A' for Active; 'I' for Inactive)
REMARK    1  A    between atoms: C2_2  and  C1_1 
REMARK    2  A    between atoms: C10_5  and  C2_2 
REMARK    3  A    between atoms: C15_8  and  C14_7 
REMARK    4  A    between atoms: C14_7  and  N13_20 
REMARK    5  A    between atoms: O16_21  and  C15_8 
REMARK    6  A    between atoms: O16_21  and  C17_22 
ROOT
ATOM      1  C19 7BR d   1      23.251   7.795  -5.077  0.00  0.00    -0.042 A 
ATOM      2  C22 7BR d   1      22.569   9.197  -3.238  0.00  0.00     0.085 A 
ATOM      3  C23 7BR d   1      21.828  10.310  -2.713  0.00  0.00     0.102 C 
ATOM      4  C25 7BR d   1      23.341   8.428  -2.374  0.00  0.00    -0.028 A 
ATOM      5  C17 7BR d   1      24.063   7.351  -2.861  0.00  0.00     0.070 A 
ATOM      6  C18 7BR d   1      24.015   7.037  -4.216  0.00  0.00    -0.048 A 
ATOM      7  C20 7BR d   1      22.541   8.860  -4.585  0.00  0.00     0.137 A 
ATOM      8  F21 7BR d   1      21.791   9.603  -5.430  0.00  0.00    -0.204 F 
ATOM      9  N24 7BR d   1      21.237  11.196  -2.296  0.00  0.00    -0.191 NA
ATOM     10  H15 7BR d   1      23.212   7.552  -6.133  0.00  0.00     0.088 H 
ATOM     11  H16 7BR d   1      23.378   8.672  -1.318  0.00  0.00     0.090 H 
ATOM     12  H23 7BR d   1      24.580   6.194  -4.595  0.00  0.00     0.087 H 
ENDROOT
BRANCH   5  13
ATOM     13  O16 7BR d   1      24.785   6.671  -1.912  0.00  0.00    -0.349 OA
BRANCH  13  14
ATOM     14  C15 7BR d   1      25.528   5.520  -2.329  0.00  0.00     0.041 C 
ATOM     15  H13 7BR d   1      24.840   4.760  -2.728  0.00  0.00     0.077 H 
ATOM     16  H14 7BR d   1      26.249   5.807  -3.108  0.00  0.00     0.077 H 
BRANCH  14  17
ATOM     17  C14 7BR d   1      26.263   4.964  -1.139  0.00  0.00     0.018 C 
ATOM     18  H11 7BR d   1      25.532   4.717  -0.355  0.00  0.00     0.067 H 
ATOM     19  H12 7BR d   1      26.959   5.729  -0.764  0.00  0.00     0.067 H 
BRANCH  17  20
ATOM     20  N13 7BR d   1      27.016   3.769  -1.468  0.00  0.00    -0.350 N 
ATOM     21  C12 7BR d   1      26.406   2.448  -1.494  0.00  0.00     0.002 C 
ATOM     22  C10 7BR d   1      27.457   1.599  -2.215  0.00  0.00    -0.024 C 
ATOM     23  H9  7BR d   1      26.227   2.075  -0.475  0.00  0.00     0.065 H 
ATOM     24  H10 7BR d   1      25.458   2.461  -2.051  0.00  0.00     0.065 H 
ATOM     25  C28 7BR d   1      28.769   2.336  -1.936  0.00  0.00     0.015 C 
ATOM     26  H8  7BR d   1      27.261   1.679  -3.294  0.00  0.00     0.044 H 
ATOM     27  C26 7BR d   1      28.328   3.761  -1.749  0.00  0.00     0.220 C 
ATOM     28  H17 7BR d   1      29.461   2.245  -2.786  0.00  0.00     0.047 H 
ATOM     29  H18 7BR d   1      29.253   1.950  -1.027  0.00  0.00     0.047 H 
ATOM     30  O27 7BR d   1      29.035   4.754  -1.834  0.00  0.00    -0.273 OA
BRANCH  22  31
ATOM     31  C2  7BR d   1      27.431   0.075  -1.918  0.00  0.00    -0.037 C 
ATOM     32  C3  7BR d   1      28.458  -0.605  -2.845  0.00  0.00    -0.046 C 
ATOM     33  C4  7BR d   1      28.511  -2.118  -2.707  0.00  0.00     0.029 C 
ATOM     34  H4  7BR d   1      29.454  -0.202  -2.612  0.00  0.00     0.035 H 
ATOM     35  H5  7BR d   1      28.198  -0.362  -3.886  0.00  0.00     0.035 H 
ATOM     36  S5  7BR d   1      26.963  -2.858  -3.118  0.00  0.00     0.144 S 
ATOM     37  H19 7BR d   1      28.765  -2.374  -1.668  0.00  0.00     0.056 H 
ATOM     38  H20 7BR d   1      29.286  -2.512  -3.381  0.00  0.00     0.056 H 
ATOM     39  C8  7BR d   1      25.842  -1.950  -2.103  0.00  0.00     0.029 C 
ATOM     40  O6  7BR d   1      26.674  -2.596  -4.503  0.00  0.00    -0.228 OA
ATOM     41  O7  7BR d   1      26.977  -4.226  -2.681  0.00  0.00    -0.228 OA
ATOM     42  C9  7BR d   1      26.021  -0.449  -2.272  0.00  0.00    -0.046 C 
ATOM     43  H6  7BR d   1      26.020  -2.214  -1.050  0.00  0.00     0.056 H 
ATOM     44  H7  7BR d   1      24.812  -2.220  -2.380  0.00  0.00     0.056 H 
ATOM     45  H21 7BR d   1      25.814  -0.195  -3.322  0.00  0.00     0.035 H 
ATOM     46  H22 7BR d   1      25.293   0.059  -1.622  0.00  0.00     0.035 H 
BRANCH  31  47
ATOM     47  C1  7BR d   1      27.763  -0.203  -0.437  0.00  0.00    -0.069 C 
ATOM     48  H1  7BR d   1      27.738  -1.287  -0.253  0.00  0.00     0.028 H 
ATOM     49  H2  7BR d   1      27.021   0.295   0.205  0.00  0.00     0.028 H 
ATOM     50  H3  7BR d   1      28.766   0.185  -0.207  0.00  0.00     0.028 H 
ENDBRANCH  31  47
ENDBRANCH  22  31
ENDBRANCH  17  20
ENDBRANCH  14  17
ENDBRANCH  13  14
ENDBRANCH   5  13
TORSDOF 6
