REMARK  22 active torsions:
REMARK  status: ('A' for Active; 'I' for Inactive)
REMARK    1  A    between atoms: C4_1  and  O4_8 
REMARK    2  A    between atoms: C5_2  and  C6_3 
REMARK    3  A    between atoms: C6_3  and  O6_9 
REMARK    4  A    between atoms: C3_4  and  O3_7 
REMARK    5  A    between atoms: C2_6  and  O2_5 
REMARK    6  A    between atoms: C1_11  and  CBQ_12 
REMARK    7  A    between atoms: CBQ_12  and  CBE_13 
REMARK    8  A    between atoms: CBE_13  and  NAA_14 
REMARK       I    between atoms: NAA_14  and  CAB_15 
REMARK    9  A    between atoms: CAB_15  and  CAC_17 
REMARK   10  A    between atoms: CAC_17  and  CAE_18 
REMARK   11  A    between atoms: CAE_18  and  CAF_19 
REMARK   12  A    between atoms: NAI_23  and  CAR_24 
REMARK   13  A    between atoms: CAR_24  and  CBA_25 
REMARK   14  A    between atoms: CAP_30  and  OBD_31 
REMARK   15  A    between atoms: CAO_32  and  NAN_33 
REMARK       I    between atoms: NAN_33  and  CAL_34 
REMARK   16  A    between atoms: CAL_34  and  CAK_36 
REMARK   17  A    between atoms: CAT_37  and  CAU_38 
REMARK   18  A    between atoms: CAU_38  and  OAZ_39 
REMARK   19  A    between atoms: CAU_38  and  CAV_40 
REMARK   20  A    between atoms: CAV_40  and  OAY_41 
REMARK   21  A    between atoms: CAV_40  and  CAW_42 
REMARK   22  A    between atoms: CAW_42  and  OAX_43 
ROOT
ATOM      1  CAF 7BN d   1     -18.515  13.741  -5.832  0.00  0.00     0.076 A 
ATOM      2  CAH 7BN d   1     -17.881  13.906  -4.668  0.00  0.00     0.029 A 
ATOM      3  NAG 7BN d   1     -19.497  14.632  -5.895  0.00  0.00    -0.135 NA
ATOM      4  NAJ 7BN d   1     -19.537  15.314  -4.766  0.00  0.00    -0.063 NA
ATOM      5  NAI 7BN d   1     -18.502  14.876  -4.014  0.00  0.00    -0.214 N 
ATOM      6  H21 7BN d   1     -17.014  13.346  -4.321  0.00  0.00     0.117 H 
ENDROOT
BRANCH   1   7
ATOM      7  CAE 7BN d   1     -18.153  12.740  -6.918  0.00  0.00    -0.014 C 
ATOM      8  H19 7BN d   1     -19.066  12.476  -7.472  0.00  0.00     0.043 H 
ATOM      9  H20 7BN d   1     -17.431  13.209  -7.603  0.00  0.00     0.043 H 
BRANCH   7  10
ATOM     10  CAC 7BN d   1     -17.524  11.440  -6.346  0.00  0.00     0.014 C 
ATOM     11  H17 7BN d   1     -17.530  10.672  -7.134  0.00  0.00     0.047 H 
ATOM     12  H18 7BN d   1     -16.486  11.654  -6.051  0.00  0.00     0.047 H 
BRANCH  10  13
ATOM     13  CAB 7BN d   1     -18.268  10.898  -5.138  0.00  0.00     0.217 C 
ATOM     14  NAA 7BN d   1     -17.510  10.483  -4.093  0.00  0.00    -0.361 N 
ATOM     15  H16 7BN d   1     -16.517  10.445  -4.205  0.00  0.00     0.162 HD
ATOM     16  OAD 7BN d   1     -19.496  10.805  -5.126  0.00  0.00    -0.274 OA
BRANCH  14  17
ATOM     17  CBE 7BN d   1     -18.088  10.089  -2.807  0.00  0.00    -0.003 C 
ATOM     18  H14 7BN d   1     -17.308  10.145  -2.034  0.00  0.00     0.064 H 
ATOM     19  H15 7BN d   1     -18.904  10.783  -2.556  0.00  0.00     0.064 H 
BRANCH  17  20
ATOM     20  CBQ 7BN d   1     -18.645   8.661  -2.847  0.00  0.00    -0.024 C 
ATOM     21  H12 7BN d   1     -19.438   8.582  -3.605  0.00  0.00     0.039 H 
ATOM     22  H13 7BN d   1     -17.843   7.945  -3.079  0.00  0.00     0.039 H 
BRANCH  20  23
ATOM     23  C1  7BN d   1     -19.201   8.395  -1.484  0.00  0.00     0.068 C 
ATOM     24  C2  7BN d   1     -20.305   7.304  -1.466  0.00  0.00     0.087 C 
ATOM     25  C3  7BN d   1     -20.715   7.007  -0.070  0.00  0.00     0.090 C 
ATOM     26  H7  7BN d   1     -19.957   6.395  -1.979  0.00  0.00     0.091 H 
ATOM     27  C4  7BN d   1     -19.488   6.562   0.780  0.00  0.00     0.089 C 
ATOM     28  H5  7BN d   1     -21.123   7.932   0.363  0.00  0.00     0.091 H 
ATOM     29  C5  7BN d   1     -18.360   7.627   0.559  0.00  0.00     0.086 C 
ATOM     30  H1  7BN d   1     -19.764   6.511   1.844  0.00  0.00     0.091 H 
ATOM     31  O5  7BN d   1     -18.058   7.801  -0.802  0.00  0.00    -0.373 OA
ATOM     32  H2  7BN d   1     -18.682   8.589   0.984  0.00  0.00     0.090 H 
ATOM     33  H11 7BN d   1     -19.558   9.320  -1.007  0.00  0.00     0.087 H 
BRANCH  24  34
ATOM     34  O2  7BN d   1     -21.528   7.870  -2.118  0.00  0.00    -0.390 OA
ATOM     35  H6  7BN d   1     -21.797   8.656  -1.657  0.00  0.00     0.210 HD
ENDBRANCH  24  34
BRANCH  25  36
ATOM     36  O3  7BN d   1     -21.750   5.971   0.010  0.00  0.00    -0.390 OA
ATOM     37  H8  7BN d   1     -22.521   6.258  -0.465  0.00  0.00     0.210 HD
ENDBRANCH  25  36
BRANCH  27  38
ATOM     38  O4  7BN d   1     -19.017   5.293   0.346  0.00  0.00    -0.390 OA
ATOM     39  H9  7BN d   1     -18.270   5.036   0.874  0.00  0.00     0.210 HD
ENDBRANCH  27  38
BRANCH  29  40
ATOM     40  C6  7BN d   1     -17.092   7.137   1.272  0.00  0.00     0.043 C 
ATOM     41  H3  7BN d   1     -16.679   6.259   0.754  0.00  0.00     0.078 H 
ATOM     42  H4  7BN d   1     -17.319   6.874   2.316  0.00  0.00     0.078 H 
BRANCH  40  43
ATOM     43  O6  7BN d   1     -16.161   8.224   1.226  0.00  0.00    -0.398 OA
ATOM     44  H10 7BN d   1     -15.980   8.446   0.320  0.00  0.00     0.209 HD
ENDBRANCH  40  43
ENDBRANCH  29  40
ENDBRANCH  20  23
ENDBRANCH  17  20
ENDBRANCH  14  17
ENDBRANCH  10  13
ENDBRANCH   7  10
ENDBRANCH   1   7
BRANCH   5  45
ATOM     45  CAR 7BN d   1     -18.304  15.433  -2.697  0.00  0.00     0.249 C 
ATOM     46  OAS 7BN d   1     -16.897  15.172  -2.443  0.00  0.00    -0.340 OA
ATOM     47  CAT 7BN d   1     -16.530  15.539  -1.098  0.00  0.00     0.091 C 
ATOM     48  CAO 7BN d   1     -16.612  17.036  -0.980  0.00  0.00     0.064 C 
ATOM     49  H31 7BN d   1     -17.216  15.090  -0.365  0.00  0.00     0.090 H 
ATOM     50  CAP 7BN d   1     -18.066  17.448  -1.291  0.00  0.00     0.062 C 
ATOM     51  H26 7BN d   1     -15.910  17.507  -1.684  0.00  0.00     0.080 H 
ATOM     52  CAQ 7BN d   1     -18.552  16.927  -2.668  0.00  0.00     0.019 C 
ATOM     53  H24 7BN d   1     -18.725  17.064  -0.498  0.00  0.00     0.086 H 
ATOM     54  H22 7BN d   1     -19.625  17.133  -2.791  0.00  0.00     0.045 H 
ATOM     55  H23 7BN d   1     -17.990  17.418  -3.476  0.00  0.00     0.045 H 
BRANCH  45  56
ATOM     56  CBA 7BN d   1     -19.252  14.593  -1.795  0.00  0.00     0.233 C 
ATOM     57  OBC 7BN d   1     -20.282  15.116  -1.317  0.00  0.00    -0.644 OA
ATOM     58  OBB 7BN d   1     -18.823  13.445  -1.470  0.00  0.00    -0.644 OA
ENDBRANCH  45  56
BRANCH  47  59
ATOM     59  CAU 7BN d   1     -15.124  14.936  -0.923  0.00  0.00     0.089 C 
ATOM     60  H32 7BN d   1     -14.845  15.001   0.139  0.00  0.00     0.091 H 
BRANCH  59  61
ATOM     61  OAZ 7BN d   1     -14.154  15.664  -1.703  0.00  0.00    -0.390 OA
ATOM     62  H33 7BN d   1     -14.137  16.570  -1.419  0.00  0.00     0.210 HD
ENDBRANCH  59  61
BRANCH  59  63
ATOM     63  CAV 7BN d   1     -15.118  13.450  -1.352  0.00  0.00     0.083 C 
ATOM     64  H34 7BN d   1     -15.207  13.356  -2.444  0.00  0.00     0.090 H 
BRANCH  63  65
ATOM     65  OAY 7BN d   1     -16.199  12.781  -0.676  0.00  0.00    -0.391 OA
ATOM     66  H35 7BN d   1     -17.023  13.188  -0.918  0.00  0.00     0.210 HD
ENDBRANCH  63  65
BRANCH  63  67
ATOM     67  CAW 7BN d   1     -13.858  12.811  -0.849  0.00  0.00     0.043 C 
ATOM     68  H36 7BN d   1     -13.966  12.568   0.218  0.00  0.00     0.078 H 
ATOM     69  H37 7BN d   1     -13.013  13.502  -0.984  0.00  0.00     0.078 H 
BRANCH  67  70
ATOM     70  OAX 7BN d   1     -13.624  11.609  -1.597  0.00  0.00    -0.398 OA
ATOM     71  H38 7BN d   1     -13.533  11.823  -2.518  0.00  0.00     0.209 HD
ENDBRANCH  67  70
ENDBRANCH  63  67
ENDBRANCH  59  63
ENDBRANCH  47  59
BRANCH  48  72
ATOM     72  NAN 7BN d   1     -16.335  17.485   0.384  0.00  0.00    -0.352 N 
ATOM     73  CAL 7BN d   1     -15.069  17.847   0.761  0.00  0.00     0.214 C 
ATOM     74  OAM 7BN d   1     -14.102  17.719   0.039  0.00  0.00    -0.274 OA
ATOM     75  H27 7BN d   1     -17.080  17.528   1.050  0.00  0.00     0.163 HD
BRANCH  73  76
ATOM     76  CAK 7BN d   1     -14.961  18.315   2.180  0.00  0.00    -0.003 C 
ATOM     77  H28 7BN d   1     -13.917  18.584   2.399  0.00  0.00     0.040 H 
ATOM     78  H29 7BN d   1     -15.281  17.509   2.857  0.00  0.00     0.040 H 
ATOM     79  H30 7BN d   1     -15.605  19.195   2.326  0.00  0.00     0.040 H 
ENDBRANCH  73  76
ENDBRANCH  48  72
BRANCH  50  80
ATOM     80  OBD 7BN d   1     -18.144  18.891  -1.354  0.00  0.00    -0.393 OA
ATOM     81  H25 7BN d   1     -17.854  19.259  -0.527  0.00  0.00     0.210 HD
ENDBRANCH  50  80
ENDBRANCH   5  45
TORSDOF 22
