REMARK  22 active torsions:
REMARK  status: ('A' for Active; 'I' for Inactive)
REMARK    1  A    between atoms: C4_1  and  O4_8 
REMARK    2  A    between atoms: C5_2  and  C6_3 
REMARK    3  A    between atoms: C6_3  and  O6_9 
REMARK    4  A    between atoms: C3_4  and  O3_7 
REMARK    5  A    between atoms: C2_6  and  O2_5 
REMARK    6  A    between atoms: C1_11  and  CBQ_12 
REMARK    7  A    between atoms: CBQ_12  and  CBE_13 
REMARK    8  A    between atoms: CBE_13  and  NAA_14 
REMARK       I    between atoms: NAA_14  and  CAB_15 
REMARK    9  A    between atoms: CAB_15  and  CAC_17 
REMARK   10  A    between atoms: CAC_17  and  CAE_18 
REMARK   11  A    between atoms: CAE_18  and  CAF_19 
REMARK   12  A    between atoms: NAI_23  and  CAR_24 
REMARK   13  A    between atoms: CAR_24  and  CBA_25 
REMARK   14  A    between atoms: CAP_30  and  OBD_31 
REMARK   15  A    between atoms: CAO_32  and  NAN_33 
REMARK       I    between atoms: NAN_33  and  CAL_34 
REMARK   16  A    between atoms: CAL_34  and  CAK_36 
REMARK   17  A    between atoms: CAT_37  and  CAU_38 
REMARK   18  A    between atoms: CAU_38  and  OAZ_39 
REMARK   19  A    between atoms: CAU_38  and  CAV_40 
REMARK   20  A    between atoms: CAV_40  and  OAY_41 
REMARK   21  A    between atoms: CAV_40  and  CAW_42 
REMARK   22  A    between atoms: CAW_42  and  OAX_43 
ROOT
ATOM      1  CAF 7BO d   1     -18.415  13.846  -5.750  0.00  0.00     0.076 A 
ATOM      2  CAH 7BO d   1     -17.795  14.028  -4.576  0.00  0.00     0.029 A 
ATOM      3  NAG 7BO d   1     -19.397  14.733  -5.801  0.00  0.00    -0.135 NA
ATOM      4  NAJ 7BO d   1     -19.433  15.427  -4.679  0.00  0.00    -0.063 NA
ATOM      5  NAI 7BO d   1     -18.402  14.990  -3.895  0.00  0.00    -0.214 N 
ATOM      6  H21 7BO d   1     -16.925  13.470  -4.233  0.00  0.00     0.117 H 
ENDROOT
BRANCH   1   7
ATOM      7  CAE 7BO d   1     -18.101  12.822  -6.842  0.00  0.00    -0.014 C 
ATOM      8  H19 7BO d   1     -19.046  12.513  -7.313  0.00  0.00     0.043 H 
ATOM      9  H20 7BO d   1     -17.456  13.300  -7.593  0.00  0.00     0.043 H 
BRANCH   7  10
ATOM     10  CAC 7BO d   1     -17.379  11.553  -6.307  0.00  0.00     0.014 C 
ATOM     11  H17 7BO d   1     -17.355  10.788  -7.097  0.00  0.00     0.047 H 
ATOM     12  H18 7BO d   1     -16.350  11.815  -6.019  0.00  0.00     0.047 H 
BRANCH  10  13
ATOM     13  CAB 7BO d   1     -18.120  10.998  -5.088  0.00  0.00     0.217 C 
ATOM     14  NAA 7BO d   1     -17.373  10.531  -4.067  0.00  0.00    -0.361 N 
ATOM     15  H16 7BO d   1     -16.381  10.472  -4.175  0.00  0.00     0.162 HD
ATOM     16  OAD 7BO d   1     -19.347  10.985  -5.043  0.00  0.00    -0.274 OA
BRANCH  14  17
ATOM     17  CBE 7BO d   1     -17.995  10.100  -2.777  0.00  0.00    -0.003 C 
ATOM     18  H14 7BO d   1     -17.227  10.112  -1.989  0.00  0.00     0.064 H 
ATOM     19  H15 7BO d   1     -18.799  10.804  -2.516  0.00  0.00     0.064 H 
BRANCH  17  20
ATOM     20  CBQ 7BO d   1     -18.573   8.712  -2.875  0.00  0.00    -0.024 C 
ATOM     21  H12 7BO d   1     -19.355   8.666  -3.647  0.00  0.00     0.039 H 
ATOM     22  H13 7BO d   1     -17.788   7.976  -3.104  0.00  0.00     0.039 H 
BRANCH  20  23
ATOM     23  C1  7BO d   1     -19.151   8.471  -1.515  0.00  0.00     0.068 C 
ATOM     24  C2  7BO d   1     -20.253   7.391  -1.498  0.00  0.00     0.087 C 
ATOM     25  C3  7BO d   1     -20.653   7.126  -0.060  0.00  0.00     0.090 C 
ATOM     26  H7  7BO d   1     -19.919   6.469  -1.996  0.00  0.00     0.091 H 
ATOM     27  C4  7BO d   1     -19.418   6.702   0.778  0.00  0.00     0.089 C 
ATOM     28  H5  7BO d   1     -21.044   8.061   0.369  0.00  0.00     0.091 H 
ATOM     29  C5  7BO d   1     -18.281   7.757   0.625  0.00  0.00     0.086 C 
ATOM     30  H1  7BO d   1     -19.707   6.653   1.838  0.00  0.00     0.091 H 
ATOM     31  O5  7BO d   1     -18.005   7.930  -0.768  0.00  0.00    -0.373 OA
ATOM     32  H2  7BO d   1     -18.577   8.704   1.101  0.00  0.00     0.090 H 
ATOM     33  H11 7BO d   1     -19.531   9.406  -1.078  0.00  0.00     0.087 H 
BRANCH  24  34
ATOM     34  O2  7BO d   1     -21.430   7.984  -2.172  0.00  0.00    -0.390 OA
ATOM     35  H6  7BO d   1     -21.216   8.165  -3.080  0.00  0.00     0.210 HD
ENDBRANCH  24  34
BRANCH  25  36
ATOM     36  O3  7BO d   1     -21.734   6.124  -0.025  0.00  0.00    -0.390 OA
ATOM     37  H8  7BO d   1     -22.484   6.452  -0.507  0.00  0.00     0.210 HD
ENDBRANCH  25  36
BRANCH  27  38
ATOM     38  O4  7BO d   1     -18.993   5.411   0.365  0.00  0.00    -0.390 OA
ATOM     39  H9  7BO d   1     -18.237   5.149   0.877  0.00  0.00     0.210 HD
ENDBRANCH  27  38
BRANCH  29  40
ATOM     40  C6  7BO d   1     -16.978   7.251   1.189  0.00  0.00     0.043 C 
ATOM     41  H3  7BO d   1     -16.527   6.510   0.513  0.00  0.00     0.078 H 
ATOM     42  H4  7BO d   1     -17.136   6.797   2.178  0.00  0.00     0.078 H 
BRANCH  40  43
ATOM     43  O6  7BO d   1     -16.132   8.420   1.297  0.00  0.00    -0.398 OA
ATOM     44  H10 7BO d   1     -16.015   8.805   0.436  0.00  0.00     0.209 HD
ENDBRANCH  40  43
ENDBRANCH  29  40
ENDBRANCH  20  23
ENDBRANCH  17  20
ENDBRANCH  14  17
ENDBRANCH  10  13
ENDBRANCH   7  10
ENDBRANCH   1   7
BRANCH   5  45
ATOM     45  CAR 7BO d   1     -18.175  15.550  -2.606  0.00  0.00     0.249 C 
ATOM     46  OAS 7BO d   1     -16.745  15.350  -2.357  0.00  0.00    -0.340 OA
ATOM     47  CAT 7BO d   1     -16.411  15.683  -1.030  0.00  0.00     0.091 C 
ATOM     48  CAO 7BO d   1     -16.504  17.162  -0.909  0.00  0.00     0.064 C 
ATOM     49  H31 7BO d   1     -17.117  15.232  -0.317  0.00  0.00     0.090 H 
ATOM     50  CAP 7BO d   1     -17.993  17.556  -1.171  0.00  0.00     0.062 C 
ATOM     51  H26 7BO d   1     -15.817  17.655  -1.612  0.00  0.00     0.080 H 
ATOM     52  CAQ 7BO d   1     -18.459  17.023  -2.553  0.00  0.00     0.019 C 
ATOM     53  H24 7BO d   1     -18.635  17.119  -0.392  0.00  0.00     0.086 H 
ATOM     54  H22 7BO d   1     -19.538  17.199  -2.676  0.00  0.00     0.045 H 
ATOM     55  H23 7BO d   1     -17.910  17.538  -3.355  0.00  0.00     0.045 H 
BRANCH  45  56
ATOM     56  CBA 7BO d   1     -19.093  14.728  -1.666  0.00  0.00     0.233 C 
ATOM     57  OBC 7BO d   1     -18.720  13.555  -1.356  0.00  0.00    -0.644 OA
ATOM     58  OBB 7BO d   1     -20.136  15.267  -1.232  0.00  0.00    -0.644 OA
ENDBRANCH  45  56
BRANCH  47  59
ATOM     59  CAU 7BO d   1     -15.027  15.043  -0.838  0.00  0.00     0.089 C 
ATOM     60  H32 7BO d   1     -14.749  15.103   0.225  0.00  0.00     0.091 H 
BRANCH  59  61
ATOM     61  OAZ 7BO d   1     -14.048  15.732  -1.630  0.00  0.00    -0.390 OA
ATOM     62  H33 7BO d   1     -14.010  16.643  -1.362  0.00  0.00     0.210 HD
ENDBRANCH  59  61
BRANCH  59  63
ATOM     63  CAV 7BO d   1     -15.045  13.557  -1.284  0.00  0.00     0.083 C 
ATOM     64  H34 7BO d   1     -15.119  13.484  -2.379  0.00  0.00     0.090 H 
BRANCH  63  65
ATOM     65  OAY 7BO d   1     -16.183  12.896  -0.642  0.00  0.00    -0.391 OA
ATOM     66  H35 7BO d   1     -16.988  13.325  -0.907  0.00  0.00     0.210 HD
ENDBRANCH  63  65
BRANCH  63  67
ATOM     67  CAW 7BO d   1     -13.790  12.885  -0.790  0.00  0.00     0.043 C 
ATOM     68  H36 7BO d   1     -13.907  12.616   0.270  0.00  0.00     0.078 H 
ATOM     69  H37 7BO d   1     -12.935  13.568  -0.903  0.00  0.00     0.078 H 
BRANCH  67  70
ATOM     70  OAX 7BO d   1     -13.573  11.730  -1.548  0.00  0.00    -0.398 OA
ATOM     71  H38 7BO d   1     -13.475  11.967  -2.463  0.00  0.00     0.209 HD
ENDBRANCH  67  70
ENDBRANCH  63  67
ENDBRANCH  59  63
ENDBRANCH  47  59
BRANCH  48  72
ATOM     72  NAN 7BO d   1     -16.252  17.578   0.454  0.00  0.00    -0.352 N 
ATOM     73  CAL 7BO d   1     -14.979  17.893   0.841  0.00  0.00     0.214 C 
ATOM     74  OAM 7BO d   1     -14.042  17.880   0.063  0.00  0.00    -0.274 OA
ATOM     75  H27 7BO d   1     -17.005  17.635   1.109  0.00  0.00     0.163 HD
BRANCH  73  76
ATOM     76  CAK 7BO d   1     -14.904  18.365   2.261  0.00  0.00    -0.003 C 
ATOM     77  H28 7BO d   1     -13.860  18.602   2.514  0.00  0.00     0.040 H 
ATOM     78  H29 7BO d   1     -15.273  17.574   2.930  0.00  0.00     0.040 H 
ATOM     79  H30 7BO d   1     -15.524  19.265   2.381  0.00  0.00     0.040 H 
ENDBRANCH  73  76
ENDBRANCH  48  72
BRANCH  50  80
ATOM     80  OBD 7BO d   1     -18.056  19.026  -1.087  0.00  0.00    -0.393 OA
ATOM     81  H25 7BO d   1     -17.763  19.306  -0.228  0.00  0.00     0.210 HD
ENDBRANCH  50  80
ENDBRANCH   5  45
TORSDOF 22
