REMARK  17 active torsions:
REMARK  status: ('A' for Active; 'I' for Inactive)
REMARK    1  A    between atoms: C4_1  and  O4_27 
REMARK    2  A    between atoms: C5_2  and  C6_3 
REMARK    3  A    between atoms: C6_3  and  O6_26 
REMARK    4  A    between atoms: C3_4  and  O3_28 
REMARK    5  A    between atoms: OAY_6  and  CBB_5 
REMARK    6  A    between atoms: CAU_7  and  OAY_6 
REMARK    7  A    between atoms: CAV_9  and  OAZ_10 
REMARK    8  A    between atoms: OAZ_10  and  CBC_11 
REMARK    9  A    between atoms: CAW_12  and  OBA_13 
REMARK   10  A    between atoms: OBA_13  and  CBD_14 
REMARK   11  A    between atoms: CAE_17  and  CAF_16 
REMARK   12  A    between atoms: CAC_18  and  CAE_17 
REMARK   13  A    between atoms: CAB_19  and  CAC_18 
REMARK       I    between atoms: NAA_21  and  CAB_19 
REMARK   14  A    between atoms: CAG_22  and  NAA_21 
REMARK   15  A    between atoms: CAS_23  and  CAG_22 
REMARK   16  A    between atoms: C1_24  and  CAS_23 
REMARK   17  A    between atoms: C2_29  and  O2_30 
ROOT
ATOM      1  CAB 7BT d   1      19.668   4.914  18.073  0.00  0.00     0.217 C 
ATOM      2  OAD 7BT d   1      19.863   5.887  18.761  0.00  0.00    -0.274 OA
ATOM      3  NAA 7BT d   1      18.430   4.540  17.783  0.00  0.00    -0.361 N 
ATOM      4  H21 7BT d   1      18.311   3.647  17.348  0.00  0.00     0.162 HD
ENDROOT
BRANCH   1   5
ATOM      5  CAC 7BT d   1      20.858   4.005  17.725  0.00  0.00     0.013 C 
ATOM      6  H19 7BT d   1      20.693   3.060  18.264  0.00  0.00     0.047 H 
ATOM      7  H20 7BT d   1      20.801   3.824  16.642  0.00  0.00     0.047 H 
BRANCH   5   8
ATOM      8  CAE 7BT d   1      22.336   4.428  18.023  0.00  0.00    -0.033 C 
ATOM      9  H17 7BT d   1      22.812   3.554  18.492  0.00  0.00     0.040 H 
ATOM     10  H18 7BT d   1      22.800   4.616  17.044  0.00  0.00     0.040 H 
BRANCH   8  11
ATOM     11  CAF 7BT d   1      22.672   5.530  18.828  0.00  0.00    -0.052 A 
ATOM     12  CAT 7BT d   1      23.653   5.354  19.818  0.00  0.00    -0.042 A 
ATOM     13  CAU 7BT d   1      24.019   6.421  20.660  0.00  0.00     0.104 A 
ATOM     14  H9  7BT d   1      24.132   4.389  19.934  0.00  0.00     0.088 H 
ATOM     15  CAV 7BT d   1      23.361   7.655  20.492  0.00  0.00     0.135 A 
ATOM     16  CAW 7BT d   1      22.365   7.850  19.528  0.00  0.00     0.104 A 
ATOM     17  CAX 7BT d   1      22.063   6.793  18.676  0.00  0.00    -0.042 A 
ATOM     18  H16 7BT d   1      21.344   6.943  17.878  0.00  0.00     0.088 H 
BRANCH  13  19
ATOM     19  OAY 7BT d   1      24.976   6.321  21.661  0.00  0.00    -0.353 OA
BRANCH  19  20
ATOM     20  CBB 7BT d   1      26.188   5.615  21.299  0.00  0.00     0.010 C 
ATOM     21  H6  7BT d   1      26.872   5.595  22.160  0.00  0.00     0.066 H 
ATOM     22  H7  7BT d   1      26.674   6.129  20.456  0.00  0.00     0.066 H 
ATOM     23  H8  7BT d   1      25.938   4.585  21.005  0.00  0.00     0.066 H 
ENDBRANCH  19  20
ENDBRANCH  13  19
BRANCH  15  24
ATOM     24  OAZ 7BT d   1      23.693   8.691  21.295  0.00  0.00    -0.351 OA
BRANCH  24  25
ATOM     25  CBC 7BT d   1      24.491   9.675  20.620  0.00  0.00     0.011 C 
ATOM     26  H10 7BT d   1      24.732  10.492  21.316  0.00  0.00     0.067 H 
ATOM     27  H11 7BT d   1      23.930  10.077  19.763  0.00  0.00     0.067 H 
ATOM     28  H12 7BT d   1      25.422   9.210  20.264  0.00  0.00     0.067 H 
ENDBRANCH  24  25
ENDBRANCH  15  24
BRANCH  16  29
ATOM     29  OBA 7BT d   1      21.767   9.090  19.349  0.00  0.00    -0.353 OA
BRANCH  29  30
ATOM     30  CBD 7BT d   1      21.142   9.806  20.417  0.00  0.00     0.010 C 
ATOM     31  H13 7BT d   1      20.742  10.757  20.036  0.00  0.00     0.066 H 
ATOM     32  H14 7BT d   1      21.882  10.009  21.205  0.00  0.00     0.066 H 
ATOM     33  H15 7BT d   1      20.321   9.203  20.832  0.00  0.00     0.066 H 
ENDBRANCH  29  30
ENDBRANCH  16  29
ENDBRANCH   8  11
ENDBRANCH   5   8
ENDBRANCH   1   5
BRANCH   3  34
ATOM     34  CAG 7BT d   1      17.214   5.328  18.047  0.00  0.00    -0.003 C 
ATOM     35  H22 7BT d   1      16.446   4.646  18.439  0.00  0.00     0.064 H 
ATOM     36  H23 7BT d   1      16.872   5.755  17.093  0.00  0.00     0.064 H 
BRANCH  34  37
ATOM     37  CAS 7BT d   1      17.385   6.509  19.074  0.00  0.00    -0.024 C 
ATOM     38  H24 7BT d   1      18.443   6.799  19.154  0.00  0.00     0.039 H 
ATOM     39  H25 7BT d   1      17.010   6.214  20.065  0.00  0.00     0.039 H 
BRANCH  37  40
ATOM     40  C1  7BT d   1      16.557   7.663  18.512  0.00  0.00     0.068 C 
ATOM     41  O5  7BT d   1      15.193   7.225  18.186  0.00  0.00    -0.373 OA
ATOM     42  C5  7BT d   1      14.362   6.959  19.291  0.00  0.00     0.086 C 
ATOM     43  C4  7BT d   1      14.121   8.232  20.043  0.00  0.00     0.089 C 
ATOM     44  H2  7BT d   1      14.838   6.218  19.949  0.00  0.00     0.090 H 
ATOM     45  C3  7BT d   1      15.514   8.753  20.561  0.00  0.00     0.090 C 
ATOM     46  H1  7BT d   1      13.461   8.011  20.895  0.00  0.00     0.091 H 
ATOM     47  C2  7BT d   1      16.454   8.934  19.365  0.00  0.00     0.087 C 
ATOM     48  H5  7BT d   1      15.944   8.027  21.267  0.00  0.00     0.091 H 
ATOM     49  H30 7BT d   1      16.085   9.758  18.738  0.00  0.00     0.091 H 
ATOM     50  H26 7BT d   1      17.048   7.957  17.573  0.00  0.00     0.087 H 
BRANCH  42  51
ATOM     51  C6  7BT d   1      13.043   6.434  18.793  0.00  0.00     0.043 C 
ATOM     52  H3  7BT d   1      12.627   7.114  18.035  0.00  0.00     0.078 H 
ATOM     53  H4  7BT d   1      12.334   6.338  19.629  0.00  0.00     0.078 H 
BRANCH  51  54
ATOM     54  O6  7BT d   1      13.311   5.089  18.187  0.00  0.00    -0.398 OA
ATOM     55  H27 7BT d   1      13.929   5.183  17.471  0.00  0.00     0.209 HD
ENDBRANCH  51  54
ENDBRANCH  42  51
BRANCH  43  56
ATOM     56  O4  7BT d   1      13.555   9.253  19.304  0.00  0.00    -0.390 OA
ATOM     57  H28 7BT d   1      13.443  10.018  19.856  0.00  0.00     0.210 HD
ENDBRANCH  43  56
BRANCH  45  58
ATOM     58  O3  7BT d   1      15.341   9.994  21.202  0.00  0.00    -0.390 OA
ATOM     59  H29 7BT d   1      16.182  10.308  21.514  0.00  0.00     0.210 HD
ENDBRANCH  45  58
BRANCH  47  60
ATOM     60  O2  7BT d   1      17.809   9.264  19.889  0.00  0.00    -0.390 OA
ATOM     61  H31 7BT d   1      18.127   8.542  20.419  0.00  0.00     0.210 HD
ENDBRANCH  47  60
ENDBRANCH  37  40
ENDBRANCH  34  37
ENDBRANCH   3  34
TORSDOF 17
