REMARK  13 active torsions:
REMARK  status: ('A' for Active; 'I' for Inactive)
REMARK    1  A    between atoms: C1_1  and  C2_2 
REMARK    2  A    between atoms: C2_2  and  C3_3 
REMARK    3  A    between atoms: C2_2  and  C16_22 
REMARK    4  A    between atoms: C3_3  and  C4_4 
REMARK    5  A    between atoms: C4_4  and  C5_5 
REMARK    6  A    between atoms: C5_5  and  N1_6 
REMARK       I    between atoms: N2_9  and  C8_10 
REMARK    7  A    between atoms: C8_10  and  O3_12 
REMARK    8  A    between atoms: O3_12  and  C9_13 
REMARK    9  A    between atoms: C9_13  and  C10_14 
REMARK   10  A    between atoms: C21_27  and  O4_28 
REMARK   11  A    between atoms: C25_32  and  O5_33 
REMARK   12  A    between atoms: C28_36  and  C29_37 
REMARK   13  A    between atoms: C33_41  and  C34_42 
ROOT
ATOM      1  C16 7C8 d   1     -15.209 -22.988   4.671  0.00  0.00    -0.044 C 
ATOM      2  C17 7C8 d   1     -14.738 -23.434   6.062  0.00  0.00    -0.060 C 
ATOM      3  C18 7C8 d   1     -13.955 -24.735   5.883  0.00  0.00    -0.060 C 
ATOM      4  C19 7C8 d   1     -13.774 -24.884   4.379  0.00  0.00    -0.041 C 
ATOM      5  C20 7C8 d   1     -13.431 -26.268   3.808  0.00  0.00    -0.021 C 
ATOM      6  C21 7C8 d   1     -12.192 -26.925   4.432  0.00  0.00     0.040 C 
ATOM      7  C22 7C8 d   1     -11.843 -28.258   3.760  0.00  0.00    -0.037 C 
ATOM      8  C23 7C8 d   1     -11.751 -28.201   2.233  0.00  0.00    -0.042 C 
ATOM      9  C24 7C8 d   1     -10.397 -27.599   1.833  0.00  0.00    -0.037 C 
ATOM     10  C25 7C8 d   1     -10.230 -27.538   0.314  0.00  0.00     0.036 C 
ATOM     11  C26 7C8 d   1     -11.382 -26.751  -0.306  0.00  0.00    -0.040 C 
ATOM     12  C27 7C8 d   1     -12.710 -27.403   0.068  0.00  0.00    -0.055 C 
ATOM     13  C28 7C8 d   1     -12.964 -27.507   1.587  0.00  0.00    -0.036 C 
ATOM     14  C30 7C8 d   1     -13.213 -26.142   2.283  0.00  0.00    -0.041 C 
ATOM     15  C31 7C8 d   1     -14.293 -25.279   1.594  0.00  0.00    -0.060 C 
ATOM     16  C32 7C8 d   1     -14.737 -24.014   2.339  0.00  0.00    -0.057 C 
ATOM     17  C33 7C8 d   1     -15.043 -24.254   3.805  0.00  0.00    -0.036 C 
ATOM     18  H21 7C8 d   1     -14.499 -22.245   4.279  0.00  0.00     0.041 H 
ATOM     19  H22 7C8 d   1     -15.606 -23.604   6.716  0.00  0.00     0.033 H 
ATOM     20  H23 7C8 d   1     -14.090 -22.663   6.505  0.00  0.00     0.033 H 
ATOM     21  H24 7C8 d   1     -14.521 -25.586   6.290  0.00  0.00     0.033 H 
ATOM     22  H25 7C8 d   1     -12.978 -24.670   6.385  0.00  0.00     0.033 H 
ATOM     23  H26 7C8 d   1     -12.925 -24.245   4.095  0.00  0.00     0.042 H 
ATOM     24  H27 7C8 d   1     -14.291 -26.929   3.992  0.00  0.00     0.045 H 
ATOM     25  H28 7C8 d   1     -11.347 -26.230   4.317  0.00  0.00     0.083 H 
ATOM     26  H30 7C8 d   1     -12.618 -28.991   4.029  0.00  0.00     0.037 H 
ATOM     27  H31 7C8 d   1     -10.870 -28.593   4.149  0.00  0.00     0.037 H 
ATOM     28  H32 7C8 d   1     -11.761 -29.239   1.868  0.00  0.00     0.041 H 
ATOM     29  H33 7C8 d   1      -9.593 -28.219   2.255  0.00  0.00     0.037 H 
ATOM     30  H34 7C8 d   1     -10.326 -26.580   2.240  0.00  0.00     0.037 H 
ATOM     31  H35 7C8 d   1     -10.237 -28.562  -0.089  0.00  0.00     0.082 H 
ATOM     32  H37 7C8 d   1     -11.273 -26.745  -1.401  0.00  0.00     0.036 H 
ATOM     33  H38 7C8 d   1     -11.363 -25.718   0.070  0.00  0.00     0.036 H 
ATOM     34  H39 7C8 d   1     -12.725 -28.419  -0.354  0.00  0.00     0.034 H 
ATOM     35  H40 7C8 d   1     -13.522 -26.809  -0.377  0.00  0.00     0.034 H 
ATOM     36  H44 7C8 d   1     -12.274 -25.581   2.166  0.00  0.00     0.042 H 
ATOM     37  H45 7C8 d   1     -15.182 -25.910   1.448  0.00  0.00     0.033 H 
ATOM     38  H46 7C8 d   1     -13.899 -24.969   0.615  0.00  0.00     0.033 H 
ATOM     39  H47 7C8 d   1     -15.643 -23.623   1.853  0.00  0.00     0.034 H 
ATOM     40  H48 7C8 d   1     -13.932 -23.267   2.269  0.00  0.00     0.034 H 
ENDROOT
BRANCH   1  41
ATOM     41  C2  7C8 d   1     -16.569 -22.244   4.765  0.00  0.00    -0.053 C 
ATOM     42  H4  7C8 d   1     -17.275 -22.918   5.273  0.00  0.00     0.040 H 
BRANCH  41  43
ATOM     43  C1  7C8 d   1     -17.182 -21.904   3.401  0.00  0.00    -0.072 C 
ATOM     44  H1  7C8 d   1     -18.138 -21.381   3.549  0.00  0.00     0.028 H 
ATOM     45  H2  7C8 d   1     -17.355 -22.831   2.835  0.00  0.00     0.028 H 
ATOM     46  H3  7C8 d   1     -16.492 -21.256   2.841  0.00  0.00     0.028 H 
ENDBRANCH  41  43
BRANCH  41  47
ATOM     47  C3  7C8 d   1     -16.408 -20.980   5.645  0.00  0.00    -0.060 C 
ATOM     48  H5  7C8 d   1     -15.443 -20.518   5.390  0.00  0.00     0.033 H 
ATOM     49  H6  7C8 d   1     -16.392 -21.306   6.696  0.00  0.00     0.033 H 
BRANCH  47  50
ATOM     50  C4  7C8 d   1     -17.492 -19.897   5.510  0.00  0.00    -0.042 C 
ATOM     51  H7  7C8 d   1     -18.427 -20.290   5.935  0.00  0.00     0.035 H 
ATOM     52  H8  7C8 d   1     -17.636 -19.684   4.440  0.00  0.00     0.035 H 
BRANCH  50  53
ATOM     53  C5  7C8 d   1     -17.158 -18.585   6.219  0.00  0.00     0.084 C 
ATOM     54  H9  7C8 d   1     -17.084 -18.782   7.299  0.00  0.00     0.076 H 
ATOM     55  H10 7C8 d   1     -17.974 -17.871   6.031  0.00  0.00     0.076 H 
BRANCH  53  56
ATOM     56  N1  7C8 d   1     -15.889 -17.974   5.768  0.00  0.00    -0.068 N 
ATOM     57  C6  7C8 d   1     -15.683 -16.685   6.439  0.00  0.00     0.098 C 
ATOM     58  C7  7C8 d   1     -14.198 -16.351   6.341  0.00  0.00     0.022 C 
ATOM     59  H12 7C8 d   1     -15.983 -16.759   7.495  0.00  0.00     0.078 H 
ATOM     60  H13 7C8 d   1     -16.277 -15.904   5.943  0.00  0.00     0.078 H 
ATOM     61  N2  7C8 d   1     -13.690 -16.583   4.982  0.00  0.00    -0.325 N 
ATOM     62  H14 7C8 d   1     -13.640 -16.985   7.046  0.00  0.00     0.067 H 
ATOM     63  H15 7C8 d   1     -14.050 -15.293   6.604  0.00  0.00     0.067 H 
ATOM     64  C8  7C8 d   1     -12.353 -16.601   4.749  0.00  0.00     0.363 C 
ATOM     65  C36 7C8 d   1     -14.691 -16.757   3.908  0.00  0.00     0.022 C 
ATOM     66  O2  7C8 d   1     -11.536 -16.798   5.651  0.00  0.00    -0.238 OA
ATOM     67  C35 7C8 d   1     -15.804 -17.743   4.309  0.00  0.00     0.098 C 
ATOM     68  H54 7C8 d   1     -14.185 -17.140   3.010  0.00  0.00     0.067 H 
ATOM     69  H55 7C8 d   1     -15.146 -15.780   3.685  0.00  0.00     0.067 H 
ATOM     70  H52 7C8 d   1     -16.767 -17.340   3.963  0.00  0.00     0.078 H 
ATOM     71  H53 7C8 d   1     -15.611 -18.706   3.814  0.00  0.00     0.078 H 
ATOM     72  H11 7C8 d   1     -15.142 -18.599   6.028  0.00  0.00     0.280 HD
BRANCH  64  73
ATOM     73  O3  7C8 d   1     -11.837 -16.342   3.390  0.00  0.00    -0.299 OA
BRANCH  73  74
ATOM     74  C9  7C8 d   1     -10.447 -16.388   3.020  0.00  0.00     0.054 C 
ATOM     75  H16 7C8 d   1      -9.973 -17.246   3.519  0.00  0.00     0.082 H 
ATOM     76  H17 7C8 d   1      -9.960 -15.458   3.348  0.00  0.00     0.082 H 
BRANCH  74  77
ATOM     77  C10 7C8 d   1     -10.270 -16.533   1.514  0.00  0.00    -0.031 A 
ATOM     78  C11 7C8 d   1     -10.782 -17.669   0.890  0.00  0.00    -0.054 A 
ATOM     79  C12 7C8 d   1     -10.640 -17.837  -0.488  0.00  0.00     0.036 A 
ATOM     80  H18 7C8 d   1     -11.292 -18.424   1.477  0.00  0.00     0.087 H 
ATOM     81 CL1  7C8 d   1     -11.300 -19.285  -1.305  0.00  0.00    -0.084 Cl
ATOM     82  C13 7C8 d   1      -9.986 -16.882  -1.255  0.00  0.00    -0.041 A 
ATOM     83  C14 7C8 d   1      -9.469 -15.748  -0.648  0.00  0.00     0.036 A 
ATOM     84  H19 7C8 d   1      -9.880 -17.023  -2.325  0.00  0.00     0.088 H 
ATOM     85 CL2  7C8 d   1      -8.641 -14.575  -1.726  0.00  0.00    -0.084 Cl
ATOM     86  C15 7C8 d   1      -9.606 -15.567   0.740  0.00  0.00    -0.054 A 
ATOM     87  H20 7C8 d   1      -9.199 -14.681   1.213  0.00  0.00     0.087 H 
ENDBRANCH  74  77
ENDBRANCH  73  74
ENDBRANCH  64  73
ENDBRANCH  53  56
ENDBRANCH  50  53
ENDBRANCH  47  50
ENDBRANCH  41  47
ENDBRANCH   1  41
BRANCH  17  88
ATOM     88  C34 7C8 d   1     -16.283 -25.156   3.945  0.00  0.00    -0.068 C 
ATOM     89  H49 7C8 d   1     -16.496 -25.324   5.011  0.00  0.00     0.028 H 
ATOM     90  H50 7C8 d   1     -16.092 -26.121   3.453  0.00  0.00     0.028 H 
ATOM     91  H51 7C8 d   1     -17.147 -24.668   3.471  0.00  0.00     0.028 H 
ENDBRANCH  17  88
BRANCH   6  92
ATOM     92  O4  7C8 d   1     -12.372 -27.219   5.823  0.00  0.00    -0.395 OA
ATOM     93  H29 7C8 d   1     -13.105 -27.815   5.927  0.00  0.00     0.210 HD
ENDBRANCH   6  92
BRANCH  13  94
ATOM     94  C29 7C8 d   1     -14.167 -28.459   1.717  0.00  0.00    -0.068 C 
ATOM     95  H41 7C8 d   1     -14.418 -28.590   2.780  0.00  0.00     0.028 H 
ATOM     96  H42 7C8 d   1     -13.912 -29.435   1.278  0.00  0.00     0.028 H 
ATOM     97  H43 7C8 d   1     -15.031 -28.033   1.186  0.00  0.00     0.028 H 
ENDBRANCH  13  94
BRANCH  10  98
ATOM     98  O5  7C8 d   1      -8.988 -26.915  -0.016  0.00  0.00    -0.396 OA
ATOM     99  H36 7C8 d   1      -8.893 -26.881  -0.961  0.00  0.00     0.210 HD
ENDBRANCH  10  98
TORSDOF 13
