REMARK  13 active torsions:
REMARK  status: ('A' for Active; 'I' for Inactive)
REMARK    1  A    between atoms: C2_2  and  C1_1 
REMARK    2  A    between atoms: C3_3  and  C2_2 
REMARK    3  A    between atoms: C2_2  and  C16_22 
REMARK    4  A    between atoms: C4_4  and  C3_3 
REMARK    5  A    between atoms: C5_5  and  C4_4 
REMARK       I    between atoms: N1_7  and  C5_5 
REMARK    6  A    between atoms: C6_8  and  N1_7 
REMARK       I    between atoms: N2_9  and  C8_10 
REMARK    7  A    between atoms: C8_10  and  O3_12 
REMARK    8  A    between atoms: O3_12  and  C9_13 
REMARK    9  A    between atoms: C9_13  and  C10_14 
REMARK   10  A    between atoms: C21_27  and  O4_28 
REMARK   11  A    between atoms: C25_32  and  O5_33 
REMARK   12  A    between atoms: C28_36  and  C29_37 
REMARK   13  A    between atoms: C33_41  and  C34_42 
ROOT
ATOM      1  C16 7CF d   1     -15.279 -23.718   4.651  0.00  0.00    -0.044 C 
ATOM      2  C17 7CF d   1     -14.724 -23.972   6.080  0.00  0.00    -0.060 C 
ATOM      3  C18 7CF d   1     -13.850 -25.239   5.990  0.00  0.00    -0.060 C 
ATOM      4  C19 7CF d   1     -13.794 -25.542   4.494  0.00  0.00    -0.041 C 
ATOM      5  C20 7CF d   1     -13.324 -26.919   4.032  0.00  0.00    -0.021 C 
ATOM      6  C21 7CF d   1     -11.936 -27.285   4.581  0.00  0.00     0.040 C 
ATOM      7  C22 7CF d   1     -11.442 -28.623   4.030  0.00  0.00    -0.037 C 
ATOM      8  C23 7CF d   1     -11.509 -28.729   2.500  0.00  0.00    -0.042 C 
ATOM      9  C24 7CF d   1     -10.392 -27.902   1.832  0.00  0.00    -0.037 C 
ATOM     10  C25 7CF d   1     -10.427 -27.982   0.312  0.00  0.00     0.036 C 
ATOM     11  C26 7CF d   1     -11.788 -27.569  -0.198  0.00  0.00    -0.040 C 
ATOM     12  C27 7CF d   1     -12.867 -28.461   0.411  0.00  0.00    -0.055 C 
ATOM     13  C28 7CF d   1     -12.934 -28.416   1.958  0.00  0.00    -0.036 C 
ATOM     14  C30 7CF d   1     -13.357 -27.007   2.486  0.00  0.00    -0.041 C 
ATOM     15  C31 7CF d   1     -14.689 -26.501   1.910  0.00  0.00    -0.060 C 
ATOM     16  C32 7CF d   1     -15.125 -25.137   2.455  0.00  0.00    -0.057 C 
ATOM     17  C33 7CF d   1     -15.183 -25.116   3.987  0.00  0.00    -0.036 C 
ATOM     18  H16 7CF d   1     -14.585 -23.055   4.114  0.00  0.00     0.041 H 
ATOM     19  H17 7CF d   1     -15.552 -24.131   6.787  0.00  0.00     0.033 H 
ATOM     20  H18 7CF d   1     -14.119 -23.115   6.411  0.00  0.00     0.033 H 
ATOM     21  H19 7CF d   1     -14.311 -26.072   6.541  0.00  0.00     0.033 H 
ATOM     22  H20 7CF d   1     -12.843 -25.049   6.388  0.00  0.00     0.033 H 
ATOM     23  H21 7CF d   1     -13.061 -24.846   4.061  0.00  0.00     0.042 H 
ATOM     24  H22 7CF d   1     -14.036 -27.660   4.425  0.00  0.00     0.045 H 
ATOM     25  H23 7CF d   1     -11.231 -26.498   4.275  0.00  0.00     0.083 H 
ATOM     26  H25 7CF d   1     -12.061 -29.424   4.460  0.00  0.00     0.037 H 
ATOM     27  H26 7CF d   1     -10.396 -28.761   4.341  0.00  0.00     0.037 H 
ATOM     28  H27 7CF d   1     -11.309 -29.780   2.247  0.00  0.00     0.041 H 
ATOM     29  H28 7CF d   1      -9.419 -28.278   2.181  0.00  0.00     0.037 H 
ATOM     30  H29 7CF d   1     -10.507 -26.850   2.131  0.00  0.00     0.037 H 
ATOM     31  H30 7CF d   1     -10.236 -29.023   0.011  0.00  0.00     0.082 H 
ATOM     32  H32 7CF d   1     -11.811 -27.666  -1.294  0.00  0.00     0.036 H 
ATOM     33  H33 7CF d   1     -11.980 -26.523   0.082  0.00  0.00     0.036 H 
ATOM     34  H34 7CF d   1     -12.669 -29.499   0.105  0.00  0.00     0.034 H 
ATOM     35  H35 7CF d   1     -13.842 -28.142   0.015  0.00  0.00     0.034 H 
ATOM     36  H39 7CF d   1     -12.588 -26.309   2.123  0.00  0.00     0.042 H 
ATOM     37  H40 7CF d   1     -15.471 -27.236   2.151  0.00  0.00     0.033 H 
ATOM     38  H41 7CF d   1     -14.585 -26.420   0.818  0.00  0.00     0.033 H 
ATOM     39  H42 7CF d   1     -16.124 -24.901   2.060  0.00  0.00     0.034 H 
ATOM     40  H43 7CF d   1     -14.407 -24.375   2.117  0.00  0.00     0.034 H 
ENDROOT
BRANCH   1  41
ATOM     41  C2  7CF d   1     -16.628 -22.971   4.675  0.00  0.00    -0.053 C 
ATOM     42  H4  7CF d   1     -17.270 -23.464   5.420  0.00  0.00     0.040 H 
BRANCH  41  43
ATOM     43  C1  7CF d   1     -17.365 -23.006   3.336  0.00  0.00    -0.072 C 
ATOM     44  H1  7CF d   1     -18.314 -22.457   3.425  0.00  0.00     0.028 H 
ATOM     45  H2  7CF d   1     -17.570 -24.050   3.058  0.00  0.00     0.028 H 
ATOM     46  H3  7CF d   1     -16.741 -22.536   2.562  0.00  0.00     0.028 H 
ENDBRANCH  41  43
BRANCH  41  47
ATOM     47  C3  7CF d   1     -16.404 -21.526   5.115  0.00  0.00    -0.054 C 
ATOM     48  H5  7CF d   1     -16.053 -20.954   4.243  0.00  0.00     0.034 H 
ATOM     49  H6  7CF d   1     -15.627 -21.523   5.893  0.00  0.00     0.034 H 
BRANCH  47  50
ATOM     50  C4  7CF d   1     -17.628 -20.830   5.671  0.00  0.00     0.010 C 
ATOM     51  H7  7CF d   1     -17.729 -21.091   6.735  0.00  0.00     0.047 H 
ATOM     52  H8  7CF d   1     -18.514 -21.182   5.122  0.00  0.00     0.047 H 
BRANCH  50  53
ATOM     53  C5  7CF d   1     -17.548 -19.329   5.547  0.00  0.00     0.217 C 
ATOM     54  O1  7CF d   1     -18.530 -18.679   5.188  0.00  0.00    -0.274 OA
ATOM     55  N1  7CF d   1     -16.354 -18.778   5.830  0.00  0.00    -0.355 N 
ATOM     56  H9  7CF d   1     -15.627 -19.381   6.157  0.00  0.00     0.162 HD
BRANCH  55  57
ATOM     57  C6  7CF d   1     -16.051 -17.360   5.692  0.00  0.00     0.029 C 
ATOM     58  C35 7CF d   1     -14.636 -16.989   6.147  0.00  0.00     0.018 C 
ATOM     59  N2  7CF d   1     -13.878 -16.968   4.886  0.00  0.00    -0.326 N 
ATOM     60  H47 7CF d   1     -14.232 -17.743   6.838  0.00  0.00     0.067 H 
ATOM     61  H48 7CF d   1     -14.623 -16.002   6.633  0.00  0.00     0.067 H 
ATOM     62  C8  7CF d   1     -12.520 -17.013   4.813  0.00  0.00     0.363 C 
ATOM     63  C37 7CF d   1     -14.750 -16.872   3.699  0.00  0.00     0.002 C 
ATOM     64  O2  7CF d   1     -11.799 -17.155   5.790  0.00  0.00    -0.238 OA
ATOM     65  C7  7CF d   1     -16.159 -16.848   4.246  0.00  0.00    -0.030 C 
ATOM     66  H51 7CF d   1     -14.606 -17.743   3.042  0.00  0.00     0.064 H 
ATOM     67  H52 7CF d   1     -14.538 -15.950   3.138  0.00  0.00     0.064 H 
ATOM     68  H49 7CF d   1     -16.559 -15.824   4.230  0.00  0.00     0.038 H 
ATOM     69  H50 7CF d   1     -16.812 -17.506   3.654  0.00  0.00     0.038 H 
ATOM     70  H10 7CF d   1     -16.775 -16.813   6.314  0.00  0.00     0.075 H 
BRANCH  62  71
ATOM     71  O3  7CF d   1     -12.106 -16.829   3.528  0.00  0.00    -0.299 OA
BRANCH  71  72
ATOM     72  C9  7CF d   1     -10.686 -16.957   3.205  0.00  0.00     0.054 C 
ATOM     73  H11 7CF d   1     -10.294 -17.881   3.654  0.00  0.00     0.082 H 
ATOM     74  H12 7CF d   1     -10.142 -16.092   3.612  0.00  0.00     0.082 H 
BRANCH  72  75
ATOM     75  C10 7CF d   1     -10.490 -17.009   1.710  0.00  0.00    -0.031 A 
ATOM     76  C11 7CF d   1      -9.839 -15.985   1.015  0.00  0.00    -0.054 A 
ATOM     77  C12 7CF d   1      -9.673 -16.073  -0.357  0.00  0.00     0.036 A 
ATOM     78  H13 7CF d   1      -9.464 -15.121   1.551  0.00  0.00     0.087 H 
ATOM     79 CL1  7CF d   1      -8.874 -14.811  -1.268  0.00  0.00    -0.084 Cl
ATOM     80  C13 7CF d   1     -10.133 -17.168  -1.064  0.00  0.00    -0.041 A 
ATOM     81  C14 7CF d   1     -10.763 -18.176  -0.364  0.00  0.00     0.036 A 
ATOM     82  H14 7CF d   1     -10.002 -17.233  -2.138  0.00  0.00     0.088 H 
ATOM     83 CL2  7CF d   1     -11.345 -19.555  -1.256  0.00  0.00    -0.084 Cl
ATOM     84  C15 7CF d   1     -10.945 -18.109   0.998  0.00  0.00    -0.054 A 
ATOM     85  H15 7CF d   1     -11.446 -18.919   1.516  0.00  0.00     0.087 H 
ENDBRANCH  72  75
ENDBRANCH  71  72
ENDBRANCH  62  71
ENDBRANCH  55  57
ENDBRANCH  50  53
ENDBRANCH  47  50
ENDBRANCH  41  47
ENDBRANCH   1  41
BRANCH  17  86
ATOM     86  C34 7CF d   1     -16.318 -26.024   4.502  0.00  0.00    -0.068 C 
ATOM     87  H44 7CF d   1     -16.341 -25.994   5.601  0.00  0.00     0.028 H 
ATOM     88  H45 7CF d   1     -16.142 -27.057   4.167  0.00  0.00     0.028 H 
ATOM     89  H46 7CF d   1     -17.280 -25.669   4.105  0.00  0.00     0.028 H 
ENDBRANCH  17  86
BRANCH   6  90
ATOM     90  O4  7CF d   1     -11.948 -27.361   6.021  0.00  0.00    -0.395 OA
ATOM     91  H24 7CF d   1     -12.568 -28.026   6.297  0.00  0.00     0.210 HD
ENDBRANCH   6  90
BRANCH  13  92
ATOM     92  C29 7CF d   1     -13.937 -29.516   2.400  0.00  0.00    -0.068 C 
ATOM     93  H36 7CF d   1     -14.017 -29.520   3.497  0.00  0.00     0.028 H 
ATOM     94  H37 7CF d   1     -13.581 -30.498   2.054  0.00  0.00     0.028 H 
ATOM     95  H38 7CF d   1     -14.925 -29.309   1.962  0.00  0.00     0.028 H 
ENDBRANCH  13  92
BRANCH  10  96
ATOM     96  O5  7CF d   1      -9.416 -27.142  -0.269  0.00  0.00    -0.396 OA
ATOM     97  H31 7CF d   1      -9.457 -27.208  -1.216  0.00  0.00     0.210 HD
ENDBRANCH  10  96
TORSDOF 13
