REMARK  15 active torsions:
REMARK  status: ('A' for Active; 'I' for Inactive)
REMARK    1  A    between atoms: C1_1  and  C2_2 
REMARK    2  A    between atoms: C2_2  and  C3_3 
REMARK    3  A    between atoms: C2_2  and  C16_23 
REMARK    4  A    between atoms: C3_3  and  C4_4 
REMARK    5  A    between atoms: C4_4  and  C5_5 
REMARK       I    between atoms: C5_5  and  N1_7 
REMARK    6  A    between atoms: N1_7  and  C6_8 
REMARK    7  A    between atoms: C6_8  and  C7_9 
REMARK    8  A    between atoms: C7_9  and  N2_10 
REMARK       I    between atoms: N2_10  and  C8_11 
REMARK    9  A    between atoms: C8_11  and  O3_13 
REMARK   10  A    between atoms: O3_13  and  C9_14 
REMARK   11  A    between atoms: C9_14  and  C10_15 
REMARK   12  A    between atoms: C21_28  and  O4_29 
REMARK   13  A    between atoms: C25_33  and  O5_34 
REMARK   14  A    between atoms: C28_37  and  C29_38 
REMARK   15  A    between atoms: C33_42  and  C34_43 
ROOT
ATOM      1  C16 7CW d   1     -15.209 -24.522   5.082  0.00  0.00    -0.044 C 
ATOM      2  C17 7CW d   1     -14.684 -25.018   6.459  0.00  0.00    -0.060 C 
ATOM      3  C18 7CW d   1     -13.914 -26.326   6.198  0.00  0.00    -0.060 C 
ATOM      4  C19 7CW d   1     -13.890 -26.441   4.673  0.00  0.00    -0.041 C 
ATOM      5  C20 7CW d   1     -13.525 -27.784   4.032  0.00  0.00    -0.021 C 
ATOM      6  C21 7CW d   1     -12.172 -28.321   4.528  0.00  0.00     0.040 C 
ATOM      7  C22 7CW d   1     -11.818 -29.643   3.852  0.00  0.00    -0.037 C 
ATOM      8  C23 7CW d   1     -11.848 -29.553   2.316  0.00  0.00    -0.042 C 
ATOM      9  C24 7CW d   1     -10.621 -28.785   1.790  0.00  0.00    -0.037 C 
ATOM     10  C25 7CW d   1     -10.580 -28.707   0.280  0.00  0.00     0.036 C 
ATOM     11  C26 7CW d   1     -11.849 -28.062  -0.220  0.00  0.00    -0.040 C 
ATOM     12  C27 7CW d   1     -13.069 -28.857   0.239  0.00  0.00    -0.055 C 
ATOM     13  C28 7CW d   1     -13.210 -29.020   1.773  0.00  0.00    -0.036 C 
ATOM     14  C30 7CW d   1     -13.543 -27.666   2.488  0.00  0.00    -0.041 C 
ATOM     15  C31 7CW d   1     -14.834 -26.989   1.999  0.00  0.00    -0.060 C 
ATOM     16  C32 7CW d   1     -15.158 -25.671   2.714  0.00  0.00    -0.057 C 
ATOM     17  C33 7CW d   1     -15.237 -25.832   4.237  0.00  0.00    -0.036 C 
ATOM     18  H20 7CW d   1     -14.447 -23.872   4.627  0.00  0.00     0.041 H 
ATOM     19  H21 7CW d   1     -15.527 -25.205   7.141  0.00  0.00     0.033 H 
ATOM     20  H22 7CW d   1     -14.014 -24.266   6.902  0.00  0.00     0.033 H 
ATOM     21  H23 7CW d   1     -14.436 -27.184   6.647  0.00  0.00     0.033 H 
ATOM     22  H24 7CW d   1     -12.893 -26.266   6.602  0.00  0.00     0.033 H 
ATOM     23  H25 7CW d   1     -13.102 -25.757   4.325  0.00  0.00     0.042 H 
ATOM     24  H26 7CW d   1     -14.296 -28.512   4.324  0.00  0.00     0.045 H 
ATOM     25  H27 7CW d   1     -11.399 -27.579   4.277  0.00  0.00     0.083 H 
ATOM     26  H29 7CW d   1     -12.541 -30.407   4.174  0.00  0.00     0.037 H 
ATOM     27  H30 7CW d   1     -10.807 -29.939   4.167  0.00  0.00     0.037 H 
ATOM     28  H31 7CW d   1     -11.754 -30.582   1.939  0.00  0.00     0.041 H 
ATOM     29  H32 7CW d   1      -9.711 -29.294   2.140  0.00  0.00     0.037 H 
ATOM     30  H33 7CW d   1     -10.647 -27.762   2.194  0.00  0.00     0.037 H 
ATOM     31  H34 7CW d   1     -10.510 -29.725  -0.131  0.00  0.00     0.082 H 
ATOM     32  H36 7CW d   1     -11.830 -28.030  -1.319  0.00  0.00     0.036 H 
ATOM     33  H37 7CW d   1     -11.915 -27.038   0.175  0.00  0.00     0.036 H 
ATOM     34  H38 7CW d   1     -13.008 -29.861  -0.206  0.00  0.00     0.034 H 
ATOM     35  H39 7CW d   1     -13.969 -28.345  -0.133  0.00  0.00     0.034 H 
ATOM     36  H43 7CW d   1     -12.724 -26.982   2.222  0.00  0.00     0.042 H 
ATOM     37  H44 7CW d   1     -15.671 -27.684   2.160  0.00  0.00     0.033 H 
ATOM     38  H45 7CW d   1     -14.730 -26.782   0.924  0.00  0.00     0.033 H 
ATOM     39  H46 7CW d   1     -16.127 -25.300   2.348  0.00  0.00     0.034 H 
ATOM     40  H47 7CW d   1     -14.372 -24.939   2.477  0.00  0.00     0.034 H 
ENDROOT
BRANCH   1  41
ATOM     41  C2  7CW d   1     -16.458 -23.621   5.241  0.00  0.00    -0.053 C 
ATOM     42  H4  7CW d   1     -17.119 -24.102   5.977  0.00  0.00     0.040 H 
BRANCH  41  43
ATOM     43  C1  7CW d   1     -17.271 -23.429   3.957  0.00  0.00    -0.072 C 
ATOM     44  H1  7CW d   1     -18.134 -22.779   4.163  0.00  0.00     0.028 H 
ATOM     45  H2  7CW d   1     -17.626 -24.406   3.598  0.00  0.00     0.028 H 
ATOM     46  H3  7CW d   1     -16.637 -22.964   3.188  0.00  0.00     0.028 H 
ENDBRANCH  41  43
BRANCH  41  47
ATOM     47  C3  7CW d   1     -16.029 -22.253   5.799  0.00  0.00    -0.054 C 
ATOM     48  H5  7CW d   1     -15.551 -21.689   4.984  0.00  0.00     0.034 H 
ATOM     49  H6  7CW d   1     -15.298 -22.428   6.602  0.00  0.00     0.034 H 
BRANCH  47  50
ATOM     50  C4  7CW d   1     -17.155 -21.396   6.367  0.00  0.00     0.009 C 
ATOM     51  H7  7CW d   1     -17.183 -21.527   7.459  0.00  0.00     0.047 H 
ATOM     52  H8  7CW d   1     -18.108 -21.731   5.933  0.00  0.00     0.047 H 
BRANCH  50  53
ATOM     53  C5  7CW d   1     -16.969 -19.932   6.058  0.00  0.00     0.217 C 
ATOM     54  O1  7CW d   1     -17.875 -19.251   5.574  0.00  0.00    -0.274 OA
ATOM     55  N1  7CW d   1     -15.769 -19.421   6.348  0.00  0.00    -0.360 N 
ATOM     56  H9  7CW d   1     -15.094 -20.027   6.769  0.00  0.00     0.162 HD
BRANCH  55  57
ATOM     57  C6  7CW d   1     -15.377 -18.042   6.093  0.00  0.00     0.010 C 
ATOM     58  H10 7CW d   1     -15.809 -17.395   6.870  0.00  0.00     0.066 H 
ATOM     59  H11 7CW d   1     -15.757 -17.736   5.107  0.00  0.00     0.066 H 
BRANCH  57  60
ATOM     60  C7  7CW d   1     -13.868 -17.898   6.110  0.00  0.00     0.012 C 
ATOM     61  H12 7CW d   1     -13.458 -18.558   6.888  0.00  0.00     0.066 H 
ATOM     62  H13 7CW d   1     -13.615 -16.854   6.345  0.00  0.00     0.066 H 
BRANCH  60  63
ATOM     63  N2  7CW d   1     -13.268 -18.248   4.840  0.00  0.00    -0.335 N 
ATOM     64  C8  7CW d   1     -11.946 -18.113   4.625  0.00  0.00     0.360 C 
ATOM     65  O2  7CW d   1     -11.149 -17.746   5.468  0.00  0.00    -0.239 OA
ATOM     66  H14 7CW d   1     -13.849 -18.598   4.105  0.00  0.00     0.164 HD
BRANCH  64  67
ATOM     67  O3  7CW d   1     -11.630 -18.434   3.340  0.00  0.00    -0.299 OA
BRANCH  67  68
ATOM     68  C9  7CW d   1     -10.437 -17.813   2.783  0.00  0.00     0.054 C 
ATOM     69  H15 7CW d   1      -9.551 -18.272   3.246  0.00  0.00     0.082 H 
ATOM     70  H16 7CW d   1     -10.457 -16.738   3.015  0.00  0.00     0.082 H 
BRANCH  68  71
ATOM     71  C10 7CW d   1     -10.347 -17.984   1.292  0.00  0.00    -0.031 A 
ATOM     72  C11 7CW d   1     -10.841 -19.123   0.669  0.00  0.00    -0.054 A 
ATOM     73  C12 7CW d   1     -10.735 -19.259  -0.697  0.00  0.00     0.036 A 
ATOM     74  H17 7CW d   1     -11.309 -19.904   1.258  0.00  0.00     0.087 H 
ATOM     75 CL1  7CW d   1     -11.364 -20.687  -1.474  0.00  0.00    -0.084 Cl
ATOM     76  C13 7CW d   1     -10.133 -18.287  -1.477  0.00  0.00    -0.041 A 
ATOM     77  C14 7CW d   1      -9.637 -17.160  -0.844  0.00  0.00     0.036 A 
ATOM     78  H18 7CW d   1     -10.052 -18.405  -2.552  0.00  0.00     0.088 H 
ATOM     79 CL2  7CW d   1      -8.876 -15.924  -1.810  0.00  0.00    -0.084 Cl
ATOM     80  C15 7CW d   1      -9.736 -17.006   0.520  0.00  0.00    -0.054 A 
ATOM     81  H19 7CW d   1      -9.335 -16.117   0.993  0.00  0.00     0.087 H 
ENDBRANCH  68  71
ENDBRANCH  67  68
ENDBRANCH  64  67
ENDBRANCH  60  63
ENDBRANCH  57  60
ENDBRANCH  55  57
ENDBRANCH  50  53
ENDBRANCH  47  50
ENDBRANCH  41  47
ENDBRANCH   1  41
BRANCH  17  82
ATOM     82  C34 7CW d   1     -16.447 -26.702   4.629  0.00  0.00    -0.068 C 
ATOM     83  H48 7CW d   1     -16.485 -26.805   5.723  0.00  0.00     0.028 H 
ATOM     84  H49 7CW d   1     -16.347 -27.697   4.170  0.00  0.00     0.028 H 
ATOM     85  H50 7CW d   1     -17.372 -26.225   4.273  0.00  0.00     0.028 H 
ENDBRANCH  17  82
BRANCH   6  86
ATOM     86  O4  7CW d   1     -12.166 -28.525   5.956  0.00  0.00    -0.395 OA
ATOM     87  H28 7CW d   1     -12.840 -29.154   6.188  0.00  0.00     0.210 HD
ENDBRANCH   6  86
BRANCH  13  88
ATOM     88  C29 7CW d   1     -14.321 -30.074   2.015  0.00  0.00    -0.068 C 
ATOM     89  H40 7CW d   1     -14.456 -30.223   3.096  0.00  0.00     0.028 H 
ATOM     90  H41 7CW d   1     -14.031 -31.026   1.548  0.00  0.00     0.028 H 
ATOM     91  H42 7CW d   1     -15.264 -29.721   1.573  0.00  0.00     0.028 H 
ENDBRANCH  13  88
BRANCH  10  92
ATOM     92  O5  7CW d   1      -9.429 -27.954  -0.147  0.00  0.00    -0.396 OA
ATOM     93  H35 7CW d   1      -9.414 -27.912  -1.096  0.00  0.00     0.210 HD
ENDBRANCH  10  92
TORSDOF 15
