REMARK  11 active torsions:
REMARK  status: ('A' for Active; 'I' for Inactive)
REMARK    1  A    between atoms: C3_1  and  O3_4 
REMARK    2  A    between atoms: C2_2  and  O2_9 
REMARK    3  A    between atoms: C1_3  and  N1_8 
REMARK    4  A    between atoms: N1_8  and  O1_6 
REMARK    5  A    between atoms: C5_10  and  C4_7 
REMARK    6  A    between atoms: O5_11  and  C5_10 
REMARK    7  A    between atoms: C1'_20  and  O5_11 
REMARK    8  A    between atoms: C5'_13  and  O5'_12 
REMARK    9  A    between atoms: C4'_14  and  C5'_13 
REMARK   10  A    between atoms: C3'_16  and  O3'_17 
REMARK   11  A    between atoms: C2'_18  and  O2'_19 
ROOT
ATOM      1  C5  6LW d   1      75.684  13.882  17.158  0.00  0.00     0.049 C 
ATOM      2  H10 6LW d   1      75.175  14.668  17.735  0.00  0.00     0.078 H 
ATOM      3  H11 6LW d   1      75.154  12.927  17.292  0.00  0.00     0.078 H 
ENDROOT
BRANCH   1   4
ATOM      4  C4  6LW d   1      77.123  13.751  17.606  0.00  0.00     0.089 C 
ATOM      5  C3  6LW d   1      77.405  13.508  19.097  0.00  0.00     0.092 C 
ATOM      6  C2  6LW d   1      78.729  12.755  19.095  0.00  0.00     0.119 C 
ATOM      7  H1  6LW d   1      76.602  12.900  19.539  0.00  0.00     0.091 H 
ATOM      8  C1  6LW d   1      78.806  12.314  17.645  0.00  0.00     0.258 C 
ATOM      9  H2  6LW d   1      79.569  13.430  19.316  0.00  0.00     0.094 H 
ATOM     10  O4  6LW d   1      77.600  12.597  16.916  0.00  0.00    -0.342 OA
ATOM     11  H3  6LW d   1      78.485  11.293  17.901  0.00  0.00     0.146 H 
ATOM     12  H6  6LW d   1      77.671  14.653  17.295  0.00  0.00     0.090 H 
BRANCH   5  13
ATOM     13  O3  6LW d   1      77.564  14.699  19.861  0.00  0.00    -0.390 OA
ATOM     14  H4  6LW d   1      77.811  14.473  20.750  0.00  0.00     0.210 HD
ENDBRANCH   5  13
BRANCH   6  15
ATOM     15  O2  6LW d   1      78.708  11.747  20.098  0.00  0.00    -0.388 OA
ATOM     16  H9  6LW d   1      77.951  11.188  19.968  0.00  0.00     0.210 HD
ENDBRANCH   6  15
BRANCH   8  17
ATOM     17  N1  6LW d   1      79.880  11.827  17.012  0.00  0.00    -0.038 N 
ATOM     18  H7  6LW d   1      79.600  10.957  16.588  0.00  0.00     0.345 HD
ATOM     19  H8  6LW d   1      80.579  11.648  17.716  0.00  0.00     0.345 HD
BRANCH  17  20
ATOM     20  O1  6LW d   1      80.498  12.587  16.010  0.00  0.00    -0.196 OA
ATOM     21  H5  6LW d   1      81.240  12.106  15.662  0.00  0.00     0.257 HD
ENDBRANCH  17  20
ENDBRANCH   8  17
ENDBRANCH   1   4
BRANCH   1  22
ATOM     22  O5  6LW d   1      75.730  14.238  15.756  0.00  0.00    -0.356 OA
BRANCH  22  23
ATOM     23  C1' AHR d   1      74.378  14.405  15.274  0.00  0.00     0.158 C 
ATOM     24  O4' AHR d   1      74.040  13.046  14.913  0.00  0.00    -0.348 OA
ATOM     25  C4' AHR d   1      74.051  12.890  13.497  0.00  0.00     0.089 C 
ATOM     26  C3' AHR d   1      73.822  14.324  12.955  0.00  0.00     0.092 C 
ATOM     27  H15 6LW d   1      75.027  12.515  13.156  0.00  0.00     0.090 H 
ATOM     28  C2' AHR d   1      74.555  15.201  13.978  0.00  0.00     0.110 C 
ATOM     29  H16 6LW d   1      72.749  14.562  12.997  0.00  0.00     0.091 H 
ATOM     30  H18 6LW d   1      75.617  15.289  13.705  0.00  0.00     0.094 H 
ATOM     31  H20 6LW d   1      73.681  14.869  15.988  0.00  0.00     0.133 H 
BRANCH  25  32
ATOM     32  C5' AHR d   1      72.969  11.890  13.080  0.00  0.00     0.043 C 
ATOM     33  H13 6LW d   1      71.982  12.348  13.240  0.00  0.00     0.078 H 
ATOM     34  H14 6LW d   1      73.095  11.655  12.013  0.00  0.00     0.078 H 
BRANCH  32  35
ATOM     35  O5' AHR d   1      73.044  10.668  13.838  0.00  0.00    -0.398 OA
ATOM     36  H12 6LW d   1      72.359  10.076  13.551  0.00  0.00     0.209 HD
ENDBRANCH  32  35
ENDBRANCH  25  32
BRANCH  26  37
ATOM     37  O3' AHR d   1      74.225  14.467  11.576  0.00  0.00    -0.390 OA
ATOM     38  H17 6LW d   1      73.723  13.867  11.037  0.00  0.00     0.210 HD
ENDBRANCH  26  37
BRANCH  28  39
ATOM     39  O2' AHR d   1      74.017  16.518  14.158  0.00  0.00    -0.388 OA
ATOM     40  H19 6LW d   1      73.117  16.453  14.455  0.00  0.00     0.210 HD
ENDBRANCH  28  39
ENDBRANCH  22  23
ENDBRANCH   1  22
TORSDOF 11
