REMARK  4 active torsions:
REMARK  status: ('A' for Active; 'I' for Inactive)
REMARK    1  A    between atoms: C4_2  and  C5_3 
REMARK    2  A    between atoms: O3_13  and  C6_4 
REMARK    3  A    between atoms: C2_12  and  O3_13 
REMARK    4  A    between atoms: C11_15  and  C12_16 
ROOT
ATOM      1  N1  7E5 d   1      -3.133  33.924 -16.909  0.00  0.00    -0.059 N 
ATOM      2  C4  7E5 d   1      -4.467  34.017 -17.524  0.00  0.00     0.187 C 
ATOM      3  C1  7E5 d   1      -4.233  34.287 -19.025  0.00  0.00    -0.003 C 
ATOM      4  C3  7E5 d   1      -2.122  34.065 -17.968  0.00  0.00     0.107 C 
ATOM      5  C2  7E5 d   1      -2.820  34.874 -19.057  0.00  0.00     0.070 C 
ATOM      6  H1  7E5 d   1      -3.029  33.030 -16.456  0.00  0.00     0.278 HD
ATOM      7  H2  7E5 d   1      -3.019  34.660 -16.230  0.00  0.00     0.278 HD
ATOM      8  H3  7E5 d   1      -5.044  34.845 -17.085  0.00  0.00     0.101 H 
ATOM      9  H7  7E5 d   1      -4.968  35.006 -19.416  0.00  0.00     0.040 H 
ATOM     10  H8  7E5 d   1      -4.286  33.355 -19.607  0.00  0.00     0.040 H 
ATOM     11  H9  7E5 d   1      -1.819  33.079 -18.350  0.00  0.00     0.079 H 
ATOM     12  H10 7E5 d   1      -1.238  34.600 -17.592  0.00  0.00     0.079 H 
ATOM     13  H11 7E5 d   1      -2.346  34.777 -20.045  0.00  0.00     0.086 H 
ENDROOT
BRANCH   5  14
ATOM     14  O3  7E5 d   1      -2.828  36.228 -18.610  0.00  0.00    -0.343 OA
BRANCH  14  15
ATOM     15  C6  7E5 d   1      -1.901  37.147 -19.068  0.00  0.00     0.086 A 
ATOM     16  C7  7E5 d   1      -0.538  36.800 -19.270  0.00  0.00    -0.050 A 
ATOM     17  C8  7E5 d   1       0.397  37.738 -19.736  0.00  0.00    -0.080 A 
ATOM     18  H4  7E5 d   1      -0.212  35.788 -19.059  0.00  0.00     0.087 H 
ATOM     19  C9  7E5 d   1      -0.019  39.045 -20.012  0.00  0.00    -0.082 A 
ATOM     20  H5  7E5 d   1       1.433  37.452 -19.881  0.00  0.00     0.083 H 
ATOM     21  C10 7E5 d   1      -1.362  39.412 -19.819  0.00  0.00    -0.064 A 
ATOM     22  H12 7E5 d   1       0.695  39.775 -20.375  0.00  0.00     0.083 H 
ATOM     23  C11 7E5 d   1      -2.324  38.485 -19.349  0.00  0.00     0.074 A 
ATOM     24  H6  7E5 d   1      -1.669  40.429 -20.035  0.00  0.00     0.085 H 
BRANCH  23  25
ATOM     25  C12 7E5 d   1      -3.750  38.976 -19.176  0.00  0.00     0.212 C 
ATOM     26  O5  7E5 d   1      -3.966  40.201 -19.049  0.00  0.00    -0.644 OA
ATOM     27  O4  7E5 d   1      -4.730  38.201 -19.160  0.00  0.00    -0.644 OA
ENDBRANCH  23  25
ENDBRANCH  14  15
ENDBRANCH   5  14
BRANCH   2  28
ATOM     28  C5  7E5 d   1      -5.191  32.688 -17.251  0.00  0.00     0.204 C 
ATOM     29  O1  7E5 d   1      -4.760  31.953 -16.335  0.00  0.00    -0.646 OA
ATOM     30  O2  7E5 d   1      -6.181  32.389 -17.950  0.00  0.00    -0.646 OA
ENDBRANCH   2  28
TORSDOF 4
