REMARK  6 active torsions:
REMARK  status: ('A' for Active; 'I' for Inactive)
REMARK    1  A    between atoms: C13_7  and  O18_20 
REMARK    2  A    between atoms: C12_12  and  C17_8 
REMARK    3  A    between atoms: O18_20  and  C20_9 
REMARK    4  A    between atoms: C2_14  and  C1_10 
REMARK    5  A    between atoms: O14_19  and  C19_13 
REMARK    6  A    between atoms: C9_15  and  O14_19 
ROOT
ATOM      1  C5  7EA d   1      -8.308  -7.777  -4.414  0.00  0.00    -0.036 A 
ATOM      2  C6  7EA d   1      -6.906  -7.162  -6.299  0.00  0.00    -0.068 A 
ATOM      3  C10 7EA d   1      -5.789  -7.680  -5.662  0.00  0.00    -0.047 A 
ATOM      4  C13 7EA d   1      -5.936  -8.253  -4.398  0.00  0.00     0.101 A 
ATOM      5  C2  7EA d   1      -8.170  -7.216  -5.681  0.00  0.00    -0.003 A 
ATOM      6  C9  7EA d   1      -7.186  -8.297  -3.778  0.00  0.00     0.102 A 
ATOM      7  H2  7EA d   1      -9.277  -7.808  -3.930  0.00  0.00     0.089 H 
ATOM      8  H3  7EA d   1      -6.806  -6.712  -7.280  0.00  0.00     0.085 H 
ATOM      9  H5  7EA d   1      -4.816  -7.641  -6.138  0.00  0.00     0.087 H 
ENDROOT
BRANCH   5  10
ATOM     10  C1  7EA d   1      -9.360  -6.681  -6.390  0.00  0.00     0.088 A 
ATOM     11  N3  7EA d   1      -9.123  -5.788  -7.304  0.00  0.00    -0.164 NA
ATOM     12  N7  7EA d   1     -10.185  -5.255  -8.030  0.00  0.00    -0.198 N 
ATOM     13  C11 7EA d   1     -11.484  -5.679  -7.863  0.00  0.00     0.174 A 
ATOM     14  C12 7EA d   1     -10.187  -4.320  -8.982  0.00  0.00     0.148 A 
ATOM     15  C8  7EA d   1     -11.738  -6.672  -6.889  0.00  0.00    -0.033 A 
ATOM     16  N15 7EA d   1     -12.209  -4.959  -8.717  0.00  0.00    -0.128 NA
ATOM     17  C4  7EA d   1     -10.682  -7.147  -6.145  0.00  0.00    -0.049 A 
ATOM     18  H4  7EA d   1     -12.746  -7.052  -6.731  0.00  0.00     0.089 H 
ATOM     19  H1  7EA d   1     -10.859  -7.884  -5.364  0.00  0.00     0.087 H 
ATOM     20  N16 7EA d   1     -11.424  -4.177  -9.382  0.00  0.00    -0.133 NA
BRANCH  14  21
ATOM     21  C17 7EA d   1      -8.939  -3.616  -9.455  0.00  0.00    -0.018 C 
ATOM     22  H6  7EA d   1      -9.201  -2.893 -10.242  0.00  0.00     0.038 H 
ATOM     23  H7  7EA d   1      -8.231  -4.355  -9.858  0.00  0.00     0.038 H 
ATOM     24  H8  7EA d   1      -8.475  -3.086  -8.610  0.00  0.00     0.038 H 
ENDBRANCH  14  21
ENDBRANCH   5  10
BRANCH   6  25
ATOM     25  O14 7EA d   1      -7.280  -8.885  -2.552  0.00  0.00    -0.353 OA
BRANCH  25  26
ATOM     26  C19 7EA d   1      -8.563  -8.969  -1.917  0.00  0.00     0.010 C 
ATOM     27  H12 7EA d   1      -8.458  -9.469  -0.943  0.00  0.00     0.066 H 
ATOM     28  H13 7EA d   1      -9.250  -9.547  -2.553  0.00  0.00     0.066 H 
ATOM     29  H14 7EA d   1      -8.966  -7.956  -1.768  0.00  0.00     0.066 H 
ENDBRANCH  25  26
ENDBRANCH   6  25
BRANCH   4  30
ATOM     30  O18 7EA d   1      -4.876  -8.786  -3.719  0.00  0.00    -0.353 OA
BRANCH  30  31
ATOM     31  C20 7EA d   1      -3.555  -8.698  -4.273  0.00  0.00     0.010 C 
ATOM     32  H9  7EA d   1      -2.838  -9.178  -3.591  0.00  0.00     0.066 H 
ATOM     33  H10 7EA d   1      -3.283  -7.641  -4.405  0.00  0.00     0.066 H 
ATOM     34  H11 7EA d   1      -3.531  -9.208  -5.247  0.00  0.00     0.066 H 
ENDBRANCH  30  31
ENDBRANCH   4  30
TORSDOF 6
