REMARK  5 active torsions:
REMARK  status: ('A' for Active; 'I' for Inactive)
REMARK    1  A    between atoms: O7_23  and  C6_3 
REMARK    2  A    between atoms: C8_4  and  O7_23 
REMARK    3  A    between atoms: N12_6  and  C23_15 
REMARK    4  A    between atoms: C13_7  and  C9_17 
REMARK    5  A    between atoms: C19_13  and  C22_10 
ROOT
ATOM      1  C8  7E7 d   1      28.507  51.808  -0.907  0.00  0.00     0.180 A 
ATOM      2  C10 7E7 d   1      29.242  51.107   1.042  0.00  0.00     0.038 A 
ATOM      3  N12 7E7 d   1      29.764  52.317  -0.629  0.00  0.00    -0.252 N 
ATOM      4  C9  7E7 d   1      28.157  51.030   0.152  0.00  0.00     0.066 A 
ATOM      5  N11 7E7 d   1      30.207  51.883   0.578  0.00  0.00    -0.182 NA
ATOM      6  H3  7E7 d   1      29.283  50.590   1.999  0.00  0.00     0.119 H 
ENDROOT
BRANCH   4   7
ATOM      7  C13 7E7 d   1      26.872  50.350   0.337  0.00  0.00     0.093 A 
ATOM      8  C14 7E7 d   1      26.638  49.491   1.465  0.00  0.00    -0.049 A 
ATOM      9  C15 7E7 d   1      25.433  48.896   1.636  0.00  0.00    -0.033 A 
ATOM     10  H9  7E7 d   1      27.434  49.317   2.187  0.00  0.00     0.087 H 
ATOM     11  C21 7E7 d   1      24.412  49.158   0.694  0.00  0.00     0.174 A 
ATOM     12  H4  7E7 d   1      25.255  48.231   2.480  0.00  0.00     0.089 H 
ATOM     13  N17 7E7 d   1      23.156  48.769   0.576  0.00  0.00    -0.128 NA
ATOM     14  N20 7E7 d   1      24.726  50.016  -0.338  0.00  0.00    -0.198 N 
ATOM     15  N18 7E7 d   1      22.636  49.399  -0.557  0.00  0.00    -0.133 NA
ATOM     16  C19 7E7 d   1      23.577  50.140  -1.082  0.00  0.00     0.148 A 
ATOM     17  N16 7E7 d   1      25.936  50.621  -0.562  0.00  0.00    -0.164 NA
BRANCH  16  18
ATOM     18  C22 7E7 d   1      23.450  51.021  -2.271  0.00  0.00    -0.018 C 
ATOM     19  H5  7E7 d   1      22.433  50.937  -2.682  0.00  0.00     0.038 H 
ATOM     20  H6  7E7 d   1      24.181  50.715  -3.034  0.00  0.00     0.038 H 
ATOM     21  H7  7E7 d   1      23.642  52.063  -1.977  0.00  0.00     0.038 H 
ENDBRANCH  16  18
ENDBRANCH   4   7
BRANCH   1  22
ATOM     22  O7  7E7 d   1      27.852  52.069  -2.065  0.00  0.00    -0.291 OA
BRANCH  22  23
ATOM     23  C6  7E7 d   1      28.003  51.121  -3.090  0.00  0.00     0.077 A 
ATOM     24  C5  7E7 d   1      27.240  51.238  -4.239  0.00  0.00    -0.050 A 
ATOM     25  C4  7E7 d   1      27.336  50.265  -5.217  0.00  0.00    -0.080 A 
ATOM     26  H2  7E7 d   1      26.574  52.083  -4.371  0.00  0.00     0.087 H 
ATOM     27  C3  7E7 d   1      28.187  49.194  -5.055  0.00  0.00    -0.083 A 
ATOM     28  H1  7E7 d   1      26.738  50.346  -6.117  0.00  0.00     0.083 H 
ATOM     29  C2  7E7 d   1      28.945  49.086  -3.911  0.00  0.00    -0.080 A 
ATOM     30  H14 7E7 d   1      28.260  48.437  -5.827  0.00  0.00     0.083 H 
ATOM     31  C1  7E7 d   1      28.857  50.045  -2.919  0.00  0.00    -0.050 A 
ATOM     32  H10 7E7 d   1      29.616  48.243  -3.787  0.00  0.00     0.083 H 
ATOM     33  H8  7E7 d   1      29.451  49.955  -2.017  0.00  0.00     0.087 H 
ENDBRANCH  22  23
ENDBRANCH   1  22
BRANCH   3  34
ATOM     34  C23 7E7 d   1      30.619  53.188  -1.425  0.00  0.00     0.005 C 
ATOM     35  H11 7E7 d   1      31.553  53.385  -0.878  0.00  0.00     0.059 H 
ATOM     36  H12 7E7 d   1      30.099  54.138  -1.615  0.00  0.00     0.059 H 
ATOM     37  H13 7E7 d   1      30.851  52.699  -2.382  0.00  0.00     0.059 H 
ENDBRANCH   3  34
TORSDOF 5
