REMARK  6 active torsions:
REMARK  status: ('A' for Active; 'I' for Inactive)
REMARK    1  A    between atoms: SAN_11  and  C6_3 
REMARK    2  A    between atoms: CAK_9  and  CAP_7 
REMARK    3  A    between atoms: CAJ_10  and  CAK_9 
REMARK    4  A    between atoms: CAJ_10  and  SAN_11 
REMARK    5  A    between atoms: CAS_15  and  CAR_16 
REMARK    6  A    between atoms: CAQ_19  and  CAA_20 
ROOT
ATOM      1  C4  7EY d   1      -3.768  18.076 -18.170  0.00  0.00     0.112 A 
ATOM      2  C5  7EY d   1      -4.563  16.987 -18.325  0.00  0.00     0.047 A 
ATOM      3  C6  7EY d   1      -5.172  16.492 -17.219  0.00  0.00     0.108 A 
ATOM      4  N1  7EY d   1      -4.991  17.049 -16.012  0.00  0.00    -0.234 NA
ATOM      5  N3  7EY d   1      -3.564  18.662 -16.982  0.00  0.00    -0.234 NA
ATOM      6  C2  7EY d   1      -4.179  18.162 -15.848  0.00  0.00     0.089 A 
ATOM      7  SAO 7EY d   1      -3.153  18.497 -19.624  0.00  0.00    -0.080 SA
ATOM      8  CAI 7EY d   1      -3.864  17.326 -20.490  0.00  0.00    -0.031 A 
ATOM      9  CAS 7EY d   1      -4.595  16.600 -19.639  0.00  0.00    -0.003 A 
ATOM     10  H5  7EY d   1      -4.033  18.619 -14.876  0.00  0.00     0.146 H 
ATOM     11  H6  7EY d   1      -3.765  17.162 -21.562  0.00  0.00     0.096 H 
ENDROOT
BRANCH   9  12
ATOM     12  CAR 7EY d   1      -5.264  15.561 -20.148  0.00  0.00    -0.024 A 
ATOM     13  CAG 7EY d   1      -6.477  15.741 -20.802  0.00  0.00    -0.072 A 
ATOM     14  CAE 7EY d   1      -7.148  14.643 -21.335  0.00  0.00    -0.076 A 
ATOM     15  H7  7EY d   1      -6.900  16.734 -20.897  0.00  0.00     0.084 H 
ATOM     16  CAQ 7EY d   1      -6.608  13.366 -21.227  0.00  0.00    -0.062 A 
ATOM     17  H8  7EY d   1      -8.098  14.785 -21.838  0.00  0.00     0.084 H 
ATOM     18  CAF 7EY d   1      -5.392  13.184 -20.580  0.00  0.00    -0.076 A 
ATOM     19  CAH 7EY d   1      -4.721  14.282 -20.053  0.00  0.00    -0.072 A 
ATOM     20  H12 7EY d   1      -4.968  12.191 -20.486  0.00  0.00     0.084 H 
ATOM     21  H13 7EY d   1      -3.765  14.141 -19.563  0.00  0.00     0.084 H 
BRANCH  16  22
ATOM     22  CAA 7EY d   1      -7.283  12.273 -21.762  0.00  0.00    -0.051 C 
ATOM     23  H9  7EY d   1      -6.702  11.357 -21.578  0.00  0.00     0.033 H 
ATOM     24  H10 7EY d   1      -7.410  12.415 -22.845  0.00  0.00     0.033 H 
ATOM     25  H11 7EY d   1      -8.271  12.183 -21.286  0.00  0.00     0.033 H 
ENDBRANCH  16  22
ENDBRANCH   9  12
BRANCH   3  26
ATOM     26  SAN 7EY d   1      -6.250  15.070 -17.231  0.00  0.00    -0.109 SA
BRANCH  26  27
ATOM     27  CAJ 7EY d   1      -7.246  15.337 -15.719  0.00  0.00    -0.008 C 
ATOM     28  H3  7EY d   1      -6.566  15.393 -14.856  0.00  0.00     0.050 H 
ATOM     29  H4  7EY d   1      -7.790  16.288 -15.820  0.00  0.00     0.050 H 
BRANCH  27  30
ATOM     30  CAK 7EY d   1      -8.261  14.216 -15.471  0.00  0.00     0.024 C 
ATOM     31  H1  7EY d   1      -7.729  13.257 -15.387  0.00  0.00     0.050 H 
ATOM     32  H2  7EY d   1      -8.803  14.418 -14.535  0.00  0.00     0.050 H 
BRANCH  30  33
ATOM     33  CAP 7EY d   1      -9.264  14.139 -16.631  0.00  0.00     0.173 C 
ATOM     34  OAB 7EY d   1      -8.980  13.377 -17.584  0.00  0.00    -0.648 OA
ATOM     35  OAC 7EY d   1     -10.300  14.835 -16.534  0.00  0.00    -0.648 OA
ENDBRANCH  30  33
ENDBRANCH  27  30
ENDBRANCH  26  27
ENDBRANCH   3  26
TORSDOF 6
