REMARK  6 active torsions:
REMARK  status: ('A' for Active; 'I' for Inactive)
REMARK    1  A    between atoms: SAN_11  and  C6_3 
REMARK    2  A    between atoms: CAK_9  and  CAP_7 
REMARK    3  A    between atoms: CAJ_10  and  CAK_9 
REMARK    4  A    between atoms: CAJ_10  and  SAN_11 
REMARK    5  A    between atoms: CAS_15  and  CAR_16 
REMARK    6  A    between atoms: CAQ_19  and  CAA_20 
ROOT
ATOM      1  C4  7EY d   1     -12.741  -8.442 -11.034  0.00  0.00     0.112 A 
ATOM      2  C5  7EY d   1     -13.064  -7.135 -10.766  0.00  0.00     0.047 A 
ATOM      3  C6  7EY d   1     -13.003  -6.265 -11.831  0.00  0.00     0.108 A 
ATOM      4  N1  7EY d   1     -12.609  -6.660 -13.057  0.00  0.00    -0.234 NA
ATOM      5  N3  7EY d   1     -12.380  -8.862 -12.256  0.00  0.00    -0.234 NA
ATOM      6  C2  7EY d   1     -12.292  -7.987 -13.317  0.00  0.00     0.089 A 
ATOM      7  SAO 7EY d   1     -12.927  -9.399  -9.662  0.00  0.00    -0.080 SA
ATOM      8  CAI 7EY d   1     -13.404  -8.091  -8.712  0.00  0.00    -0.031 A 
ATOM      9  CAS 7EY d   1     -13.436  -6.968  -9.449  0.00  0.00    -0.003 A 
ATOM     10  H5  7EY d   1     -11.991  -8.318 -14.304  0.00  0.00     0.146 H 
ATOM     11  H6  7EY d   1     -13.651  -8.148  -7.653  0.00  0.00     0.096 H 
ENDROOT
BRANCH   9  12
ATOM     12  CAR 7EY d   1     -13.807  -5.815  -8.801  0.00  0.00    -0.024 A 
ATOM     13  CAG 7EY d   1     -12.950  -4.698  -8.707  0.00  0.00    -0.072 A 
ATOM     14  CAE 7EY d   1     -13.289  -3.513  -8.037  0.00  0.00    -0.076 A 
ATOM     15  H7  7EY d   1     -11.976  -4.759  -9.179  0.00  0.00     0.084 H 
ATOM     16  CAQ 7EY d   1     -14.524  -3.453  -7.389  0.00  0.00    -0.062 A 
ATOM     17  H8  7EY d   1     -12.611  -2.667  -8.023  0.00  0.00     0.084 H 
ATOM     18  CAF 7EY d   1     -15.377  -4.565  -7.437  0.00  0.00    -0.076 A 
ATOM     19  CAH 7EY d   1     -15.007  -5.741  -8.116  0.00  0.00    -0.072 A 
ATOM     20  H12 7EY d   1     -16.340  -4.518  -6.941  0.00  0.00     0.084 H 
ATOM     21  H13 7EY d   1     -15.670  -6.599  -8.102  0.00  0.00     0.084 H 
BRANCH  16  22
ATOM     22  CAA 7EY d   1     -14.923  -2.303  -6.696  0.00  0.00    -0.051 C 
ATOM     23  H9  7EY d   1     -15.921  -2.464  -6.262  0.00  0.00     0.033 H 
ATOM     24  H10 7EY d   1     -14.958  -1.450  -7.390  0.00  0.00     0.033 H 
ATOM     25  H11 7EY d   1     -14.203  -2.091  -5.892  0.00  0.00     0.033 H 
ENDBRANCH  16  22
ENDBRANCH   9  12
BRANCH   3  26
ATOM     26  SAN 7EY d   1     -13.400  -4.553 -11.751  0.00  0.00    -0.109 SA
BRANCH  26  27
ATOM     27  CAJ 7EY d   1     -13.599  -4.001 -13.481  0.00  0.00    -0.008 C 
ATOM     28  H3  7EY d   1     -14.041  -4.827 -14.057  0.00  0.00     0.050 H 
ATOM     29  H4  7EY d   1     -14.283  -3.140 -13.491  0.00  0.00     0.050 H 
BRANCH  27  30
ATOM     30  CAK 7EY d   1     -12.275  -3.578 -14.176  0.00  0.00     0.024 C 
ATOM     31  H1  7EY d   1     -11.446  -4.142 -13.725  0.00  0.00     0.050 H 
ATOM     32  H2  7EY d   1     -12.346  -3.823 -15.246  0.00  0.00     0.050 H 
BRANCH  30  33
ATOM     33  CAP 7EY d   1     -11.977  -2.057 -14.033  0.00  0.00     0.173 C 
ATOM     34  OAB 7EY d   1     -10.971  -1.604 -14.638  0.00  0.00    -0.648 OA
ATOM     35  OAC 7EY d   1     -12.733  -1.379 -13.311  0.00  0.00    -0.648 OA
ENDBRANCH  30  33
ENDBRANCH  27  30
ENDBRANCH  26  27
ENDBRANCH   3  26
TORSDOF 6
