REMARK  4 active torsions:
REMARK  status: ('A' for Active; 'I' for Inactive)
REMARK    1  A    between atoms: C18_21  and  C20_4 
REMARK    2  A    between atoms: C21_5  and  O02_8 
REMARK    3  A    between atoms: C19_22  and  O04_10 
REMARK    4  A    between atoms: C14_19  and  C16_20 
ROOT
ATOM      1  C15 7FC d   1     -13.596 -10.313  -8.364  0.00  0.00     0.036 A 
ATOM      2  C17 7FC d   1     -13.529  -7.983  -8.338  0.00  0.00     0.070 A 
ATOM      3  C20 7FC d   1     -13.015  -6.595 -11.623  0.00  0.00     0.118 A 
ATOM      4  C21 7FC d   1     -13.023  -8.990 -11.832  0.00  0.00     0.112 A 
ATOM      5  C22 7FC d   1     -13.233  -9.063 -10.404  0.00  0.00     0.014 A 
ATOM      6 CL5  7FC d   1     -13.700 -11.821  -7.573  0.00  0.00    -0.084 Cl
ATOM      7 CL6  7FC d   1     -13.613  -6.495  -7.539  0.00  0.00    -0.081 Cl
ATOM      8  C11 7FC d   1     -13.678  -9.161  -7.648  0.00  0.00    -0.038 A 
ATOM      9  C12 7FC d   1     -13.385 -10.309  -9.736  0.00  0.00    -0.050 A 
ATOM     10  O13 7FC d   1     -13.216  -6.720 -10.286  0.00  0.00    -0.305 OA
ATOM     11  C19 7FC d   1     -12.897  -7.707 -12.426  0.00  0.00     0.111 A 
ATOM     12  C23 7FC d   1     -13.315  -7.931  -9.723  0.00  0.00     0.107 A 
ATOM     13  H2  7FC d   1     -11.934  -9.036 -11.681  0.00  0.00     0.101 H 
ATOM     14  H8  7FC d   1     -13.854  -9.171  -6.578  0.00  0.00     0.088 H 
ATOM     15  H9  7FC d   1     -13.337 -11.240 -10.289  0.00  0.00     0.087 H 
ENDROOT
BRANCH   3  16
ATOM     16  C18 7FC d   1     -12.917  -5.199 -12.062  0.00  0.00     0.000 A 
ATOM     17  C10 7FC d   1     -12.359  -4.909 -13.298  0.00  0.00    -0.069 A 
ATOM     18  C08 7FC d   1     -12.228  -3.609 -13.694  0.00  0.00    -0.066 A 
ATOM     19  H1  7FC d   1     -12.028  -5.712 -13.947  0.00  0.00     0.085 H 
ATOM     20  C16 7FC d   1     -12.666  -2.607 -12.886  0.00  0.00     0.040 A 
ATOM     21  H6  7FC d   1     -11.775  -3.376 -14.651  0.00  0.00     0.085 H 
ATOM     22  C07 7FC d   1     -13.271  -2.874 -11.635  0.00  0.00    -0.066 A 
ATOM     23  C09 7FC d   1     -13.378  -4.192 -11.237  0.00  0.00    -0.069 A 
ATOM     24  H5  7FC d   1     -13.639  -2.069 -11.009  0.00  0.00     0.085 H 
ATOM     25  H7  7FC d   1     -13.823  -4.436 -10.279  0.00  0.00     0.085 H 
BRANCH  20  26
ATOM     26  C14 7FC d   1     -12.481  -1.206 -13.318  0.00  0.00     0.209 C 
ATOM     27  O01 7FC d   1     -11.662  -0.989 -14.289  0.00  0.00    -0.644 OA
ATOM     28  O03 7FC d   1     -13.028  -0.283 -12.659  0.00  0.00    -0.644 OA
ENDBRANCH  20  26
ENDBRANCH   3  16
BRANCH  11  29
ATOM     29  O04 7FC d   1     -12.726  -7.687 -13.799  0.00  0.00    -0.359 OA
ATOM     30  H4  7FC d   1     -13.474  -8.099 -14.216  0.00  0.00     0.217 HD
ENDBRANCH  11  29
BRANCH   4  31
ATOM     31  O02 7FC d   1     -12.962 -10.113 -12.586  0.00  0.00    -0.384 OA
ATOM     32  H3  7FC d   1     -12.820  -9.876 -13.495  0.00  0.00     0.211 HD
ENDBRANCH   4  31
TORSDOF 4
