REMARK  4 active torsions:
REMARK  status: ('A' for Active; 'I' for Inactive)
REMARK    1  A    between atoms: C18_21  and  C20_4 
REMARK    2  A    between atoms: C21_5  and  O02_8 
REMARK    3  A    between atoms: C19_22  and  O04_10 
REMARK    4  A    between atoms: C14_19  and  C16_20 
ROOT
ATOM      1  C15 7FC d   1     -15.781   6.770  14.647  0.00  0.00     0.036 A 
ATOM      2  C17 7FC d   1     -17.254   5.029  15.441  0.00  0.00     0.070 A 
ATOM      3  C20 7FC d   1     -17.431   5.084  19.068  0.00  0.00     0.118 A 
ATOM      4  C21 7FC d   1     -15.911   6.880  18.430  0.00  0.00     0.112 A 
ATOM      5  C22 7FC d   1     -16.156   6.483  17.045  0.00  0.00     0.014 A 
ATOM      6 CL5  7FC d   1     -15.015   7.609  13.342  0.00  0.00    -0.084 Cl
ATOM      7 CL6  7FC d   1     -18.331   3.706  15.146  0.00  0.00    -0.081 Cl
ATOM      8  C11 7FC d   1     -16.645   5.698  14.386  0.00  0.00    -0.038 A 
ATOM      9  C12 7FC d   1     -15.530   7.168  15.962  0.00  0.00    -0.050 A 
ATOM     10  O13 7FC d   1     -17.598   4.782  17.800  0.00  0.00    -0.305 OA
ATOM     11  C19 7FC d   1     -16.584   6.136  19.451  0.00  0.00     0.111 A 
ATOM     12  C23 7FC d   1     -16.996   5.444  16.786  0.00  0.00     0.107 A 
ATOM     13  H2  7FC d   1     -15.055   6.191  18.482  0.00  0.00     0.101 H 
ATOM     14  H8  7FC d   1     -16.838   5.391  13.364  0.00  0.00     0.088 H 
ATOM     15  H9  7FC d   1     -14.860   7.997  16.159  0.00  0.00     0.087 H 
ENDROOT
BRANCH   3  16
ATOM     16  C18 7FC d   1     -18.175   4.227  20.036  0.00  0.00     0.000 A 
ATOM     17  C10 7FC d   1     -17.846   4.175  21.384  0.00  0.00    -0.069 A 
ATOM     18  C08 7FC d   1     -18.555   3.353  22.242  0.00  0.00    -0.066 A 
ATOM     19  H1  7FC d   1     -17.031   4.780  21.765  0.00  0.00     0.085 H 
ATOM     20  C16 7FC d   1     -19.586   2.568  21.750  0.00  0.00     0.040 A 
ATOM     21  H6  7FC d   1     -18.305   3.323  23.296  0.00  0.00     0.085 H 
ATOM     22  C07 7FC d   1     -19.909   2.602  20.403  0.00  0.00    -0.066 A 
ATOM     23  C09 7FC d   1     -19.203   3.431  19.548  0.00  0.00    -0.069 A 
ATOM     24  H5  7FC d   1     -20.711   1.982  20.020  0.00  0.00     0.085 H 
ATOM     25  H7  7FC d   1     -19.454   3.459  18.494  0.00  0.00     0.085 H 
BRANCH  20  26
ATOM     26  C14 7FC d   1     -20.339   1.679  22.676  0.00  0.00     0.209 C 
ATOM     27  O01 7FC d   1     -21.599   1.654  22.660  0.00  0.00    -0.644 OA
ATOM     28  O03 7FC d   1     -19.697   0.947  23.473  0.00  0.00    -0.644 OA
ENDBRANCH  20  26
ENDBRANCH   3  16
BRANCH  11  29
ATOM     29  O04 7FC d   1     -16.377   6.481  20.767  0.00  0.00    -0.359 OA
ATOM     30  H4  7FC d   1     -16.651   7.380  20.904  0.00  0.00     0.217 HD
ENDBRANCH  11  29
BRANCH   4  31
ATOM     31  O02 7FC d   1     -15.072   7.925  18.746  0.00  0.00    -0.384 OA
ATOM     32  H3  7FC d   1     -14.200   7.740  18.418  0.00  0.00     0.211 HD
ENDBRANCH   4  31
TORSDOF 4
