REMARK  10 active torsions:
REMARK  status: ('A' for Active; 'I' for Inactive)
REMARK       I    between atoms: N1_2  and  C7_14 
REMARK    1  A    between atoms: N1_2  and  C8_15 
REMARK    2  A    between atoms: C17_24  and  N1_2 
REMARK    3  A    between atoms: C2_4  and  O4_10 
REMARK       I    between atoms: C15_22  and  N2_5 
REMARK    4  A    between atoms: N2_5  and  C16_23 
REMARK    5  A    between atoms: C11_18  and  O2_6 
REMARK    6  A    between atoms: O2_6  and  C14_21 
REMARK    7  A    between atoms: C4_9  and  O3_8 
REMARK    8  A    between atoms: C7_14  and  C5_11 
REMARK    9  A    between atoms: C15_22  and  C17_24 
REMARK   10  A    between atoms: C16_23  and  C18_25 
ROOT
ATOM      1  N1  7F9 d   1      32.226 -32.910  10.697  0.00  0.00    -0.305 N 
ATOM      2  O1  7F9 d   1      30.815 -34.431  11.786  0.00  0.00    -0.267 OA
ATOM      3  C7  7F9 d   1      31.755 -34.243  11.036  0.00  0.00     0.261 C 
ENDROOT
BRANCH   1   4
ATOM      4  C8  7F9 d   1      33.312 -32.779   9.752  0.00  0.00     0.038 A 
ATOM      5  C9  7F9 d   1      34.566 -33.227  10.156  0.00  0.00    -0.054 A 
ATOM      6  C10 7F9 d   1      35.662 -33.144   9.310  0.00  0.00    -0.049 A 
ATOM      7  H7  7F9 d   1      34.688 -33.648  11.148  0.00  0.00     0.087 H 
ATOM      8  C11 7F9 d   1      35.508 -32.607   8.040  0.00  0.00     0.068 A 
ATOM      9  H8  7F9 d   1      36.633 -33.496   9.639  0.00  0.00     0.087 H 
ATOM     10  C12 7F9 d   1      34.249 -32.160   7.631  0.00  0.00    -0.049 A 
ATOM     11  C13 7F9 d   1      33.146 -32.243   8.479  0.00  0.00    -0.054 A 
ATOM     12  H9  7F9 d   1      34.128 -31.742   6.638  0.00  0.00     0.087 H 
ATOM     13  H10 7F9 d   1      32.173 -31.895   8.151  0.00  0.00     0.087 H 
BRANCH   8  14
ATOM     14  O2  7F9 d   1      36.604 -32.538   7.228  0.00  0.00    -0.356 OA
BRANCH  14  15
ATOM     15  C14 7F9 d   1      36.392 -31.761   6.045  0.00  0.00     0.010 C 
ATOM     16  H11 7F9 d   1      37.313 -31.750   5.443  0.00  0.00     0.066 H 
ATOM     17  H12 7F9 d   1      36.126 -30.731   6.325  0.00  0.00     0.066 H 
ATOM     18  H13 7F9 d   1      35.575 -32.204   5.457  0.00  0.00     0.066 H 
ENDBRANCH  14  15
ENDBRANCH   8  14
ENDBRANCH   1   4
BRANCH   1  19
ATOM     19  C17 7F9 d   1      31.309 -31.769  10.809  0.00  0.00     0.076 C 
ATOM     20  H16 7F9 d   1      30.369 -32.092  11.280  0.00  0.00     0.079 H 
ATOM     21  H17 7F9 d   1      31.097 -31.362   9.809  0.00  0.00     0.079 H 
BRANCH  19  22
ATOM     22  C15 7F9 d   1      31.983 -30.695  11.675  0.00  0.00     0.235 C 
ATOM     23  N2  7F9 d   1      31.185 -30.127  12.589  0.00  0.00    -0.360 N 
ATOM     24  H2  7F9 d   1      30.231 -30.420  12.650  0.00  0.00     0.162 HD
ATOM     25  O5  7F9 d   1      33.175 -30.402  11.538  0.00  0.00    -0.272 OA
BRANCH  23  26
ATOM     26  C16 7F9 d   1      31.673 -29.085  13.504  0.00  0.00    -0.008 C 
ATOM     27  H14 7F9 d   1      32.540 -28.579  13.054  0.00  0.00     0.063 H 
ATOM     28  H15 7F9 d   1      31.971 -29.545  14.458  0.00  0.00     0.063 H 
BRANCH  26  29
ATOM     29  C18 7F9 d   1      30.562 -28.065  13.756  0.00  0.00    -0.061 C 
ATOM     30  H18 7F9 d   1      30.928 -27.286  14.441  0.00  0.00     0.029 H 
ATOM     31  H19 7F9 d   1      29.695 -28.571  14.206  0.00  0.00     0.029 H 
ATOM     32  H20 7F9 d   1      30.264 -27.605  12.803  0.00  0.00     0.029 H 
ENDBRANCH  26  29
ENDBRANCH  23  26
ENDBRANCH  19  22
ENDBRANCH   1  19
BRANCH   3  33
ATOM     33  C5  7F9 d   1      32.591 -35.303  10.687  0.00  0.00     0.065 A 
ATOM     34  C4  7F9 d   1      33.110 -36.111  11.695  0.00  0.00     0.084 A 
ATOM     35  C3  7F9 d   1      33.950 -37.178  11.406  0.00  0.00    -0.018 A 
ATOM     36  C2  7F9 d   1      34.281 -37.444  10.084  0.00  0.00     0.068 A 
ATOM     37  H3  7F9 d   1      34.343 -37.797  12.204  0.00  0.00     0.092 H 
ATOM     38  C1  7F9 d   1      33.770 -36.643   9.067  0.00  0.00    -0.050 A 
ATOM     39  C6  7F9 d   1      32.925 -35.577   9.364  0.00  0.00    -0.062 A 
ATOM     40  H1  7F9 d   1      34.032 -36.851   8.036  0.00  0.00     0.087 H 
ATOM     41  H6  7F9 d   1      32.528 -34.961   8.565  0.00  0.00     0.085 H 
BRANCH  34  42
ATOM     42  O3  7F9 d   1      32.752 -35.806  12.972  0.00  0.00    -0.360 OA
ATOM     43  H4  7F9 d   1      32.177 -35.050  12.966  0.00  0.00     0.217 HD
ENDBRANCH  34  42
BRANCH  36  44
ATOM     44  O4  7F9 d   1      35.104 -38.486   9.789  0.00  0.00    -0.361 OA
ATOM     45  H5  7F9 d   1      35.943 -38.356  10.216  0.00  0.00     0.217 HD
ENDBRANCH  36  44
ENDBRANCH   3  33
TORSDOF 10
