REMARK  1 active torsions:
REMARK  status: ('A' for Active; 'I' for Inactive)
REMARK    1  A    between atoms: CA_2  and  C_3 
ROOT
ATOM      1  N   PRO d   1      22.230   4.287  77.695  0.00  0.00    -0.061 N 
ATOM      2  CA  PRO d   1      22.394   3.103  78.547  0.00  0.00     0.184 C 
ATOM      3  CB  PRO d   1      22.926   2.031  77.579  0.00  0.00    -0.027 C 
ATOM      4  CG  PRO d   1      23.256   2.746  76.301  0.00  0.00    -0.040 C 
ATOM      5  CD  PRO d   1      22.406   3.968  76.271  0.00  0.00     0.083 C 
ATOM      6  H1  PRO d   1      22.915   4.977  77.961  0.00  0.00     0.278 HD
ATOM      7  H2  PRO d   1      21.304   4.662  77.833  0.00  0.00     0.278 HD
ATOM      8  H3  PRO d   1      21.423   2.799  78.964  0.00  0.00     0.101 H 
ATOM      9  H4  PRO d   1      22.158   1.265  77.399  0.00  0.00     0.036 H 
ATOM     10  H5  PRO d   1      23.828   1.556  77.994  0.00  0.00     0.036 H 
ATOM     11  H6  PRO d   1      23.030   2.104  75.437  0.00  0.00     0.035 H 
ATOM     12  H7  PRO d   1      24.320   3.023  76.284  0.00  0.00     0.035 H 
ATOM     13  H8  PRO d   1      22.913   4.789  75.742  0.00  0.00     0.075 H 
ATOM     14  H9  PRO d   1      21.438   3.764  75.790  0.00  0.00     0.075 H 
ENDROOT
BRANCH   2  15
ATOM     15  C   PRO d   1      23.373   3.334  79.699  0.00  0.00     0.204 C 
ATOM     16  O   PRO d   1      24.215   4.237  79.645  0.00  0.00    -0.646 OA
ATOM     17  OXT PRO d   1      23.329   2.624  80.712  0.00  0.00    -0.646 OA
ENDBRANCH   2  15
TORSDOF 1
