REMARK  4 active torsions:
REMARK  status: ('A' for Active; 'I' for Inactive)
REMARK    1  A    between atoms: C18_21  and  C20_4 
REMARK    2  A    between atoms: C21_5  and  O02_8 
REMARK    3  A    between atoms: C19_22  and  O04_10 
REMARK    4  A    between atoms: C14_19  and  C16_20 
ROOT
ATOM      1  C15 7FC d   1      14.558 -21.788  -7.313  0.00  0.00     0.036 A 
ATOM      2  C17 7FC d   1      14.039 -19.581  -8.123  0.00  0.00     0.070 A 
ATOM      3  C20 7FC d   1      10.536 -19.326  -8.976  0.00  0.00     0.118 A 
ATOM      4  C21 7FC d   1      10.894 -21.603  -8.196  0.00  0.00     0.112 A 
ATOM      5  C22 7FC d   1      12.286 -21.232  -7.996  0.00  0.00     0.014 A 
ATOM      6 CL5  7FC d   1      15.711 -22.920  -6.700  0.00  0.00    -0.084 Cl
ATOM      7 CL6  7FC d   1      14.497 -17.965  -8.520  0.00  0.00    -0.081 Cl
ATOM      8  C11 7FC d   1      14.962 -20.488  -7.628  0.00  0.00    -0.038 A 
ATOM      9  C12 7FC d   1      13.228 -22.173  -7.491  0.00  0.00    -0.050 A 
ATOM     10  O13 7FC d   1      11.809 -19.066  -8.781  0.00  0.00    -0.305 OA
ATOM     11  C19 7FC d   1      10.014 -20.596  -8.703  0.00  0.00     0.111 A 
ATOM     12  C23 7FC d   1      12.684 -19.971  -8.300  0.00  0.00     0.107 A 
ATOM     13  H2  7FC d   1      11.119 -21.934  -9.220  0.00  0.00     0.101 H 
ATOM     14  H8  7FC d   1      15.995 -20.190  -7.486  0.00  0.00     0.088 H 
ATOM     15  H9  7FC d   1      12.914 -23.181  -7.247  0.00  0.00     0.087 H 
ENDROOT
BRANCH   3  16
ATOM     16  C18 7FC d   1       9.731 -18.201  -9.522  0.00  0.00     0.000 A 
ATOM     17  C10 7FC d   1       8.485 -18.385 -10.107  0.00  0.00    -0.069 A 
ATOM     18  C08 7FC d   1       7.794 -17.294 -10.614  0.00  0.00    -0.066 A 
ATOM     19  H1  7FC d   1       8.054 -19.378 -10.167  0.00  0.00     0.085 H 
ATOM     20  C16 7FC d   1       8.360 -16.030 -10.550  0.00  0.00     0.040 A 
ATOM     21  H6  7FC d   1       6.815 -17.429 -11.059  0.00  0.00     0.085 H 
ATOM     22  C07 7FC d   1       9.607 -15.846  -9.979  0.00  0.00    -0.066 A 
ATOM     23  C09 7FC d   1      10.292 -16.934  -9.467  0.00  0.00    -0.069 A 
ATOM     24  H5  7FC d   1      10.045 -14.855  -9.933  0.00  0.00     0.085 H 
ATOM     25  H7  7FC d   1      11.270 -16.795  -9.021  0.00  0.00     0.085 H 
BRANCH  20  26
ATOM     26  C14 7FC d   1       7.628 -14.861 -11.106  0.00  0.00     0.209 C 
ATOM     27  O01 7FC d   1       6.648 -15.056 -11.877  0.00  0.00    -0.644 OA
ATOM     28  O03 7FC d   1       8.008 -13.693 -10.820  0.00  0.00    -0.644 OA
ENDBRANCH  20  26
ENDBRANCH   3  16
BRANCH  11  29
ATOM     29  O04 7FC d   1       8.696 -20.910  -8.900  0.00  0.00    -0.359 OA
ATOM     30  H4  7FC d   1       8.308 -21.175  -8.074  0.00  0.00     0.217 HD
ENDBRANCH  11  29
BRANCH   4  31
ATOM     31  O02 7FC d   1      10.444 -22.860  -7.897  0.00  0.00    -0.384 OA
ATOM     32  H3  7FC d   1       9.516 -22.917  -8.091  0.00  0.00     0.211 HD
ENDBRANCH   4  31
TORSDOF 4
