REMARK  6 active torsions:
REMARK  status: ('A' for Active; 'I' for Inactive)
REMARK       I    between atoms: C02_2  and  N03_3 
REMARK    1  A    between atoms: C02_2  and  C04_4 
REMARK    2  A    between atoms: C08_8  and  N09_9 
REMARK    3  A    between atoms: N09_9  and  C10_10 
REMARK    4  A    between atoms: C17_17  and  O18_18 
REMARK    5  A    between atoms: O18_18  and  C19_19 
REMARK    6  A    between atoms: C19_19  and  C20_20 
ROOT
ATOM      1  C10 NU6 d   1      34.483  -3.691  13.722  0.00  0.00     0.731 A 
ATOM      2  N11 NU6 d   1      35.553  -3.571  12.950  0.00  0.00    -0.040 NA
ATOM      3  C12 NU6 d   1      35.624  -4.197  11.726  0.00  0.00     0.201 A 
ATOM      4  N13 NU6 d   1      36.589  -4.231  10.748  0.00  0.00    -0.222 NA
ATOM      5  C14 NU6 d   1      36.150  -5.001   9.730  0.00  0.00     0.067 A 
ATOM      6  N15 NU6 d   1      34.920  -5.458  10.040  0.00  0.00    -0.344 N 
ATOM      7  C16 NU6 d   1      34.575  -4.965  11.272  0.00  0.00     0.136 A 
ATOM      8  C17 NU6 d   1      33.452  -5.075  12.150  0.00  0.00     0.214 A 
ATOM      9  N26 NU6 d   1      33.453  -4.431  13.331  0.00  0.00    -0.036 NA
ATOM     10  H7  NU6 d   1      36.697  -5.217   8.813  0.00  0.00     0.143 H 
ATOM     11  H8  NU6 d   1      34.339  -6.072   9.452  0.00  0.00     0.167 HD
ENDROOT
BRANCH   8  12
ATOM     12  O18 NU6 d   1      32.369  -5.851  11.712  0.00  0.00    -0.332 OA
BRANCH  12  13
ATOM     13  C19 NU6 d   1      31.565  -6.462  12.695  0.00  0.00     0.031 C 
ATOM     14  H9  NU6 d   1      31.663  -5.942  13.659  0.00  0.00     0.075 H 
ATOM     15  H10 NU6 d   1      31.837  -7.520  12.820  0.00  0.00     0.075 H 
BRANCH  13  16
ATOM     16  C20 NU6 d   1      30.160  -6.329  12.153  0.00  0.00    -0.033 C 
ATOM     17  C21 NU6 d   1      30.177  -6.698  10.677  0.00  0.00    -0.060 C 
ATOM     18  C22 NU6 d   1      29.946  -8.164  10.394  0.00  0.00    -0.065 C 
ATOM     19  H12 NU6 d   1      31.158  -6.419  10.265  0.00  0.00     0.033 H 
ATOM     20  H13 NU6 d   1      29.389  -6.122  10.170  0.00  0.00     0.033 H 
ATOM     21  C23 NU6 d   1      28.732  -8.686  11.130  0.00  0.00    -0.065 C 
ATOM     22  H14 NU6 d   1      30.831  -8.734  10.715  0.00  0.00     0.033 H 
ATOM     23  H15 NU6 d   1      29.794  -8.300   9.313  0.00  0.00     0.033 H 
ATOM     24  C24 NU6 d   1      28.915  -8.514  12.620  0.00  0.00    -0.065 C 
ATOM     25  H16 NU6 d   1      28.599  -9.754  10.901  0.00  0.00     0.033 H 
ATOM     26  H17 NU6 d   1      27.842  -8.127  10.806  0.00  0.00     0.033 H 
ATOM     27  C25 NU6 d   1      29.138  -7.066  13.005  0.00  0.00    -0.060 C 
ATOM     28  H18 NU6 d   1      29.786  -9.104  12.941  0.00  0.00     0.033 H 
ATOM     29  H19 NU6 d   1      28.014  -8.882  13.133  0.00  0.00     0.033 H 
ATOM     30  H20 NU6 d   1      28.177  -6.538  12.920  0.00  0.00     0.033 H 
ATOM     31  H21 NU6 d   1      29.480  -7.039  14.050  0.00  0.00     0.033 H 
ATOM     32  H11 NU6 d   1      29.887  -5.265  12.209  0.00  0.00     0.043 H 
ENDBRANCH  13  16
ENDBRANCH  12  13
ENDBRANCH   8  12
BRANCH   1  33
ATOM     33  N09 NU6 d   1      34.522  -3.006  14.975  0.00  0.00    -0.188 N 
ATOM     34  H6  NU6 d   1      35.424  -2.579  15.229  0.00  0.00     0.184 HD
BRANCH  33  35
ATOM     35  C08 NU6 d   1      33.458  -2.841  15.922  0.00  0.00     0.050 A 
ATOM     36  C07 NU6 d   1      33.677  -2.016  17.023  0.00  0.00    -0.057 A 
ATOM     37  C06 NU6 d   1      32.687  -1.822  17.976  0.00  0.00    -0.080 A 
ATOM     38  H5  NU6 d   1      34.634  -1.519  17.137  0.00  0.00     0.086 H 
ATOM     39  C05 NU6 d   1      31.464  -2.455  17.835  0.00  0.00    -0.068 A 
ATOM     40  H4  NU6 d   1      32.871  -1.177  18.828  0.00  0.00     0.083 H 
ATOM     41  C04 NU6 d   1      31.241  -3.285  16.742  0.00  0.00     0.034 A 
ATOM     42  H3  NU6 d   1      30.684  -2.304  18.573  0.00  0.00     0.085 H 
ATOM     43  C27 NU6 d   1      32.234  -3.475  15.791  0.00  0.00    -0.041 A 
ATOM     44  H22 NU6 d   1      32.050  -4.123  14.942  0.00  0.00     0.088 H 
BRANCH  41  45
ATOM     45  C02 NU6 d   1      29.914  -3.981  16.574  0.00  0.00     0.249 C 
ATOM     46  O01 NU6 d   1      29.519  -4.731  17.446  0.00  0.00    -0.268 OA
ATOM     47  N03 NU6 d   1      29.134  -3.761  15.405  0.00  0.00    -0.366 N 
ATOM     48  H1  NU6 d   1      29.465  -3.143  14.692  0.00  0.00     0.159 HD
ATOM     49  H2  NU6 d   1      28.255  -4.224  15.296  0.00  0.00     0.159 HD
ENDBRANCH  41  45
ENDBRANCH  33  35
ENDBRANCH   1  33
TORSDOF 6
