REMARK  8 active torsions:
REMARK  status: ('A' for Active; 'I' for Inactive)
REMARK    1  A    between atoms: O6_15  and  C6_3 
REMARK    2  A    between atoms: C2_18  and  N2_6 
REMARK    3  A    between atoms: N2_6  and  CAV_19 
REMARK    4  A    between atoms: CAN_14  and  CBB_13 
REMARK    5  A    between atoms: CAN_14  and  O6_15 
REMARK    6  A    between atoms: CAW_24  and  CAU_25 
REMARK       I    between atoms: CAU_25  and  NBC_27 
REMARK    7  A    between atoms: NBC_27  and  CAB_28 
REMARK    8  A    between atoms: NBC_27  and  CAA_29 
ROOT
ATOM      1  C4  7GJ d   1      35.252  -3.656  12.118  0.00  0.00     0.201 A 
ATOM      2  C5  7GJ d   1      34.271  -4.529  11.673  0.00  0.00     0.136 A 
ATOM      3  C6  7GJ d   1      33.133  -4.727  12.457  0.00  0.00     0.214 A 
ATOM      4  C8  7GJ d   1      35.856  -4.513  10.175  0.00  0.00     0.067 A 
ATOM      5  N1  7GJ d   1      33.028  -4.058  13.636  0.00  0.00    -0.036 NA
ATOM      6  N3  7GJ d   1      35.052  -3.026  13.325  0.00  0.00    -0.040 NA
ATOM      7  N7  7GJ d   1      34.679  -5.038  10.468  0.00  0.00    -0.344 N 
ATOM      8  N9  7GJ d   1      36.214  -3.673  11.150  0.00  0.00    -0.222 NA
ATOM      9  C2  7GJ d   1      33.979  -3.218  14.039  0.00  0.00     0.731 A 
ATOM     10  H1  7GJ d   1      36.440  -4.730   9.282  0.00  0.00     0.143 H 
ATOM     11  H16 7GJ d   1      34.158  -5.713   9.890  0.00  0.00     0.167 HD
ENDROOT
BRANCH   9  12
ATOM     12  N2  7GJ d   1      33.895  -2.497  15.270  0.00  0.00    -0.188 N 
ATOM     13  H2  7GJ d   1      34.733  -1.964  15.543  0.00  0.00     0.184 HD
BRANCH  12  14
ATOM     14  CAV 7GJ d   1      32.773  -2.428  16.176  0.00  0.00     0.050 A 
ATOM     15  CAH 7GJ d   1      31.578  -3.140  15.974  0.00  0.00    -0.041 A 
ATOM     16  CAW 7GJ d   1      30.519  -3.015  16.889  0.00  0.00     0.034 A 
ATOM     17  H17 7GJ d   1      31.473  -3.787  15.111  0.00  0.00     0.088 H 
ATOM     18  CAF 7GJ d   1      30.662  -2.205  18.019  0.00  0.00    -0.068 A 
ATOM     19  CAD 7GJ d   1      31.858  -1.506  18.229  0.00  0.00    -0.080 A 
ATOM     20  H20 7GJ d   1      29.849  -2.118  18.731  0.00  0.00     0.085 H 
ATOM     21  CAE 7GJ d   1      32.907  -1.611  17.306  0.00  0.00    -0.057 A 
ATOM     22  H19 7GJ d   1      31.972  -0.882  19.108  0.00  0.00     0.083 H 
ATOM     23  H18 7GJ d   1      33.825  -1.058  17.467  0.00  0.00     0.086 H 
BRANCH  16  24
ATOM     24  CAU 7GJ d   1      29.191  -3.793  16.705  0.00  0.00     0.253 C 
ATOM     25  OAC 7GJ d   1      28.852  -4.540  17.605  0.00  0.00    -0.267 OA
ATOM     26  NBC 7GJ d   1      28.335  -3.680  15.532  0.00  0.00    -0.357 N 
BRANCH  26  27
ATOM     27  CAB 7GJ d   1      27.114  -4.453  15.484  0.00  0.00    -0.016 C 
ATOM     28  H21 7GJ d   1      26.590  -4.253  14.538  0.00  0.00     0.056 H 
ATOM     29  H22 7GJ d   1      26.468  -4.170  16.328  0.00  0.00     0.056 H 
ATOM     30  H23 7GJ d   1      27.355  -5.524  15.550  0.00  0.00     0.056 H 
ENDBRANCH  26  27
BRANCH  26  31
ATOM     31  CAA 7GJ d   1      28.658  -2.807  14.423  0.00  0.00    -0.016 C 
ATOM     32  H24 7GJ d   1      29.613  -2.299  14.623  0.00  0.00     0.056 H 
ATOM     33  H25 7GJ d   1      27.862  -2.057  14.303  0.00  0.00     0.056 H 
ATOM     34  H26 7GJ d   1      28.744  -3.401  13.502  0.00  0.00     0.056 H 
ENDBRANCH  26  31
ENDBRANCH  16  24
ENDBRANCH  12  14
ENDBRANCH   9  12
BRANCH   3  35
ATOM     35  O6  7GJ d   1      32.113  -5.629  12.003  0.00  0.00    -0.332 OA
BRANCH  35  36
ATOM     36  CAN 7GJ d   1      30.910  -5.641  12.902  0.00  0.00     0.031 C 
ATOM     37  H14 7GJ d   1      31.237  -5.561  13.949  0.00  0.00     0.075 H 
ATOM     38  H15 7GJ d   1      30.262  -4.788  12.654  0.00  0.00     0.075 H 
BRANCH  36  39
ATOM     39  CBB 7GJ d   1      30.136  -6.931  12.715  0.00  0.00    -0.033 C 
ATOM     40  CAL 7GJ d   1      30.172  -7.350  11.244  0.00  0.00    -0.060 C 
ATOM     41  CAJ 7GJ d   1      29.130  -8.575  10.945  0.00  0.00    -0.065 C 
ATOM     42  H3  7GJ d   1      29.898  -6.487  10.620  0.00  0.00     0.033 H 
ATOM     43  H4  7GJ d   1      31.191  -7.677  10.990  0.00  0.00     0.033 H 
ATOM     44  CAI 7GJ d   1      27.649  -8.133  11.282  0.00  0.00    -0.065 C 
ATOM     45  H5  7GJ d   1      29.400  -9.441  11.567  0.00  0.00     0.033 H 
ATOM     46  H6  7GJ d   1      29.192  -8.853   9.883  0.00  0.00     0.033 H 
ATOM     47  CAK 7GJ d   1      27.539  -7.788  12.771  0.00  0.00    -0.065 C 
ATOM     48  H7  7GJ d   1      26.959  -8.956  11.046  0.00  0.00     0.033 H 
ATOM     49  H8  7GJ d   1      27.385  -7.250  10.682  0.00  0.00     0.033 H 
ATOM     50  CAM 7GJ d   1      28.663  -6.700  13.257  0.00  0.00    -0.060 C 
ATOM     51  H9  7GJ d   1      27.668  -8.711  13.356  0.00  0.00     0.033 H 
ATOM     52  H10 7GJ d   1      26.540  -7.370  12.962  0.00  0.00     0.033 H 
ATOM     53  H11 7GJ d   1      28.701  -6.724  14.356  0.00  0.00     0.033 H 
ATOM     54  H12 7GJ d   1      28.334  -5.705  12.923  0.00  0.00     0.033 H 
ATOM     55  H13 7GJ d   1      30.608  -7.726  13.311  0.00  0.00     0.043 H 
ENDBRANCH  36  39
ENDBRANCH  35  36
ENDBRANCH   3  35
TORSDOF 8
