REMARK  8 active torsions:
REMARK  status: ('A' for Active; 'I' for Inactive)
REMARK    1  A    between atoms: C10_2  and  N11_14 
REMARK    2  A    between atoms: N11_14  and  C12_3 
REMARK    3  A    between atoms: C02_6  and  C01_5 
REMARK    4  A    between atoms: N03_7  and  C02_6 
REMARK    5  A    between atoms: N03_7  and  C04_8 
REMARK    6  A    between atoms: C06_10  and  N03_7 
REMARK    7  A    between atoms: C04_8  and  C05_9 
REMARK    8  A    between atoms: C08_12  and  C07_11 
ROOT
ATOM      1  C10 7GG d   1      25.800   7.700 -20.386  0.00  0.00     0.729 A 
ATOM      2  C08 7GG d   1      25.687   8.409 -18.159  0.00  0.00     0.107 A 
ATOM      3  N09 7GG d   1      26.092   8.610 -19.474  0.00  0.00    -0.060 NA
ATOM      4  N18 7GG d   1      25.119   6.571 -20.104  0.00  0.00    -0.040 NA
ATOM      5  C19 7GG d   1      24.671   6.294 -18.844  0.00  0.00     0.198 A 
ATOM      6  C20 7GG d   1      24.945   7.203 -17.842  0.00  0.00     0.112 A 
ATOM      7  N21 7GG d   1      24.408   6.708 -16.690  0.00  0.00    -0.346 N 
ATOM      8  C22 7GG d   1      23.812   5.526 -16.977  0.00  0.00     0.067 A 
ATOM      9  N23 7GG d   1      23.969   5.275 -18.280  0.00  0.00    -0.222 NA
ATOM     10  H19 7GG d   1      24.449   7.155 -15.763  0.00  0.00     0.167 HD
ATOM     11  H20 7GG d   1      23.292   4.887 -16.265  0.00  0.00     0.143 H 
ENDROOT
BRANCH   2  12
ATOM     12  C07 7GG d   1      25.910   9.331 -16.911  0.00  0.00    -0.037 C 
ATOM     13  C06 7GG d   1      26.410  10.630 -16.655  0.00  0.00    -0.023 C 
ATOM     14  H13 7GG d   1      26.347  10.914 -15.605  0.00  0.00     0.111 H 
ATOM     15  H14 7GG d   1      25.595   8.839 -15.992  0.00  0.00     0.089 H 
BRANCH  13  16
ATOM     16  N03 7GG d   1      26.975  11.641 -17.473  0.00  0.00    -0.391 N 
BRANCH  16  17
ATOM     17  C02 7GG d   1      26.118  12.403 -18.320  0.00  0.00    -0.009 C 
ATOM     18  H6  7GG d   1      25.711  11.748 -19.104  0.00  0.00     0.063 H 
ATOM     19  H7  7GG d   1      25.293  12.815 -17.721  0.00  0.00     0.063 H 
BRANCH  17  20
ATOM     20  C01 7GG d   1      26.869  13.528 -18.961  0.00  0.00    -0.061 C 
ATOM     21  H3  7GG d   1      26.189  14.101 -19.609  0.00  0.00     0.029 H 
ATOM     22  H4  7GG d   1      27.694  13.121 -19.564  0.00  0.00     0.029 H 
ATOM     23  H5  7GG d   1      27.276  14.189 -18.181  0.00  0.00     0.029 H 
ENDBRANCH  17  20
ENDBRANCH  16  17
BRANCH  16  24
ATOM     24  C04 7GG d   1      28.032  12.381 -16.832  0.00  0.00    -0.009 C 
ATOM     25  H8  7GG d   1      28.154  13.348 -17.343  0.00  0.00     0.063 H 
ATOM     26  H9  7GG d   1      28.967  11.807 -16.905  0.00  0.00     0.063 H 
BRANCH  24  27
ATOM     27  C05 7GG d   1      27.716  12.633 -15.358  0.00  0.00    -0.061 C 
ATOM     28  H10 7GG d   1      28.540  13.198 -14.898  0.00  0.00     0.029 H 
ATOM     29  H11 7GG d   1      27.597  11.671 -14.839  0.00  0.00     0.029 H 
ATOM     30  H12 7GG d   1      26.784  13.211 -15.277  0.00  0.00     0.029 H 
ENDBRANCH  24  27
ENDBRANCH  16  24
ENDBRANCH  13  16
ENDBRANCH   2  12
BRANCH   1  31
ATOM     31  N11 7GG d   1      26.171   7.778 -21.802  0.00  0.00    -0.188 N 
ATOM     32  H15 7GG d   1      25.900   6.963 -22.371  0.00  0.00     0.184 HD
BRANCH  31  33
ATOM     33  C12 7GG d   1      26.865   8.835 -22.524  0.00  0.00     0.049 A 
ATOM     34  C13 7GG d   1      27.183  10.057 -21.955  0.00  0.00    -0.057 A 
ATOM     35  C14 7GG d   1      27.846  11.032 -22.733  0.00  0.00    -0.081 A 
ATOM     36  H2  7GG d   1      26.926  10.263 -20.922  0.00  0.00     0.086 H 
ATOM     37  C15 7GG d   1      28.174  10.773 -24.058  0.00  0.00    -0.083 A 
ATOM     38  H1  7GG d   1      28.101  11.989 -22.293  0.00  0.00     0.083 H 
ATOM     39  C16 7GG d   1      27.845   9.548 -24.631  0.00  0.00    -0.081 A 
ATOM     40  H16 7GG d   1      28.687  11.526 -24.646  0.00  0.00     0.083 H 
ATOM     41  C17 7GG d   1      27.187   8.580 -23.854  0.00  0.00    -0.057 A 
ATOM     42  H17 7GG d   1      28.094   9.343 -25.666  0.00  0.00     0.083 H 
ATOM     43  H18 7GG d   1      26.927   7.624 -24.295  0.00  0.00     0.086 H 
ENDBRANCH  31  33
ENDBRANCH   1  31
TORSDOF 8
