REMARK  4 active torsions:
REMARK  status: ('A' for Active; 'I' for Inactive)
REMARK    1  A    between atoms: C18_21  and  C20_4 
REMARK    2  A    between atoms: C21_5  and  O02_8 
REMARK    3  A    between atoms: C19_22  and  O04_10 
REMARK    4  A    between atoms: C14_19  and  C16_20 
ROOT
ATOM      1  C15 7FC d   1      12.610  -1.291  47.999  0.00  0.00     0.036 A 
ATOM      2  C17 7FC d   1      14.374  -1.457  46.369  0.00  0.00     0.070 A 
ATOM      3  C20 7FC d   1      15.118   1.817  44.976  0.00  0.00     0.118 A 
ATOM      4  C21 7FC d   1      13.326   2.145  46.588  0.00  0.00     0.112 A 
ATOM      5  C22 7FC d   1      13.393   0.707  46.834  0.00  0.00     0.014 A 
ATOM      6 CL5  7FC d   1      11.564  -2.044  49.144  0.00  0.00    -0.084 Cl
ATOM      7 CL6  7FC d   1      15.526  -2.393  45.483  0.00  0.00    -0.081 Cl
ATOM      8  C11 7FC d   1      13.534  -2.064  47.291  0.00  0.00    -0.038 A 
ATOM      9  C12 7FC d   1      12.528   0.086  47.783  0.00  0.00    -0.050 A 
ATOM     10  O13 7FC d   1      15.114   0.530  45.246  0.00  0.00    -0.305 OA
ATOM     11  C19 7FC d   1      14.229   2.692  45.622  0.00  0.00     0.111 A 
ATOM     12  C23 7FC d   1      14.289  -0.047  46.149  0.00  0.00     0.107 A 
ATOM     13  H2  7FC d   1      12.574   1.983  45.802  0.00  0.00     0.101 H 
ATOM     14  H8  7FC d   1      13.594  -3.133  47.462  0.00  0.00     0.088 H 
ATOM     15  H9  7FC d   1      11.809   0.681  48.335  0.00  0.00     0.087 H 
ENDROOT
BRANCH   3  16
ATOM     16  C18 7FC d   1      16.105   2.248  43.941  0.00  0.00     0.000 A 
ATOM     17  C10 7FC d   1      16.081   3.499  43.338  0.00  0.00    -0.069 A 
ATOM     18  C08 7FC d   1      17.028   3.826  42.378  0.00  0.00    -0.066 A 
ATOM     19  H1  7FC d   1      15.322   4.221  43.618  0.00  0.00     0.085 H 
ATOM     20  C16 7FC d   1      17.992   2.901  42.016  0.00  0.00     0.040 A 
ATOM     21  H6  7FC d   1      17.013   4.805  41.912  0.00  0.00     0.085 H 
ATOM     22  C07 7FC d   1      18.016   1.647  42.609  0.00  0.00    -0.066 A 
ATOM     23  C09 7FC d   1      17.073   1.327  43.569  0.00  0.00    -0.069 A 
ATOM     24  H5  7FC d   1      18.769   0.922  42.322  0.00  0.00     0.085 H 
ATOM     25  H7  7FC d   1      17.091   0.348  44.035  0.00  0.00     0.085 H 
BRANCH  20  26
ATOM     26  C14 7FC d   1      19.002   3.245  40.981  0.00  0.00     0.209 C 
ATOM     27  O01 7FC d   1      18.859   4.279  40.277  0.00  0.00    -0.644 OA
ATOM     28  O03 7FC d   1      19.989   2.488  40.808  0.00  0.00    -0.644 OA
ENDBRANCH  20  26
ENDBRANCH   3  16
BRANCH  11  29
ATOM     29  O04 7FC d   1      14.194   4.044  45.367  0.00  0.00    -0.359 OA
ATOM     30  H4  7FC d   1      14.382   4.521  46.167  0.00  0.00     0.217 HD
ENDBRANCH  11  29
BRANCH   4  31
ATOM     31  O02 7FC d   1      12.435   2.939  47.263  0.00  0.00    -0.384 OA
ATOM     32  H3  7FC d   1      12.534   3.839  46.975  0.00  0.00     0.211 HD
ENDBRANCH   4  31
TORSDOF 4
