REMARK  7 active torsions:
REMARK  status: ('A' for Active; 'I' for Inactive)
REMARK    1  A    between atoms: N2_23  and  C2_1 
REMARK    2  A    between atoms: C10_3  and  C11_4 
REMARK    3  A    between atoms: O6_17  and  C10_3 
REMARK    4  A    between atoms: C20_11  and  S23_26 
REMARK    5  A    between atoms: S23_26  and  N26_14 
REMARK    6  A    between atoms: C6_16  and  O6_17 
REMARK    7  A    between atoms: N2_23  and  C17_24 
ROOT
ATOM      1  C2  4SP d   1      22.376  77.139  13.304  0.00  0.00     0.731 A 
ATOM      2  C8  4SP d   1      20.319  78.491   9.496  0.00  0.00     0.067 A 
ATOM      3  N1  4SP d   1      23.338  78.027  12.888  0.00  0.00    -0.036 NA
ATOM      4  C6  4SP d   1      23.165  78.688  11.764  0.00  0.00     0.214 A 
ATOM      5  C5  4SP d   1      21.969  78.505  10.962  0.00  0.00     0.136 A 
ATOM      6  N7  4SP d   1      21.459  79.031   9.728  0.00  0.00    -0.344 N 
ATOM      7  N9  4SP d   1      20.029  77.597  10.541  0.00  0.00    -0.222 NA
ATOM      8  C4  4SP d   1      21.042  77.617  11.427  0.00  0.00     0.201 A 
ATOM      9  N3  4SP d   1      21.279  76.949  12.606  0.00  0.00    -0.040 NA
ATOM     10  H1  4SP d   1      19.683  78.691   8.635  0.00  0.00     0.143 H 
ATOM     11  H20 4SP d   1      21.929  79.725   9.130  0.00  0.00     0.167 HD
ENDROOT
BRANCH   4  12
ATOM     12  O6  4SP d   1      24.088  79.583  11.281  0.00  0.00    -0.332 OA
BRANCH  12  13
ATOM     13  C10 4SP d   1      25.067  80.037  12.183  0.00  0.00     0.031 C 
ATOM     14  H2  4SP d   1      24.756  80.986  12.644  0.00  0.00     0.075 H 
ATOM     15  H3  4SP d   1      25.243  79.288  12.969  0.00  0.00     0.075 H 
BRANCH  13  16
ATOM     16  C11 4SP d   1      26.308  80.234  11.354  0.00  0.00    -0.033 C 
ATOM     17  C12 4SP d   1      25.944  80.105   9.879  0.00  0.00    -0.060 C 
ATOM     18  C13 4SP d   1      27.173  80.345   8.950  0.00  0.00    -0.065 C 
ATOM     19  H5  4SP d   1      25.168  80.846   9.639  0.00  0.00     0.033 H 
ATOM     20  H6  4SP d   1      25.554  79.093   9.697  0.00  0.00     0.033 H 
ATOM     21  C14 4SP d   1      27.852  81.678   9.271  0.00  0.00    -0.065 C 
ATOM     22  H7  4SP d   1      26.836  80.356   7.903  0.00  0.00     0.033 H 
ATOM     23  H8  4SP d   1      27.897  79.529   9.093  0.00  0.00     0.033 H 
ATOM     24  C15 4SP d   1      28.154  81.882  10.776  0.00  0.00    -0.065 C 
ATOM     25  H9  4SP d   1      27.192  82.492   8.937  0.00  0.00     0.033 H 
ATOM     26  H10 4SP d   1      28.802  81.725   8.718  0.00  0.00     0.033 H 
ATOM     27  C16 4SP d   1      26.921  81.627  11.657  0.00  0.00    -0.060 C 
ATOM     28  H11 4SP d   1      28.492  82.917  10.932  0.00  0.00     0.033 H 
ATOM     29  H12 4SP d   1      28.952  81.186  11.074  0.00  0.00     0.033 H 
ATOM     30  H13 4SP d   1      27.219  81.668  12.715  0.00  0.00     0.033 H 
ATOM     31  H14 4SP d   1      26.168  82.404  11.458  0.00  0.00     0.033 H 
ATOM     32  H4  4SP d   1      27.044  79.458  11.611  0.00  0.00     0.043 H 
ENDBRANCH  13  16
ENDBRANCH  12  13
ENDBRANCH   4  12
BRANCH   1  33
ATOM     33  N2  4SP d   1      22.522  76.366  14.558  0.00  0.00    -0.188 N 
ATOM     34  H21 4SP d   1      21.679  75.928  14.956  0.00  0.00     0.184 HD
BRANCH  33  35
ATOM     35  C17 4SP d   1      23.818  76.182  15.283  0.00  0.00     0.049 A 
ATOM     36  C22 4SP d   1      25.029  76.449  14.633  0.00  0.00    -0.055 A 
ATOM     37  C21 4SP d   1      26.225  76.295  15.262  0.00  0.00    -0.058 A 
ATOM     38  H17 4SP d   1      25.013  76.787  13.603  0.00  0.00     0.087 H 
ATOM     39  C20 4SP d   1      26.233  75.859  16.570  0.00  0.00     0.079 A 
ATOM     40  H16 4SP d   1      27.153  76.511  14.745  0.00  0.00     0.086 H 
ATOM     41  C19 4SP d   1      25.027  75.574  17.248  0.00  0.00    -0.058 A 
ATOM     42  C18 4SP d   1      23.834  75.732  16.606  0.00  0.00    -0.055 A 
ATOM     43  H15 4SP d   1      25.050  75.231  18.276  0.00  0.00     0.086 H 
ATOM     44  H22 4SP d   1      22.905  75.510  17.118  0.00  0.00     0.087 H 
BRANCH  39  45
ATOM     45  S23 4SP d   1      27.780  75.654  17.345  0.00  0.00     0.256 S 
ATOM     46  O24 4SP d   1      28.210  74.302  17.192  0.00  0.00    -0.201 OA
ATOM     47  O25 4SP d   1      27.651  75.795  18.763  0.00  0.00    -0.201 OA
BRANCH  45  48
ATOM     48  N26 4SP d   1      28.897  76.687  16.685  0.00  0.00    -0.324 N 
ATOM     49  H18 4SP d   1      29.837  76.690  17.025  0.00  0.00     0.169 HD
ATOM     50  H19 4SP d   1      28.630  77.307  15.947  0.00  0.00     0.169 HD
ENDBRANCH  45  48
ENDBRANCH  39  45
ENDBRANCH  33  35
ENDBRANCH   1  33
TORSDOF 7
