REMARK  7 active torsions:
REMARK  status: ('A' for Active; 'I' for Inactive)
REMARK    1  A    between atoms: C8_26  and  C1_1 
REMARK    2  A    between atoms: C11_4  and  C14_6 
REMARK    3  A    between atoms: C12_5  and  C9_27 
REMARK       I    between atoms: N27_30  and  C12_5 
REMARK    4  A    between atoms: C15_7  and  C20_12 
REMARK    5  A    between atoms: C17_9  and  C26_18 
REMARK    6  A    between atoms: C9_27  and  C8_26 
REMARK    7  A    between atoms: C33_33  and  C31_31 
ROOT
ATOM      1  C1  7K1 d   1      29.758 -29.484  16.230  0.00  0.00    -0.016 A 
ATOM      2  C2  7K1 d   1      28.687 -28.518  19.826  0.00  0.00    -0.065 A 
ATOM      3  C3  7K1 d   1      27.678 -27.629  19.379  0.00  0.00     0.004 A 
ATOM      4  C11 7K1 d   1      29.034 -28.866  15.269  0.00  0.00     0.052 A 
ATOM      5  N4  7K1 d   1      27.448 -27.435  18.038  0.00  0.00    -0.242 NA
ATOM      6  C5  7K1 d   1      29.189 -29.003  17.537  0.00  0.00     0.018 A 
ATOM      7  C6  7K1 d   1      28.196 -28.109  17.135  0.00  0.00     0.138 A 
ATOM      8  N7  7K1 d   1      28.192 -28.033  15.791  0.00  0.00    -0.339 N 
ATOM      9  C10 7K1 d   1      29.493 -29.208  18.896  0.00  0.00    -0.067 A 
ATOM     10  H1  7K1 d   1      28.840 -28.669  20.888  0.00  0.00     0.085 H 
ATOM     11  H2  7K1 d   1      27.078 -27.094  20.106  0.00  0.00     0.114 H 
ATOM     12  H20 7K1 d   1      27.595 -27.393  15.247  0.00  0.00     0.167 HD
ATOM     13  H25 7K1 d   1      30.301 -29.859  19.210  0.00  0.00     0.085 H 
ENDROOT
BRANCH   1  14
ATOM     14  C8  7K1 d   1      30.859 -30.504  16.054  0.00  0.00    -0.030 C 
ATOM     15  H21 7K1 d   1      31.803 -30.089  16.437  0.00  0.00     0.041 H 
ATOM     16  H22 7K1 d   1      30.969 -30.738  14.985  0.00  0.00     0.041 H 
BRANCH  14  17
ATOM     17  C9  7K1 d   1      30.519 -31.808  16.833  0.00  0.00     0.013 C 
ATOM     18  H23 7K1 d   1      30.601 -31.593  17.909  0.00  0.00     0.047 H 
ATOM     19  H24 7K1 d   1      29.483 -32.088  16.593  0.00  0.00     0.047 H 
BRANCH  17  20
ATOM     20  C12 7K1 d   1      31.416 -33.003  16.519  0.00  0.00     0.220 C 
ATOM     21  O13 7K1 d   1      32.439 -32.755  15.875  0.00  0.00    -0.273 OA
ATOM     22  N27 7K1 d   1      31.116 -34.278  16.939  0.00  0.00    -0.336 N 
ATOM     23  C28 7K1 d   1      29.854 -34.563  17.655  0.00  0.00     0.018 C 
ATOM     24  C31 7K1 d   1      32.015 -35.390  16.556  0.00  0.00     0.092 C 
ATOM     25  C29 7K1 d   1      30.142 -35.564  18.802  0.00  0.00     0.034 C 
ATOM     26  H14 7K1 d   1      29.448 -33.630  18.073  0.00  0.00     0.067 H 
ATOM     27  H15 7K1 d   1      29.125 -35.001  16.957  0.00  0.00     0.067 H 
ATOM     28  O32 7K1 d   1      30.823 -36.728  18.287  0.00  0.00    -0.387 OA
ATOM     29  H16 7K1 d   1      29.192 -35.873  19.262  0.00  0.00     0.076 H 
ATOM     30  H17 7K1 d   1      30.775 -35.078  19.559  0.00  0.00     0.076 H 
ATOM     31  C30 7K1 d   1      32.112 -36.426  17.711  0.00  0.00     0.045 C 
ATOM     32  H18 7K1 d   1      32.764 -36.019  18.498  0.00  0.00     0.078 H 
ATOM     33  H19 7K1 d   1      32.550 -37.355  17.317  0.00  0.00     0.078 H 
ATOM     34  H26 7K1 d   1      33.017 -34.958  16.419  0.00  0.00     0.088 H 
BRANCH  24  35
ATOM     35  C33 7K1 d   1      31.645 -36.046  15.246  0.00  0.00     0.130 A 
ATOM     36  N40 7K1 d   1      30.670 -36.847  15.083  0.00  0.00    -0.231 NA
ATOM     37  C34 7K1 d   1      30.572 -37.179  13.785  0.00  0.00     0.085 A 
ATOM     38  C35 7K1 d   1      31.591 -36.463  13.154  0.00  0.00     0.062 A 
ATOM     39  C39 7K1 d   1      29.700 -38.029  13.088  0.00  0.00    -0.053 A 
ATOM     40  C36 7K1 d   1      31.809 -36.563  11.770  0.00  0.00    -0.055 A 
ATOM     41  N41 7K1 d   1      32.229 -35.745  14.111  0.00  0.00    -0.341 N 
ATOM     42  C37 7K1 d   1      30.945 -37.416  11.049  0.00  0.00    -0.081 A 
ATOM     43  H27 7K1 d   1      32.603 -36.012  11.279  0.00  0.00     0.087 H 
ATOM     44  C38 7K1 d   1      29.910 -38.133  11.694  0.00  0.00    -0.081 A 
ATOM     45  H28 7K1 d   1      31.078 -37.524   9.979  0.00  0.00     0.083 H 
ATOM     46  H29 7K1 d   1      29.264 -38.776  11.107  0.00  0.00     0.083 H 
ATOM     47  H31 7K1 d   1      33.015 -35.094  13.974  0.00  0.00     0.167 HD
ATOM     48  H30 7K1 d   1      28.910 -38.575  13.590  0.00  0.00     0.087 H 
ENDBRANCH  24  35
ENDBRANCH  17  20
ENDBRANCH  14  17
ENDBRANCH   1  14
BRANCH   4  49
ATOM     49  C14 7K1 d   1      29.225 -29.005  13.781  0.00  0.00     0.002 A 
ATOM     50  C15 7K1 d   1      29.023 -30.221  13.061  0.00  0.00    -0.013 A 
ATOM     51  C16 7K1 d   1      29.253 -30.217  11.677  0.00  0.00    -0.066 A 
ATOM     52  C17 7K1 d   1      29.646 -29.043  11.008  0.00  0.00    -0.061 A 
ATOM     53  H3  7K1 d   1      29.126 -31.134  11.113  0.00  0.00     0.085 H 
ATOM     54  C18 7K1 d   1      29.796 -27.850  11.730  0.00  0.00    -0.076 A 
ATOM     55  C19 7K1 d   1      29.617 -27.835  13.114  0.00  0.00    -0.070 A 
ATOM     56  H4  7K1 d   1      30.052 -26.934  11.210  0.00  0.00     0.084 H 
ATOM     57  H5  7K1 d   1      29.781 -26.921  13.673  0.00  0.00     0.085 H 
BRANCH  50  58
ATOM     58  C20 7K1 d   1      28.534 -31.485  13.703  0.00  0.00    -0.025 A 
ATOM     59  C21 7K1 d   1      27.428 -31.453  14.590  0.00  0.00    -0.072 A 
ATOM     60  C22 7K1 d   1      26.972 -32.625  15.211  0.00  0.00    -0.082 A 
ATOM     61  H6  7K1 d   1      26.929 -30.512  14.790  0.00  0.00     0.084 H 
ATOM     62  C23 7K1 d   1      27.579 -33.860  14.922  0.00  0.00    -0.083 A 
ATOM     63  H7  7K1 d   1      26.149 -32.579  15.916  0.00  0.00     0.083 H 
ATOM     64  C24 7K1 d   1      28.654 -33.907  14.020  0.00  0.00    -0.082 A 
ATOM     65  H8  7K1 d   1      27.220 -34.769  15.392  0.00  0.00     0.083 H 
ATOM     66  C25 7K1 d   1      29.128 -32.733  13.398  0.00  0.00    -0.072 A 
ATOM     67  H9  7K1 d   1      29.126 -34.858  13.799  0.00  0.00     0.083 H 
ATOM     68  H10 7K1 d   1      29.945 -32.786  12.688  0.00  0.00     0.084 H 
ENDBRANCH  50  58
BRANCH  52  69
ATOM     69  C26 7K1 d   1      29.853 -29.053   9.482  0.00  0.00    -0.051 C 
ATOM     70  H11 7K1 d   1      29.693 -30.071   9.097  0.00  0.00     0.033 H 
ATOM     71  H12 7K1 d   1      30.878 -28.730   9.249  0.00  0.00     0.033 H 
ATOM     72  H13 7K1 d   1      29.135 -28.366   9.010  0.00  0.00     0.033 H 
ENDBRANCH  52  69
ENDBRANCH   4  49
TORSDOF 7
