REMARK WARNING: 32 MAX_TORS EXCEEDED!!!
REMARK  72 active torsions:
REMARK  status: ('A' for Active; 'I' for Inactive)
REMARK    1  A    between atoms: O1_1  and  C1_2 
REMARK    2  A    between atoms: C1_107  and  O1_1 
REMARK    3  A    between atoms: C1_2  and  C2_3 
REMARK    4  A    between atoms: C3_5  and  C4_6 
REMARK    5  A    between atoms: C4_6  and  O3_7 
REMARK    6  A    between atoms: C4_6  and  O4_8 
REMARK    7  A    between atoms: C5_9  and  O5_10 
REMARK    8  A    between atoms: C6_11  and  O6_12 
REMARK    9  A    between atoms: O6_12  and  C1_13 
REMARK   10  A    between atoms: C2_14  and  O2_19 
REMARK   11  A    between atoms: C3_15  and  O3_20 
REMARK   12  A    between atoms: C4_16  and  O4_21 
REMARK   13  A    between atoms: C5_17  and  C6_18 
REMARK   14  A    between atoms: C6_18  and  O6_23 
REMARK   15  A    between atoms: O3_20  and  C2_25 
REMARK   16  A    between atoms: C2_25  and  C1_24 
REMARK   17  A    between atoms: C4_27  and  O4_38 
REMARK   18  A    between atoms: C5_28  and  N5_35 
REMARK   19  A    between atoms: C6_29  and  C7_30 
REMARK   20  A    between atoms: C7_30  and  C8_31 
REMARK   21  A    between atoms: C7_30  and  O7_40 
REMARK   22  A    between atoms: C8_31  and  C9_32 
REMARK   23  A    between atoms: C8_31  and  O8_41 
REMARK   24  A    between atoms: C9_32  and  O9_42 
REMARK   25  A    between atoms: C10_33  and  C11_34 
REMARK       I    between atoms: N5_35  and  C10_33 
REMARK   26  A    between atoms: C1_44  and  O4_65 
REMARK   27  A    between atoms: C2_45  and  O2_50 
REMARK   28  A    between atoms: O3_51  and  C3_46 
REMARK   29  A    between atoms: C4_47  and  O4_52 
REMARK   30  A    between atoms: C5_48  and  C6_49 
REMARK   31  A    between atoms: C6_49  and  O6_54 
REMARK   32  A    between atoms: C2_114  and  O3_51 
REMARK   33  A    between atoms: C1_55  and  O3_98 
REMARK   34  A    between atoms: C2_56  and  N2_63 
REMARK   35  A    between atoms: C3_57  and  O3_64 
REMARK   36  A    between atoms: O4_65  and  C4_58 
REMARK   37  A    between atoms: C5_59  and  C6_60 
REMARK   38  A    between atoms: C6_60  and  O6_67 
REMARK   39  A    between atoms: C7_61  and  C8_62 
REMARK       I    between atoms: N2_63  and  C7_61 
REMARK   40  A    between atoms: O6_67  and  C1_74 
REMARK   41  A    between atoms: C2_69  and  O2_75 
REMARK   42  A    between atoms: C3_70  and  O3_76 
REMARK   43  A    between atoms: C4_71  and  O4_77 
REMARK   44  A    between atoms: C5_72  and  C6_73 
REMARK   45  A    between atoms: C6_73  and  O6_79 
REMARK   46  A    between atoms: O4_77  and  C1_80 
REMARK   47  A    between atoms: C2_81  and  O2_86 
REMARK   48  A    between atoms: C3_82  and  O3_87 
REMARK   49  A    between atoms: C4_83  and  O4_88 
REMARK   50  A    between atoms: C5_84  and  C6_85 
REMARK   51  A    between atoms: C6_85  and  O6_90 
REMARK   52  A    between atoms: C1_91  and  O4_110 
REMARK   53  A    between atoms: C2_92  and  O2_97 
REMARK   54  A    between atoms: O3_98  and  C3_93 
REMARK   55  A    between atoms: C4_94  and  O4_99 
REMARK   56  A    between atoms: C5_95  and  C6_96 
REMARK   57  A    between atoms: C6_96  and  O6_101 
REMARK   58  A    between atoms: C2_102  and  O2_108 
REMARK   59  A    between atoms: C3_103  and  O3_109 
REMARK   60  A    between atoms: O4_110  and  C4_104 
REMARK   61  A    between atoms: C5_105  and  C6_106 
REMARK   62  A    between atoms: C6_106  and  O6_112 
REMARK   63  A    between atoms: C2_114  and  C1_113 
REMARK   64  A    between atoms: C4_116  and  O4_127 
REMARK   65  A    between atoms: N5_124  and  C5_117 
REMARK   66  A    between atoms: C6_118  and  C7_119 
REMARK   67  A    between atoms: C7_119  and  C8_120 
REMARK   68  A    between atoms: C7_119  and  O7_129 
REMARK   69  A    between atoms: C8_120  and  C9_121 
REMARK   70  A    between atoms: C8_120  and  O8_130 
REMARK   71  A    between atoms: C9_121  and  O9_131 
REMARK   72  A    between atoms: C10_122  and  C11_123 
REMARK       I    between atoms: C10_122  and  N5_124 
ROOT
ATOM      1  H48 7GW d   1       2.315  52.138  20.951  0.00  0.00     0.132 H 
ATOM      2  H49 7GW d   1       4.987  52.646  22.337  0.00  0.00     0.084 H 
ATOM      3  H50 7GW d   1       2.277  54.005  22.690  0.00  0.00     0.090 H 
ATOM      4  H51 7GW d   1       4.993  54.959  21.651  0.00  0.00     0.091 H 
ATOM      5  H52 7GW d   1       2.339  54.538  20.215  0.00  0.00     0.090 H 
ATOM      6  C1  NAG d   1       3.414  52.170  20.972  0.00  0.00     0.154 C 
ATOM      7  C2  NAG d   1       3.888  52.610  22.359  0.00  0.00     0.087 C 
ATOM      8  C3  NAG d   1       3.377  53.999  22.686  0.00  0.00     0.087 C 
ATOM      9  C4  NAG d   1       3.893  54.960  21.628  0.00  0.00     0.095 C 
ATOM     10  C5  NAG d   1       3.439  54.515  20.233  0.00  0.00     0.089 C 
ATOM     11  O5  NAG d   1       3.840  53.138  19.981  0.00  0.00    -0.349 OA
ENDROOT
BRANCH   6  12
ATOM     12  O3  GAL d   1       3.911  50.821  20.804  0.00  0.00    -0.348 OA
BRANCH  12  13
ATOM     13  C3  GAL d   1       3.168  49.983  19.910  0.00  0.00     0.098 C 
ATOM     14  C2  GAL d   1       2.799  48.633  20.541  0.00  0.00     0.110 C 
ATOM     15  C1  GAL d   1       2.404  47.536  19.527  0.00  0.00     0.159 C 
ATOM     16  H82 7GW d   1       3.663  48.272  21.118  0.00  0.00     0.094 H 
ATOM     17  O5  GAL d   1       3.218  47.599  18.367  0.00  0.00    -0.348 OA
ATOM     18  H81 7GW d   1       1.347  47.682  19.261  0.00  0.00     0.133 H 
ATOM     19  C5  GAL d   1       3.283  48.870  17.726  0.00  0.00     0.089 C 
ATOM     20  C4  GAL d   1       4.048  49.745  18.697  0.00  0.00     0.090 C 
ATOM     21  H85 7GW d   1       2.270  49.274  17.581  0.00  0.00     0.090 H 
ATOM     22  H84 7GW d   1       4.306  50.703  18.223  0.00  0.00     0.091 H 
ATOM     23  H83 7GW d   1       2.244  50.499  19.609  0.00  0.00     0.091 H 
BRANCH  14  24
ATOM     24  O2  GAL d   1       1.701  48.856  21.416  0.00  0.00    -0.388 OA
ATOM     25  H88 7GW d   1       1.450  48.035  21.823  0.00  0.00     0.210 HD
ENDBRANCH  14  24
BRANCH  15  26
ATOM     26  O4  BGC d   1       2.604  46.183  19.996  0.00  0.00    -0.348 OA
BRANCH  26  27
ATOM     27  C4  BGC d   1       1.565  45.251  20.408  0.00  0.00     0.096 C 
ATOM     28  C3  BGC d   1       0.116  45.698  20.333  0.00  0.00     0.092 C 
ATOM     29  C2  BGC d   1      -0.741  44.630  21.008  0.00  0.00     0.110 C 
ATOM     30  H92 7GW d   1      -0.181  45.796  19.278  0.00  0.00     0.091 H 
ATOM     31  C1  BGC d   1      -0.473  43.217  20.480  0.00  0.00     0.158 C 
ATOM     32  H91 7GW d   1      -0.541  44.644  22.090  0.00  0.00     0.094 H 
ATOM     33  O5  BGC d   1       0.924  42.940  20.444  0.00  0.00    -0.348 OA
ATOM     34  H97 7GW d   1      -1.021  43.027  19.546  0.00  0.00     0.133 H 
ATOM     35  C5  BGC d   1       1.627  43.902  19.658  0.00  0.00     0.089 C 
ATOM     36  H94 7GW d   1       1.138  44.015  18.679  0.00  0.00     0.090 H 
ATOM     37  H93 7GW d   1       1.771  45.048  21.469  0.00  0.00     0.091 H 
BRANCH  28  38
ATOM     38  O3  BGC d   1      -0.065  46.953  20.982  0.00  0.00    -0.390 OA
ATOM     39  H99 7GW d   1       0.479  47.608  20.560  0.00  0.00     0.210 HD
ENDBRANCH  28  38
BRANCH  29  40
ATOM     40  O2  BGC d   1      -2.107  44.966  20.765  0.00  0.00    -0.388 OA
ATOM     41  H98 7GW d   1      -2.279  45.842  21.090  0.00  0.00     0.210 HD
ENDBRANCH  29  40
BRANCH  31  42
ATOM     42  O1  7GW d   1      -0.639  42.202  21.529  0.00  0.00    -0.356 OA
BRANCH  42  43
ATOM     43  C1  7GW d   1      -1.918  41.697  21.817  0.00  0.00     0.049 C 
ATOM     44  H1  7GW d   1      -2.642  42.525  21.815  0.00  0.00     0.078 H 
ATOM     45  H2  7GW d   1      -1.905  41.224  22.810  0.00  0.00     0.078 H 
BRANCH  43  46
ATOM     46  C2  7GW d   1      -2.298  40.754  20.866  0.00  0.00     0.087 C 
ATOM     47  O2  7GW d   1      -3.850  40.776  20.763  0.00  0.00    -0.368 OA
ATOM     48  C3  7GW d   1      -4.243  39.556  20.691  0.00  0.00     0.113 C 
ATOM     49  C5  7GW d   1      -3.021  38.648  21.387  0.00  0.00     0.092 C 
ATOM     50  H4  7GW d   1      -5.169  39.428  21.270  0.00  0.00     0.095 H 
ATOM     51  C6  7GW d   1      -1.906  39.248  21.184  0.00  0.00     0.096 C 
ATOM     52  H8  7GW d   1      -2.987  37.644  20.939  0.00  0.00     0.091 H 
ATOM     53  H10 7GW d   1      -1.429  38.813  20.294  0.00  0.00     0.091 H 
ATOM     54  H3  7GW d   1      -1.849  41.037  19.903  0.00  0.00     0.090 H 
BRANCH  48  55
ATOM     55  C4  7GW d   1      -4.518  39.160  19.258  0.00  0.00     0.153 C 
ATOM     56  H5  7GW d   1      -3.578  39.149  18.688  0.00  0.00     0.132 H 
BRANCH  55  57
ATOM     57  O3  7GW d   1      -5.090  37.878  19.230  0.00  0.00    -0.369 OA
ATOM     58  H6  7GW d   1      -5.897  37.881  19.732  0.00  0.00     0.212 HD
ENDBRANCH  55  57
BRANCH  55  59
ATOM     59  O4  7GW d   1      -5.391  40.110  18.704  0.00  0.00    -0.369 OA
ATOM     60  H7  7GW d   1      -4.984  40.968  18.734  0.00  0.00     0.212 HD
ENDBRANCH  55  59
ENDBRANCH  48  55
BRANCH  49  61
ATOM     61  O5  7GW d   1      -3.312  38.545  22.810  0.00  0.00    -0.390 OA
ATOM     62  H9  7GW d   1      -2.634  38.033  23.235  0.00  0.00     0.210 HD
ENDBRANCH  49  61
BRANCH  51  63
ATOM     63  O6  7GW d   1      -0.920  39.104  22.334  0.00  0.00    -0.348 OA
BRANCH  63  64
ATOM     64  C1  GAL d   1       0.530  38.814  22.625  0.00  0.00     0.159 C 
ATOM     65  C2  GAL d   1       1.558  39.232  23.695  0.00  0.00     0.110 C 
ATOM     66  C3  GAL d   1       3.004  38.813  23.391  0.00  0.00     0.099 C 
ATOM     67  H12 7GW d   1       1.264  38.749  24.639  0.00  0.00     0.094 H 
ATOM     68  C4  GAL d   1       3.032  37.342  22.966  0.00  0.00     0.090 C 
ATOM     69  H13 7GW d   1       3.382  39.426  22.560  0.00  0.00     0.091 H 
ATOM     70  C5  GAL d   1       2.053  37.111  21.815  0.00  0.00     0.089 C 
ATOM     71  H14 7GW d   1       4.047  37.094  22.622  0.00  0.00     0.091 H 
ATOM     72  O5  GAL d   1       0.717  37.442  22.238  0.00  0.00    -0.348 OA
ATOM     73  H15 7GW d   1       2.329  37.779  20.986  0.00  0.00     0.090 H 
ATOM     74  H11 7GW d   1       0.971  39.375  21.788  0.00  0.00     0.133 H 
BRANCH  65  75
ATOM     75  O2  GAL d   1       1.521  40.659  23.881  0.00  0.00    -0.388 OA
ATOM     76  H18 7GW d   1       1.822  41.088  23.089  0.00  0.00     0.210 HD
ENDBRANCH  65  75
BRANCH  66  77
ATOM     77  O3  GAL d   1       3.855  39.035  24.553  0.00  0.00    -0.336 OA
BRANCH  77  78
ATOM     78  C2  SIA d   1       5.148  39.665  24.305  0.00  0.00     0.259 C 
ATOM     79  C3  SIA d   1       5.481  40.176  25.722  0.00  0.00     0.024 C 
ATOM     80  C4  SIA d   1       6.755  41.043  25.766  0.00  0.00     0.063 C 
ATOM     81  H21 7GW d   1       5.625  39.308  26.383  0.00  0.00     0.045 H 
ATOM     82  H22 7GW d   1       4.635  40.778  26.085  0.00  0.00     0.045 H 
ATOM     83  C5  SIA d   1       6.773  42.143  24.702  0.00  0.00     0.064 C 
ATOM     84  H23 7GW d   1       7.612  40.378  25.583  0.00  0.00     0.086 H 
ATOM     85  C6  SIA d   1       6.395  41.529  23.360  0.00  0.00     0.091 C 
ATOM     86  H24 7GW d   1       6.053  42.931  24.970  0.00  0.00     0.080 H 
ATOM     87  O6  SIA d   1       5.127  40.856  23.484  0.00  0.00    -0.336 OA
ATOM     88  H25 7GW d   1       7.158  40.771  23.130  0.00  0.00     0.090 H 
BRANCH  78  89
ATOM     89  C1  SIA d   1       6.170  38.635  23.793  0.00  0.00     0.239 C 
ATOM     90  O1A SIA d   1       6.274  38.438  22.551  0.00  0.00    -0.644 OA
ATOM     91  O1B SIA d   1       6.908  38.010  24.602  0.00  0.00    -0.644 OA
ENDBRANCH  78  89
BRANCH  80  92
ATOM     92  O4  SIA d   1       6.928  41.661  27.045  0.00  0.00    -0.393 OA
ATOM     93  H34 7GW d   1       7.759  42.122  27.063  0.00  0.00     0.210 HD
ENDBRANCH  80  92
BRANCH  83  94
ATOM     94  N5  SIA d   1       8.108  42.713  24.600  0.00  0.00    -0.352 N 
ATOM     95  C10 SIA d   1       8.421  43.968  24.914  0.00  0.00     0.214 C 
ATOM     96  O10 SIA d   1       7.638  44.800  25.324  0.00  0.00    -0.274 OA
ATOM     97  H33 7GW d   1       8.842  42.120  24.271  0.00  0.00     0.163 HD
BRANCH  95  98
ATOM     98  C11 SIA d   1       9.856  44.312  24.709  0.00  0.00    -0.003 C 
ATOM     99  H30 7GW d   1      10.025  45.361  24.991  0.00  0.00     0.040 H 
ATOM    100  H31 7GW d   1      10.120  44.170  23.651  0.00  0.00     0.040 H 
ATOM    101  H32 7GW d   1      10.483  43.658  25.334  0.00  0.00     0.040 H 
ENDBRANCH  95  98
ENDBRANCH  83  94
BRANCH  85 102
ATOM    102  C7  SIA d   1       6.371  42.501  22.173  0.00  0.00     0.089 C 
ATOM    103  H26 7GW d   1       7.403  42.829  21.979  0.00  0.00     0.091 H 
BRANCH 102 104
ATOM    104  C8  SIA d   1       5.850  41.785  20.923  0.00  0.00     0.083 C 
ATOM    105  H27 7GW d   1       4.753  41.740  20.986  0.00  0.00     0.090 H 
BRANCH 104 106
ATOM    106  C9  SIA d   1       6.254  42.534  19.680  0.00  0.00     0.043 C 
ATOM    107  H28 7GW d   1       7.350  42.550  19.584  0.00  0.00     0.078 H 
ATOM    108  H29 7GW d   1       5.875  43.566  19.717  0.00  0.00     0.078 H 
BRANCH 106 109
ATOM    109  O9  SIA d   1       5.672  41.833  18.580  0.00  0.00    -0.398 OA
ATOM    110  H37 7GW d   1       6.002  40.942  18.563  0.00  0.00     0.209 HD
ENDBRANCH 106 109
ENDBRANCH 104 106
BRANCH 104 111
ATOM    111  O8  SIA d   1       6.363  40.457  20.773  0.00  0.00    -0.391 OA
ATOM    112  H36 7GW d   1       6.133  39.942  21.537  0.00  0.00     0.210 HD
ENDBRANCH 104 111
ENDBRANCH 102 104
BRANCH 102 113
ATOM    113  O7  SIA d   1       5.582  43.667  22.453  0.00  0.00    -0.390 OA
ATOM    114  H35 7GW d   1       4.679  43.410  22.599  0.00  0.00     0.210 HD
ENDBRANCH 102 113
ENDBRANCH  85 102
ENDBRANCH  77  78
ENDBRANCH  66  77
BRANCH  68 115
ATOM    115  O4  GAL d   1       2.702  36.493  24.070  0.00  0.00    -0.390 OA
ATOM    116  H19 7GW d   1       3.316  36.644  24.779  0.00  0.00     0.210 HD
ENDBRANCH  68 115
BRANCH  70 117
ATOM    117  C6  GAL d   1       2.127  35.666  21.306  0.00  0.00     0.043 C 
ATOM    118  H16 7GW d   1       1.302  35.088  21.748  0.00  0.00     0.078 H 
ATOM    119  H17 7GW d   1       3.088  35.227  21.612  0.00  0.00     0.078 H 
BRANCH 117 120
ATOM    120  O6  GAL d   1       2.022  35.611  19.876  0.00  0.00    -0.398 OA
ATOM    121  H20 7GW d   1       2.071  34.706  19.591  0.00  0.00     0.209 HD
ENDBRANCH 117 120
ENDBRANCH  70 117
ENDBRANCH  63  64
ENDBRANCH  51  63
ENDBRANCH  43  46
ENDBRANCH  42  43
ENDBRANCH  31  42
BRANCH  35 122
ATOM    122  C6  BGC d   1       3.037  43.403  19.442  0.00  0.00     0.043 C 
ATOM    123  H95 7GW d   1       3.015  42.365  19.079  0.00  0.00     0.078 H 
ATOM    124  H96 7GW d   1       3.599  43.449  20.387  0.00  0.00     0.078 H 
BRANCH 122 125
ATOM    125  O6  BGC d   1       3.656  44.244  18.468  0.00  0.00    -0.398 OA
ATOM    126 0H10 7GW d   1       3.669  45.139  18.786  0.00  0.00     0.209 HD
ENDBRANCH 122 125
ENDBRANCH  35 122
ENDBRANCH  26  27
ENDBRANCH  15  26
BRANCH  19 127
ATOM    127  C6  GAL d   1       3.960  48.758  16.359  0.00  0.00     0.043 C 
ATOM    128  H86 7GW d   1       5.050  48.825  16.487  0.00  0.00     0.078 H 
ATOM    129  H87 7GW d   1       3.615  49.580  15.715  0.00  0.00     0.078 H 
BRANCH 127 130
ATOM    130  O6  GAL d   1       3.632  47.506  15.744  0.00  0.00    -0.398 OA
ATOM    131  H90 7GW d   1       3.930  46.794  16.298  0.00  0.00     0.209 HD
ENDBRANCH 127 130
ENDBRANCH  19 127
BRANCH  20 132
ATOM    132  O4  GAL d   1       5.243  49.063  19.101  0.00  0.00    -0.390 OA
ATOM    133  H89 7GW d   1       5.727  49.608  19.710  0.00  0.00     0.210 HD
ENDBRANCH  20 132
ENDBRANCH  12  13
ENDBRANCH   6  12
BRANCH   7 134
ATOM    134  N2  NAG d   1       3.495  51.683  23.414  0.00  0.00    -0.349 N 
ATOM    135  C7  NAG d   1       4.358  50.822  23.964  0.00  0.00     0.214 C 
ATOM    136  O7  NAG d   1       5.541  50.739  23.657  0.00  0.00    -0.274 OA
ATOM    137  H58 7GW d   1       2.549  51.691  23.737  0.00  0.00     0.163 HD
BRANCH 135 138
ATOM    138  C8  NAG d   1       3.781  49.943  25.024  0.00  0.00    -0.003 C 
ATOM    139  H55 7GW d   1       4.564  49.275  25.412  0.00  0.00     0.040 H 
ATOM    140  H56 7GW d   1       2.964  49.342  24.598  0.00  0.00     0.040 H 
ATOM    141  H57 7GW d   1       3.390  50.565  25.843  0.00  0.00     0.040 H 
ENDBRANCH 135 138
ENDBRANCH   7 134
BRANCH   8 142
ATOM    142  O3  NAG d   1       3.865  54.380  23.975  0.00  0.00    -0.391 OA
ATOM    143  H59 7GW d   1       3.566  55.259  24.178  0.00  0.00     0.210 HD
ENDBRANCH   8 142
BRANCH  10 144
ATOM    144  C6  NAG d   1       3.930  55.514  19.166  0.00  0.00     0.049 C 
ATOM    145  H53 7GW d   1       3.431  56.479  19.337  0.00  0.00     0.078 H 
ATOM    146  H54 7GW d   1       3.653  55.128  18.174  0.00  0.00     0.078 H 
BRANCH 144 147
ATOM    147  O6  NAG d   1       5.374  55.730  19.191  0.00  0.00    -0.356 OA
BRANCH 147 148
ATOM    148  C1  BGC d   1       6.207  55.851  17.974  0.00  0.00     0.158 C 
ATOM    149  C2  BGC d   1       5.520  55.732  16.593  0.00  0.00     0.110 C 
ATOM    150  C3  BGC d   1       6.602  55.639  15.505  0.00  0.00     0.092 C 
ATOM    151  H60 7GW d   1       4.904  56.630  16.439  0.00  0.00     0.094 H 
ATOM    152  C4  BGC d   1       7.531  56.853  15.506  0.00  0.00     0.096 C 
ATOM    153  H61 7GW d   1       7.209  54.743  15.704  0.00  0.00     0.091 H 
ATOM    154  C5  BGC d   1       8.033  57.146  16.929  0.00  0.00     0.089 C 
ATOM    155  H62 7GW d   1       6.977  57.728  15.136  0.00  0.00     0.091 H 
ATOM    156  O5  BGC d   1       6.972  57.085  17.922  0.00  0.00    -0.348 OA
ATOM    157  H63 7GW d   1       8.808  56.412  17.196  0.00  0.00     0.090 H 
ATOM    158  H66 7GW d   1       6.924  55.020  18.037  0.00  0.00     0.133 H 
BRANCH 149 159
ATOM    159  O2  BGC d   1       4.697  54.569  16.413  0.00  0.00    -0.388 OA
ATOM    160  H67 7GW d   1       4.319  54.581  15.541  0.00  0.00     0.210 HD
ENDBRANCH 149 159
BRANCH 150 161
ATOM    161  O3  BGC d   1       5.993  55.501  14.217  0.00  0.00    -0.390 OA
ATOM    162  H68 7GW d   1       5.417  54.746  14.220  0.00  0.00     0.210 HD
ENDBRANCH 150 161
BRANCH 152 163
ATOM    163  O4  BGC d   1       8.664  56.596  14.624  0.00  0.00    -0.348 OA
BRANCH 163 164
ATOM    164  C1  GAL d   1       8.744  57.427  13.411  0.00  0.00     0.159 C 
ATOM    165  C2  GAL d   1      10.138  57.317  12.775  0.00  0.00     0.110 C 
ATOM    166  C3  GAL d   1      10.299  58.322  11.625  0.00  0.00     0.092 C 
ATOM    167  H71 7GW d   1      10.250  56.300  12.370  0.00  0.00     0.094 H 
ATOM    168  C4  GAL d   1       9.137  58.340  10.603  0.00  0.00     0.090 C 
ATOM    169  H72 7GW d   1      10.352  59.326  12.071  0.00  0.00     0.091 H 
ATOM    170  C5  GAL d   1       7.756  58.099  11.254  0.00  0.00     0.089 C 
ATOM    171  H73 7GW d   1       9.109  59.356  10.182  0.00  0.00     0.091 H 
ATOM    172  O5  GAL d   1       7.783  57.156  12.357  0.00  0.00    -0.348 OA
ATOM    173  H74 7GW d   1       7.420  59.063  11.663  0.00  0.00     0.090 H 
ATOM    174  H70 7GW d   1       8.588  58.467  13.734  0.00  0.00     0.133 H 
BRANCH 165 175
ATOM    175  O2  GAL d   1      11.177  57.538  13.746  0.00  0.00    -0.388 OA
ATOM    176  H77 7GW d   1      11.080  56.917  14.459  0.00  0.00     0.210 HD
ENDBRANCH 165 175
BRANCH 166 177
ATOM    177  O3  GAL d   1      11.542  58.057  10.958  0.00  0.00    -0.390 OA
ATOM    178  H78 7GW d   1      11.494  57.212  10.526  0.00  0.00     0.210 HD
ENDBRANCH 166 177
BRANCH 168 179
ATOM    179  O4  GAL d   1       9.378  57.443   9.501  0.00  0.00    -0.390 OA
ATOM    180  H79 7GW d   1      10.234  57.623   9.129  0.00  0.00     0.210 HD
ENDBRANCH 168 179
BRANCH 170 181
ATOM    181  C6  GAL d   1       6.734  57.659  10.195  0.00  0.00     0.043 C 
ATOM    182  H75 7GW d   1       6.902  56.601   9.947  0.00  0.00     0.078 H 
ATOM    183  H76 7GW d   1       6.862  58.273   9.291  0.00  0.00     0.078 H 
BRANCH 181 184
ATOM    184  O6  GAL d   1       5.405  57.821  10.690  0.00  0.00    -0.398 OA
ATOM    185  H80 7GW d   1       4.785  57.545  10.025  0.00  0.00     0.209 HD
ENDBRANCH 181 184
ENDBRANCH 170 181
ENDBRANCH 163 164
ENDBRANCH 152 163
BRANCH 154 186
ATOM    186  C6  BGC d   1       8.637  58.557  16.915  0.00  0.00     0.043 C 
ATOM    187  H64 7GW d   1       7.835  59.291  17.084  0.00  0.00     0.078 H 
ATOM    188  H65 7GW d   1       9.098  58.738  15.933  0.00  0.00     0.078 H 
BRANCH 186 189
ATOM    189  O6  BGC d   1       9.630  58.713  17.930  0.00  0.00    -0.398 OA
ATOM    190  H69 7GW d   1       9.237  58.562  18.782  0.00  0.00     0.209 HD
ENDBRANCH 186 189
ENDBRANCH 154 186
ENDBRANCH 147 148
ENDBRANCH 144 147
ENDBRANCH  10 144
BRANCH   9 191
ATOM    191  O4  NAG d   1       3.424  56.291  21.939  0.00  0.00    -0.348 OA
BRANCH 191 192
ATOM    192  C1  GAL d   1       4.487  57.150  22.426  0.00  0.00     0.159 C 
ATOM    193  C2  GAL d   1       4.258  58.595  21.977  0.00  0.00     0.110 C 
ATOM    194  C3  GAL d   1       5.513  59.398  22.346  0.00  0.00     0.099 C 
ATOM    195  H39 7GW d   1       3.397  59.006  22.524  0.00  0.00     0.094 H 
ATOM    196  C4  GAL d   1       5.701  59.342  23.875  0.00  0.00     0.090 C 
ATOM    197  H40 7GW d   1       6.388  58.920  21.881  0.00  0.00     0.091 H 
ATOM    198  C5  GAL d   1       5.749  57.886  24.394  0.00  0.00     0.089 C 
ATOM    199  H41 7GW d   1       6.657  59.826  24.125  0.00  0.00     0.091 H 
ATOM    200  O5  GAL d   1       4.653  57.113  23.855  0.00  0.00    -0.348 OA
ATOM    201  H42 7GW d   1       6.693  57.442  24.045  0.00  0.00     0.090 H 
ATOM    202  H38 7GW d   1       5.426  56.796  21.975  0.00  0.00     0.133 H 
BRANCH 193 203
ATOM    203  O2  GAL d   1       3.975  58.678  20.572  0.00  0.00    -0.388 OA
ATOM    204  H45 7GW d   1       3.833  59.586  20.332  0.00  0.00     0.210 HD
ENDBRANCH 193 203
BRANCH 194 205
ATOM    205  O3  GAL d   1       5.409  60.747  21.807  0.00  0.00    -0.336 OA
BRANCH 205 206
ATOM    206  C2  SIA d   1       6.483  61.180  20.915  0.00  0.00     0.259 C 
ATOM    207  C3  SIA d   1       7.782  61.673  21.574  0.00  0.00     0.024 C 
ATOM    208  C4  SIA d   1       8.519  62.662  20.671  0.00  0.00     0.063 C 
ATOM    209 1H10 7GW d   1       8.435  60.810  21.769  0.00  0.00     0.045 H 
ATOM    210 2H10 7GW d   1       7.536  62.169  22.524  0.00  0.00     0.045 H 
ATOM    211  C5  SIA d   1       7.589  63.845  20.393  0.00  0.00     0.064 C 
ATOM    212 3H10 7GW d   1       8.753  62.170  19.715  0.00  0.00     0.086 H 
ATOM    213  C6  SIA d   1       6.353  63.307  19.655  0.00  0.00     0.091 C 
ATOM    214 4H10 7GW d   1       7.266  64.280  21.350  0.00  0.00     0.080 H 
ATOM    215  O6  SIA d   1       5.699  62.312  20.476  0.00  0.00    -0.336 OA
ATOM    216 5H10 7GW d   1       6.693  62.832  18.723  0.00  0.00     0.090 H 
BRANCH 206 217
ATOM    217  C1  SIA d   1       6.769  60.266  19.732  0.00  0.00     0.239 C 
ATOM    218  O1A SIA d   1       5.992  60.289  18.749  0.00  0.00    -0.644 OA
ATOM    219  O1B SIA d   1       7.777  59.518  19.767  0.00  0.00    -0.644 OA
ENDBRANCH 206 217
BRANCH 208 220
ATOM    220  O4  SIA d   1       9.753  63.061  21.282  0.00  0.00    -0.393 OA
ATOM    221 4H11 7GW d   1      10.293  62.294  21.433  0.00  0.00     0.210 HD
ENDBRANCH 208 220
BRANCH 211 222
ATOM    222  N5  SIA d   1       8.285  64.881  19.637  0.00  0.00    -0.352 N 
ATOM    223  C10 SIA d   1       8.836  66.001  20.142  0.00  0.00     0.214 C 
ATOM    224  O10 SIA d   1       9.396  66.792  19.399  0.00  0.00    -0.274 OA
ATOM    225 3H11 7GW d   1       8.360  64.746  18.649  0.00  0.00     0.163 HD
BRANCH 223 226
ATOM    226  C11 SIA d   1       8.771  66.299  21.618  0.00  0.00    -0.003 C 
ATOM    227 0H11 7GW d   1       9.277  67.254  21.822  0.00  0.00     0.040 H 
ATOM    228 1H11 7GW d   1       9.270  65.494  22.177  0.00  0.00     0.040 H 
ATOM    229 2H11 7GW d   1       7.719  66.367  21.933  0.00  0.00     0.040 H 
ENDBRANCH 223 226
ENDBRANCH 211 222
BRANCH 213 230
ATOM    230  C7  SIA d   1       5.336  64.400  19.290  0.00  0.00     0.089 C 
ATOM    231 6H10 7GW d   1       5.885  65.246  18.852  0.00  0.00     0.091 H 
BRANCH 230 232
ATOM    232  C8  SIA d   1       4.296  63.925  18.266  0.00  0.00     0.083 C 
ATOM    233 7H10 7GW d   1       3.850  62.988  18.631  0.00  0.00     0.090 H 
BRANCH 232 234
ATOM    234  C9  SIA d   1       3.180  64.952  18.066  0.00  0.00     0.043 C 
ATOM    235 8H10 7GW d   1       3.621  65.958  18.000  0.00  0.00     0.078 H 
ATOM    236 9H10 7GW d   1       2.491  64.909  18.922  0.00  0.00     0.078 H 
BRANCH 234 237
ATOM    237  O9  SIA d   1       2.454  64.676  16.862  0.00  0.00    -0.398 OA
ATOM    238 7H11 7GW d   1       3.046  64.715  16.120  0.00  0.00     0.209 HD
ENDBRANCH 234 237
ENDBRANCH 232 234
BRANCH 232 239
ATOM    239  O8  SIA d   1       4.935  63.681  17.004  0.00  0.00    -0.391 OA
ATOM    240 6H11 7GW d   1       4.296  63.345  16.386  0.00  0.00     0.210 HD
ENDBRANCH 232 239
ENDBRANCH 230 232
BRANCH 230 241
ATOM    241  O7  SIA d   1       4.672  64.848  20.481  0.00  0.00    -0.390 OA
ATOM    242 5H11 7GW d   1       4.170  64.132  20.851  0.00  0.00     0.210 HD
ENDBRANCH 230 241
ENDBRANCH 213 230
ENDBRANCH 205 206
ENDBRANCH 194 205
BRANCH 196 243
ATOM    243  O4  GAL d   1       4.641  60.069  24.510  0.00  0.00    -0.390 OA
ATOM    244  H46 7GW d   1       4.627  60.959  24.179  0.00  0.00     0.210 HD
ENDBRANCH 196 243
BRANCH 198 245
ATOM    245  C6  GAL d   1       5.715  57.778  25.938  0.00  0.00     0.043 C 
ATOM    246  H43 7GW d   1       4.992  56.997  26.216  0.00  0.00     0.078 H 
ATOM    247  H44 7GW d   1       5.386  58.745  26.347  0.00  0.00     0.078 H 
BRANCH 245 248
ATOM    248  O6  GAL d   1       6.988  57.448  26.520  0.00  0.00    -0.398 OA
ATOM    249  H47 7GW d   1       6.899  57.397  27.465  0.00  0.00     0.209 HD
ENDBRANCH 245 248
ENDBRANCH 198 245
ENDBRANCH 191 192
ENDBRANCH   9 191
TORSDOF 72
