REMARK  10 active torsions:
REMARK  status: ('A' for Active; 'I' for Inactive)
REMARK    1  A    between atoms: O2_20  and  C1_1 
REMARK    2  A    between atoms: C3_2  and  O2_20 
REMARK    3  A    between atoms: C4_21  and  C3_2 
REMARK    4  A    between atoms: C7_4  and  C8_5 
REMARK    5  A    between atoms: C11_6  and  C12_7 
REMARK    6  A    between atoms: N10_23  and  C11_6 
REMARK       I    between atoms: C12_7  and  N14_25 
REMARK    7  A    between atoms: C16_9  and  C17_26 
REMARK    8  A    between atoms: C16_9  and  C18_27 
REMARK    9  A    between atoms: C22_12  and  C23_13 
REMARK   10  A    between atoms: C23_13  and  C24_14 
ROOT
ATOM      1  C12 7HU d   1     -15.331 -19.210  -5.031  0.00  0.00     0.250 C 
ATOM      2  C15 7HU d   1     -16.638 -18.432  -6.978  0.00  0.00     0.015 C 
ATOM      3  C16 7HU d   1     -16.304 -18.311  -8.488  0.00  0.00     0.016 C 
ATOM      4  C19 7HU d   1     -14.829 -18.457  -8.535  0.00  0.00     0.070 A 
ATOM      5  C21 7HU d   1     -12.701 -18.477  -9.395  0.00  0.00     0.009 A 
ATOM      6  C22 7HU d   1     -12.118 -18.818  -8.189  0.00  0.00    -0.034 A 
ATOM      7  C31 7HU d   1     -14.340 -18.801  -7.262  0.00  0.00     0.063 A 
ATOM      8  O13 7HU d   1     -14.306 -19.607  -4.512  0.00  0.00    -0.271 OA
ATOM      9  N14 7HU d   1     -15.387 -18.883  -6.344  0.00  0.00    -0.314 N 
ATOM     10  N20 7HU d   1     -14.013 -18.296  -9.577  0.00  0.00    -0.262 NA
ATOM     11  C30 7HU d   1     -12.971 -18.988  -7.105  0.00  0.00    -0.047 A 
ATOM     12  H14 7HU d   1     -17.440 -19.168  -6.817  0.00  0.00     0.066 H 
ATOM     13  H15 7HU d   1     -16.948 -17.458  -6.572  0.00  0.00     0.066 H 
ATOM     14  H16 7HU d   1     -12.050 -18.348 -10.252  0.00  0.00     0.115 H 
ATOM     15  H34 7HU d   1     -12.569 -19.266  -6.137  0.00  0.00     0.088 H 
ENDROOT
BRANCH   1  16
ATOM     16  C11 7HU d   1     -16.625 -19.066  -4.227  0.00  0.00     0.157 C 
ATOM     17  H12 7HU d   1     -17.293 -19.894  -4.507  0.00  0.00     0.090 H 
ATOM     18  H13 7HU d   1     -17.092 -18.109  -4.503  0.00  0.00     0.090 H 
BRANCH  16  19
ATOM     19  N10 7HU d   1     -16.463 -19.087  -2.771  0.00  0.00    -0.053 N 
ATOM     20  C4  7HU d   1     -15.639 -18.015  -2.166  0.00  0.00     0.147 C 
ATOM     21  C5  7HU d   1     -15.659 -18.134  -0.658  0.00  0.00     0.111 C 
ATOM     22  H23 7HU d   1     -14.610 -18.083  -2.549  0.00  0.00     0.090 H 
ATOM     23  N6  7HU d   1     -15.212 -19.487  -0.225  0.00  0.00    -0.068 N 
ATOM     24  H6  7HU d   1     -16.683 -17.961  -0.297  0.00  0.00     0.079 H 
ATOM     25  H7  7HU d   1     -14.986 -17.378  -0.228  0.00  0.00     0.079 H 
ATOM     26  C7  7HU d   1     -16.077 -20.568  -0.793  0.00  0.00     0.121 C 
ATOM     27  H35 7HU d   1     -15.248 -19.536   0.781  0.00  0.00     0.277 HD
ATOM     28  H36 7HU d   1     -14.264 -19.632  -0.535  0.00  0.00     0.277 HD
ATOM     29  C9  7HU d   1     -16.107 -20.436  -2.302  0.00  0.00     0.110 C 
ATOM     30  H8  7HU d   1     -17.101 -20.453  -0.408  0.00  0.00     0.086 H 
ATOM     31  H24 7HU d   1     -16.846 -21.148  -2.698  0.00  0.00     0.079 H 
ATOM     32  H25 7HU d   1     -15.110 -20.688  -2.692  0.00  0.00     0.079 H 
ATOM     33  H26 7HU d   1     -17.389 -18.916  -2.411  0.00  0.00     0.281 HD
BRANCH  20  34
ATOM     34  C3  7HU d   1     -16.227 -16.640  -2.457  0.00  0.00     0.047 C 
ATOM     35  H4  7HU d   1     -17.314 -16.724  -2.600  0.00  0.00     0.077 H 
ATOM     36  H5  7HU d   1     -16.019 -15.962  -1.616  0.00  0.00     0.077 H 
BRANCH  34  37
ATOM     37  O2  7HU d   1     -15.628 -16.134  -3.637  0.00  0.00    -0.394 OA
BRANCH  37  38
ATOM     38  C1  7HU d   1     -16.423 -15.137  -4.297  0.00  0.00     0.004 C 
ATOM     39  H1  7HU d   1     -15.900 -14.790  -5.200  0.00  0.00     0.066 H 
ATOM     40  H2  7HU d   1     -16.584 -14.287  -3.617  0.00  0.00     0.066 H 
ATOM     41  H3  7HU d   1     -17.394 -15.570  -4.579  0.00  0.00     0.066 H 
ENDBRANCH  37  38
ENDBRANCH  34  37
ENDBRANCH  20  34
BRANCH  26  42
ATOM     42  C8  7HU d   1     -15.545 -21.907  -0.358  0.00  0.00    -0.048 C 
ATOM     43  H9  7HU d   1     -16.178 -22.705  -0.773  0.00  0.00     0.030 H 
ATOM     44  H10 7HU d   1     -15.554 -21.966   0.740  0.00  0.00     0.030 H 
ATOM     45  H11 7HU d   1     -14.515 -22.029  -0.723  0.00  0.00     0.030 H 
ENDBRANCH  26  42
ENDBRANCH  16  19
ENDBRANCH   1  16
BRANCH   3  46
ATOM     46  C17 7HU d   1     -17.011 -19.417  -9.279  0.00  0.00    -0.062 C 
ATOM     47  H27 7HU d   1     -16.765 -19.319 -10.347  0.00  0.00     0.029 H 
ATOM     48  H28 7HU d   1     -18.099 -19.327  -9.143  0.00  0.00     0.029 H 
ATOM     49  H29 7HU d   1     -16.676 -20.399  -8.915  0.00  0.00     0.029 H 
ENDBRANCH   3  46
BRANCH   3  50
ATOM     50  C18 7HU d   1     -16.765 -16.956  -9.011  0.00  0.00    -0.062 C 
ATOM     51  H30 7HU d   1     -16.262 -16.155  -8.448  0.00  0.00     0.029 H 
ATOM     52  H31 7HU d   1     -17.854 -16.865  -8.884  0.00  0.00     0.029 H 
ATOM     53  H32 7HU d   1     -16.512 -16.869 -10.078  0.00  0.00     0.029 H 
ENDBRANCH   3  50
BRANCH   6  54
ATOM     54  C23 7HU d   1     -10.621 -19.019  -8.051  0.00  0.00    -0.016 C 
ATOM     55  H17 7HU d   1     -10.332 -18.840  -7.005  0.00  0.00     0.047 H 
ATOM     56  H18 7HU d   1     -10.103 -18.300  -8.703  0.00  0.00     0.047 H 
BRANCH  54  57
ATOM     57  C24 7HU d   1     -10.208 -20.414  -8.439  0.00  0.00    -0.054 A 
ATOM     58  C25 7HU d   1     -10.377 -21.468  -7.563  0.00  0.00    -0.077 A 
ATOM     59  C26 7HU d   1     -10.010 -22.752  -7.920  0.00  0.00    -0.082 A 
ATOM     60  H19 7HU d   1     -10.803 -21.286  -6.583  0.00  0.00     0.084 H 
ATOM     61  C27 7HU d   1      -9.473 -22.997  -9.157  0.00  0.00    -0.083 A 
ATOM     62  H20 7HU d   1     -10.147 -23.568  -7.219  0.00  0.00     0.083 H 
ATOM     63  C28 7HU d   1      -9.292 -21.956 -10.041  0.00  0.00    -0.082 A 
ATOM     64  H21 7HU d   1      -9.192 -24.005  -9.438  0.00  0.00     0.083 H 
ATOM     65  C29 7HU d   1      -9.659 -20.672  -9.685  0.00  0.00    -0.077 A 
ATOM     66  H22 7HU d   1      -8.861 -22.144 -11.018  0.00  0.00     0.083 H 
ATOM     67  H33 7HU d   1      -9.516 -19.859 -10.387  0.00  0.00     0.084 H 
ENDBRANCH  54  57
ENDBRANCH   6  54
TORSDOF 10
