REMARK  8 active torsions:
REMARK  status: ('A' for Active; 'I' for Inactive)
REMARK    1  A    between atoms: C2_2  and  C1_1 
REMARK    2  A    between atoms: N4_4  and  C5_5 
REMARK    3  A    between atoms: C5_5  and  C6_6 
REMARK       I    between atoms: C6_6  and  N8_25 
REMARK    4  A    between atoms: C10_7  and  C11_8 
REMARK    5  A    between atoms: C10_7  and  C12_9 
REMARK    6  A    between atoms: C16_12  and  C17_28 
REMARK    7  A    between atoms: C29_32  and  C26_19 
REMARK    8  A    between atoms: C17_28  and  C18_29 
REMARK       I    between atoms: C29_32  and  N31_33 
ROOT
ATOM      1  C5  7J6 d   1     -16.334 -18.847  -4.239  0.00  0.00     0.157 C 
ATOM      2  H8  7J6 d   1     -16.786 -17.881  -4.508  0.00  0.00     0.090 H 
ATOM      3  H9  7J6 d   1     -17.020 -19.662  -4.512  0.00  0.00     0.090 H 
ENDROOT
BRANCH   1   4
ATOM      4  N4  7J6 d   1     -16.159 -18.873  -2.789  0.00  0.00    -0.046 N 
ATOM      5  C3  7J6 d   1     -15.831 -20.234  -2.333  0.00  0.00     0.111 C 
ATOM      6  C2  7J6 d   1     -15.932 -20.370  -0.828  0.00  0.00     0.122 C 
ATOM      7  H5  7J6 d   1     -16.530 -20.943  -2.801  0.00  0.00     0.079 H 
ATOM      8  H6  7J6 d   1     -14.803 -20.474  -2.643  0.00  0.00     0.079 H 
ATOM      9  N28 7J6 d   1     -15.146 -19.272  -0.175  0.00  0.00    -0.067 N 
ATOM     10  H4  7J6 d   1     -16.989 -20.273  -0.539  0.00  0.00     0.086 H 
ATOM     11  C27 7J6 d   1     -15.553 -17.906  -0.623  0.00  0.00     0.117 C 
ATOM     12  H34 7J6 d   1     -14.171 -19.403  -0.394  0.00  0.00     0.277 HD
ATOM     13  H35 7J6 d   1     -15.278 -19.334   0.822  0.00  0.00     0.277 HD
ATOM     14  C26 7J6 d   1     -15.309 -17.865  -2.125  0.00  0.00     0.203 C 
ATOM     15  H23 7J6 d   1     -16.617 -17.734  -0.404  0.00  0.00     0.079 H 
ATOM     16  H24 7J6 d   1     -14.946 -17.141  -0.116  0.00  0.00     0.079 H 
ATOM     17  H22 7J6 d   1     -14.250 -18.063  -2.346  0.00  0.00     0.102 H 
ATOM     18  H7  7J6 d   1     -17.081 -18.681  -2.431  0.00  0.00     0.281 HD
BRANCH   6  19
ATOM     19  C1  7J6 d   1     -15.428 -21.704  -0.350  0.00  0.00    -0.048 C 
ATOM     20  H1  7J6 d   1     -16.006 -22.508  -0.830  0.00  0.00     0.030 H 
ATOM     21  H2  7J6 d   1     -15.545 -21.770   0.742  0.00  0.00     0.030 H 
ATOM     22  H3  7J6 d   1     -14.365 -21.810  -0.612  0.00  0.00     0.030 H 
ENDBRANCH   6  19
BRANCH  14  23
ATOM     23  C29 7J6 d   1     -15.703 -16.464  -2.612  0.00  0.00     0.252 C 
ATOM     24  O30 7J6 d   1     -16.832 -16.062  -2.407  0.00  0.00    -0.271 OA
ATOM     25  N31 7J6 d   1     -14.780 -15.711  -3.265  0.00  0.00    -0.346 N 
ATOM     26  C36 7J6 d   1     -13.318 -15.872  -3.265  0.00  0.00     0.017 C 
ATOM     27  C32 7J6 d   1     -15.139 -14.409  -3.843  0.00  0.00     0.017 C 
ATOM     28  C35 7J6 d   1     -12.802 -15.727  -4.670  0.00  0.00     0.034 C 
ATOM     29  H27 7J6 d   1     -12.864 -15.101  -2.625  0.00  0.00     0.067 H 
ATOM     30  H28 7J6 d   1     -13.058 -16.869  -2.879  0.00  0.00     0.067 H 
ATOM     31  O34 7J6 d   1     -13.138 -14.455  -5.224  0.00  0.00    -0.388 OA
ATOM     32  H25 7J6 d   1     -13.243 -16.517  -5.296  0.00  0.00     0.076 H 
ATOM     33  H26 7J6 d   1     -11.707 -15.835  -4.661  0.00  0.00     0.076 H 
ATOM     34  C33 7J6 d   1     -14.551 -14.283  -5.232  0.00  0.00     0.034 C 
ATOM     35  H38 7J6 d   1     -14.786 -13.285  -5.629  0.00  0.00     0.076 H 
ATOM     36  H39 7J6 d   1     -15.000 -15.050  -5.880  0.00  0.00     0.076 H 
ATOM     37  H36 7J6 d   1     -14.743 -13.605  -3.205  0.00  0.00     0.067 H 
ATOM     38  H37 7J6 d   1     -16.234 -14.325  -3.901  0.00  0.00     0.067 H 
ENDBRANCH  14  23
ENDBRANCH   1   4
BRANCH   1  39
ATOM     39  C6  7J6 d   1     -15.059 -19.013  -5.059  0.00  0.00     0.250 C 
ATOM     40  O7  7J6 d   1     -14.011 -19.380  -4.552  0.00  0.00    -0.271 OA
ATOM     41  N8  7J6 d   1     -15.161 -18.734  -6.383  0.00  0.00    -0.314 N 
ATOM     42  C25 7J6 d   1     -14.112 -18.681  -7.303  0.00  0.00     0.063 A 
ATOM     43  C9  7J6 d   1     -16.382 -18.184  -6.993  0.00  0.00     0.015 C 
ATOM     44  C13 7J6 d   1     -14.622 -18.409  -8.584  0.00  0.00     0.070 A 
ATOM     45  C24 7J6 d   1     -12.736 -18.832  -7.170  0.00  0.00    -0.047 A 
ATOM     46  C10 7J6 d   1     -16.118 -18.305  -8.516  0.00  0.00     0.016 C 
ATOM     47  N14 7J6 d   1     -13.830 -18.291  -9.649  0.00  0.00    -0.262 NA
ATOM     48  C15 7J6 d   1     -12.511 -18.439  -9.480  0.00  0.00     0.009 A 
ATOM     49  C16 7J6 d   1     -11.900 -18.693  -8.268  0.00  0.00    -0.034 A 
ATOM     50  H16 7J6 d   1     -11.878 -18.354 -10.356  0.00  0.00     0.115 H 
ATOM     51  H21 7J6 d   1     -12.313 -19.061  -6.199  0.00  0.00     0.088 H 
ATOM     52  H29 7J6 d   1     -17.265 -18.770  -6.700  0.00  0.00     0.066 H 
ATOM     53  H30 7J6 d   1     -16.527 -17.133  -6.702  0.00  0.00     0.066 H 
BRANCH  46  54
ATOM     54  C11 7J6 d   1     -16.795 -19.569  -9.063  0.00  0.00    -0.062 C 
ATOM     55  H10 7J6 d   1     -17.887 -19.457  -8.998  0.00  0.00     0.029 H 
ATOM     56  H11 7J6 d   1     -16.479 -20.440  -8.470  0.00  0.00     0.029 H 
ATOM     57  H12 7J6 d   1     -16.504 -19.716 -10.114  0.00  0.00     0.029 H 
ENDBRANCH  46  54
BRANCH  46  58
ATOM     58  C12 7J6 d   1     -16.664 -17.093  -9.254  0.00  0.00    -0.062 C 
ATOM     59  H13 7J6 d   1     -16.184 -16.182  -8.868  0.00  0.00     0.029 H 
ATOM     60  H14 7J6 d   1     -17.751 -17.028  -9.099  0.00  0.00     0.029 H 
ATOM     61  H15 7J6 d   1     -16.452 -17.192 -10.329  0.00  0.00     0.029 H 
ENDBRANCH  46  58
BRANCH  49  62
ATOM     62  C17 7J6 d   1     -10.404 -18.869  -8.139  0.00  0.00    -0.016 C 
ATOM     63  H31 7J6 d   1     -10.090 -18.602  -7.119  0.00  0.00     0.047 H 
ATOM     64  H32 7J6 d   1      -9.894 -18.216  -8.863  0.00  0.00     0.047 H 
BRANCH  62  65
ATOM     65  C18 7J6 d   1     -10.042 -20.306  -8.416  0.00  0.00    -0.054 A 
ATOM     66  C19 7J6 d   1      -9.590 -20.698  -9.666  0.00  0.00    -0.077 A 
ATOM     67  C20 7J6 d   1      -9.270 -22.020  -9.918  0.00  0.00    -0.082 A 
ATOM     68  H17 7J6 d   1      -9.486 -19.961 -10.454  0.00  0.00     0.084 H 
ATOM     69  C21 7J6 d   1      -9.414 -22.970  -8.928  0.00  0.00    -0.083 A 
ATOM     70  H33 7J6 d   1      -8.905 -22.310 -10.896  0.00  0.00     0.083 H 
ATOM     71  C22 7J6 d   1      -9.876 -22.596  -7.690  0.00  0.00    -0.082 A 
ATOM     72  H18 7J6 d   1      -9.164 -24.006  -9.126  0.00  0.00     0.083 H 
ATOM     73  C23 7J6 d   1     -10.189 -21.271  -7.434  0.00  0.00    -0.077 A 
ATOM     74  H19 7J6 d   1      -9.996 -23.340  -6.911  0.00  0.00     0.083 H 
ATOM     75  H20 7J6 d   1     -10.553 -20.986  -6.454  0.00  0.00     0.084 H 
ENDBRANCH  62  65
ENDBRANCH  49  62
ENDBRANCH   1  39
TORSDOF 8
