REMARK  9 active torsions:
REMARK  status: ('A' for Active; 'I' for Inactive)
REMARK    1  A    between atoms: C2_2  and  C1_1 
REMARK    2  A    between atoms: N4_4  and  C5_5 
REMARK    3  A    between atoms: C5_5  and  C6_6 
REMARK       I    between atoms: C6_6  and  N8_23 
REMARK    4  A    between atoms: C10_7  and  C11_8 
REMARK    5  A    between atoms: C10_7  and  C12_9 
REMARK    6  A    between atoms: C16_12  and  C17_26 
REMARK    7  A    between atoms: C27_20  and  C26_19 
REMARK    8  A    between atoms: N28_29  and  C27_20 
REMARK    9  A    between atoms: C17_26  and  C18_27 
ROOT
ATOM      1  C5  7H8 d   1     -16.426 -18.840  -4.094  0.00  0.00     0.157 C 
ATOM      2  H8  7H8 d   1     -16.860 -17.859  -4.337  0.00  0.00     0.090 H 
ATOM      3  H9  7H8 d   1     -17.142 -19.633  -4.356  0.00  0.00     0.090 H 
ENDROOT
BRANCH   1   4
ATOM      4  N4  7H8 d   1     -16.185 -18.894  -2.653  0.00  0.00    -0.053 N 
ATOM      5  C3  7H8 d   1     -15.900 -20.273  -2.236  0.00  0.00     0.110 C 
ATOM      6  C2  7H8 d   1     -15.955 -20.486  -0.740  0.00  0.00     0.121 C 
ATOM      7  H5  7H8 d   1     -16.640 -20.937  -2.708  0.00  0.00     0.079 H 
ATOM      8  H6  7H8 d   1     -14.892 -20.539  -2.587  0.00  0.00     0.079 H 
ATOM      9  N35 7H8 d   1     -15.132 -19.431  -0.066  0.00  0.00    -0.068 N 
ATOM     10  H4  7H8 d   1     -17.000 -20.395  -0.408  0.00  0.00     0.086 H 
ATOM     11  C34 7H8 d   1     -15.472 -18.051  -0.507  0.00  0.00     0.110 C 
ATOM     12  H38 7H8 d   1     -14.160 -19.603  -0.272  0.00  0.00     0.277 HD
ATOM     13  H39 7H8 d   1     -15.281 -19.495   0.929  0.00  0.00     0.277 HD
ATOM     14  C26 7H8 d   1     -15.295 -17.912  -2.005  0.00  0.00     0.142 C 
ATOM     15  H36 7H8 d   1     -16.518 -17.835  -0.245  0.00  0.00     0.079 H 
ATOM     16  H37 7H8 d   1     -14.811 -17.335   0.003  0.00  0.00     0.079 H 
ATOM     17  H22 7H8 d   1     -14.254 -18.139  -2.279  0.00  0.00     0.089 H 
ATOM     18  H7  7H8 d   1     -17.087 -18.681  -2.256  0.00  0.00     0.281 HD
BRANCH   6  19
ATOM     19  C1  7H8 d   1     -15.444 -21.848  -0.353  0.00  0.00    -0.048 C 
ATOM     20  H1  7H8 d   1     -16.049 -22.621  -0.849  0.00  0.00     0.030 H 
ATOM     21  H2  7H8 d   1     -15.515 -21.970   0.738  0.00  0.00     0.030 H 
ATOM     22  H3  7H8 d   1     -14.394 -21.948  -0.665  0.00  0.00     0.030 H 
ENDBRANCH   6  19
BRANCH  14  23
ATOM     23  C27 7H8 d   1     -15.605 -16.462  -2.408  0.00  0.00     0.026 C 
ATOM     24  H23 7H8 d   1     -15.345 -15.807  -1.563  0.00  0.00     0.067 H 
ATOM     25  H24 7H8 d   1     -16.683 -16.385  -2.614  0.00  0.00     0.067 H 
BRANCH  23  26
ATOM     26  N28 7H8 d   1     -14.873 -15.992  -3.599  0.00  0.00    -0.350 N 
ATOM     27  C29 7H8 d   1     -13.395 -15.977  -3.664  0.00  0.00    -0.002 A 
ATOM     28  C30 7H8 d   1     -13.082 -15.417  -5.035  0.00  0.00    -0.042 A 
ATOM     29  H32 7H8 d   1     -12.991 -16.994  -3.558  0.00  0.00     0.064 H 
ATOM     30  H33 7H8 d   1     -12.978 -15.333  -2.876  0.00  0.00     0.064 H 
ATOM     31  C31 7H8 d   1     -14.426 -15.095  -5.696  0.00  0.00     0.011 A 
ATOM     32  H34 7H8 d   1     -12.477 -14.503  -4.942  0.00  0.00     0.036 H 
ATOM     33  H35 7H8 d   1     -12.534 -16.161  -5.632  0.00  0.00     0.036 H 
ATOM     34  C32 7H8 d   1     -15.474 -15.469  -4.679  0.00  0.00     0.219 A 
ATOM     35  H25 7H8 d   1     -14.554 -15.686  -6.615  0.00  0.00     0.047 H 
ATOM     36  H26 7H8 d   1     -14.489 -14.024  -5.937  0.00  0.00     0.047 H 
ATOM     37  O33 7H8 d   1     -16.679 -15.334  -4.794  0.00  0.00    -0.273 OA
ENDBRANCH  23  26
ENDBRANCH  14  23
ENDBRANCH   1   4
BRANCH   1  38
ATOM     38  C6  7H8 d   1     -15.170 -19.030  -4.934  0.00  0.00     0.250 C 
ATOM     39  O7  7H8 d   1     -14.117 -19.360  -4.436  0.00  0.00    -0.271 OA
ATOM     40  N8  7H8 d   1     -15.299 -18.816  -6.266  0.00  0.00    -0.314 N 
ATOM     41  C25 7H8 d   1     -14.262 -18.740  -7.188  0.00  0.00     0.063 A 
ATOM     42  C9  7H8 d   1     -16.569 -18.424  -6.897  0.00  0.00     0.015 C 
ATOM     43  C13 7H8 d   1     -14.772 -18.487  -8.473  0.00  0.00     0.070 A 
ATOM     44  C24 7H8 d   1     -12.886 -18.873  -7.041  0.00  0.00    -0.047 A 
ATOM     45  C10 7H8 d   1     -16.267 -18.377  -8.416  0.00  0.00     0.016 C 
ATOM     46  N14 7H8 d   1     -13.971 -18.345  -9.529  0.00  0.00    -0.262 NA
ATOM     47  C15 7H8 d   1     -12.649 -18.457  -9.348  0.00  0.00     0.009 A 
ATOM     48  C16 7H8 d   1     -12.042 -18.716  -8.134  0.00  0.00    -0.034 A 
ATOM     49  H16 7H8 d   1     -12.010 -18.336 -10.215  0.00  0.00     0.115 H 
ATOM     50  H21 7H8 d   1     -12.468 -19.101  -6.067  0.00  0.00     0.088 H 
ATOM     51  H27 7H8 d   1     -17.352 -19.166  -6.682  0.00  0.00     0.066 H 
ATOM     52  H28 7H8 d   1     -16.891 -17.436  -6.536  0.00  0.00     0.066 H 
BRANCH  45  53
ATOM     53  C11 7H8 d   1     -17.009 -19.513  -9.129  0.00  0.00    -0.062 C 
ATOM     54  H10 7H8 d   1     -18.094 -19.355  -9.039  0.00  0.00     0.029 H 
ATOM     55  H11 7H8 d   1     -16.739 -20.474  -8.667  0.00  0.00     0.029 H 
ATOM     56  H12 7H8 d   1     -16.727 -19.525 -10.192  0.00  0.00     0.029 H 
ENDBRANCH  45  53
BRANCH  45  57
ATOM     57  C12 7H8 d   1     -16.713 -17.044  -9.007  0.00  0.00    -0.062 C 
ATOM     58  H13 7H8 d   1     -16.185 -16.223  -8.500  0.00  0.00     0.029 H 
ATOM     59  H14 7H8 d   1     -17.797 -16.925  -8.866  0.00  0.00     0.029 H 
ATOM     60  H15 7H8 d   1     -16.479 -17.023 -10.082  0.00  0.00     0.029 H 
ENDBRANCH  45  57
BRANCH  48  61
ATOM     61  C17 7H8 d   1     -10.541 -18.864  -7.993  0.00  0.00    -0.016 C 
ATOM     62  H29 7H8 d   1     -10.258 -18.681  -6.946  0.00  0.00     0.047 H 
ATOM     63  H30 7H8 d   1     -10.044 -18.128  -8.642  0.00  0.00     0.047 H 
BRANCH  61  64
ATOM     64  C18 7H8 d   1     -10.096 -20.250  -8.389  0.00  0.00    -0.054 A 
ATOM     65  C19 7H8 d   1     -10.222 -21.314  -7.512  0.00  0.00    -0.077 A 
ATOM     66  C20 7H8 d   1      -9.823 -22.589  -7.880  0.00  0.00    -0.082 A 
ATOM     67  H17 7H8 d   1     -10.638 -21.148  -6.525  0.00  0.00     0.084 H 
ATOM     68  C21 7H8 d   1      -9.295 -22.816  -9.130  0.00  0.00    -0.083 A 
ATOM     69  H31 7H8 d   1      -9.927 -23.410  -7.181  0.00  0.00     0.083 H 
ATOM     70  C22 7H8 d   1      -9.155 -21.766 -10.010  0.00  0.00    -0.082 A 
ATOM     71  H18 7H8 d   1      -8.991 -23.815  -9.420  0.00  0.00     0.083 H 
ATOM     72  C23 7H8 d   1      -9.558 -20.492  -9.646  0.00  0.00    -0.077 A 
ATOM     73  H19 7H8 d   1      -8.728 -21.937 -10.991  0.00  0.00     0.083 H 
ATOM     74  H20 7H8 d   1      -9.452 -19.675 -10.350  0.00  0.00     0.084 H 
ENDBRANCH  61  64
ENDBRANCH  48  61
ENDBRANCH   1  38
TORSDOF 9
