REMARK  6 active torsions:
REMARK  status: ('A' for Active; 'I' for Inactive)
REMARK    1  A    between atoms: C3_3  and  C17_17 
REMARK    2  A    between atoms: N4_4  and  C11_11 
REMARK    3  A    between atoms: C17_17  and  N19_18 
REMARK    4  A    between atoms: C17_17  and  C29_28 
REMARK    5  A    between atoms: N19_18  and  C20_19 
REMARK    6  A    between atoms: C24_23  and  N28_27 
ROOT
ATOM      1  C20 7KA d   1      34.872  16.066  33.797  0.00  0.00     0.150 A 
ATOM      2  N21 7KA d   1      35.622  17.148  34.040  0.00  0.00    -0.223 NA
ATOM      3  C22 7KA d   1      35.197  18.372  33.770  0.00  0.00     0.091 A 
ATOM      4  N23 7KA d   1      34.007  18.601  33.232  0.00  0.00    -0.223 NA
ATOM      5  C24 7KA d   1      33.183  17.594  32.941  0.00  0.00     0.147 A 
ATOM      6  C25 7KA d   1      33.586  16.260  33.217  0.00  0.00     0.135 A 
ATOM      7  C26 7KA d   1      32.687  15.192  32.896  0.00  0.00     0.107 C 
ATOM      8  N27 7KA d   1      31.986  14.328  32.655  0.00  0.00    -0.191 NA
ATOM      9  H11 7KA d   1      35.842  19.213  33.996  0.00  0.00     0.146 H 
ENDROOT
BRANCH   1  10
ATOM     10  N19 7KA d   1      35.365  14.805  34.107  0.00  0.00    -0.362 N 
ATOM     11  H10 7KA d   1      34.839  13.968  33.818  0.00  0.00     0.162 HD
BRANCH  10  12
ATOM     12  C17 7KA d   1      36.628  14.650  34.842  0.00  0.00     0.067 C 
ATOM     13  H9  7KA d   1      36.750  15.476  35.558  0.00  0.00     0.084 H 
BRANCH  12  14
ATOM     14  C3  7KA d   1      37.759  14.649  33.845  0.00  0.00     0.157 A 
ATOM     15  N2  7KA d   1      37.492  14.149  32.683  0.00  0.00    -0.151 NA
ATOM     16  N1  7KA d   1      38.448  14.064  31.665  0.00  0.00    -0.238 N 
ATOM     17  C6  7KA d   1      39.732  14.508  31.904  0.00  0.00     0.126 A 
ATOM     18  C9  7KA d   1      38.394  13.591  30.406  0.00  0.00     0.005 A 
ATOM     19  C5  7KA d   1      40.022  15.076  33.216  0.00  0.00     0.282 A 
ATOM     20  C7  7KA d   1      40.473  14.313  30.761  0.00  0.00    -0.048 A 
ATOM     21  N4  7KA d   1      39.025  15.129  34.141  0.00  0.00    -0.261 N 
ATOM     22  O10 7KA d   1      41.139  15.492  33.452  0.00  0.00    -0.265 OA
ATOM     23  C8  7KA d   1      39.615  13.729  29.828  0.00  0.00    -0.064 A 
ATOM     24  H1  7KA d   1      41.522  14.565  30.613  0.00  0.00     0.087 H 
ATOM     25  H2  7KA d   1      39.879  13.435  28.813  0.00  0.00     0.085 H 
ATOM     26  H3  7KA d   1      37.513  13.166  29.928  0.00  0.00     0.114 H 
BRANCH  21  27
ATOM     27  C11 7KA d   1      39.334  15.712  35.375  0.00  0.00     0.044 A 
ATOM     28  C12 7KA d   1      40.005  15.014  36.376  0.00  0.00    -0.057 A 
ATOM     29  C13 7KA d   1      40.296  15.658  37.568  0.00  0.00    -0.081 A 
ATOM     30  H4  7KA d   1      40.296  13.981  36.225  0.00  0.00     0.086 H 
ATOM     31  C14 7KA d   1      39.926  16.984  37.758  0.00  0.00    -0.083 A 
ATOM     32  H5  7KA d   1      40.815  15.125  38.356  0.00  0.00     0.083 H 
ATOM     33  C15 7KA d   1      39.261  17.679  36.763  0.00  0.00    -0.081 A 
ATOM     34  H6  7KA d   1      40.160  17.478  38.694  0.00  0.00     0.083 H 
ATOM     35  C16 7KA d   1      38.972  17.045  35.569  0.00  0.00    -0.057 A 
ATOM     36  H7  7KA d   1      38.969  18.711  36.919  0.00  0.00     0.083 H 
ATOM     37  H8  7KA d   1      38.462  17.586  34.780  0.00  0.00     0.086 H 
ENDBRANCH  21  27
ENDBRANCH  12  14
BRANCH  12  38
ATOM     38  C29 7KA d   1      36.644  13.312  35.579  0.00  0.00    -0.051 C 
ATOM     39  H14 7KA d   1      37.593  13.206  36.126  0.00  0.00     0.030 H 
ATOM     40  H15 7KA d   1      36.546  12.492  34.852  0.00  0.00     0.030 H 
ATOM     41  H16 7KA d   1      35.805  13.275  36.290  0.00  0.00     0.030 H 
ENDBRANCH  12  38
ENDBRANCH  10  12
ENDBRANCH   1  10
BRANCH   5  42
ATOM     42  N28 7KA d   1      31.950  17.879  32.393  0.00  0.00    -0.383 N 
ATOM     43  H12 7KA d   1      31.300  17.114  32.162  0.00  0.00     0.157 HD
ATOM     44  H13 7KA d   1      31.679  18.857  32.215  0.00  0.00     0.157 HD
ENDBRANCH   5  42
TORSDOF 6
