REMARK  14 active torsions:
REMARK  status: ('A' for Active; 'I' for Inactive)
REMARK    1  A    between atoms: N12_1  and  C13_2 
REMARK    2  A    between atoms: N12_1  and  C11_33 
REMARK    3  A    between atoms: C14_34  and  N12_1 
REMARK    4  A    between atoms: C08_23  and  C26_8 
REMARK    5  A    between atoms: N38_11  and  C39_10 
REMARK    6  A    between atoms: N38_11  and  C40_12 
REMARK    7  A    between atoms: C37_13  and  N38_11 
REMARK    8  A    between atoms: C36_14  and  C37_13 
REMARK    9  A    between atoms: C35_15  and  C36_14 
REMARK   10  A    between atoms: S32_16  and  C35_15 
REMARK   11  A    between atoms: N29_19  and  S32_16 
REMARK   12  A    between atoms: C03_30  and  C02_31 
REMARK   13  A    between atoms: C02_31  and  C01_32 
REMARK   14  A    between atoms: C16_37  and  C19_38 
ROOT
ATOM      1  C08 7HR d   1      14.618  -0.542  30.064  0.00  0.00    -0.038 A 
ATOM      2  C09 7HR d   1      15.148   0.214  29.009  0.00  0.00    -0.005 A 
ATOM      3  N10 7HR d   1      14.436   0.299  27.812  0.00  0.00    -0.290 N 
ATOM      4  C07 7HR d   1      13.398  -1.170  29.816  0.00  0.00    -0.071 A 
ATOM      5  C06 7HR d   1      12.746  -1.037  28.588  0.00  0.00    -0.037 A 
ATOM      6  C05 7HR d   1      13.272  -0.312  27.610  0.00  0.00     0.135 A 
ATOM      7  N04 7HR d   1      12.842  -0.045  26.375  0.00  0.00    -0.231 NA
ATOM      8  C03 7HR d   1      13.763   0.738  25.814  0.00  0.00     0.081 A 
ATOM      9  C11 7HR d   1      14.749   0.978  26.710  0.00  0.00     0.142 A 
ATOM     10  H30 7HR d   1      16.102   0.728  29.122  0.00  0.00     0.113 H 
ATOM     11  H31 7HR d   1      12.944  -1.778  30.597  0.00  0.00     0.084 H 
ATOM     12  H32 7HR d   1      11.791  -1.536  28.431  0.00  0.00     0.089 H 
ENDROOT
BRANCH   1  13
ATOM     13  C26 7HR d   1      15.255  -0.726  31.331  0.00  0.00    -0.025 C 
ATOM     14  C31 7HR d   1      14.468  -0.052  32.503  0.00  0.00    -0.046 C 
ATOM     15  C30 7HR d   1      15.277  -0.120  33.868  0.00  0.00    -0.006 C 
ATOM     16  H26 7HR d   1      13.507  -0.571  32.632  0.00  0.00     0.035 H 
ATOM     17  H27 7HR d   1      14.284   1.002  32.249  0.00  0.00     0.035 H 
ATOM     18  N29 7HR d   1      16.690   0.243  33.588  0.00  0.00    -0.211 NA
ATOM     19  H24 7HR d   1      14.847   0.588  34.592  0.00  0.00     0.057 H 
ATOM     20  H25 7HR d   1      15.229  -1.139  34.279  0.00  0.00     0.057 H 
ATOM     21  C28 7HR d   1      17.314  -0.630  32.600  0.00  0.00    -0.006 C 
ATOM     22  C27 7HR d   1      16.676  -0.119  31.379  0.00  0.00    -0.046 C 
ATOM     23  H9  7HR d   1      17.071  -1.688  32.777  0.00  0.00     0.057 H 
ATOM     24  H10 7HR d   1      18.407  -0.504  32.574  0.00  0.00     0.057 H 
ATOM     25  H28 7HR d   1      16.618   0.979  31.413  0.00  0.00     0.035 H 
ATOM     26  H29 7HR d   1      17.250  -0.429  30.494  0.00  0.00     0.035 H 
ATOM     27  H8  7HR d   1      15.321  -1.808  31.518  0.00  0.00     0.047 H 
BRANCH  18  28
ATOM     28  S32 7HR d   1      17.739   0.412  35.016  0.00  0.00     0.211 S 
ATOM     29  O33 7HR d   1      16.861   0.308  36.264  0.00  0.00    -0.211 OA
ATOM     30  O34 7HR d   1      18.405   1.776  35.001  0.00  0.00    -0.211 OA
BRANCH  28  31
ATOM     31  C35 7HR d   1      19.076  -0.843  35.047  0.00  0.00     0.043 C 
ATOM     32  H22 7HR d   1      18.654  -1.859  35.035  0.00  0.00     0.058 H 
ATOM     33  H23 7HR d   1      19.748  -0.715  34.186  0.00  0.00     0.058 H 
BRANCH  31  34
ATOM     34  C36 7HR d   1      19.816  -0.586  36.346  0.00  0.00    -0.029 C 
ATOM     35  H20 7HR d   1      20.137   0.465  36.405  0.00  0.00     0.036 H 
ATOM     36  H21 7HR d   1      19.175  -0.823  37.208  0.00  0.00     0.036 H 
BRANCH  34  37
ATOM     37  C37 7HR d   1      21.030  -1.515  36.311  0.00  0.00     0.084 C 
ATOM     38  H18 7HR d   1      20.694  -2.561  36.366  0.00  0.00     0.075 H 
ATOM     39  H19 7HR d   1      21.586  -1.357  35.375  0.00  0.00     0.075 H 
BRANCH  37  40
ATOM     40  N38 7HR d   1      21.912  -1.217  37.467  0.00  0.00    -0.079 N 
ATOM     41  H14 7HR d   1      22.168  -0.245  37.549  0.00  0.00     0.278 HD
BRANCH  40  42
ATOM     42  C39 7HR d   1      23.081  -2.053  37.174  0.00  0.00     0.066 C 
ATOM     43  H11 7HR d   1      23.831  -1.926  37.969  0.00  0.00     0.068 H 
ATOM     44  H12 7HR d   1      23.515  -1.751  36.209  0.00  0.00     0.068 H 
ATOM     45  H13 7HR d   1      22.774  -3.108  37.124  0.00  0.00     0.068 H 
ENDBRANCH  40  42
BRANCH  40  46
ATOM     46  C40 7HR d   1      21.096  -1.648  38.611  0.00  0.00     0.066 C 
ATOM     47  H15 7HR d   1      20.251  -0.955  38.741  0.00  0.00     0.068 H 
ATOM     48  H16 7HR d   1      21.713  -1.649  39.522  0.00  0.00     0.068 H 
ATOM     49  H17 7HR d   1      20.713  -2.663  38.427  0.00  0.00     0.068 H 
ENDBRANCH  40  46
ENDBRANCH  37  40
ENDBRANCH  34  37
ENDBRANCH  31  34
ENDBRANCH  28  31
ENDBRANCH  18  28
ENDBRANCH   1  13
BRANCH   9  50
ATOM     50  N12 7HR d   1      15.911   1.639  26.623  0.00  0.00    -0.314 N 
BRANCH  50  51
ATOM     51  C13 7HR d   1      17.127   0.827  26.527  0.00  0.00    -0.010 C 
ATOM     52  H1  7HR d   1      16.870  -0.235  26.658  0.00  0.00     0.057 H 
ATOM     53  H2  7HR d   1      17.835   1.133  27.312  0.00  0.00     0.057 H 
ATOM     54  H3  7HR d   1      17.589   0.973  25.539  0.00  0.00     0.057 H 
ENDBRANCH  50  51
BRANCH  50  55
ATOM     55  C14 7HR d   1      16.006   2.963  26.491  0.00  0.00     0.174 A 
ATOM     56  N15 7HR d   1      17.127   3.699  26.475  0.00  0.00    -0.223 NA
ATOM     57  C16 7HR d   1      16.859   5.006  26.315  0.00  0.00     0.076 A 
ATOM     58  C17 7HR d   1      15.560   5.275  26.197  0.00  0.00    -0.013 A 
ATOM     59  S18 7HR d   1      14.804   3.879  26.301  0.00  0.00    -0.061 SA
ATOM     60  H4  7HR d   1      15.106   6.255  26.057  0.00  0.00     0.098 H 
BRANCH  57  61
ATOM     61  C19 7HR d   1      17.787   5.958  26.231  0.00  0.00    -0.007 A 
ATOM     62  C20 7HR d   1      19.113   5.672  26.538  0.00  0.00    -0.068 A 
ATOM     63  C21 7HR d   1      20.084   6.665  26.432  0.00  0.00    -0.045 A 
ATOM     64  H5  7HR d   1      19.391   4.675  26.860  0.00  0.00     0.085 H 
ATOM     65  C22 7HR d   1      19.742   7.946  25.985  0.00  0.00     0.116 A 
ATOM     66  H6  7HR d   1      21.111   6.444  26.698  0.00  0.00     0.088 H 
ATOM     67  C24 7HR d   1      18.422   8.239  25.649  0.00  0.00    -0.045 A 
ATOM     68  F23 7HR d   1      20.676   8.894  25.876  0.00  0.00    -0.206 F 
ATOM     69  C25 7HR d   1      17.454   7.245  25.772  0.00  0.00    -0.068 A 
ATOM     70  H7  7HR d   1      18.152   9.228  25.296  0.00  0.00     0.088 H 
ATOM     71  H38 7HR d   1      16.426   7.467  25.509  0.00  0.00     0.085 H 
ENDBRANCH  57  61
ENDBRANCH  50  55
ENDBRANCH   9  50
BRANCH   8  72
ATOM     72  C02 7HR d   1      13.591   1.266  24.390  0.00  0.00    -0.024 C 
ATOM     73  H33 7HR d   1      13.707   2.360  24.379  0.00  0.00     0.042 H 
ATOM     74  H34 7HR d   1      12.594   1.000  24.010  0.00  0.00     0.042 H 
BRANCH  72  75
ATOM     75  C01 7HR d   1      14.663   0.623  23.526  0.00  0.00    -0.071 C 
ATOM     76  H35 7HR d   1      14.566   0.984  22.491  0.00  0.00     0.028 H 
ATOM     77  H36 7HR d   1      14.543  -0.470  23.546  0.00  0.00     0.028 H 
ATOM     78  H37 7HR d   1      15.657   0.890  23.915  0.00  0.00     0.028 H 
ENDBRANCH  72  75
ENDBRANCH   8  72
TORSDOF 14
