REMARK  8 active torsions:
REMARK  status: ('A' for Active; 'I' for Inactive)
REMARK    1  A    between atoms: C10_2  and  C12_3 
REMARK       I    between atoms: C10_2  and  N4_4 
REMARK    2  A    between atoms: N4_4  and  C2_5 
REMARK    3  A    between atoms: C3_6  and  O3_7 
REMARK    4  A    between atoms: C4_8  and  O4_9 
REMARK    5  A    between atoms: C5_10  and  C6_11 
REMARK    6  A    between atoms: C6_11  and  O5_12 
REMARK    7  A    between atoms: C8_16  and  C9_18 
REMARK       I    between atoms: C9_18  and  N3_20 
REMARK    8  A    between atoms: N3_20  and  C11_21 
ROOT
ATOM      1  C2  GDV d   1     -21.496  -1.829  26.967  0.00  0.00     0.097 C 
ATOM      2  C3  GDV d   1     -20.174  -1.141  26.523  0.00  0.00     0.088 C 
ATOM      3  C4  GDV d   1     -18.862  -1.920  26.863  0.00  0.00     0.084 C 
ATOM      4  C5  GDV d   1     -19.010  -3.377  26.361  0.00  0.00     0.065 C 
ATOM      5  C1  GDV d   1     -21.267  -3.249  27.347  0.00  0.00     0.133 A 
ATOM      6  N1  GDV d   1     -20.151  -3.948  27.117  0.00  0.00    -0.332 N 
ATOM      7  C7  GDV d   1     -20.295  -5.164  27.668  0.00  0.00     0.015 A 
ATOM      8  C8  GDV d   1     -21.537  -5.196  28.266  0.00  0.00     0.142 A 
ATOM      9  N2  GDV d   1     -22.104  -4.015  28.056  0.00  0.00    -0.226 NA
ATOM     10  H5  GDV d   1     -21.811  -1.314  27.886  0.00  0.00     0.089 H 
ATOM     11  H6  GDV d   1     -20.202  -1.036  25.428  0.00  0.00     0.090 H 
ATOM     12  H8  GDV d   1     -18.738  -1.933  27.956  0.00  0.00     0.090 H 
ATOM     13  H10 GDV d   1     -19.262  -3.344  25.291  0.00  0.00     0.080 H 
ATOM     14  H14 GDV d   1     -19.567  -5.974  27.647  0.00  0.00     0.115 H 
ENDROOT
BRANCH   8  15
ATOM     15  C9  GDV d   1     -22.157  -6.322  28.999  0.00  0.00     0.276 C 
ATOM     16  O2  GDV d   1     -23.346  -6.437  28.857  0.00  0.00    -0.266 OA
ATOM     17  N3  GDV d   1     -21.356  -7.110  29.723  0.00  0.00    -0.322 N 
ATOM     18  H15 GDV d   1     -20.422  -6.777  29.854  0.00  0.00     0.169 HD
BRANCH  17  19
ATOM     19  C11 GDV d   1     -21.646  -8.309  30.307  0.00  0.00     0.035 A 
ATOM     20  C17 GDV d   1     -20.573  -8.992  30.910  0.00  0.00    -0.057 A 
ATOM     21  C16 GDV d   1     -20.760 -10.234  31.528  0.00  0.00    -0.081 A 
ATOM     22  H16 GDV d   1     -19.584  -8.548  30.895  0.00  0.00     0.086 H 
ATOM     23  C15 GDV d   1     -22.028 -10.814  31.549  0.00  0.00    -0.083 A 
ATOM     24  H17 GDV d   1     -19.922 -10.743  31.989  0.00  0.00     0.083 H 
ATOM     25  C14 GDV d   1     -23.102 -10.155  30.949  0.00  0.00    -0.081 A 
ATOM     26  H18 GDV d   1     -22.179 -11.774  32.030  0.00  0.00     0.083 H 
ATOM     27  C13 GDV d   1     -22.912  -8.919  30.333  0.00  0.00    -0.057 A 
ATOM     28  H19 GDV d   1     -24.088 -10.606  30.962  0.00  0.00     0.083 H 
ATOM     29  H20 GDV d   1     -23.754  -8.420  29.867  0.00  0.00     0.086 H 
ENDBRANCH  17  19
ENDBRANCH   8  15
BRANCH   4  30
ATOM     30  C6  GDV d   1     -17.787  -4.274  26.509  0.00  0.00     0.038 C 
ATOM     31  H11 GDV d   1     -16.932  -3.832  25.977  0.00  0.00     0.077 H 
ATOM     32  H12 GDV d   1     -18.002  -5.270  26.095  0.00  0.00     0.077 H 
BRANCH  30  33
ATOM     33  O5  GDV d   1     -17.488  -4.382  27.902  0.00  0.00    -0.399 OA
ATOM     34  H13 GDV d   1     -16.727  -4.938  28.019  0.00  0.00     0.209 HD
ENDBRANCH  30  33
ENDBRANCH   4  30
BRANCH   1  35
ATOM     35  N4  GDV d   1     -22.592  -1.661  26.030  0.00  0.00    -0.347 N 
ATOM     36  C10 GDV d   1     -22.593  -2.140  24.796  0.00  0.00     0.214 C 
ATOM     37  O1  GDV d   1     -21.687  -2.829  24.379  0.00  0.00    -0.274 OA
ATOM     38  H4  GDV d   1     -23.396  -1.152  26.336  0.00  0.00     0.163 HD
BRANCH  36  39
ATOM     39  C12 GDV d   1     -23.736  -1.758  23.911  0.00  0.00    -0.003 C 
ATOM     40  H1  GDV d   1     -24.445  -1.136  24.476  0.00  0.00     0.040 H 
ATOM     41  H2  GDV d   1     -24.246  -2.667  23.558  0.00  0.00     0.040 H 
ATOM     42  H3  GDV d   1     -23.358  -1.190  23.048  0.00  0.00     0.040 H 
ENDBRANCH  36  39
ENDBRANCH   1  35
BRANCH   3  43
ATOM     43  O4  GDV d   1     -17.687  -1.297  26.286  0.00  0.00    -0.391 OA
ATOM     44  H9  GDV d   1     -16.916  -1.802  26.517  0.00  0.00     0.210 HD
ENDBRANCH   3  43
BRANCH   2  45
ATOM     45  O3  GDV d   1     -20.189   0.167  27.104  0.00  0.00    -0.390 OA
ATOM     46  H7  GDV d   1     -19.396   0.630  26.860  0.00  0.00     0.210 HD
ENDBRANCH   2  45
TORSDOF 8
