REMARK WARNING: 32 MAX_TORS EXCEEDED!!!
REMARK  61 active torsions:
REMARK  status: ('A' for Active; 'I' for Inactive)
REMARK    1  A    between atoms: N_1  and  CA_2 
REMARK    2  A    between atoms: CA_2  and  C_3 
REMARK    3  A    between atoms: CA_2  and  CB_5 
REMARK       I    between atoms: C_3  and  N_8 
REMARK    4  A    between atoms: CB_5  and  OG1_6 
REMARK    5  A    between atoms: CB_5  and  CG2_7 
REMARK    6  A    between atoms: N_8  and  CA_9 
REMARK    7  A    between atoms: CA_9  and  C_10 
REMARK    8  A    between atoms: CA_9  and  CB_12 
REMARK       I    between atoms: C_10  and  N_14 
REMARK    9  A    between atoms: CB_12  and  OG_13 
REMARK   10  A    between atoms: CA_15  and  C_16 
REMARK       I    between atoms: C_16  and  N_21 
REMARK   11  A    between atoms: N_21  and  CA_22 
REMARK   12  A    between atoms: CA_22  and  CB_23 
REMARK   13  A    between atoms: CA_22  and  C_25 
REMARK   14  A    between atoms: CB_23  and  OG_24 
REMARK   15  A    between atoms: OG_24  and  P_27 
REMARK       I    between atoms: C_25  and  N_31 
REMARK   16  A    between atoms: N_31  and  CA_32 
REMARK   17  A    between atoms: CA_32  and  C_33 
REMARK   18  A    between atoms: CA_32  and  CB_35 
REMARK       I    between atoms: C_33  and  N_43 
REMARK   19  A    between atoms: CB_35  and  CG_36 
REMARK   20  A    between atoms: CZ_41  and  OH_42 
REMARK   21  A    between atoms: N_43  and  CA_44 
REMARK   22  A    between atoms: CA_44  and  CB_45 
REMARK   23  A    between atoms: CA_44  and  C_47 
REMARK   24  A    between atoms: CB_45  and  OG_46 
REMARK   25  A    between atoms: OG_46  and  P_49 
REMARK       I    between atoms: C_47  and  N_53 
REMARK   26  A    between atoms: CA_54  and  C_55 
REMARK       I    between atoms: C_55  and  N_60 
REMARK   27  A    between atoms: N_60  and  CA_61 
REMARK   28  A    between atoms: CA_61  and  C_62 
REMARK   29  A    between atoms: CA_61  and  CB_64 
REMARK       I    between atoms: C_62  and  N_67 
REMARK   30  A    between atoms: CB_64  and  OG1_65 
REMARK   31  A    between atoms: CB_64  and  CG2_66 
REMARK   32  A    between atoms: N_67  and  CA_68 
REMARK   33  A    between atoms: CA_68  and  C_69 
REMARK   34  A    between atoms: CA_68  and  CB_71 
REMARK       I    between atoms: C_69  and  N_73 
REMARK   35  A    between atoms: CB_71  and  OG_72 
REMARK   36  A    between atoms: CA_74  and  C_75 
REMARK       I    between atoms: C_75  and  N_80 
REMARK   37  A    between atoms: N_80  and  CA_81 
REMARK   38  A    between atoms: CA_81  and  CB_82 
REMARK   39  A    between atoms: CA_81  and  C_84 
REMARK   40  A    between atoms: CB_82  and  OG_83 
REMARK   41  A    between atoms: OG_83  and  P_86 
REMARK       I    between atoms: C_84  and  N_90 
REMARK   42  A    between atoms: N_90  and  CA_91 
REMARK   43  A    between atoms: CA_91  and  C_92 
REMARK   44  A    between atoms: CA_91  and  CB_94 
REMARK       I    between atoms: C_92  and  N_102 
REMARK   45  A    between atoms: CB_94  and  CG_95 
REMARK   46  A    between atoms: CZ_100  and  OH_101 
REMARK   47  A    between atoms: N_102  and  CA_103 
REMARK   48  A    between atoms: CA_103  and  CB_104 
REMARK   49  A    between atoms: CA_103  and  C_106 
REMARK   50  A    between atoms: CB_104  and  OG_105 
REMARK   51  A    between atoms: OG_105  and  P_108 
REMARK       I    between atoms: C_106  and  N_112 
REMARK   52  A    between atoms: CA_113  and  C_114 
REMARK       I    between atoms: C_114  and  N_119 
REMARK   53  A    between atoms: N_119  and  CA_120 
REMARK   54  A    between atoms: CA_120  and  C_121 
REMARK   55  A    between atoms: CA_120  and  CB_123 
REMARK       I    between atoms: C_121  and  N_126 
REMARK   56  A    between atoms: CB_123  and  OG1_124 
REMARK   57  A    between atoms: CB_123  and  CG2_125 
REMARK   58  A    between atoms: N_126  and  CA_127 
REMARK   59  A    between atoms: CA_127  and  C_128 
REMARK   60  A    between atoms: CA_127  and  CB_130 
REMARK   61  A    between atoms: CB_130  and  OG_131 
ROOT
ATOM      1  CA  THR d   1      19.166 -19.490 -24.990  0.00  0.00     0.113 C 
ATOM      2  H47 THR d   1      18.816 -18.481 -25.253  0.00  0.00     0.091 H 
ENDROOT
BRANCH   1   3
ATOM      3  N   THR d   1      19.961 -19.398 -23.768  0.00  0.00    -0.344 N 
ATOM      4  C   PRO d   1      19.772 -18.435 -22.860  0.00  0.00     0.241 C 
ATOM      5  O   PRO d   1      18.925 -17.555 -23.005  0.00  0.00    -0.271 OA
ATOM      6  H46 THR d   1      20.673 -20.081 -23.605  0.00  0.00     0.163 HD
BRANCH   4   7
ATOM      7  CA  PRO d   1      20.642 -18.436 -21.598  0.00  0.00     0.091 C 
ATOM      8  N   PRO d   1      21.476 -19.617 -21.402  0.00  0.00    -0.337 N 
ATOM      9  C   SEP d   1      21.016 -20.877 -21.343  0.00  0.00     0.245 C 
ATOM     10  CD  PRO d   1      22.869 -19.242 -21.249  0.00  0.00    -0.001 C 
ATOM     11  O   SEP d   1      19.840 -21.154 -21.577  0.00  0.00    -0.271 OA
ATOM     12  CG  PRO d   1      22.854 -17.764 -20.891  0.00  0.00    -0.048 C 
ATOM     13  H44 PRO d   1      23.416 -19.404 -22.189  0.00  0.00     0.064 H 
ATOM     14  H45 PRO d   1      23.339 -19.828 -20.445  0.00  0.00     0.064 H 
ATOM     15  CB  PRO d   1      21.613 -17.252 -21.615  0.00  0.00    -0.036 C 
ATOM     16  H42 PRO d   1      22.766 -17.621 -19.804  0.00  0.00     0.035 H 
ATOM     17  H43 PRO d   1      23.761 -17.259 -21.255  0.00  0.00     0.035 H 
ATOM     18  H40 PRO d   1      21.183 -16.389 -21.086  0.00  0.00     0.036 H 
ATOM     19  H41 PRO d   1      21.857 -16.964 -22.648  0.00  0.00     0.036 H 
ATOM     20  H39 PRO d   1      19.967 -18.343 -20.735  0.00  0.00     0.087 H 
BRANCH   9  21
ATOM     21  CA  SEP d   1      21.994 -21.998 -20.968  0.00  0.00     0.110 C 
ATOM     22  H36 SEP d   1      23.020 -21.602 -20.966  0.00  0.00     0.090 H 
BRANCH  21  23
ATOM     23  N   SEP d   1      21.620 -22.445 -19.637  0.00  0.00    -0.344 N 
ATOM     24  C   TYR d   1      22.468 -22.898 -18.709  0.00  0.00     0.241 C 
ATOM     25  O   TYR d   1      23.671 -23.065 -18.908  0.00  0.00    -0.271 OA
ATOM     26  H35 SEP d   1      20.650 -22.411 -19.396  0.00  0.00     0.163 HD
BRANCH  24  27
ATOM     27  CA  TYR d   1      21.842 -23.208 -17.348  0.00  0.00     0.093 C 
ATOM     28  H27 TYR d   1      20.750 -23.247 -17.471  0.00  0.00     0.088 H 
BRANCH  27  29
ATOM     29  N   TYR d   1      22.296 -24.488 -16.819  0.00  0.00    -0.346 N 
ATOM     30  C   SEP d   1      21.581 -25.170 -15.917  0.00  0.00     0.243 C 
ATOM     31  O   SEP d   1      20.486 -24.782 -15.511  0.00  0.00    -0.271 OA
ATOM     32  H26 TYR d   1      23.165 -24.866 -17.139  0.00  0.00     0.163 HD
BRANCH  30  33
ATOM     33  CA  SEP d   1      22.181 -26.474 -15.400  0.00  0.00     0.110 C 
ATOM     34  H23 SEP d   1      23.276 -26.369 -15.372  0.00  0.00     0.090 H 
BRANCH  33  35
ATOM     35  N   SEP d   1      21.706 -26.772 -14.056  0.00  0.00    -0.344 N 
ATOM     36  C   PRO d   1      21.860 -25.951 -13.014  0.00  0.00     0.241 C 
ATOM     37  O   PRO d   1      22.443 -24.871 -13.105  0.00  0.00    -0.271 OA
ATOM     38  H22 SEP d   1      21.237 -27.642 -13.905  0.00  0.00     0.163 HD
BRANCH  36  39
ATOM     39  CA  PRO d   1      21.277 -26.402 -11.675  0.00  0.00     0.091 C 
ATOM     40  N   PRO d   1      21.525 -25.397 -10.654  0.00  0.00    -0.337 N 
ATOM     41  C   SER d   1      22.731 -25.188 -10.105  0.00  0.00     0.245 C 
ATOM     42  CD  PRO d   1      20.304 -24.670 -10.338  0.00  0.00    -0.001 C 
ATOM     43  O   SER d   1      23.697 -25.907 -10.346  0.00  0.00    -0.271 OA
ATOM     44  CG  PRO d   1      19.293 -25.098 -11.403  0.00  0.00    -0.048 C 
ATOM     45  H20 PRO d   1      20.478 -23.585 -10.386  0.00  0.00     0.064 H 
ATOM     46  H21 PRO d   1      19.944 -24.940  -9.334  0.00  0.00     0.064 H 
ATOM     47  CB  PRO d   1      19.754 -26.510 -11.750  0.00  0.00    -0.036 C 
ATOM     48  H18 PRO d   1      18.270 -25.102 -11.000  0.00  0.00     0.035 H 
ATOM     49  H19 PRO d   1      19.338 -24.438 -12.282  0.00  0.00     0.035 H 
ATOM     50  H16 PRO d   1      19.373 -27.241 -11.021  0.00  0.00     0.036 H 
ATOM     51  H17 PRO d   1      19.427 -26.796 -12.761  0.00  0.00     0.036 H 
ATOM     52  H15 PRO d   1      21.720 -27.367 -11.388  0.00  0.00     0.087 H 
BRANCH  41  53
ATOM     53  CA  SER d   1      22.882 -24.007  -9.147  0.00  0.00     0.109 C 
ATOM     54  H11 SER d   1      22.414 -23.129  -9.615  0.00  0.00     0.090 H 
BRANCH  53  55
ATOM     55  N   SER d   1      22.213 -24.258  -7.878  0.00  0.00    -0.344 N 
ATOM     56  C   THR d   1      21.340 -23.400  -7.345  0.00  0.00     0.251 C 
ATOM     57  O   THR d   1      21.027 -22.341  -7.885  0.00  0.00    -0.271 OA
ATOM     58  H10 SER d   1      22.415 -25.105  -7.387  0.00  0.00     0.163 HD
BRANCH  56  59
ATOM     59  CA  THR d   1      20.721 -23.779  -6.006  0.00  0.00     0.199 C 
ATOM     60  H4  THR d   1      21.493 -24.254  -5.383  0.00  0.00     0.103 H 
BRANCH  59  61
ATOM     61  N   THR d   1      20.240 -22.571  -5.311  0.00  0.00    -0.064 N 
ATOM     62  H1  THR d   1      21.006 -21.929  -5.184  0.00  0.00     0.275 HD
ATOM     63  H2  THR d   1      19.865 -22.828  -4.411  0.00  0.00     0.275 HD
ATOM     64  H3  THR d   1      19.520 -22.131  -5.862  0.00  0.00     0.275 HD
ENDBRANCH  59  61
BRANCH  59  65
ATOM     65  CB  THR d   1      19.585 -24.782  -6.218  0.00  0.00     0.068 C 
ATOM     66  H5  THR d   1      18.967 -24.445  -7.063  0.00  0.00     0.086 H 
BRANCH  65  67
ATOM     67  OG1 THR d   1      18.788 -24.850  -5.056  0.00  0.00    -0.393 OA
ATOM     68  H6  THR d   1      18.422 -23.992  -4.874  0.00  0.00     0.210 HD
ENDBRANCH  65  67
BRANCH  65  69
ATOM     69  CG2 THR d   1      20.129 -26.178  -6.525  0.00  0.00    -0.050 C 
ATOM     70  H7  THR d   1      19.290 -26.874  -6.672  0.00  0.00     0.031 H 
ATOM     71  H8  THR d   1      20.749 -26.523  -5.684  0.00  0.00     0.031 H 
ATOM     72  H9  THR d   1      20.739 -26.141  -7.439  0.00  0.00     0.031 H 
ENDBRANCH  65  69
ENDBRANCH  59  65
ENDBRANCH  56  59
ENDBRANCH  53  55
BRANCH  53  73
ATOM     73  CB  SER d   1      24.356 -23.690  -8.897  0.00  0.00     0.044 C 
ATOM     74  H12 SER d   1      24.904 -23.745  -9.849  0.00  0.00     0.077 H 
ATOM     75  H13 SER d   1      24.770 -24.426  -8.192  0.00  0.00     0.077 H 
BRANCH  73  76
ATOM     76  OG  SER d   1      24.499 -22.394  -8.353  0.00  0.00    -0.398 OA
ATOM     77  H14 SER d   1      24.028 -22.344  -7.529  0.00  0.00     0.209 HD
ENDBRANCH  73  76
ENDBRANCH  53  73
ENDBRANCH  41  53
ENDBRANCH  36  39
ENDBRANCH  33  35
BRANCH  33  78
ATOM     78  CB  SEP d   1      21.820 -27.626 -16.333  0.00  0.00     0.059 C 
ATOM     79  H24 SEP d   1      22.257 -27.437 -17.325  0.00  0.00     0.079 H 
ATOM     80  H25 SEP d   1      20.725 -27.689 -16.421  0.00  0.00     0.079 H 
BRANCH  78  81
ATOM     81  OG  SEP d   1      22.316 -28.851 -15.834  0.00  0.00    -0.280 OA
BRANCH  81  82
ATOM     82  P   SEP d   1      21.349 -29.956 -15.166  0.00  0.00     0.422 P 
ATOM     83  O1P SEP d   1      20.412 -30.299 -16.262  0.00  0.00    -0.617 OA
ATOM     84  O2P SEP d   1      22.288 -31.033 -14.791  0.00  0.00    -0.617 OA
ATOM     85  O3P SEP d   1      20.736 -29.245 -14.021  0.00  0.00    -0.617 OA
ENDBRANCH  81  82
ENDBRANCH  78  81
ENDBRANCH  33  78
ENDBRANCH  30  33
ENDBRANCH  27  29
BRANCH  27  86
ATOM     86  CB  TYR d   1      22.189 -22.108 -16.340  0.00  0.00    -0.014 C 
ATOM     87  H28 TYR d   1      23.262 -22.189 -16.111  0.00  0.00     0.043 H 
ATOM     88  H29 TYR d   1      21.604 -22.293 -15.427  0.00  0.00     0.043 H 
BRANCH  86  89
ATOM     89  CG  TYR d   1      21.917 -20.684 -16.784  0.00  0.00    -0.056 A 
ATOM     90  CD1 TYR d   1      20.836 -20.380 -17.625  0.00  0.00    -0.074 A 
ATOM     91  CE1 TYR d   1      20.590 -19.051 -18.004  0.00  0.00    -0.051 A 
ATOM     92  H30 TYR d   1      20.189 -21.173 -17.983  0.00  0.00     0.084 H 
ATOM     93  CZ  TYR d   1      21.432 -18.018 -17.543  0.00  0.00     0.065 A 
ATOM     94  H32 TYR d   1      19.752 -18.819 -18.651  0.00  0.00     0.087 H 
ATOM     95  CE2 TYR d   1      22.524 -18.335 -16.713  0.00  0.00    -0.051 A 
ATOM     96  CD2 TYR d   1      22.762 -19.661 -16.334  0.00  0.00    -0.074 A 
ATOM     97  H33 TYR d   1      23.184 -17.548 -16.366  0.00  0.00     0.087 H 
ATOM     98  H31 TYR d   1      23.602 -19.897 -15.691  0.00  0.00     0.084 H 
BRANCH  93  99
ATOM     99  OH  TYR d   1      21.189 -16.722 -17.892  0.00  0.00    -0.361 OA
ATOM    100  H34 TYR d   1      20.422 -16.684 -18.451  0.00  0.00     0.217 HD
ENDBRANCH  93  99
ENDBRANCH  86  89
ENDBRANCH  27  86
ENDBRANCH  24  27
ENDBRANCH  21  23
BRANCH  21 101
ATOM    101  CB  SEP d   1      21.924 -23.202 -21.909  0.00  0.00     0.059 C 
ATOM    102  H37 SEP d   1      20.870 -23.387 -22.165  0.00  0.00     0.079 H 
ATOM    103  H38 SEP d   1      22.334 -24.079 -21.387  0.00  0.00     0.079 H 
BRANCH 101 104
ATOM    104  OG  SEP d   1      22.652 -23.008 -23.106  0.00  0.00    -0.280 OA
BRANCH 104 105
ATOM    105  P   SEP d   1      22.046 -22.211 -24.368  0.00  0.00     0.422 P 
ATOM    106  O1P SEP d   1      22.873 -22.691 -25.498  0.00  0.00    -0.617 OA
ATOM    107  O2P SEP d   1      20.627 -22.631 -24.405  0.00  0.00    -0.617 OA
ATOM    108  O3P SEP d   1      22.268 -20.786 -24.025  0.00  0.00    -0.617 OA
ENDBRANCH 104 105
ENDBRANCH 101 104
ENDBRANCH  21 101
ENDBRANCH   9  21
ENDBRANCH   4   7
ENDBRANCH   1   3
BRANCH   1 109
ATOM    109  C   THR d   1      17.945 -20.389 -24.784  0.00  0.00     0.243 C 
ATOM    110  O   THR d   1      17.080 -20.460 -25.654  0.00  0.00    -0.271 OA
ATOM    111  N   SER d   1      17.873 -21.076 -23.638  0.00  0.00    -0.344 N 
ATOM    112  H53 SER d   1      18.596 -20.944 -22.960  0.00  0.00     0.163 HD
BRANCH 111 113
ATOM    113  CA  SER d   1      16.798 -22.005 -23.328  0.00  0.00     0.109 C 
ATOM    114  H54 SER d   1      16.448 -22.435 -24.278  0.00  0.00     0.090 H 
BRANCH 113 115
ATOM    115  C   SER d   1      15.573 -21.389 -22.630  0.00  0.00     0.245 C 
ATOM    116  O   SER d   1      14.460 -21.809 -22.942  0.00  0.00    -0.271 OA
ATOM    117  N   PRO d   1      15.713 -20.422 -21.707  0.00  0.00    -0.337 N 
ATOM    118  CA  PRO d   1      14.591 -19.927 -20.923  0.00  0.00     0.091 C 
ATOM    119  CD  PRO d   1      16.932 -19.734 -21.320  0.00  0.00    -0.001 C 
ATOM    120  CB  PRO d   1      15.214 -19.141 -19.773  0.00  0.00    -0.036 C 
ATOM    121  H58 PRO d   1      14.027 -20.781 -20.520  0.00  0.00     0.087 H 
ATOM    122  CG  PRO d   1      16.496 -18.599 -20.395  0.00  0.00    -0.048 C 
ATOM    123  H59 PRO d   1      15.434 -19.797 -18.918  0.00  0.00     0.036 H 
ATOM    124  H60 PRO d   1      14.554 -18.323 -19.448  0.00  0.00     0.036 H 
ATOM    125  H61 PRO d   1      17.257 -18.401 -19.625  0.00  0.00     0.035 H 
ATOM    126  H62 PRO d   1      16.301 -17.678 -20.963  0.00  0.00     0.035 H 
ATOM    127  H63 PRO d   1      17.442 -19.330 -22.207  0.00  0.00     0.064 H 
ATOM    128  H64 PRO d   1      17.608 -20.421 -20.790  0.00  0.00     0.064 H 
BRANCH 118 129
ATOM    129  C   PRO d   1      13.626 -19.066 -21.737  0.00  0.00     0.241 C 
ATOM    130  O   PRO d   1      13.896 -18.717 -22.886  0.00  0.00    -0.271 OA
ATOM    131  N   SEP d   1      12.497 -18.736 -21.100  0.00  0.00    -0.344 N 
ATOM    132  H65 SEP d   1      12.415 -19.055 -20.156  0.00  0.00     0.163 HD
BRANCH 131 133
ATOM    133  CA  SEP d   1      11.371 -17.966 -21.619  0.00  0.00     0.110 C 
ATOM    134  H66 SEP d   1      10.747 -18.648 -22.215  0.00  0.00     0.090 H 
BRANCH 133 135
ATOM    135  CB  SEP d   1      10.544 -17.440 -20.443  0.00  0.00     0.059 C 
ATOM    136  H67 SEP d   1       9.763 -16.768 -20.827  0.00  0.00     0.079 H 
ATOM    137  H68 SEP d   1      11.204 -16.883 -19.762  0.00  0.00     0.079 H 
BRANCH 135 138
ATOM    138  OG  SEP d   1       9.930 -18.498 -19.727  0.00  0.00    -0.280 OA
BRANCH 138 139
ATOM    139  P   SEP d   1      10.485 -19.018 -18.305  0.00  0.00     0.422 P 
ATOM    140  O1P SEP d   1      11.901 -19.349 -18.577  0.00  0.00    -0.617 OA
ATOM    141  O2P SEP d   1      10.284 -17.858 -17.406  0.00  0.00    -0.617 OA
ATOM    142  O3P SEP d   1       9.624 -20.179 -18.004  0.00  0.00    -0.617 OA
ENDBRANCH 138 139
ENDBRANCH 135 138
ENDBRANCH 133 135
BRANCH 133 143
ATOM    143  C   SEP d   1      11.760 -16.793 -22.515  0.00  0.00     0.243 C 
ATOM    144  O   SEP d   1      12.852 -16.241 -22.408  0.00  0.00    -0.271 OA
ATOM    145  N   TYR d   1      10.834 -16.422 -23.409  0.00  0.00    -0.346 N 
ATOM    146  H69 TYR d   1       9.998 -16.968 -23.459  0.00  0.00     0.163 HD
BRANCH 145 147
ATOM    147  CA  TYR d   1      10.950 -15.283 -24.316  0.00  0.00     0.093 C 
ATOM    148  H70 TYR d   1      11.413 -14.439 -23.783  0.00  0.00     0.088 H 
BRANCH 147 149
ATOM    149  C   TYR d   1       9.565 -14.867 -24.808  0.00  0.00     0.241 C 
ATOM    150  O   TYR d   1       9.345 -13.690 -25.088  0.00  0.00    -0.271 OA
ATOM    151  N   SEP d   1       8.648 -15.835 -24.905  0.00  0.00    -0.344 N 
ATOM    152  H78 SEP d   1       8.954 -16.779 -24.783  0.00  0.00     0.163 HD
BRANCH 151 153
ATOM    153  CA  SEP d   1       7.234 -15.611 -25.176  0.00  0.00     0.110 C 
ATOM    154  H79 SEP d   1       6.948 -14.610 -24.822  0.00  0.00     0.090 H 
BRANCH 153 155
ATOM    155  CB  SEP d   1       6.975 -15.701 -26.684  0.00  0.00     0.059 C 
ATOM    156  H80 SEP d   1       5.896 -15.602 -26.871  0.00  0.00     0.079 H 
ATOM    157  H81 SEP d   1       7.322 -16.678 -27.052  0.00  0.00     0.079 H 
BRANCH 155 158
ATOM    158  OG  SEP d   1       7.660 -14.677 -27.373  0.00  0.00    -0.280 OA
BRANCH 158 159
ATOM    159  P   SEP d   1       7.586 -14.573 -28.979  0.00  0.00     0.422 P 
ATOM    160  O1P SEP d   1       8.280 -15.799 -29.433  0.00  0.00    -0.617 OA
ATOM    161  O2P SEP d   1       6.134 -14.537 -29.260  0.00  0.00    -0.617 OA
ATOM    162  O3P SEP d   1       8.298 -13.308 -29.273  0.00  0.00    -0.617 OA
ENDBRANCH 158 159
ENDBRANCH 155 158
ENDBRANCH 153 155
BRANCH 153 163
ATOM    163  C   SEP d   1       6.417 -16.667 -24.420  0.00  0.00     0.245 C 
ATOM    164  O   SEP d   1       5.669 -17.426 -25.033  0.00  0.00    -0.271 OA
ATOM    165  N   PRO d   1       6.547 -16.735 -23.086  0.00  0.00    -0.337 N 
ATOM    166  CA  PRO d   1       5.928 -17.771 -22.275  0.00  0.00     0.091 C 
ATOM    167  CD  PRO d   1       7.314 -15.820 -22.260  0.00  0.00    -0.001 C 
ATOM    168  CB  PRO d   1       6.656 -17.689 -20.934  0.00  0.00    -0.036 C 
ATOM    169  H82 PRO d   1       6.083 -18.757 -22.738  0.00  0.00     0.087 H 
ATOM    170  CG  PRO d   1       6.981 -16.199 -20.822  0.00  0.00    -0.048 C 
ATOM    171  H83 PRO d   1       7.573 -18.296 -20.942  0.00  0.00     0.036 H 
ATOM    172  H84 PRO d   1       6.007 -18.017 -20.109  0.00  0.00     0.036 H 
ATOM    173  H85 PRO d   1       7.841 -16.029 -20.158  0.00  0.00     0.035 H 
ATOM    174  H86 PRO d   1       6.115 -15.631 -20.453  0.00  0.00     0.035 H 
ATOM    175  H87 PRO d   1       7.019 -14.780 -22.462  0.00  0.00     0.064 H 
ATOM    176  H88 PRO d   1       8.391 -15.940 -22.450  0.00  0.00     0.064 H 
BRANCH 166 177
ATOM    177  C   PRO d   1       4.428 -17.544 -22.082  0.00  0.00     0.241 C 
ATOM    178  O   PRO d   1       3.685 -18.504 -21.890  0.00  0.00    -0.271 OA
ATOM    179  N   THR d   1       3.981 -16.286 -22.129  0.00  0.00    -0.344 N 
ATOM    180  H89 THR d   1       4.637 -15.555 -22.316  0.00  0.00     0.163 HD
BRANCH 179 181
ATOM    181  CA  THR d   1       2.586 -15.927 -21.922  0.00  0.00     0.113 C 
ATOM    182  H90 THR d   1       1.946 -16.579 -22.535  0.00  0.00     0.091 H 
BRANCH 181 183
ATOM    183  C   THR d   1       2.376 -14.476 -22.330  0.00  0.00     0.243 C 
ATOM    184  O   THR d   1       3.340 -13.721 -22.441  0.00  0.00    -0.271 OA
ATOM    185  N   SER d   1       1.113 -14.093 -22.550  0.00  0.00    -0.343 N 
ATOM    186  H96 SER d   1       0.398 -14.790 -22.601  0.00  0.00     0.163 HD
BRANCH 185 187
ATOM    187  CA  SER d   1       0.747 -12.699 -22.717  0.00  0.00     0.116 C 
ATOM    188  H97 SER d   1       1.511 -12.195 -23.327  0.00  0.00     0.093 H 
BRANCH 187 189
ATOM    189  C   SER d   1       0.679 -12.030 -21.343  0.00  0.00     0.198 C 
ATOM    190  O   SER d   1       0.928 -12.740 -20.342  0.00  0.00    -0.646 OA
ATOM    191  OXT SER d   1       0.377 -10.814 -21.314  0.00  0.00    -0.646 OA
ENDBRANCH 187 189
BRANCH 187 192
ATOM    192  CB  SER d   1      -0.602 -12.592 -23.422  0.00  0.00     0.045 C 
ATOM    193  H98 SER d   1      -1.369 -13.134 -22.849  0.00  0.00     0.077 H 
ATOM    194  H99 SER d   1      -0.531 -13.018 -24.434  0.00  0.00     0.077 H 
BRANCH 192 195
ATOM    195  OG  SER d   1      -0.937 -11.224 -23.499  0.00  0.00    -0.398 OA
ATOM    196 0H10 SER d   1      -0.992 -10.863 -22.622  0.00  0.00     0.209 HD
ENDBRANCH 192 195
ENDBRANCH 187 192
ENDBRANCH 185 187
ENDBRANCH 181 183
BRANCH 181 197
ATOM    197  CB  THR d   1       2.211 -16.090 -20.441  0.00  0.00     0.060 C 
ATOM    198  H91 THR d   1       2.216 -17.163 -20.197  0.00  0.00     0.086 H 
BRANCH 197 199
ATOM    199  OG1 THR d   1       0.924 -15.557 -20.200  0.00  0.00    -0.393 OA
ATOM    200  H92 THR d   1       0.918 -14.633 -20.422  0.00  0.00     0.210 HD
ENDBRANCH 197 199
BRANCH 197 201
ATOM    201  CG2 THR d   1       3.182 -15.362 -19.512  0.00  0.00    -0.050 C 
ATOM    202  H93 THR d   1       2.870 -15.509 -18.468  0.00  0.00     0.031 H 
ATOM    203  H94 THR d   1       3.179 -14.287 -19.747  0.00  0.00     0.031 H 
ATOM    204  H95 THR d   1       4.196 -15.765 -19.652  0.00  0.00     0.031 H 
ENDBRANCH 197 201
ENDBRANCH 181 197
ENDBRANCH 179 181
ENDBRANCH 166 177
ENDBRANCH 153 163
ENDBRANCH 151 153
ENDBRANCH 147 149
BRANCH 147 205
ATOM    205  CB  TYR d   1      11.828 -15.674 -25.503  0.00  0.00    -0.014 C 
ATOM    206  H71 TYR d   1      11.549 -16.693 -25.810  0.00  0.00     0.043 H 
ATOM    207  H72 TYR d   1      12.875 -15.666 -25.167  0.00  0.00     0.043 H 
BRANCH 205 208
ATOM    208  CG  TYR d   1      11.721 -14.776 -26.716  0.00  0.00    -0.056 A 
ATOM    209  CD1 TYR d   1      11.198 -15.295 -27.900  0.00  0.00    -0.074 A 
ATOM    210  CE1 TYR d   1      11.120 -14.537 -29.068  0.00  0.00    -0.051 A 
ATOM    211  H73 TYR d   1      10.841 -16.319 -27.913  0.00  0.00     0.084 H 
ATOM    212  CZ  TYR d   1      11.542 -13.201 -29.044  0.00  0.00     0.065 A 
ATOM    213  H75 TYR d   1      10.738 -14.976 -29.983  0.00  0.00     0.087 H 
ATOM    214  CE2 TYR d   1      12.050 -12.661 -27.848  0.00  0.00    -0.051 A 
ATOM    215  CD2 TYR d   1      12.136 -13.440 -26.682  0.00  0.00    -0.074 A 
ATOM    216  H76 TYR d   1      12.380 -11.629 -27.826  0.00  0.00     0.087 H 
ATOM    217  H74 TYR d   1      12.520 -13.010 -25.764  0.00  0.00     0.084 H 
BRANCH 212 218
ATOM    218  OH  TYR d   1      11.453 -12.444 -30.175  0.00  0.00    -0.361 OA
ATOM    219  H77 TYR d   1      12.319 -12.139 -30.420  0.00  0.00     0.217 HD
ENDBRANCH 212 218
ENDBRANCH 205 208
ENDBRANCH 147 205
ENDBRANCH 145 147
ENDBRANCH 133 143
ENDBRANCH 131 133
ENDBRANCH 118 129
ENDBRANCH 113 115
BRANCH 113 220
ATOM    220  CB  SER d   1      17.378 -23.129 -22.466  0.00  0.00     0.044 C 
ATOM    221  H55 SER d   1      17.794 -22.700 -21.543  0.00  0.00     0.077 H 
ATOM    222  H56 SER d   1      18.176 -23.639 -23.025  0.00  0.00     0.077 H 
BRANCH 220 223
ATOM    223  OG  SER d   1      16.375 -24.063 -22.133  0.00  0.00    -0.398 OA
ATOM    224  H57 SER d   1      15.685 -23.626 -21.648  0.00  0.00     0.209 HD
ENDBRANCH 220 223
ENDBRANCH 113 220
ENDBRANCH 111 113
ENDBRANCH   1 109
BRANCH   1 225
ATOM    225  CB  THR d   1      20.022 -20.027 -26.144  0.00  0.00     0.060 C 
ATOM    226  H48 THR d   1      20.078 -21.122 -26.058  0.00  0.00     0.086 H 
BRANCH 225 227
ATOM    227  OG1 THR d   1      21.323 -19.491 -26.072  0.00  0.00    -0.393 OA
ATOM    228  H49 THR d   1      21.721 -19.739 -25.246  0.00  0.00     0.210 HD
ENDBRANCH 225 227
BRANCH 225 229
ATOM    229  CG2 THR d   1      19.420 -19.670 -27.501  0.00  0.00    -0.050 C 
ATOM    230  H50 THR d   1      20.059 -20.070 -28.302  0.00  0.00     0.031 H 
ATOM    231  H51 THR d   1      19.354 -18.576 -27.597  0.00  0.00     0.031 H 
ATOM    232  H52 THR d   1      18.414 -20.107 -27.582  0.00  0.00     0.031 H 
ENDBRANCH 225 229
ENDBRANCH   1 225
TORSDOF 61
