REMARK  6 active torsions:
REMARK  status: ('A' for Active; 'I' for Inactive)
REMARK    1  A    between atoms: C15_4  and  C14_5 
REMARK    2  A    between atoms: N21_21  and  C15_4 
REMARK    3  A    between atoms: C27_27  and  N6_12 
REMARK    4  A    between atoms: C25_25  and  C8_14 
REMARK    5  A    between atoms: N21_21  and  C20_20 
REMARK    6  A    between atoms: C23_23  and  N21_21 
ROOT
ATOM      1  N21 7KN d   1      -7.477   7.063  17.590  0.00  0.00    -0.203 N 
ENDROOT
BRANCH   1   2
ATOM      2  C15 7KN d   1      -8.071   7.494  18.916  0.00  0.00     0.053 C 
ATOM      3  H5  7KN d   1      -8.635   8.431  18.798  0.00  0.00     0.074 H 
ATOM      4  H6  7KN d   1      -8.737   6.713  19.311  0.00  0.00     0.074 H 
BRANCH   2   5
ATOM      5  C14 7KN d   1      -6.950   7.690  19.796  0.00  0.00     0.070 C 
ATOM      6  C9  7KN d   1      -5.597   8.014  19.483  0.00  0.00     0.027 C 
ATOM      7  N10 7KN d   1      -4.586   8.104  20.426  0.00  0.00    -0.270 NA
ATOM      8  H7  7KN d   1      -5.345   8.201  18.445  0.00  0.00     0.117 H 
ATOM      9  C11 7KN d   1      -4.925   8.080  21.741  0.00  0.00     0.019 C 
ATOM     10  C12 7KN d   1      -6.260   7.777  22.101  0.00  0.00     0.019 C 
ATOM     11  H4  7KN d   1      -4.184   8.290  22.504  0.00  0.00     0.117 H 
ATOM     12  N13 7KN d   1      -7.254   7.552  21.137  0.00  0.00    -0.261 NA
ATOM     13  H3  7KN d   1      -6.522   7.717  23.151  0.00  0.00     0.117 H 
ENDBRANCH   2   5
ENDBRANCH   1   2
BRANCH   1  14
ATOM     14  C20 7KN d   1      -7.610   5.615  17.311  0.00  0.00     0.029 C 
ATOM     15  C16 7KN d   1      -7.277   4.744  18.512  0.00  0.00    -0.045 C 
ATOM     16  C17 7KN d   1      -8.391   3.788  18.861  0.00  0.00    -0.063 C 
ATOM     17  H1  7KN d   1      -6.371   4.162  18.285  0.00  0.00     0.036 H 
ATOM     18  H2  7KN d   1      -7.087   5.395  19.378  0.00  0.00     0.036 H 
ATOM     19  C18 7KN d   1      -9.265   3.754  17.585  0.00  0.00    -0.063 C 
ATOM     20  H18 7KN d   1      -8.969   4.157  19.721  0.00  0.00     0.033 H 
ATOM     21  H19 7KN d   1      -7.992   2.788  19.089  0.00  0.00     0.033 H 
ATOM     22  C19 7KN d   1      -9.143   5.208  17.011  0.00  0.00    -0.045 C 
ATOM     23  H20 7KN d   1     -10.310   3.516  17.832  0.00  0.00     0.033 H 
ATOM     24  H21 7KN d   1      -8.881   3.015  16.866  0.00  0.00     0.033 H 
ATOM     25  H22 7KN d   1      -9.837   5.891  17.523  0.00  0.00     0.036 H 
ATOM     26  H23 7KN d   1      -9.347   5.221  15.930  0.00  0.00     0.036 H 
ATOM     27  H24 7KN d   1      -6.963   5.360  16.459  0.00  0.00     0.073 H 
ENDBRANCH   1  14
BRANCH   1  28
ATOM     28  C23 7KN d   1      -7.157   7.921  16.549  0.00  0.00     0.743 A 
ATOM     29  N22 7KN d   1      -6.781   9.227  16.751  0.00  0.00     0.130 NA
ATOM     30  C27 7KN d   1      -6.550   9.996  15.703  0.00  0.00     0.742 A 
ATOM     31  N26 7KN d   1      -6.785   9.560  14.461  0.00  0.00    -0.041 NA
ATOM     32  C25 7KN d   1      -7.108   8.270  14.284  0.00  0.00     0.204 A 
ATOM     33  N24 7KN d   1      -7.318   7.440  15.315  0.00  0.00    -0.041 NA
BRANCH  30  34
ATOM     34  N6  7KN d   1      -6.086  11.277  15.873  0.00  0.00    -0.209 N 
ATOM     35  C1  7KN d   1      -5.611  11.811  17.184  0.00  0.00     0.032 C 
ATOM     36  C2  7KN d   1      -6.615  12.920  17.396  0.00  0.00     0.035 C 
ATOM     37  H8  7KN d   1      -5.667  11.052  17.978  0.00  0.00     0.068 H 
ATOM     38  H9  7KN d   1      -4.583  12.198  17.119  0.00  0.00     0.068 H 
ATOM     39  O3  7KN d   1      -6.330  13.853  16.356  0.00  0.00    -0.388 OA
ATOM     40  H10 7KN d   1      -6.481  13.384  18.384  0.00  0.00     0.076 H 
ATOM     41  H11 7KN d   1      -7.643  12.538  17.307  0.00  0.00     0.076 H 
ATOM     42  C4  7KN d   1      -6.728  13.351  15.060  0.00  0.00     0.035 C 
ATOM     43  C5  7KN d   1      -5.828  12.140  14.706  0.00  0.00     0.032 C 
ATOM     44  H12 7KN d   1      -7.781  13.034  15.092  0.00  0.00     0.076 H 
ATOM     45  H13 7KN d   1      -6.605  14.139  14.303  0.00  0.00     0.076 H 
ATOM     46  H14 7KN d   1      -4.768  12.426  14.637  0.00  0.00     0.068 H 
ATOM     47  H15 7KN d   1      -6.141  11.660  13.767  0.00  0.00     0.068 H 
ENDBRANCH  30  34
BRANCH  32  48
ATOM     48  C8  7KN d   1      -7.368   7.771  12.976  0.00  0.00     0.041 C 
ATOM     49  N7  7KN d   1      -7.215   8.514  11.902  0.00  0.00    -0.308 NA
ATOM     50  H16 7KN d   1      -7.408   8.129  10.991  0.00  0.00     0.186 HD
ATOM     51  H17 7KN d   1      -7.704   6.742  12.861  0.00  0.00     0.119 H 
ENDBRANCH  32  48
ENDBRANCH   1  28
TORSDOF 6
