REMARK  6 active torsions:
REMARK  status: ('A' for Active; 'I' for Inactive)
REMARK    1  A    between atoms: C20_20  and  C8_2 
REMARK    2  A    between atoms: C10_14  and  C9_5 
REMARK    3  A    between atoms: C18_9  and  N16_10 
REMARK    4  A    between atoms: N16_10  and  C10_14 
REMARK    5  A    between atoms: N16_10  and  C15_17 
REMARK    6  A    between atoms: C22_22  and  N6_12 
ROOT
ATOM      1  N16 7KH d   1      -7.345   7.999  17.689  0.00  0.00    -0.203 N 
ENDROOT
BRANCH   1   2
ATOM      2  C18 7KH d   1      -7.189   8.704  16.567  0.00  0.00     0.743 A 
ATOM      3  N17 7KH d   1      -6.827  10.006  16.715  0.00  0.00     0.130 NA
ATOM      4  C22 7KH d   1      -6.694  10.678  15.572  0.00  0.00     0.742 A 
ATOM      5  N21 7KH d   1      -6.873  10.209  14.350  0.00  0.00    -0.041 NA
ATOM      6  C20 7KH d   1      -7.291   8.915  14.340  0.00  0.00     0.204 A 
ATOM      7  N19 7KH d   1      -7.440   8.156  15.393  0.00  0.00    -0.041 NA
BRANCH   4   8
ATOM      8  N6  7KH d   1      -6.206  11.965  15.683  0.00  0.00    -0.209 N 
ATOM      9  C5  7KH d   1      -5.890  12.697  14.463  0.00  0.00     0.032 C 
ATOM     10  C4  7KH d   1      -6.270  14.204  14.703  0.00  0.00     0.035 C 
ATOM     11  H1  7KH d   1      -4.816  12.611  14.241  0.00  0.00     0.068 H 
ATOM     12  H2  7KH d   1      -6.471  12.293  13.621  0.00  0.00     0.068 H 
ATOM     13  O3  7KH d   1      -6.109  14.759  16.002  0.00  0.00    -0.388 OA
ATOM     14  H8  7KH d   1      -7.331  14.315  14.435  0.00  0.00     0.076 H 
ATOM     15  H9  7KH d   1      -5.654  14.805  14.018  0.00  0.00     0.076 H 
ATOM     16  C2  7KH d   1      -6.276  13.912  17.104  0.00  0.00     0.035 C 
ATOM     17  C1  7KH d   1      -5.644  12.498  16.950  0.00  0.00     0.032 C 
ATOM     18  H12 7KH d   1      -5.818  14.397  17.979  0.00  0.00     0.076 H 
ATOM     19  H13 7KH d   1      -7.355  13.786  17.277  0.00  0.00     0.076 H 
ATOM     20  H4  7KH d   1      -5.923  11.855  17.798  0.00  0.00     0.068 H 
ATOM     21  H5  7KH d   1      -4.548  12.569  16.888  0.00  0.00     0.068 H 
ENDBRANCH   4   8
BRANCH   6  22
ATOM     22  C8  7KH d   1      -7.597   8.341  13.045  0.00  0.00     0.041 C 
ATOM     23  N7  7KH d   1      -7.413   8.967  11.903  0.00  0.00    -0.308 NA
ATOM     24  H14 7KH d   1      -7.647   8.511  11.035  0.00  0.00     0.186 HD
ATOM     25  H3  7KH d   1      -8.004   7.331  13.016  0.00  0.00     0.119 H 
ENDBRANCH   6  22
ENDBRANCH   1   2
BRANCH   1  26
ATOM     26  C10 7KH d   1      -7.234   8.614  19.049  0.00  0.00     0.053 C 
ATOM     27  H15 7KH d   1      -6.968   7.826  19.769  0.00  0.00     0.074 H 
ATOM     28  H16 7KH d   1      -6.438   9.373  19.026  0.00  0.00     0.074 H 
BRANCH  26  29
ATOM     29  C9  7KH d   1      -8.530   9.282  19.515  0.00  0.00     0.071 A 
ATOM     30  N23 7KH d   1      -9.462   8.634  20.277  0.00  0.00    -0.232 NA
ATOM     31  C24 7KH d   1     -10.419   9.524  20.497  0.00  0.00     0.134 A 
ATOM     32  N25 7KH d   1     -10.221  10.734  19.893  0.00  0.00    -0.316 N 
ATOM     33  C30 7KH d   1     -11.574   9.326  21.215  0.00  0.00    -0.038 A 
ATOM     34  C26 7KH d   1      -8.950  10.554  19.252  0.00  0.00     0.012 A 
ATOM     35  C27 7KH d   1     -11.076  11.846  19.953  0.00  0.00    -0.014 A 
ATOM     36  H22 7KH d   1      -8.417  11.298  18.662  0.00  0.00     0.115 H 
ATOM     37  C28 7KH d   1     -12.252  11.688  20.643  0.00  0.00    -0.067 A 
ATOM     38  H23 7KH d   1     -10.818  12.790  19.474  0.00  0.00     0.112 H 
ATOM     39  C29 7KH d   1     -12.459  10.354  21.270  0.00  0.00    -0.078 A 
ATOM     40  H24 7KH d   1     -12.987  12.488  20.726  0.00  0.00     0.085 H 
ATOM     41  H25 7KH d   1     -13.389  10.191  21.813  0.00  0.00     0.083 H 
ATOM     42  H26 7KH d   1     -11.771   8.382  21.720  0.00  0.00     0.089 H 
ENDBRANCH  26  29
ENDBRANCH   1  26
BRANCH   1  43
ATOM     43  C15 7KH d   1      -7.779   6.538  17.506  0.00  0.00     0.029 C 
ATOM     44  C14 7KH d   1      -9.280   6.421  17.139  0.00  0.00    -0.045 C 
ATOM     45  C13 7KH d   1      -9.610   4.986  17.313  0.00  0.00    -0.063 C 
ATOM     46  H6  7KH d   1      -9.891   7.042  17.811  0.00  0.00     0.036 H 
ATOM     47  H7  7KH d   1      -9.448   6.732  16.098  0.00  0.00     0.036 H 
ATOM     48  C12 7KH d   1      -8.460   4.402  18.230  0.00  0.00    -0.063 C 
ATOM     49  H10 7KH d   1      -9.625   4.473  16.340  0.00  0.00     0.033 H 
ATOM     50  H11 7KH d   1     -10.588   4.872  17.802  0.00  0.00     0.033 H 
ATOM     51  C11 7KH d   1      -7.622   5.662  18.711  0.00  0.00    -0.045 C 
ATOM     52  H19 7KH d   1      -7.823   3.713  17.656  0.00  0.00     0.033 H 
ATOM     53  H20 7KH d   1      -8.888   3.872  19.094  0.00  0.00     0.033 H 
ATOM     54  H17 7KH d   1      -6.569   5.407  18.898  0.00  0.00     0.036 H 
ATOM     55  H18 7KH d   1      -8.054   6.122  19.612  0.00  0.00     0.036 H 
ATOM     56  H21 7KH d   1      -7.172   6.121  16.689  0.00  0.00     0.073 H 
ENDBRANCH   1  43
TORSDOF 6
