REMARK  9 active torsions:
REMARK  status: ('A' for Active; 'I' for Inactive)
REMARK    1  A    between atoms: C11_11  and  C07_7 
REMARK    2  A    between atoms: C10_10  and  O13_33 
REMARK    3  A    between atoms: N15_29  and  C11_11 
REMARK    4  A    between atoms: O13_33  and  C14_13 
REMARK    5  A    between atoms: N27_31  and  C24_20 
REMARK    6  A    between atoms: C28_23  and  C29_24 
REMARK    7  A    between atoms: C28_23  and  N27_31 
REMARK    8  A    between atoms: C30_25  and  C35_28 
REMARK    9  A    between atoms: C33_26  and  C34_27 
ROOT
ATOM      1  C12 7KJ d   1      -8.332   9.718  14.256  0.00  0.00     0.070 A 
ATOM      2  C16 7KJ d   1      -6.514   8.976  12.840  0.00  0.00     0.262 A 
ATOM      3  C17 7KJ d   1      -7.494   8.962  11.784  0.00  0.00     0.075 A 
ATOM      4  C18 7KJ d   1      -8.790   9.324  12.105  0.00  0.00     0.115 A 
ATOM      5  C20 7KJ d   1      -7.336   8.612  10.397  0.00  0.00    -0.026 A 
ATOM      6  C21 7KJ d   1      -8.503   8.708   9.716  0.00  0.00    -0.006 A 
ATOM      7  C23 7KJ d   1      -8.668   8.425   8.252  0.00  0.00    -0.008 C 
ATOM      8  C24 7KJ d   1      -7.321   8.443   7.533  0.00  0.00     0.107 C 
ATOM      9  C25 7KJ d   1      -6.302   7.616   8.301  0.00  0.00    -0.034 C 
ATOM     10  C26 7KJ d   1      -6.070   8.178   9.706  0.00  0.00    -0.037 C 
ATOM     11  N15 7KJ d   1      -7.024   9.377  14.073  0.00  0.00    -0.304 N 
ATOM     12  N19 7KJ d   1      -9.245   9.710  13.333  0.00  0.00    -0.235 NA
ATOM     13  O36 7KJ d   1      -5.328   8.687  12.715  0.00  0.00    -0.267 OA
ATOM     14  S22 7KJ d   1      -9.825   9.233  10.719  0.00  0.00    -0.073 SA
ATOM     15  H9  7KJ d   1      -8.635  10.021  15.257  0.00  0.00     0.144 H 
ATOM     16  H13 7KJ d   1      -9.322   9.191   7.809  0.00  0.00     0.044 H 
ATOM     17  H14 7KJ d   1      -9.128   7.434   8.127  0.00  0.00     0.044 H 
ATOM     18  H15 7KJ d   1      -6.958   9.481   7.509  0.00  0.00     0.084 H 
ATOM     19  H16 7KJ d   1      -5.349   7.622   7.752  0.00  0.00     0.036 H 
ATOM     20  H17 7KJ d   1      -6.670   6.583   8.385  0.00  0.00     0.036 H 
ATOM     21  H18 7KJ d   1      -5.589   7.400  10.317  0.00  0.00     0.040 H 
ATOM     22  H19 7KJ d   1      -5.401   9.048   9.627  0.00  0.00     0.040 H 
ENDROOT
BRANCH  11  23
ATOM     23  C11 7KJ d   1      -6.115   9.392  15.228  0.00  0.00     0.028 C 
ATOM     24  H7  7KJ d   1      -5.081   9.550  14.889  0.00  0.00     0.072 H 
ATOM     25  H8  7KJ d   1      -6.401  10.198  15.920  0.00  0.00     0.072 H 
BRANCH  23  26
ATOM     26  C07 7KJ d   1      -6.231   8.046  15.925  0.00  0.00    -0.029 A 
ATOM     27  C05 7KJ d   1      -5.216   7.629  16.840  0.00  0.00    -0.015 A 
ATOM     28  C04 7KJ d   1      -4.081   8.427  17.141  0.00  0.00    -0.072 A 
ATOM     29  C06 7KJ d   1      -5.341   6.363  17.494  0.00  0.00     0.008 A 
ATOM     30  C03 7KJ d   1      -3.132   7.998  18.026  0.00  0.00    -0.082 A 
ATOM     31  H4  7KJ d   1      -3.965   9.392  16.661  0.00  0.00     0.084 H 
ATOM     32  C02 7KJ d   1      -3.254   6.772  18.655  0.00  0.00    -0.082 A 
ATOM     33  H3  7KJ d   1      -2.274   8.626  18.238  0.00  0.00     0.083 H 
ATOM     34  C01 7KJ d   1      -4.332   5.967  18.404  0.00  0.00    -0.070 A 
ATOM     35  H2  7KJ d   1      -2.490   6.447  19.352  0.00  0.00     0.083 H 
ATOM     36  H1  7KJ d   1      -4.414   5.012  18.910  0.00  0.00     0.085 H 
ATOM     37  C10 7KJ d   1      -6.477   5.558  17.209  0.00  0.00     0.079 A 
ATOM     38  C09 7KJ d   1      -7.431   5.978  16.314  0.00  0.00    -0.049 A 
ATOM     39  C08 7KJ d   1      -7.306   7.214  15.683  0.00  0.00    -0.072 A 
ATOM     40  H6  7KJ d   1      -8.284   5.345  16.098  0.00  0.00     0.087 H 
ATOM     41  H5  7KJ d   1      -8.072   7.530  14.984  0.00  0.00     0.084 H 
BRANCH  37  42
ATOM     42  O13 7KJ d   1      -6.498   4.369  17.885  0.00  0.00    -0.355 OA
BRANCH  42  43
ATOM     43  C14 7KJ d   1      -7.753   3.722  18.084  0.00  0.00     0.010 C 
ATOM     44  H10 7KJ d   1      -7.599   2.785  18.640  0.00  0.00     0.066 H 
ATOM     45  H11 7KJ d   1      -8.209   3.498  17.108  0.00  0.00     0.066 H 
ATOM     46  H12 7KJ d   1      -8.419   4.383  18.657  0.00  0.00     0.066 H 
ENDBRANCH  42  43
ENDBRANCH  37  42
ENDBRANCH  23  26
ENDBRANCH  11  23
BRANCH   8  47
ATOM     47  N27 7KJ d   1      -7.489   7.993   6.134  0.00  0.00    -0.067 N 
ATOM     48  H28 7KJ d   1      -8.319   8.414   5.746  0.00  0.00     0.277 HD
ATOM     49  H29 7KJ d   1      -7.582   6.989   6.116  0.00  0.00     0.277 HD
BRANCH  47  50
ATOM     50  C28 7KJ d   1      -6.330   8.385   5.334  0.00  0.00     0.110 C 
ATOM     51  H20 7KJ d   1      -6.192   9.473   5.418  0.00  0.00     0.083 H 
ATOM     52  H21 7KJ d   1      -5.439   7.872   5.725  0.00  0.00     0.083 H 
BRANCH  50  53
ATOM     53  C29 7KJ d   1      -6.499   8.027   3.880  0.00  0.00     0.025 A 
ATOM     54  C30 7KJ d   1      -7.046   8.826   2.853  0.00  0.00     0.068 A 
ATOM     55  N31 7KJ d   1      -7.039   8.205   1.710  0.00  0.00    -0.133 NA
ATOM     56  O32 7KJ d   1      -6.455   6.936   1.966  0.00  0.00    -0.217 OA
ATOM     57  C33 7KJ d   1      -6.144   6.871   3.277  0.00  0.00     0.085 A 
BRANCH  54  58
ATOM     58  C35 7KJ d   1      -7.591  10.213   2.945  0.00  0.00    -0.033 C 
ATOM     59  H25 7KJ d   1      -7.937  10.537   1.953  0.00  0.00     0.035 H 
ATOM     60  H26 7KJ d   1      -6.803  10.894   3.299  0.00  0.00     0.035 H 
ATOM     61  H27 7KJ d   1      -8.434  10.229   3.651  0.00  0.00     0.035 H 
ENDBRANCH  54  58
BRANCH  57  62
ATOM     62  C34 7KJ d   1      -5.526   5.610   3.751  0.00  0.00    -0.029 C 
ATOM     63  H22 7KJ d   1      -5.412   4.917   2.905  0.00  0.00     0.036 H 
ATOM     64  H23 7KJ d   1      -6.169   5.151   4.516  0.00  0.00     0.036 H 
ATOM     65  H24 7KJ d   1      -4.538   5.826   4.184  0.00  0.00     0.036 H 
ENDBRANCH  57  62
ENDBRANCH  50  53
ENDBRANCH  47  50
ENDBRANCH   8  47
TORSDOF 9
