REMARK WARNING: 32 MAX_TORS EXCEEDED!!!
REMARK  71 active torsions:
REMARK  status: ('A' for Active; 'I' for Inactive)
REMARK    1  A    between atoms: N_1  and  CA_2 
REMARK    2  A    between atoms: CA_2  and  C_3 
REMARK    3  A    between atoms: CA_2  and  CB_5 
REMARK       I    between atoms: C_3  and  N_10 
REMARK    4  A    between atoms: CB_5  and  CG_6 
REMARK    5  A    between atoms: CG_6  and  CD_7 
REMARK    6  A    between atoms: CD_7  and  CE_8 
REMARK    7  A    between atoms: CE_8  and  NZ_9 
REMARK    8  A    between atoms: N_10  and  CA_11 
REMARK    9  A    between atoms: CA_11  and  C_12 
REMARK   10  A    between atoms: CA_11  and  CB_14 
REMARK       I    between atoms: C_12  and  N_18 
REMARK   11  A    between atoms: CB_14  and  CG_15 
REMARK   12  A    between atoms: N_18  and  CA_19 
REMARK   13  A    between atoms: CA_19  and  C_20 
REMARK   14  A    between atoms: CA_19  and  CB_22 
REMARK       I    between atoms: C_20  and  N_24 
REMARK   15  A    between atoms: CB_22  and  OG_23 
REMARK   16  A    between atoms: N_24  and  CA_25 
REMARK   17  A    between atoms: CA_25  and  C_26 
REMARK   18  A    between atoms: CA_25  and  CB_28 
REMARK       I    between atoms: C_26  and  N_33 
REMARK   19  A    between atoms: CB_28  and  CG_29 
REMARK   20  A    between atoms: CG_29  and  CD_30 
REMARK   21  A    between atoms: CD_30  and  CE_31 
REMARK   22  A    between atoms: CE_31  and  NZ_32 
REMARK   23  A    between atoms: N_33  and  CA_34 
REMARK   24  A    between atoms: CA_34  and  C_35 
REMARK   25  A    between atoms: CA_34  and  CB_37 
REMARK       I    between atoms: C_35  and  N_41 
REMARK   26  A    between atoms: CB_37  and  CG1_38 
REMARK   27  A    between atoms: CB_37  and  CG2_39 
REMARK   28  A    between atoms: CG1_38  and  CD1_40 
REMARK   29  A    between atoms: N_41  and  CA_42 
REMARK   30  A    between atoms: CA_42  and  C_43 
REMARK   31  A    between atoms: CA_42  and  CB_45 
REMARK       I    between atoms: C_43  and  N_48 
REMARK   32  A    between atoms: CB_45  and  OG1_46 
REMARK   33  A    between atoms: CB_45  and  CG2_47 
REMARK   34  A    between atoms: N_48  and  CA_49 
REMARK   35  A    between atoms: CA_49  and  C_50 
REMARK   36  A    between atoms: CA_49  and  CB_52 
REMARK       I    between atoms: C_50  and  N_56 
REMARK   37  A    between atoms: CB_52  and  CG_53 
REMARK   38  A    between atoms: N_56  and  CA_57 
REMARK   39  A    between atoms: CA_57  and  C_58 
REMARK   40  A    between atoms: CA_57  and  CB_60 
REMARK       I    between atoms: C_58  and  N_66 
REMARK   41  A    between atoms: CB_60  and  CG_61 
REMARK   42  A    between atoms: N_66  and  CA_67 
REMARK   43  A    between atoms: CA_67  and  C_68 
REMARK   44  A    between atoms: CA_67  and  CB_70 
REMARK       I    between atoms: C_68  and  N_77 
REMARK   45  A    between atoms: CB_70  and  CG_71 
REMARK   46  A    between atoms: N_77  and  CA_78 
REMARK   47  A    between atoms: CA_78  and  C_79 
REMARK   48  A    between atoms: CA_78  and  CB_81 
REMARK       I    between atoms: C_79  and  N_85 
REMARK   49  A    between atoms: CB_81  and  CG_82 
REMARK   50  A    between atoms: CG_82  and  SD_83 
REMARK   51  A    between atoms: SD_83  and  CE_84 
REMARK   52  A    between atoms: N_85  and  CA_86 
REMARK   53  A    between atoms: CA_86  and  C_87 
REMARK   54  A    between atoms: CA_86  and  CB_89 
REMARK       I    between atoms: C_87  and  N_96 
REMARK   55  A    between atoms: CB_89  and  CG_90 
REMARK   56  A    between atoms: CG_90  and  CD_91 
REMARK   57  A    between atoms: CD_91  and  NE_92 
REMARK       I    between atoms: NE_92  and  CZ_93 
REMARK       I    between atoms: CZ_93  and  NH1_94 
REMARK       I    between atoms: CZ_93  and  NH2_95 
REMARK   58  A    between atoms: N_96  and  CA_97 
REMARK   59  A    between atoms: CA_97  and  C_98 
REMARK   60  A    between atoms: CA_97  and  CB_100 
REMARK       I    between atoms: C_98  and  N_104 
REMARK   61  A    between atoms: CB_100  and  CG_101 
REMARK   62  A    between atoms: CG_101  and  CD1_102 
REMARK   63  A    between atoms: CG_101  and  CD2_103 
REMARK   64  A    between atoms: CA_105  and  C_106 
REMARK       I    between atoms: C_106  and  N_111 
REMARK   65  A    between atoms: N_111  and  CA_112 
REMARK   66  A    between atoms: CA_112  and  C_113 
REMARK   67  A    between atoms: CA_112  and  CB_115 
REMARK   68  A    between atoms: CB_115  and  CG_116 
REMARK   69  A    between atoms: CG_116  and  CD_117 
REMARK   70  A    between atoms: CD_117  and  CE_118 
REMARK   71  A    between atoms: CE_118  and  NZ_119 
ROOT
ATOM      1  CA  HIS d   1    -484.473 -45.044  78.707  0.00  0.00     0.094 C 
ATOM      2  H61 HIS d   1    -484.537 -45.353  77.653  0.00  0.00     0.088 H 
ENDROOT
BRANCH   1   3
ATOM      3  N   HIS d   1    -485.714 -44.365  79.042  0.00  0.00    -0.346 N 
ATOM      4  C   ASP d   1    -486.610 -44.010  78.119  0.00  0.00     0.241 C 
ATOM      5  O   ASP d   1    -486.428 -44.193  76.911  0.00  0.00    -0.271 OA
ATOM      6  H60 HIS d   1    -485.904 -44.156  80.001  0.00  0.00     0.163 HD
BRANCH   4   7
ATOM      7  CA  ASP d   1    -487.897 -43.349  78.591  0.00  0.00     0.098 C 
ATOM      8  H57 ASP d   1    -488.736 -44.010  78.326  0.00  0.00     0.088 H 
BRANCH   7   9
ATOM      9  N   ASP d   1    -487.923 -43.148  80.032  0.00  0.00    -0.345 N 
ATOM     10  C   THR d   1    -488.333 -44.088  80.879  0.00  0.00     0.243 C 
ATOM     11  O   THR d   1    -488.822 -45.157  80.501  0.00  0.00    -0.271 OA
ATOM     12  H56 ASP d   1    -487.621 -42.269  80.400  0.00  0.00     0.163 HD
BRANCH  10  13
ATOM     13  CA  THR d   1    -488.203 -43.818  82.372  0.00  0.00     0.113 C 
ATOM     14  H50 THR d   1    -487.666 -44.664  82.826  0.00  0.00     0.091 H 
BRANCH  13  15
ATOM     15  N   THR d   1    -487.448 -42.604  82.654  0.00  0.00    -0.344 N 
ATOM     16  C   ILE d   1    -486.131 -42.537  82.447  0.00  0.00     0.241 C 
ATOM     17  O   ILE d   1    -485.463 -43.529  82.132  0.00  0.00    -0.271 OA
ATOM     18  H49 THR d   1    -487.928 -41.802  83.011  0.00  0.00     0.163 HD
BRANCH  16  19
ATOM     19  CA  ILE d   1    -485.455 -41.180  82.594  0.00  0.00     0.092 C 
ATOM     20  H39 ILE d   1    -484.782 -41.046  81.735  0.00  0.00     0.088 H 
BRANCH  19  21
ATOM     21  N   ILE d   1    -486.430 -40.099  82.576  0.00  0.00    -0.346 N 
ATOM     22  C   LYS d   1    -487.035 -39.758  81.436  0.00  0.00     0.241 C 
ATOM     23  O   LYS d   1    -486.836 -40.345  80.368  0.00  0.00    -0.271 OA
ATOM     24  H38 ILE d   1    -486.647 -39.610  83.421  0.00  0.00     0.163 HD
BRANCH  22  25
ATOM     25  CA  LYS d   1    -487.989 -38.576  81.528  0.00  0.00     0.089 C 
ATOM     26  H26 LYS d   1    -487.645 -37.910  82.333  0.00  0.00     0.087 H 
BRANCH  25  27
ATOM     27  N   LYS d   1    -487.980 -37.830  80.281  0.00  0.00    -0.346 N 
ATOM     28  C   SER d   1    -487.008 -36.960  80.034  0.00  0.00     0.243 C 
ATOM     29  O   SER d   1    -486.148 -36.668  80.868  0.00  0.00    -0.271 OA
ATOM     30  H25 LYS d   1    -488.706 -37.972  79.609  0.00  0.00     0.163 HD
BRANCH  28  31
ATOM     31  CA  SER d   1    -487.033 -36.308  78.657  0.00  0.00     0.109 C 
ATOM     32  H21 SER d   1    -488.073 -36.276  78.300  0.00  0.00     0.090 H 
BRANCH  31  33
ATOM     33  N   SER d   1    -486.532 -34.946  78.752  0.00  0.00    -0.344 N 
ATOM     34  C   ASP d   1    -487.284 -34.008  79.319  0.00  0.00     0.241 C 
ATOM     35  O   ASP d   1    -488.450 -34.210  79.673  0.00  0.00    -0.271 OA
ATOM     36  H20 SER d   1    -485.627 -34.717  78.393  0.00  0.00     0.163 HD
BRANCH  34  37
ATOM     37  CA  ASP d   1    -486.649 -32.638  79.512  0.00  0.00     0.098 C 
ATOM     38  H17 ASP d   1    -485.611 -32.668  79.148  0.00  0.00     0.088 H 
BRANCH  37  39
ATOM     39  N   ASP d   1    -487.395 -31.656  78.735  0.00  0.00    -0.345 N 
ATOM     40  C   LYS d   1    -487.153 -31.462  77.442  0.00  0.00     0.249 C 
ATOM     41  O   LYS d   1    -486.196 -31.963  76.863  0.00  0.00    -0.271 OA
ATOM     42  H16 ASP d   1    -488.106 -31.115  79.185  0.00  0.00     0.163 HD
BRANCH  40  43
ATOM     43  CA  LYS d   1    -488.123 -30.559  76.690  0.00  0.00     0.176 C 
ATOM     44  H4  LYS d   1    -488.544 -31.131  75.850  0.00  0.00     0.099 H 
BRANCH  43  45
ATOM     45  N   LYS d   1    -489.225 -30.134  77.546  0.00  0.00    -0.067 N 
ATOM     46  H1  LYS d   1    -489.848 -29.540  77.022  0.00  0.00     0.275 HD
ATOM     47  H2  LYS d   1    -488.860 -29.625  78.336  0.00  0.00     0.275 HD
ATOM     48  H3  LYS d   1    -489.729 -30.944  77.872  0.00  0.00     0.275 HD
ENDBRANCH  43  45
BRANCH  43  49
ATOM     49  CB  LYS d   1    -487.379 -29.348  76.124  0.00  0.00    -0.030 C 
ATOM     50  H5  LYS d   1    -486.352 -29.657  75.881  0.00  0.00     0.036 H 
ATOM     51  H6  LYS d   1    -487.353 -28.567  76.898  0.00  0.00     0.036 H 
BRANCH  49  52
ATOM     52  CG  LYS d   1    -488.007 -28.756  74.870  0.00  0.00    -0.061 C 
ATOM     53  H7  LYS d   1    -488.299 -27.715  75.072  0.00  0.00     0.033 H 
ATOM     54  H8  LYS d   1    -488.899 -29.342  74.605  0.00  0.00     0.033 H 
BRANCH  52  55
ATOM     55  CD  LYS d   1    -487.034 -28.780  73.702  0.00  0.00    -0.043 C 
ATOM     56  H9  LYS d   1    -487.506 -28.297  72.834  0.00  0.00     0.035 H 
ATOM     57  H10 LYS d   1    -486.796 -29.826  73.456  0.00  0.00     0.035 H 
BRANCH  55  58
ATOM     58  CE  LYS d   1    -485.745 -28.046  74.035  0.00  0.00     0.080 C 
ATOM     59  H11 LYS d   1    -485.304 -28.495  74.937  0.00  0.00     0.075 H 
ATOM     60  H12 LYS d   1    -485.979 -26.989  74.228  0.00  0.00     0.075 H 
BRANCH  58  61
ATOM     61  NZ  LYS d   1    -484.753 -28.124  72.926  0.00  0.00    -0.079 N 
ATOM     62  H13 LYS d   1    -483.916 -27.626  73.188  0.00  0.00     0.274 HD
ATOM     63  H14 LYS d   1    -485.145 -27.709  72.095  0.00  0.00     0.274 HD
ATOM     64  H15 LYS d   1    -484.527 -29.089  72.745  0.00  0.00     0.274 HD
ENDBRANCH  58  61
ENDBRANCH  55  58
ENDBRANCH  52  55
ENDBRANCH  49  52
ENDBRANCH  43  49
ENDBRANCH  40  43
ENDBRANCH  37  39
BRANCH  37  65
ATOM     65  CB  ASP d   1    -486.637 -32.265  80.993  0.00  0.00     0.043 C 
ATOM     66  H18 ASP d   1    -486.598 -33.190  81.588  0.00  0.00     0.052 H 
ATOM     67  H19 ASP d   1    -487.563 -31.719  81.225  0.00  0.00     0.052 H 
BRANCH  65  68
ATOM     68  CG  ASP d   1    -485.455 -31.396  81.373  0.00  0.00     0.175 C 
ATOM     69  OD1 ASP d   1    -484.339 -31.647  80.870  0.00  0.00    -0.648 OA
ATOM     70  OD2 ASP d   1    -485.642 -30.464  82.183  0.00  0.00    -0.648 OA
ENDBRANCH  65  68
ENDBRANCH  37  65
ENDBRANCH  34  37
ENDBRANCH  31  33
BRANCH  31  71
ATOM     71  CB  SER d   1    -486.204 -37.127  77.666  0.00  0.00     0.044 C 
ATOM     72  H22 SER d   1    -486.054 -36.536  76.751  0.00  0.00     0.077 H 
ATOM     73  H23 SER d   1    -486.749 -38.050  77.421  0.00  0.00     0.077 H 
BRANCH  71  74
ATOM     74  OG  SER d   1    -484.939 -37.469  78.206  0.00  0.00    -0.398 OA
ATOM     75  H24 SER d   1    -484.461 -36.676  78.416  0.00  0.00     0.209 HD
ENDBRANCH  71  74
ENDBRANCH  31  71
ENDBRANCH  28  31
ENDBRANCH  25  27
BRANCH  25  76
ATOM     76  CB  LYS d   1    -489.399 -39.059  81.871  0.00  0.00    -0.038 C 
ATOM     77  H27 LYS d   1    -489.314 -39.969  82.483  0.00  0.00     0.036 H 
ATOM     78  H28 LYS d   1    -489.922 -39.296  80.933  0.00  0.00     0.036 H 
BRANCH  76  79
ATOM     79  CG  LYS d   1    -490.230 -38.042  82.638  0.00  0.00    -0.061 C 
ATOM     80  H29 LYS d   1    -489.583 -37.527  83.363  0.00  0.00     0.033 H 
ATOM     81  H30 LYS d   1    -491.034 -38.569  83.173  0.00  0.00     0.033 H 
BRANCH  79  82
ATOM     82  CD  LYS d   1    -490.850 -37.010  81.712  0.00  0.00    -0.043 C 
ATOM     83  H31 LYS d   1    -491.633 -37.493  81.109  0.00  0.00     0.035 H 
ATOM     84  H32 LYS d   1    -490.070 -36.610  81.047  0.00  0.00     0.035 H 
BRANCH  82  85
ATOM     85  CE  LYS d   1    -491.466 -35.865  82.498  0.00  0.00     0.080 C 
ATOM     86  H33 LYS d   1    -491.995 -35.200  81.799  0.00  0.00     0.075 H 
ATOM     87  H34 LYS d   1    -490.662 -35.306  82.999  0.00  0.00     0.075 H 
BRANCH  85  88
ATOM     88  NZ  LYS d   1    -492.430 -36.344  83.527  0.00  0.00    -0.079 N 
ATOM     89  H35 LYS d   1    -492.813 -35.554  84.022  0.00  0.00     0.274 HD
ATOM     90  H36 LYS d   1    -491.954 -36.950  84.177  0.00  0.00     0.274 HD
ATOM     91  H37 LYS d   1    -493.176 -36.852  83.078  0.00  0.00     0.274 HD
ENDBRANCH  85  88
ENDBRANCH  82  85
ENDBRANCH  79  82
ENDBRANCH  76  79
ENDBRANCH  25  76
ENDBRANCH  22  25
ENDBRANCH  19  21
BRANCH  19  92
ATOM     92  CB  ILE d   1    -484.608 -41.105  83.878  0.00  0.00    -0.030 C 
ATOM     93  H40 ILE d   1    -484.556 -40.054  84.197  0.00  0.00     0.043 H 
BRANCH  92  94
ATOM     94  CG1 ILE d   1    -483.189 -41.595  83.607  0.00  0.00    -0.063 C 
ATOM     95  H41 ILE d   1    -482.756 -40.985  82.800  0.00  0.00     0.033 H 
ATOM     96  H42 ILE d   1    -483.237 -42.646  83.287  0.00  0.00     0.033 H 
BRANCH  94  97
ATOM     97  CD1 ILE d   1    -482.303 -41.503  84.798  0.00  0.00    -0.076 C 
ATOM     98  H46 ILE d   1    -481.299 -41.870  84.537  0.00  0.00     0.027 H 
ATOM     99  H47 ILE d   1    -482.718 -42.116  85.612  0.00  0.00     0.027 H 
ATOM    100  H48 ILE d   1    -482.237 -40.455  85.126  0.00  0.00     0.027 H 
ENDBRANCH  94  97
ENDBRANCH  92  94
BRANCH  92 101
ATOM    101  CG2 ILE d   1    -485.250 -41.909  84.994  0.00  0.00    -0.071 C 
ATOM    102  H43 ILE d   1    -486.271 -41.539  85.172  0.00  0.00     0.028 H 
ATOM    103  H44 ILE d   1    -484.655 -41.801  85.913  0.00  0.00     0.028 H 
ATOM    104  H45 ILE d   1    -485.289 -42.970  84.706  0.00  0.00     0.028 H 
ENDBRANCH  92 101
ENDBRANCH  19  92
ENDBRANCH  16  19
ENDBRANCH  13  15
BRANCH  13 105
ATOM    105  CB  THR d   1    -489.596 -43.735  82.998  0.00  0.00     0.060 C 
ATOM    106  H51 THR d   1    -490.126 -44.683  82.823  0.00  0.00     0.086 H 
BRANCH 105 107
ATOM    107  OG1 THR d   1    -490.330 -42.663  82.393  0.00  0.00    -0.393 OA
ATOM    108  H52 THR d   1    -491.195 -42.613  82.783  0.00  0.00     0.210 HD
ENDBRANCH 105 107
BRANCH 105 109
ATOM    109  CG2 THR d   1    -489.493 -43.490  84.495  0.00  0.00    -0.050 C 
ATOM    110  H53 THR d   1    -490.503 -43.433  84.928  0.00  0.00     0.031 H 
ATOM    111  H54 THR d   1    -488.963 -42.543  84.676  0.00  0.00     0.031 H 
ATOM    112  H55 THR d   1    -488.939 -44.316  84.965  0.00  0.00     0.031 H 
ENDBRANCH 105 109
ENDBRANCH  13 105
ENDBRANCH  10  13
ENDBRANCH   7   9
BRANCH   7 113
ATOM    113  CB  ASP d   1    -488.086 -42.012  77.867  0.00  0.00     0.043 C 
ATOM    114  H58 ASP d   1    -488.132 -42.201  76.784  0.00  0.00     0.052 H 
ATOM    115  H59 ASP d   1    -487.225 -41.365  78.090  0.00  0.00     0.052 H 
BRANCH 113 116
ATOM    116  CG  ASP d   1    -489.353 -41.296  78.289  0.00  0.00     0.175 C 
ATOM    117  OD1 ASP d   1    -490.233 -41.946  78.890  0.00  0.00    -0.648 OA
ATOM    118  OD2 ASP d   1    -489.470 -40.082  78.018  0.00  0.00    -0.648 OA
ENDBRANCH 113 116
ENDBRANCH   7 113
ENDBRANCH   4   7
ENDBRANCH   1   3
BRANCH   1 119
ATOM    119  C   HIS d   1    -484.220 -46.286  79.545  0.00  0.00     0.241 C 
ATOM    120  O   HIS d   1    -483.278 -47.027  79.244  0.00  0.00    -0.271 OA
ATOM    121  N   PHE d   1    -485.020 -46.536  80.580  0.00  0.00    -0.346 N 
ATOM    122  H67 PHE d   1    -485.771 -45.902  80.764  0.00  0.00     0.163 HD
BRANCH 121 123
ATOM    123  CA  PHE d   1    -484.855 -47.687  81.457  0.00  0.00     0.093 C 
ATOM    124  H68 PHE d   1    -484.269 -48.456  80.933  0.00  0.00     0.088 H 
BRANCH 123 125
ATOM    125  C   PHE d   1    -486.231 -48.244  81.785  0.00  0.00     0.241 C 
ATOM    126  O   PHE d   1    -487.147 -47.482  82.109  0.00  0.00    -0.271 OA
ATOM    127  N   MET d   1    -486.374 -49.562  81.707  0.00  0.00    -0.346 N 
ATOM    128  H76 MET d   1    -485.575 -50.129  81.507  0.00  0.00     0.163 HD
BRANCH 127 129
ATOM    129  CA  MET d   1    -487.666 -50.199  81.906  0.00  0.00     0.090 C 
ATOM    130  H77 MET d   1    -488.450 -49.464  81.674  0.00  0.00     0.087 H 
BRANCH 129 131
ATOM    131  C   MET d   1    -487.844 -50.644  83.355  0.00  0.00     0.241 C 
ATOM    132  O   MET d   1    -486.879 -50.870  84.090  0.00  0.00    -0.271 OA
ATOM    133  N   ARG d   1    -489.107 -50.767  83.758  0.00  0.00    -0.346 N 
ATOM    134  H85 ARG d   1    -489.845 -50.594  83.106  0.00  0.00     0.163 HD
BRANCH 133 135
ATOM    135  CA  ARG d   1    -489.442 -51.147  85.123  0.00  0.00     0.089 C 
ATOM    136  H86 ARG d   1    -488.743 -50.646  85.809  0.00  0.00     0.087 H 
BRANCH 135 137
ATOM    137  C   ARG d   1    -489.309 -52.654  85.302  0.00  0.00     0.241 C 
ATOM    138  O   ARG d   1    -489.836 -53.431  84.501  0.00  0.00    -0.271 OA
ATOM    139  N   LEU d   1    -488.606 -53.063  86.348  0.00  0.00    -0.346 N 
ATOM    140  H98 LEU d   1    -488.089 -52.429  86.923  0.00  0.00     0.163 HD
BRANCH 139 141
ATOM    141  CA  LEU d   1    -488.636 -54.494  86.604  0.00  0.00     0.090 C 
ATOM    142  H99 LEU d   1    -488.863 -55.016  85.662  0.00  0.00     0.087 H 
BRANCH 141 143
ATOM    143  C   LEU d   1    -489.728 -54.817  87.622  0.00  0.00     0.243 C 
ATOM    144  O   LEU d   1    -490.003 -54.017  88.525  0.00  0.00    -0.271 OA
ATOM    145  N   PRO d   1    -490.354 -55.983  87.514  0.00  0.00    -0.337 N 
ATOM    146  CA  PRO d   1    -491.609 -56.232  88.227  0.00  0.00     0.091 C 
ATOM    147  CD  PRO d   1    -489.945 -57.150  86.709  0.00  0.00    -0.001 C 
ATOM    148  CB  PRO d   1    -492.202 -57.410  87.456  0.00  0.00    -0.036 C 
ATOM    149 9H10 PRO d   1    -492.269 -55.353  88.172  0.00  0.00     0.087 H 
ATOM    150  CG  PRO d   1    -491.002 -58.182  87.028  0.00  0.00    -0.048 C 
ATOM    151 0H11 PRO d   1    -492.777 -57.061  86.585  0.00  0.00     0.036 H 
ATOM    152 1H11 PRO d   1    -492.851 -58.018  88.104  0.00  0.00     0.036 H 
ATOM    153 2H11 PRO d   1    -491.231 -58.785  86.137  0.00  0.00     0.035 H 
ATOM    154 3H11 PRO d   1    -490.661 -58.842  87.839  0.00  0.00     0.035 H 
ATOM    155 4H11 PRO d   1    -488.947 -57.504  87.007  0.00  0.00     0.064 H 
ATOM    156 5H11 PRO d   1    -489.943 -56.907  85.636  0.00  0.00     0.064 H 
BRANCH 146 157
ATOM    157  C   PRO d   1    -491.381 -56.593  89.691  0.00  0.00     0.241 C 
ATOM    158  O   PRO d   1    -490.273 -56.511  90.217  0.00  0.00    -0.271 OA
ATOM    159  N   LYS d   1    -492.480 -56.979  90.338  0.00  0.00    -0.345 N 
ATOM    160 6H11 LYS d   1    -493.349 -56.881  89.853  0.00  0.00     0.163 HD
BRANCH 159 161
ATOM    161  CA  LYS d   1    -492.535 -57.533  91.691  0.00  0.00     0.096 C 
ATOM    162 7H11 LYS d   1    -492.807 -56.715  92.374  0.00  0.00     0.089 H 
BRANCH 161 163
ATOM    163  C   LYS d   1    -491.234 -58.145  92.207  0.00  0.00     0.196 C 
ATOM    164  O   LYS d   1    -491.253 -59.016  93.080  0.00  0.00    -0.646 OA
ATOM    165  OXT LYS d   1    -490.146 -57.777  91.758  0.00  0.00    -0.646 OA
ENDBRANCH 161 163
BRANCH 161 166
ATOM    166  CB  LYS d   1    -493.633 -58.593  91.727  0.00  0.00    -0.037 C 
ATOM    167 8H11 LYS d   1    -494.590 -58.103  91.958  0.00  0.00     0.036 H 
ATOM    168 9H11 LYS d   1    -493.395 -59.322  92.515  0.00  0.00     0.036 H 
BRANCH 166 169
ATOM    169  CG  LYS d   1    -493.770 -59.337  90.392  0.00  0.00    -0.061 C 
ATOM    170 0H12 LYS d   1    -493.375 -58.701  89.586  0.00  0.00     0.033 H 
ATOM    171 1H12 LYS d   1    -494.834 -59.545  90.206  0.00  0.00     0.033 H 
BRANCH 169 172
ATOM    172  CD  LYS d   1    -493.000 -60.659  90.405  0.00  0.00    -0.043 C 
ATOM    173 2H12 LYS d   1    -493.384 -61.284  91.225  0.00  0.00     0.035 H 
ATOM    174 3H12 LYS d   1    -491.934 -60.446  90.575  0.00  0.00     0.035 H 
BRANCH 172 175
ATOM    175  CE  LYS d   1    -493.143 -61.429  89.092  0.00  0.00     0.080 C 
ATOM    176 4H12 LYS d   1    -492.603 -60.884  88.303  0.00  0.00     0.075 H 
ATOM    177 5H12 LYS d   1    -494.210 -61.488  88.832  0.00  0.00     0.075 H 
BRANCH 175 178
ATOM    178  NZ  LYS d   1    -492.594 -62.815  89.178  0.00  0.00    -0.079 N 
ATOM    179 6H12 LYS d   1    -492.712 -63.279  88.291  0.00  0.00     0.274 HD
ATOM    180 7H12 LYS d   1    -493.086 -63.328  89.893  0.00  0.00     0.274 HD
ATOM    181 8H12 LYS d   1    -491.613 -62.774  89.408  0.00  0.00     0.274 HD
ENDBRANCH 175 178
ENDBRANCH 172 175
ENDBRANCH 169 172
ENDBRANCH 166 169
ENDBRANCH 161 166
ENDBRANCH 159 161
ENDBRANCH 146 157
ENDBRANCH 141 143
BRANCH 141 182
ATOM    182  CB  LEU d   1    -487.285 -54.979  87.118  0.00  0.00    -0.035 C 
ATOM    183 0H10 LEU d   1    -487.263 -56.073  87.004  0.00  0.00     0.037 H 
ATOM    184 1H10 LEU d   1    -487.228 -54.721  88.186  0.00  0.00     0.037 H 
BRANCH 182 185
ATOM    185  CG  LEU d   1    -486.033 -54.427  86.449  0.00  0.00    -0.059 C 
ATOM    186 2H10 LEU d   1    -486.152 -53.339  86.338  0.00  0.00     0.038 H 
BRANCH 185 187
ATOM    187  CD1 LEU d   1    -484.825 -54.689  87.337  0.00  0.00    -0.073 C 
ATOM    188 3H10 LEU d   1    -483.921 -54.290  86.853  0.00  0.00     0.028 H 
ATOM    189 4H10 LEU d   1    -484.711 -55.772  87.491  0.00  0.00     0.028 H 
ATOM    190 5H10 LEU d   1    -484.970 -54.194  88.309  0.00  0.00     0.028 H 
ENDBRANCH 185 187
BRANCH 185 191
ATOM    191  CD2 LEU d   1    -485.831 -55.024  85.058  0.00  0.00    -0.073 C 
ATOM    192 6H10 LEU d   1    -486.717 -54.820  84.439  0.00  0.00     0.028 H 
ATOM    193 7H10 LEU d   1    -485.686 -56.111  85.143  0.00  0.00     0.028 H 
ATOM    194 8H10 LEU d   1    -484.945 -54.571  84.590  0.00  0.00     0.028 H 
ENDBRANCH 185 191
ENDBRANCH 182 185
ENDBRANCH 141 182
ENDBRANCH 139 141
ENDBRANCH 135 137
BRANCH 135 195
ATOM    195  CB  ARG d   1    -490.867 -50.709  85.467  0.00  0.00    -0.036 C 
ATOM    196  H87 ARG d   1    -490.981 -50.739  86.561  0.00  0.00     0.036 H 
ATOM    197  H88 ARG d   1    -491.566 -51.422  85.005  0.00  0.00     0.036 H 
BRANCH 195 198
ATOM    198  CG  ARG d   1    -491.230 -49.315  84.992  0.00  0.00    -0.048 C 
ATOM    199  H89 ARG d   1    -492.017 -49.390  84.227  0.00  0.00     0.035 H 
ATOM    200  H90 ARG d   1    -490.338 -48.842  84.555  0.00  0.00     0.035 H 
BRANCH 198 201
ATOM    201  CD  ARG d   1    -491.735 -48.456  86.139  0.00  0.00     0.009 C 
ATOM    202  H91 ARG d   1    -490.942 -48.374  86.897  0.00  0.00     0.064 H 
ATOM    203  H92 ARG d   1    -492.618 -48.939  86.583  0.00  0.00     0.064 H 
BRANCH 201 204
ATOM    204  NE  ARG d   1    -492.104 -47.115  85.695  0.00  0.00    -0.227 N 
ATOM    205  CZ  ARG d   1    -493.355 -46.679  85.593  0.00  0.00     0.665 C 
ATOM    206  NH1 ARG d   1    -494.367 -47.474  85.912  0.00  0.00    -0.235 N 
ATOM    207  NH2 ARG d   1    -493.595 -45.442  85.177  0.00  0.00    -0.235 N 
ATOM    208  H94 ARG d   1    -495.335 -47.132  85.832  0.00  0.00     0.174 HD
ATOM    209  H95 ARG d   1    -494.185 -48.433  86.240  0.00  0.00     0.174 HD
ATOM    210  H96 ARG d   1    -492.812 -44.821  84.928  0.00  0.00     0.174 HD
ATOM    211  H97 ARG d   1    -494.565 -45.103  85.103  0.00  0.00     0.174 HD
ATOM    212  H93 ARG d   1    -491.345 -46.465  85.445  0.00  0.00     0.177 HD
ENDBRANCH 201 204
ENDBRANCH 198 201
ENDBRANCH 195 198
ENDBRANCH 135 195
ENDBRANCH 133 135
ENDBRANCH 129 131
BRANCH 129 213
ATOM    213  CB  MET d   1    -487.828 -51.390  80.961  0.00  0.00    -0.030 C 
ATOM    214  H78 MET d   1    -488.734 -51.943  81.250  0.00  0.00     0.037 H 
ATOM    215  H79 MET d   1    -486.950 -52.043  81.071  0.00  0.00     0.037 H 
BRANCH 213 216
ATOM    216  CG  MET d   1    -487.953 -50.994  79.498  0.00  0.00    -0.021 C 
ATOM    217  H80 MET d   1    -487.112 -50.333  79.243  0.00  0.00     0.049 H 
ATOM    218  H81 MET d   1    -488.900 -50.451  79.363  0.00  0.00     0.049 H 
BRANCH 216 219
ATOM    219  SD  MET d   1    -487.936 -52.402  78.372  0.00  0.00    -0.173 SA
BRANCH 219 220
ATOM    220  CE  MET d   1    -486.174 -52.674  78.196  0.00  0.00    -0.035 C 
ATOM    221  H82 MET d   1    -486.000 -53.524  77.520  0.00  0.00     0.041 H 
ATOM    222  H83 MET d   1    -485.737 -52.894  79.181  0.00  0.00     0.041 H 
ATOM    223  H84 MET d   1    -485.704 -51.772  77.779  0.00  0.00     0.041 H 
ENDBRANCH 219 220
ENDBRANCH 216 219
ENDBRANCH 213 216
ENDBRANCH 129 213
ENDBRANCH 127 129
ENDBRANCH 123 125
BRANCH 123 224
ATOM    224  CB  PHE d   1    -484.117 -47.300  82.744  0.00  0.00    -0.014 C 
ATOM    225  H69 PHE d   1    -484.010 -48.201  83.366  0.00  0.00     0.043 H 
ATOM    226  H70 PHE d   1    -484.723 -46.555  83.280  0.00  0.00     0.043 H 
BRANCH 224 227
ATOM    227  CG  PHE d   1    -482.750 -46.720  82.513  0.00  0.00    -0.056 A 
ATOM    228  CD1 PHE d   1    -481.776 -47.445  81.847  0.00  0.00    -0.077 A 
ATOM    229  CE1 PHE d   1    -480.516 -46.914  81.639  0.00  0.00    -0.082 A 
ATOM    230  H71 PHE d   1    -482.004 -48.441  81.484  0.00  0.00     0.084 H 
ATOM    231  CZ  PHE d   1    -480.216 -45.648  82.101  0.00  0.00    -0.083 A 
ATOM    232  H73 PHE d   1    -479.764 -47.492  81.113  0.00  0.00     0.083 H 
ATOM    233  CE2 PHE d   1    -481.176 -44.915  82.769  0.00  0.00    -0.082 A 
ATOM    234  H75 PHE d   1    -479.229 -45.231  81.939  0.00  0.00     0.083 H 
ATOM    235  CD2 PHE d   1    -482.435 -45.451  82.974  0.00  0.00    -0.077 A 
ATOM    236  H74 PHE d   1    -480.944 -43.920  83.133  0.00  0.00     0.083 H 
ATOM    237  H72 PHE d   1    -483.184 -44.872  83.501  0.00  0.00     0.084 H 
ENDBRANCH 224 227
ENDBRANCH 123 224
ENDBRANCH 121 123
ENDBRANCH   1 119
BRANCH   1 238
ATOM    238  CB  HIS d   1    -483.278 -44.090  78.864  0.00  0.00     0.004 C 
ATOM    239  H62 HIS d   1    -482.369 -44.616  78.537  0.00  0.00     0.046 H 
ATOM    240  H63 HIS d   1    -483.185 -43.823  79.927  0.00  0.00     0.046 H 
BRANCH 238 241
ATOM    241  CG  HIS d   1    -483.404 -42.828  78.070  0.00  0.00     0.053 A 
ATOM    242  ND1 HIS d   1    -483.735 -41.619  78.643  0.00  0.00    -0.247 NA
ATOM    243  CE1 HIS d   1    -483.772 -40.686  77.707  0.00  0.00     0.064 A 
ATOM    244  NE2 HIS d   1    -483.476 -41.247  76.549  0.00  0.00    -0.359 N 
ATOM    245  H65 HIS d   1    -484.007 -39.634  77.864  0.00  0.00     0.143 H 
ATOM    246  CD2 HIS d   1    -483.242 -42.586  76.748  0.00  0.00     0.002 A 
ATOM    247  H66 HIS d   1    -483.428 -40.760  75.643  0.00  0.00     0.166 HD
ATOM    248  H64 HIS d   1    -482.976 -43.316  75.985  0.00  0.00     0.114 H 
ENDBRANCH 238 241
ENDBRANCH   1 238
TORSDOF 71
