REMARK  8 active torsions:
REMARK  status: ('A' for Active; 'I' for Inactive)
REMARK    1  A    between atoms: C1_15  and  C1_1 
REMARK    2  A    between atoms: C2_2  and  O2_3 
REMARK    3  A    between atoms: C3_4  and  O3_5 
REMARK    4  A    between atoms: C4_6  and  O4_7 
REMARK    5  A    between atoms: C5_8  and  C6_9 
REMARK    6  A    between atoms: N1_14  and  S1_12 
REMARK    7  A    between atoms: S1_12  and  C2_16 
REMARK    8  A    between atoms: N1_14  and  C1_15 
ROOT
ATOM      1  C1  FUL d   1      33.996  -6.795 116.234  0.00  0.00     0.082 C 
ATOM      2  C2  FUL d   1      32.863  -6.514 115.220  0.00  0.00     0.089 C 
ATOM      3  C3  FUL d   1      32.360  -7.845 114.710  0.00  0.00     0.089 C 
ATOM      4  C4  FUL d   1      31.895  -8.714 115.868  0.00  0.00     0.087 C 
ATOM      5  C5  FUL d   1      32.943  -8.803 116.982  0.00  0.00     0.063 C 
ATOM      6  O5  FUL d   1      33.417  -7.475 117.364  0.00  0.00    -0.374 OA
ATOM      7  H1  FUL d   1      34.745  -7.454 115.770  0.00  0.00     0.090 H 
ATOM      8  H2  FUL d   1      32.063  -5.969 115.742  0.00  0.00     0.091 H 
ATOM      9  H4  FUL d   1      33.209  -8.345 114.221  0.00  0.00     0.091 H 
ATOM     10  H6  FUL d   1      31.704  -9.731 115.495  0.00  0.00     0.091 H 
ATOM     11  H8  FUL d   1      33.799  -9.372 116.590  0.00  0.00     0.086 H 
ENDROOT
BRANCH   1  12
ATOM     12  C1  PK6 d   1      34.673  -5.500 116.619  0.00  0.00     0.029 C 
ATOM     13  H13 FUL d   1      33.965  -4.815 117.109  0.00  0.00     0.069 H 
ATOM     14  H14 FUL d   1      35.112  -5.007 115.739  0.00  0.00     0.069 H 
BRANCH  12  15
ATOM     15  N1  PK6 d   1      35.722  -5.939 117.559  0.00  0.00    -0.312 N 
ATOM     16  H12 FUL d   1      35.790  -6.882 117.884  0.00  0.00     0.172 HD
BRANCH  15  17
ATOM     17  S1  PK6 d   1      36.751  -4.788 118.024  0.00  0.00     0.265 S 
ATOM     18  O1  PK6 d   1      36.030  -3.647 118.490  0.00  0.00    -0.200 OA
ATOM     19  O2  PK6 d   1      37.605  -5.402 119.014  0.00  0.00    -0.200 OA
BRANCH  17  20
ATOM     20  C2  PK6 d   1      37.662  -4.308 116.716  0.00  0.00     0.119 A 
ATOM     21  C3  PK6 d   1      38.705  -5.058 116.133  0.00  0.00    -0.053 A 
ATOM     22  C4  PK6 d   1      39.202  -4.304 115.055  0.00  0.00    -0.075 A 
ATOM     23  H15 FUL d   1      39.058  -6.036 116.457  0.00  0.00     0.086 H 
ATOM     24  C5  PK6 d   1      38.602  -3.038 114.891  0.00  0.00    -0.044 A 
ATOM     25  H16 FUL d   1      39.989  -4.669 114.397  0.00  0.00     0.084 H 
ATOM     26  S2  PK6 d   1      37.337  -2.749 116.039  0.00  0.00    -0.088 SA
ATOM     27  H17 FUL d   1      38.901  -2.321 114.127  0.00  0.00     0.095 H 
ENDBRANCH  17  20
ENDBRANCH  15  17
ENDBRANCH  12  15
ENDBRANCH   1  12
BRANCH   2  28
ATOM     28  O2  FUL d   1      33.217  -5.787 114.019  0.00  0.00    -0.390 OA
ATOM     29  H3  FUL d   1      33.563  -4.935 114.257  0.00  0.00     0.210 HD
ENDBRANCH   2  28
BRANCH   3  30
ATOM     30  O3  FUL d   1      31.288  -7.759 113.738  0.00  0.00    -0.390 OA
ATOM     31  H5  FUL d   1      31.033  -8.634 113.471  0.00  0.00     0.210 HD
ENDBRANCH   3  30
BRANCH   5  32
ATOM     32  C6  FUL d   1      32.417  -9.534 118.210  0.00  0.00    -0.050 C 
ATOM     33  H9  FUL d   1      33.203  -9.572 118.979  0.00  0.00     0.031 H 
ATOM     34  H10 FUL d   1      32.127 -10.558 117.931  0.00  0.00     0.031 H 
ATOM     35  H11 FUL d   1      31.541  -9.000 118.607  0.00  0.00     0.031 H 
ENDBRANCH   5  32
BRANCH   4  36
ATOM     36  O4  FUL d   1      30.657  -8.150 116.363  0.00  0.00    -0.390 OA
ATOM     37  H7  FUL d   1      30.340  -8.673 117.090  0.00  0.00     0.210 HD
ENDBRANCH   4  36
TORSDOF 8
