REMARK  6 active torsions:
REMARK  status: ('A' for Active; 'I' for Inactive)
REMARK    1  A    between atoms: S1_2  and  N1_4 
REMARK    2  A    between atoms: S1_2  and  C2_6 
REMARK    3  A    between atoms: N1_4  and  C1_5 
REMARK    4  A    between atoms: C9_7  and  C10_8 
REMARK    5  A    between atoms: C6_10  and  C7_11 
REMARK    6  A    between atoms: C3_13  and  C4_14 
ROOT
ATOM      1  C2  7KT d   1      -9.067   4.632  10.807  0.00  0.00     0.091 A 
ATOM      2  C9  7KT d   1      -8.814   3.378  10.258  0.00  0.00    -0.038 A 
ATOM      3  C8  7KT d   1      -9.727   2.849   9.328  0.00  0.00    -0.070 A 
ATOM      4  C6  7KT d   1     -10.820   3.605   8.925  0.00  0.00    -0.061 A 
ATOM      5  C5  7KT d   1     -11.042   4.860   9.463  0.00  0.00    -0.070 A 
ATOM      6  C3  7KT d   1     -10.160   5.385  10.415  0.00  0.00    -0.038 A 
ATOM      7  H8  7KT d   1      -9.578   1.853   8.927  0.00  0.00     0.085 H 
ATOM      8  H12 7KT d   1     -11.902   5.439   9.146  0.00  0.00     0.085 H 
ENDROOT
BRANCH   1   9
ATOM      9  S1  7KT d   1      -7.949   5.360  11.929  0.00  0.00     0.259 S 
ATOM     10  O2  7KT d   1      -7.108   4.333  12.409  0.00  0.00    -0.201 OA
ATOM     11  O1  7KT d   1      -8.641   6.150  12.919  0.00  0.00    -0.201 OA
BRANCH   9  12
ATOM     12  N1  7KT d   1      -7.096   6.396  10.992  0.00  0.00    -0.320 N 
ATOM     13  H1  7KT d   1      -7.212   7.384  11.092  0.00  0.00     0.171 HD
BRANCH  12  14
ATOM     14  C1  7KT d   1      -6.155   5.851   9.999  0.00  0.00    -0.011 C 
ATOM     15  H2  7KT d   1      -5.670   6.679   9.461  0.00  0.00     0.057 H 
ATOM     16  H3  7KT d   1      -6.702   5.219   9.284  0.00  0.00     0.057 H 
ATOM     17  H4  7KT d   1      -5.390   5.248  10.511  0.00  0.00     0.057 H 
ENDBRANCH  12  14
ENDBRANCH   9  12
ENDBRANCH   1   9
BRANCH   2  18
ATOM     18  C10 7KT d   1      -7.637   2.472  10.606  0.00  0.00    -0.050 C 
ATOM     19  H5  7KT d   1      -7.699   1.547  10.014  0.00  0.00     0.033 H 
ATOM     20  H6  7KT d   1      -7.669   2.225  11.677  0.00  0.00     0.033 H 
ATOM     21  H7  7KT d   1      -6.694   2.991  10.377  0.00  0.00     0.033 H 
ENDBRANCH   2  18
BRANCH   6  22
ATOM     22  C4  7KT d   1     -10.491   6.781  10.916  0.00  0.00    -0.050 C 
ATOM     23  H13 7KT d   1      -9.739   7.093  11.655  0.00  0.00     0.033 H 
ATOM     24  H14 7KT d   1     -11.486   6.776  11.385  0.00  0.00     0.033 H 
ATOM     25  H15 7KT d   1     -10.488   7.484  10.070  0.00  0.00     0.033 H 
ENDBRANCH   6  22
BRANCH   4  26
ATOM     26  C7  7KT d   1     -11.804   3.072   7.912  0.00  0.00    -0.051 C 
ATOM     27  H9  7KT d   1     -12.589   3.822   7.734  0.00  0.00     0.033 H 
ATOM     28  H10 7KT d   1     -12.261   2.148   8.295  0.00  0.00     0.033 H 
ATOM     29  H11 7KT d   1     -11.280   2.858   6.969  0.00  0.00     0.033 H 
ENDBRANCH   4  26
TORSDOF 6
