REMARK  7 active torsions:
REMARK  status: ('A' for Active; 'I' for Inactive)
REMARK    1  A    between atoms: C22_19  and  C19_16 
REMARK    2  A    between atoms: C23_46  and  C22_19 
REMARK    3  A    between atoms: C29_30  and  C30_22 
REMARK    4  A    between atoms: C33_25  and  S_28 
REMARK    5  A    between atoms: S_28  and  C36_29 
REMARK    6  A    between atoms: C4_31  and  C29_30 
REMARK    7  A    between atoms: N_44  and  C_45 
ROOT
ATOM      1  C1  7LW d   1      95.770  34.693  54.614  0.00  0.00    -0.001 C 
ATOM      2  C2  7LW d   1      97.217  34.879  55.038  0.00  0.00    -0.028 C 
ATOM      3  C3  7LW d   1      97.468  35.861  56.174  0.00  0.00     0.084 C 
ATOM      4  C7  7LW d   1      94.513  30.312  59.525  0.00  0.00     0.090 C 
ATOM      5  C8  7LW d   1      93.873  29.810  60.828  0.00  0.00    -0.034 C 
ATOM      6  C9  7LW d   1      93.328  28.375  60.710  0.00  0.00    -0.037 C 
ATOM      7  C10 7LW d   1      94.230  27.457  59.920  0.00  0.00    -0.031 A 
ATOM      8  C11 7LW d   1      94.900  26.431  60.580  0.00  0.00    -0.075 A 
ATOM      9  C12 7LW d   1      95.748  25.579  59.892  0.00  0.00    -0.082 A 
ATOM     10  C13 7LW d   1      95.950  25.747  58.540  0.00  0.00    -0.081 A 
ATOM     11  C14 7LW d   1      95.308  26.768  57.859  0.00  0.00    -0.056 A 
ATOM     12  C15 7LW d   1      94.441  27.616  58.543  0.00  0.00     0.044 A 
ATOM     13  C16 7LW d   1      93.688  29.952  58.284  0.00  0.00     0.247 C 
ATOM     14  C19 7LW d   1      95.748  30.380  54.507  0.00  0.00     0.024 C 
ATOM     15  C20 7LW d   1      95.056  31.727  54.296  0.00  0.00     0.028 C 
ATOM     16  C21 7LW d   1      95.761  32.595  53.274  0.00  0.00     0.221 C 
ATOM     17  C4  7LW d   1      97.024  34.247  58.121  0.00  0.00     0.113 C 
ATOM     18  N1  7LW d   1      96.902  35.579  57.498  0.00  0.00    -0.070 N 
ATOM     19  C5  7LW d   1      95.685  33.827  58.728  0.00  0.00     0.036 C 
ATOM     20  C6  7LW d   1      95.451  32.339  58.580  0.00  0.00     0.220 C 
ATOM     21  O   7LW d   1      95.864  31.723  57.602  0.00  0.00    -0.274 OA
ATOM     22  N2  7LW d   1      94.776  31.739  59.567  0.00  0.00    -0.348 N 
ATOM     23  O1  7LW d   1      93.011  30.791  57.716  0.00  0.00    -0.271 OA
ATOM     24  N3  7LW d   1      93.785  28.668  57.825  0.00  0.00    -0.307 N 
ATOM     25  C17 7LW d   1      93.193  28.371  56.523  0.00  0.00     0.076 C 
ATOM     26  C18 7LW d   1      93.869  28.991  55.311  0.00  0.00     0.236 C 
ATOM     27  O2  7LW d   1      93.354  28.907  54.200  0.00  0.00    -0.272 OA
ATOM     28  N4  7LW d   1      95.034  29.613  55.526  0.00  0.00    -0.354 N 
ATOM     29  O3  7LW d   1      96.403  32.082  52.368  0.00  0.00    -0.273 OA
ATOM     30  N   7LW d   1      95.615  33.935  53.369  0.00  0.00    -0.356 N 
ATOM     31  H1  7LW d   1      95.318  35.686  54.475  0.00  0.00     0.064 H 
ATOM     32  H2  7LW d   1      95.239  34.158  55.415  0.00  0.00     0.064 H 
ATOM     33  H3  7LW d   1      97.780  35.231  54.161  0.00  0.00     0.037 H 
ATOM     34  H4  7LW d   1      97.603  33.898  55.352  0.00  0.00     0.037 H 
ATOM     35  H5  7LW d   1      97.067  36.834  55.853  0.00  0.00     0.075 H 
ATOM     36  H6  7LW d   1      98.558  35.937  56.299  0.00  0.00     0.075 H 
ATOM     37  H7  7LW d   1      95.483  29.803  59.428  0.00  0.00     0.087 H 
ATOM     38  H8  7LW d   1      93.042  30.481  61.093  0.00  0.00     0.037 H 
ATOM     39  H9  7LW d   1      94.632  29.834  61.624  0.00  0.00     0.037 H 
ATOM     40  H10 7LW d   1      92.347  28.414  60.213  0.00  0.00     0.040 H 
ATOM     41  H11 7LW d   1      93.210  27.962  61.723  0.00  0.00     0.040 H 
ATOM     42  H12 7LW d   1      94.756  26.297  61.646  0.00  0.00     0.084 H 
ATOM     43  H13 7LW d   1      96.254  24.778  60.419  0.00  0.00     0.083 H 
ATOM     44  H14 7LW d   1      96.615  25.077  58.006  0.00  0.00     0.083 H 
ATOM     45  H15 7LW d   1      95.480  26.906  56.798  0.00  0.00     0.086 H 
ATOM     46  H16 7LW d   1      95.697  29.826  53.558  0.00  0.00     0.073 H 
ATOM     47  H17 7LW d   1      95.031  32.264  55.256  0.00  0.00     0.050 H 
ATOM     48  H18 7LW d   1      94.027  31.544  53.952  0.00  0.00     0.050 H 
ATOM     49  H31 7LW d   1      97.294  33.521  57.340  0.00  0.00     0.085 H 
ATOM     50  H32 7LW d   1      95.915  35.773  57.432  0.00  0.00     0.277 HD
ATOM     51  H33 7LW d   1      97.331  36.231  58.136  0.00  0.00     0.277 HD
ATOM     52  H34 7LW d   1      94.875  34.369  58.217  0.00  0.00     0.050 H 
ATOM     53  H35 7LW d   1      95.681  34.085  59.797  0.00  0.00     0.050 H 
ATOM     54  H36 7LW d   1      94.449  32.279  60.342  0.00  0.00     0.163 HD
ATOM     55  H37 7LW d   1      92.151  28.724  56.541  0.00  0.00     0.079 H 
ATOM     56  H38 7LW d   1      93.207  27.279  56.391  0.00  0.00     0.079 H 
ATOM     57  H39 7LW d   1      95.440  29.549  56.438  0.00  0.00     0.162 HD
ENDROOT
BRANCH  17  58
ATOM     58  C29 7LW d   1      98.131  34.244  59.186  0.00  0.00    -0.014 C 
ATOM     59  H29 7LW d   1      99.052  34.635  58.729  0.00  0.00     0.043 H 
ATOM     60  H30 7LW d   1      97.821  34.905  60.009  0.00  0.00     0.043 H 
BRANCH  58  61
ATOM     61  C30 7LW d   1      98.428  32.879  59.759  0.00  0.00    -0.056 A 
ATOM     62  C31 7LW d   1      98.123  32.582  61.081  0.00  0.00    -0.075 A 
ATOM     63  C32 7LW d   1      98.382  31.331  61.615  0.00  0.00    -0.062 A 
ATOM     64  H22 7LW d   1      97.674  33.344  61.707  0.00  0.00     0.084 H 
ATOM     65  C33 7LW d   1      98.951  30.355  60.813  0.00  0.00     0.058 A 
ATOM     66  H23 7LW d   1      98.142  31.117  62.650  0.00  0.00     0.085 H 
ATOM     67  C34 7LW d   1      99.261  30.626  59.489  0.00  0.00    -0.062 A 
ATOM     68  C35 7LW d   1      98.991  31.882  58.973  0.00  0.00    -0.075 A 
ATOM     69  H24 7LW d   1      99.710  29.862  58.864  0.00  0.00     0.085 H 
ATOM     70  H25 7LW d   1      99.224  32.091  57.935  0.00  0.00     0.084 H 
BRANCH  65  71
ATOM     71  S   7LW d   1      99.286  28.756  61.488  0.00  0.00     0.171 S 
ATOM     72  O4  7LW d   1     100.121  28.043  60.564  0.00  0.00    -0.223 OA
ATOM     73  O5  7LW d   1      99.761  28.927  62.831  0.00  0.00    -0.223 OA
BRANCH  71  74
ATOM     74  C36 7LW d   1      97.722  27.972  61.550  0.00  0.00     0.020 C 
ATOM     75  H26 7LW d   1      97.341  27.832  60.528  0.00  0.00     0.049 H 
ATOM     76  H27 7LW d   1      97.020  28.598  62.120  0.00  0.00     0.049 H 
ATOM     77  H28 7LW d   1      97.822  26.993  62.041  0.00  0.00     0.049 H 
ENDBRANCH  71  74
ENDBRANCH  65  71
ENDBRANCH  58  61
ENDBRANCH  17  58
BRANCH  30  78
ATOM     78  C   7LW d   1      95.316  34.714  52.175  0.00  0.00    -0.016 C 
ATOM     79  H40 7LW d   1      95.223  34.040  51.311  0.00  0.00     0.056 H 
ATOM     80  H41 7LW d   1      96.128  35.433  51.993  0.00  0.00     0.056 H 
ATOM     81  H42 7LW d   1      94.371  35.258  52.319  0.00  0.00     0.056 H 
ENDBRANCH  30  78
BRANCH  14  82
ATOM     82  C22 7LW d   1      97.231  30.511  54.891  0.00  0.00    -0.022 C 
ATOM     83  H19 7LW d   1      97.309  31.201  55.744  0.00  0.00     0.043 H 
ATOM     84  H20 7LW d   1      97.776  30.928  54.032  0.00  0.00     0.043 H 
BRANCH  82  85
ATOM     85  C23 7LW d   1      97.877  29.203  55.276  0.00  0.00    -0.054 A 
ATOM     86  C24 7LW d   1      98.030  28.838  56.607  0.00  0.00    -0.075 A 
ATOM     87  C25 7LW d   1      98.619  27.635  56.954  0.00  0.00    -0.060 A 
ATOM     88  H21 7LW d   1      97.683  29.506  57.387  0.00  0.00     0.084 H 
ATOM     89  C26 7LW d   1      99.067  26.775  55.965  0.00  0.00     0.055 A 
ATOM     90  H44 7LW d   1      98.730  27.366  57.998  0.00  0.00     0.086 H 
ATOM     91  C27 7LW d   1      98.917  27.130  54.629  0.00  0.00     0.056 A 
ATOM     92 CL1  7LW d   1      99.811  25.273  56.418  0.00  0.00    -0.083 Cl
ATOM     93  C28 7LW d   1      98.326  28.333  54.288  0.00  0.00    -0.054 A 
ATOM     94 CL   7LW d   1      99.464  26.085  53.357  0.00  0.00    -0.083 Cl
ATOM     95  H43 7LW d   1      98.212  28.600  53.243  0.00  0.00     0.086 H 
ENDBRANCH  82  85
ENDBRANCH  14  82
TORSDOF 7
