REMARK  1 active torsions:
REMARK  status: ('A' for Active; 'I' for Inactive)
REMARK    1  A    between atoms: C14_6  and  C02_7 
ROOT
ATOM      1  C02 7M2 d   1     115.747  26.031 -22.680  0.00  0.00     0.077 C 
ATOM      2  N01 7M2 d   1     114.861  26.689 -23.638  0.00  0.00    -0.374 N 
ATOM      3  C03 7M2 d   1     115.270  26.355 -21.277  0.00  0.00     0.044 A 
ATOM      4  C13 7M2 d   1     114.589  28.032 -23.453  0.00  0.00     0.056 A 
ATOM      5  C08 7M2 d   1     114.494  28.540 -22.145  0.00  0.00     0.065 A 
ATOM      6  N07 7M2 d   1     114.709  27.622 -21.078  0.00  0.00    -0.322 N 
ATOM      7  C09 7M2 d   1     114.245  29.909 -21.934  0.00  0.00    -0.054 A 
ATOM      8  C06 7M2 d   1     114.404  27.750 -19.725  0.00  0.00    -0.014 A 
ATOM      9  C05 7M2 d   1     114.783  26.599 -19.084  0.00  0.00    -0.066 A 
ATOM     10  C04 7M2 d   1     115.392  25.754 -20.047  0.00  0.00    -0.057 A 
ATOM     11  C10 7M2 d   1     114.066  30.747 -23.027  0.00  0.00    -0.081 A 
ATOM     12  C11 7M2 d   1     114.152  30.235 -24.340  0.00  0.00    -0.081 A 
ATOM     13  C12 7M2 d   1     114.408  28.882 -24.548  0.00  0.00    -0.055 A 
ATOM     14  H5  7M2 d   1     116.758  26.449 -22.796  0.00  0.00     0.090 H 
ATOM     15  H6  7M2 d   1     114.452  26.168 -24.427  0.00  0.00     0.160 HD
ATOM     16  H7  7M2 d   1     114.193  30.306 -20.927  0.00  0.00     0.087 H 
ATOM     17  H8  7M2 d   1     113.942  28.618 -19.256  0.00  0.00     0.112 H 
ATOM     18  H9  7M2 d   1     114.642  26.374 -18.028  0.00  0.00     0.085 H 
ATOM     19  H10 7M2 d   1     115.872  24.797 -19.847  0.00  0.00     0.086 H 
ATOM     20  H11 7M2 d   1     113.859  31.800 -22.871  0.00  0.00     0.083 H 
ATOM     21  H12 7M2 d   1     114.018  30.897 -25.188  0.00  0.00     0.083 H 
ATOM     22  H13 7M2 d   1     114.467  28.489 -25.556  0.00  0.00     0.087 H 
ENDROOT
BRANCH   1  23
ATOM     23  C14 7M2 d   1     115.834  24.539 -22.972  0.00  0.00    -0.012 A 
ATOM     24  C19 7M2 d   1     116.665  24.125 -23.985  0.00  0.00     0.010 A 
ATOM     25  N18 7M2 d   1     116.869  22.882 -24.328  0.00  0.00    -0.272 NA
ATOM     26  H1  7M2 d   1     117.192  24.890 -24.543  0.00  0.00     0.115 H 
ATOM     27  C17 7M2 d   1     116.270  21.931 -23.582  0.00  0.00     0.002 A 
ATOM     28  C16 7M2 d   1     115.394  22.232 -22.556  0.00  0.00    -0.065 A 
ATOM     29  H2  7M2 d   1     116.484  20.890 -23.796  0.00  0.00     0.114 H 
ATOM     30  C15 7M2 d   1     115.189  23.554 -22.232  0.00  0.00    -0.072 A 
ATOM     31  H3  7M2 d   1     114.879  21.444 -22.018  0.00  0.00     0.085 H 
ATOM     32  H4  7M2 d   1     114.534  23.823 -21.412  0.00  0.00     0.084 H 
ENDBRANCH   1  23
TORSDOF 1
