REMARK  3 active torsions:
REMARK  status: ('A' for Active; 'I' for Inactive)
REMARK    1  A    between atoms: C11_3  and  N1_12 
REMARK    2  A    between atoms: C9_11  and  O1_13 
REMARK    3  A    between atoms: C9_11  and  O2_14 
ROOT
ATOM      1  C1  7MK d   1     -66.072  16.067  -6.663  0.00  0.00    -0.076 A 
ATOM      2  C10 7MK d   1     -65.554  19.236  -9.689  0.00  0.00    -0.030 C 
ATOM      3  C11 7MK d   1     -64.513  19.833  -8.740  0.00  0.00     0.153 C 
ATOM      4  C2  7MK d   1     -67.588  15.253  -8.322  0.00  0.00    -0.082 A 
ATOM      5  C3  7MK d   1     -66.803  15.027  -7.214  0.00  0.00    -0.082 A 
ATOM      6  C4  7MK d   1     -66.106  17.339  -7.223  0.00  0.00    -0.047 A 
ATOM      7  C5  7MK d   1     -66.898  17.566  -8.345  0.00  0.00    -0.052 A 
ATOM      8  C6  7MK d   1     -67.645  16.520  -8.875  0.00  0.00    -0.076 A 
ATOM      9  C7  7MK d   1     -65.298  18.467  -6.625  0.00  0.00     0.013 C 
ATOM     10  C8  7MK d   1     -66.891  18.919  -9.012  0.00  0.00    -0.038 C 
ATOM     11  C9  7MK d   1     -64.135  18.967  -7.468  0.00  0.00     0.192 C 
ATOM     12  H1  7MK d   1     -65.465  15.886  -5.783  0.00  0.00     0.084 H 
ATOM     13  H2  7MK d   1     -65.148  18.304 -10.109  0.00  0.00     0.036 H 
ATOM     14  H3  7MK d   1     -65.737  19.955 -10.501  0.00  0.00     0.036 H 
ATOM     15  H4  7MK d   1     -64.939  20.776  -8.366  0.00  0.00     0.092 H 
ATOM     16  H5  7MK d   1     -68.159  14.442  -8.759  0.00  0.00     0.083 H 
ATOM     17  H6  7MK d   1     -66.757  14.038  -6.774  0.00  0.00     0.083 H 
ATOM     18  H7  7MK d   1     -68.281  16.700  -9.734  0.00  0.00     0.084 H 
ATOM     19  H8  7MK d   1     -64.893  18.119  -5.663  0.00  0.00     0.048 H 
ATOM     20  H9  7MK d   1     -65.978  19.314  -6.452  0.00  0.00     0.048 H 
ATOM     21  H10 7MK d   1     -67.685  18.941  -9.773  0.00  0.00     0.040 H 
ATOM     22  H11 7MK d   1     -67.091  19.688  -8.251  0.00  0.00     0.040 H 
ENDROOT
BRANCH   3  23
ATOM     23  N1  7MK d   1     -63.261  20.156  -9.479  0.00  0.00    -0.070 N 
ATOM     24  H12 7MK d   1     -63.484  20.708 -10.293  0.00  0.00     0.274 HD
ATOM     25  H13 7MK d   1     -62.810  19.301  -9.766  0.00  0.00     0.274 HD
ATOM     26  H14 7MK d   1     -62.642  20.678  -8.879  0.00  0.00     0.274 HD
ENDBRANCH   3  23
BRANCH  11  27
ATOM     27  O1  7MK d   1     -63.251  19.740  -6.694  0.00  0.00    -0.363 OA
ATOM     28  H15 7MK d   1     -62.544  20.056  -7.244  0.00  0.00     0.213 HD
ENDBRANCH  11  27
BRANCH  11  29
ATOM     29  O2  7MK d   1     -63.305  17.950  -7.927  0.00  0.00    -0.363 OA
ATOM     30  H16 7MK d   1     -63.806  17.355  -8.472  0.00  0.00     0.213 HD
ENDBRANCH  11  29
TORSDOF 3
