REMARK  4 active torsions:
REMARK  status: ('A' for Active; 'I' for Inactive)
REMARK    1  A    between atoms: C15_7  and  O1_19 
REMARK    2  A    between atoms: C15_7  and  O2_20 
REMARK    3  A    between atoms: C17_9  and  N1_18 
REMARK    4  A    between atoms: C6_14  and  C7_15 
ROOT
ATOM      1  C10 7ML d   1     -66.182  17.372  -7.034  0.00  0.00    -0.036 A 
ATOM      2  C11 7ML d   1     -66.927  17.524  -8.207  0.00  0.00    -0.051 A 
ATOM      3  C12 7ML d   1     -67.636  16.436  -8.708  0.00  0.00    -0.076 A 
ATOM      4  C13 7ML d   1     -65.337  18.576  -6.565  0.00  0.00     0.014 C 
ATOM      5  C14 7ML d   1     -66.954  18.861  -8.910  0.00  0.00    -0.038 C 
ATOM      6  C15 7ML d   1     -64.163  18.953  -7.444  0.00  0.00     0.192 C 
ATOM      7  C16 7ML d   1     -65.630  19.145  -9.628  0.00  0.00    -0.030 C 
ATOM      8  C17 7ML d   1     -64.561  19.758  -8.719  0.00  0.00     0.153 C 
ATOM      9  C7  7ML d   1     -66.172  16.146  -6.351  0.00  0.00    -0.019 A 
ATOM     10  C8  7ML d   1     -67.605  15.212  -8.058  0.00  0.00    -0.082 A 
ATOM     11  C9  7ML d   1     -66.896  15.068  -6.874  0.00  0.00    -0.072 A 
ATOM     12  H2  7ML d   1     -68.218  16.547  -9.616  0.00  0.00     0.084 H 
ATOM     13  H3  7ML d   1     -64.945  18.341  -5.564  0.00  0.00     0.048 H 
ATOM     14  H4  7ML d   1     -66.003  19.449  -6.502  0.00  0.00     0.048 H 
ATOM     15  H5  7ML d   1     -67.135  19.652  -8.167  0.00  0.00     0.040 H 
ATOM     16  H6  7ML d   1     -67.768  18.860  -9.649  0.00  0.00     0.040 H 
ATOM     17  H7  7ML d   1     -65.825  19.843 -10.455  0.00  0.00     0.036 H 
ATOM     18  H8  7ML d   1     -65.243  18.198 -10.031  0.00  0.00     0.036 H 
ATOM     19  H9  7ML d   1     -64.960  20.720  -8.364  0.00  0.00     0.092 H 
ATOM     20  H14 7ML d   1     -68.136  14.365  -8.476  0.00  0.00     0.083 H 
ATOM     21  H15 7ML d   1     -66.903  14.118  -6.352  0.00  0.00     0.084 H 
ENDROOT
BRANCH   9  22
ATOM     22  C6  7ML d   1     -65.459  15.980  -5.051  0.00  0.00    -0.025 A 
ATOM     23  C1  7ML d   1     -65.671  16.870  -4.006  0.00  0.00    -0.072 A 
ATOM     24  C2  7ML d   1     -64.986  16.733  -2.814  0.00  0.00    -0.082 A 
ATOM     25  H1  7ML d   1     -66.381  17.680  -4.127  0.00  0.00     0.084 H 
ATOM     26  C3  7ML d   1     -64.094  15.699  -2.637  0.00  0.00    -0.083 A 
ATOM     27  H10 7ML d   1     -65.152  17.444  -2.013  0.00  0.00     0.083 H 
ATOM     28  C4  7ML d   1     -63.909  14.783  -3.637  0.00  0.00    -0.082 A 
ATOM     29  H11 7ML d   1     -63.540  15.611  -1.709  0.00  0.00     0.083 H 
ATOM     30  C5  7ML d   1     -64.583  14.919  -4.839  0.00  0.00    -0.072 A 
ATOM     31  H12 7ML d   1     -63.233  13.949  -3.488  0.00  0.00     0.083 H 
ATOM     32  H13 7ML d   1     -64.426  14.190  -5.625  0.00  0.00     0.084 H 
ENDBRANCH   9  22
BRANCH   6  33
ATOM     33  O1  7ML d   1     -63.269  19.750  -6.691  0.00  0.00    -0.363 OA
ATOM     34  H19 7ML d   1     -62.550  20.028  -7.246  0.00  0.00     0.213 HD
ENDBRANCH   6  33
BRANCH   6  35
ATOM     35  O2  7ML d   1     -63.462  17.837  -7.920  0.00  0.00    -0.363 OA
ATOM     36  H20 7ML d   1     -64.048  17.290  -8.429  0.00  0.00     0.213 HD
ENDBRANCH   6  35
BRANCH   8  37
ATOM     37  N1  7ML d   1     -63.336  20.041  -9.570  0.00  0.00    -0.070 N 
ATOM     38  H16 7ML d   1     -62.614  20.446  -8.995  0.00  0.00     0.274 HD
ATOM     39  H17 7ML d   1     -63.580  20.684 -10.307  0.00  0.00     0.274 HD
ATOM     40  H18 7ML d   1     -63.001  19.180  -9.973  0.00  0.00     0.274 HD
ENDBRANCH   8  37
TORSDOF 4
