REMARK  4 active torsions:
REMARK  status: ('A' for Active; 'I' for Inactive)
REMARK    1  A    between atoms: C16_9  and  O2_2 
REMARK    2  A    between atoms: C16_9  and  O1_8 
REMARK    3  A    between atoms: C17_10  and  N1_20 
REMARK    4  A    between atoms: C4_14  and  C7_17 
ROOT
ATOM      1  C15 7MF d   1     -65.520  19.127  -9.432  0.00  0.00    -0.030 C 
ATOM      2  C13 7MF d   1     -66.794  18.878  -8.626  0.00  0.00    -0.038 C 
ATOM      3  C14 7MF d   1     -65.026  18.557  -6.407  0.00  0.00     0.014 C 
ATOM      4  C16 7MF d   1     -63.934  18.980  -7.374  0.00  0.00     0.192 C 
ATOM      5  C17 7MF d   1     -64.427  19.820  -8.620  0.00  0.00     0.153 C 
ATOM      6  C1  7MF d   1     -67.589  16.492  -8.231  0.00  0.00    -0.076 A 
ATOM      7  C2  7MF d   1     -67.554  15.285  -7.556  0.00  0.00    -0.082 A 
ATOM      8  C3  7MF d   1     -66.729  15.137  -6.466  0.00  0.00    -0.072 A 
ATOM      9  C4  7MF d   1     -65.919  16.197  -6.049  0.00  0.00    -0.019 A 
ATOM     10  C5  7MF d   1     -65.921  17.393  -6.784  0.00  0.00    -0.036 A 
ATOM     11  C6  7MF d   1     -66.771  17.561  -7.884  0.00  0.00    -0.051 A 
ATOM     12  H5  7MF d   1     -65.770  19.760 -10.296  0.00  0.00     0.036 H 
ATOM     13  H6  7MF d   1     -65.134  18.160  -9.786  0.00  0.00     0.036 H 
ATOM     14  H7  7MF d   1     -67.651  18.878  -9.315  0.00  0.00     0.040 H 
ATOM     15  H8  7MF d   1     -66.912  19.691  -7.895  0.00  0.00     0.040 H 
ATOM     16  H9  7MF d   1     -65.678  19.430  -6.253  0.00  0.00     0.048 H 
ATOM     17  H10 7MF d   1     -64.535  18.294  -5.459  0.00  0.00     0.048 H 
ATOM     18  H12 7MF d   1     -64.803  20.792  -8.269  0.00  0.00     0.092 H 
ATOM     19  H13 7MF d   1     -68.278  16.608  -9.059  0.00  0.00     0.084 H 
ATOM     20  H14 7MF d   1     -68.174  14.459  -7.885  0.00  0.00     0.083 H 
ATOM     21  H15 7MF d   1     -66.707  14.196  -5.929  0.00  0.00     0.084 H 
ENDROOT
BRANCH   9  22
ATOM     22  C7  7MF d   1     -65.078  15.995  -4.832  0.00  0.00    -0.025 A 
ATOM     23  C12 7MF d   1     -64.302  14.853  -4.693  0.00  0.00    -0.072 A 
ATOM     24  C11 7MF d   1     -63.544  14.639  -3.556  0.00  0.00    -0.082 A 
ATOM     25  H4  7MF d   1     -64.290  14.117  -5.488  0.00  0.00     0.084 H 
ATOM     26  C10 7MF d   1     -63.519  15.573  -2.564  0.00  0.00    -0.083 A 
ATOM     27  H3  7MF d   1     -62.968  13.726  -3.454  0.00  0.00     0.083 H 
ATOM     28  C9  7MF d   1     -64.321  16.684  -2.655  0.00  0.00    -0.082 A 
ATOM     29  H1  7MF d   1     -62.869  15.440  -1.707  0.00  0.00     0.083 H 
ATOM     30  C8  7MF d   1     -65.103  16.896  -3.776  0.00  0.00    -0.072 A 
ATOM     31  H17 7MF d   1     -64.341  17.401  -1.842  0.00  0.00     0.083 H 
ATOM     32  H16 7MF d   1     -65.740  17.772  -3.830  0.00  0.00     0.084 H 
ENDBRANCH   9  22
BRANCH   4  33
ATOM     33  O2  7MF d   1     -63.265  17.881  -7.897  0.00  0.00    -0.363 OA
ATOM     34  H2  7MF d   1     -63.881  17.329  -8.364  0.00  0.00     0.213 HD
ENDBRANCH   4  33
BRANCH   4  35
ATOM     35  O1  7MF d   1     -62.975  19.760  -6.694  0.00  0.00    -0.363 OA
ATOM     36  H11 7MF d   1     -62.301  20.035  -7.305  0.00  0.00     0.213 HD
ENDBRANCH   4  35
BRANCH   5  37
ATOM     37  N1  7MF d   1     -63.261  20.015  -9.519  0.00  0.00    -0.070 N 
ATOM     38  H18 7MF d   1     -63.544  20.549 -10.326  0.00  0.00     0.274 HD
ATOM     39  H19 7MF d   1     -62.912  19.117  -9.816  0.00  0.00     0.274 HD
ATOM     40  H20 7MF d   1     -62.535  20.511  -9.025  0.00  0.00     0.274 HD
ENDBRANCH   5  37
TORSDOF 4
