REMARK  2 active torsions:
REMARK  status: ('A' for Active; 'I' for Inactive)
REMARK    1  A    between atoms: C01_1  and  N02_2 
REMARK       I    between atoms: N02_2  and  C03_3 
REMARK    2  A    between atoms: C03_3  and  C05_5 
ROOT
ATOM      1  C05 7MU d   1      26.501   8.089   1.008  0.00  0.00     0.125 A 
ATOM      2  N06 7MU d   1      27.500   8.410   0.240  0.00  0.00    -0.255 NA
ATOM      3  C07 7MU d   1      28.596   7.684   0.205  0.00  0.00     0.005 A 
ATOM      4  C08 7MU d   1      28.723   6.562   0.980  0.00  0.00    -0.045 A 
ATOM      5  C09 7MU d   1      27.677   6.199   1.818  0.00  0.00     0.037 A 
ATOM      6  C10 7MU d   1      26.537   6.999   1.829  0.00  0.00    -0.029 A 
ATOM      7 CL   7MU d   1      27.797   4.814   2.820  0.00  0.00    -0.084 Cl
ATOM      8  H5  7MU d   1      29.411   7.978  -0.447  0.00  0.00     0.114 H 
ATOM      9  H6  7MU d   1      29.627   5.966   0.940  0.00  0.00     0.088 H 
ATOM     10  H7  7MU d   1      25.699   6.762   2.474  0.00  0.00     0.089 H 
ENDROOT
BRANCH   1  11
ATOM     11  C03 7MU d   1      25.324   9.002   1.001  0.00  0.00     0.269 C 
ATOM     12  N02 7MU d   1      25.569  10.346   0.639  0.00  0.00    -0.360 N 
ATOM     13  H4  7MU d   1      26.492  10.638   0.390  0.00  0.00     0.162 HD
ATOM     14  O04 7MU d   1      24.218   8.657   1.329  0.00  0.00    -0.266 OA
BRANCH  12  15
ATOM     15  C01 7MU d   1      24.519  11.264   0.630  0.00  0.00    -0.018 C 
ATOM     16  H1  7MU d   1      24.897  12.251   0.325  0.00  0.00     0.056 H 
ATOM     17  H2  7MU d   1      24.084  11.333   1.638  0.00  0.00     0.056 H 
ATOM     18  H3  7MU d   1      23.748  10.932  -0.080  0.00  0.00     0.056 H 
ENDBRANCH  12  15
ENDBRANCH   1  11
TORSDOF 2
