REMARK  4 active torsions:
REMARK  status: ('A' for Active; 'I' for Inactive)
REMARK    1  A    between atoms: O10_14  and  C11_3 
REMARK    2  A    between atoms: C02_6  and  C01_5 
REMARK    3  A    between atoms: C04_8  and  C02_6 
REMARK    4  A    between atoms: C06_10  and  O10_14 
ROOT
ATOM      1  C04 7MZ d   1    -107.622  42.481  28.193  0.00  0.00     0.012 A 
ATOM      2  C05 7MZ d   1    -106.339  42.744  28.681  0.00  0.00    -0.037 A 
ATOM      3  C06 7MZ d   1    -105.277  41.890  28.373  0.00  0.00     0.080 A 
ATOM      4  C07 7MZ d   1    -105.513  40.762  27.595  0.00  0.00    -0.050 A 
ATOM      5  C08 7MZ d   1    -106.788  40.492  27.111  0.00  0.00    -0.079 A 
ATOM      6  C09 7MZ d   1    -107.841  41.350  27.409  0.00  0.00    -0.069 A 
ATOM      7  H7  7MZ d   1    -106.167  43.616  29.302  0.00  0.00     0.089 H 
ATOM      8  H8  7MZ d   1    -104.696  40.088  27.364  0.00  0.00     0.087 H 
ATOM      9  H9  7MZ d   1    -106.961  39.613  26.501  0.00  0.00     0.083 H 
ATOM     10  H10 7MZ d   1    -108.835  41.139  27.030  0.00  0.00     0.085 H 
ENDROOT
BRANCH   3  11
ATOM     11  O10 7MZ d   1    -103.953  42.091  28.843  0.00  0.00    -0.277 OA
BRANCH  11  12
ATOM     12  C11 7MZ d   1    -103.432  43.412  28.923  0.00  0.00     0.273 A 
ATOM     13  N12 7MZ d   1    -103.853  44.367  28.097  0.00  0.00    -0.219 NA
ATOM     14  C13 7MZ d   1    -103.359  45.618  28.165  0.00  0.00     0.008 A 
ATOM     15  C14 7MZ d   1    -102.369  45.890  29.134  0.00  0.00    -0.049 A 
ATOM     16  H2  7MZ d   1    -103.711  46.394  27.495  0.00  0.00     0.115 H 
ATOM     17  C15 7MZ d   1    -101.944  44.846  29.979  0.00  0.00     0.008 A 
ATOM     18  H1  7MZ d   1    -101.944  46.883  29.226  0.00  0.00     0.087 H 
ATOM     19  N16 7MZ d   1    -102.495  43.625  29.842  0.00  0.00    -0.219 NA
ATOM     20  H3  7MZ d   1    -101.183  45.023  30.730  0.00  0.00     0.115 H 
ENDBRANCH  11  12
ENDBRANCH   3  11
BRANCH   1  21
ATOM     21  C02 7MZ d   1    -108.784  43.410  28.513  0.00  0.00     0.155 C 
ATOM     22  O03 7MZ d   1    -109.916  43.102  28.191  0.00  0.00    -0.293 OA
BRANCH  21  23
ATOM     23  C01 7MZ d   1    -108.553  44.724  29.232  0.00  0.00    -0.017 C 
ATOM     24  H4  7MZ d   1    -107.480  44.841  29.446  0.00  0.00     0.038 H 
ATOM     25  H5  7MZ d   1    -109.118  44.730  30.176  0.00  0.00     0.038 H 
ATOM     26  H6  7MZ d   1    -108.893  45.555  28.596  0.00  0.00     0.038 H 
ENDBRANCH  21  23
ENDBRANCH   1  21
TORSDOF 4
