REMARK WARNING: 32 MAX_TORS EXCEEDED!!!
REMARK  37 active torsions:
REMARK  status: ('A' for Active; 'I' for Inactive)
REMARK    1  A    between atoms: N_1  and  CA_2 
REMARK    2  A    between atoms: CA_2  and  C_3 
REMARK    3  A    between atoms: CA_2  and  CB_5 
REMARK       I    between atoms: C_3  and  N_9 
REMARK    4  A    between atoms: CB_5  and  CG_6 
REMARK    5  A    between atoms: N_9  and  CA_10 
REMARK    6  A    between atoms: CA_10  and  C_11 
REMARK    7  A    between atoms: CA_10  and  CB_13 
REMARK       I    between atoms: C_11  and  N_16 
REMARK    8  A    between atoms: CB_13  and  OG1_14 
REMARK    9  A    between atoms: CB_13  and  CG2_15 
REMARK   10  A    between atoms: N_16  and  CA_17 
REMARK   11  A    between atoms: CA_17  and  C_18 
REMARK   12  A    between atoms: CA_17  and  CB_20 
REMARK       I    between atoms: C_18  and  N_21 
REMARK   13  A    between atoms: N_21  and  CA_22 
REMARK   14  A    between atoms: CA_22  and  C_23 
REMARK   15  A    between atoms: CA_22  and  CB_25 
REMARK       I    between atoms: C_23  and  N_29 
REMARK   16  A    between atoms: CB_25  and  CG_26 
REMARK   17  A    between atoms: CG_26  and  SD_27 
REMARK   18  A    between atoms: SD_27  and  CE_28 
REMARK   19  A    between atoms: N_29  and  CA_30 
REMARK   20  A    between atoms: CA_30  and  C_31 
REMARK   21  A    between atoms: CA_30  and  CB_33 
REMARK       I    between atoms: C_31  and  N_38 
REMARK   22  A    between atoms: CB_33  and  CG_34 
REMARK   23  A    between atoms: CG_34  and  CD_35 
REMARK   24  A    between atoms: N_38  and  CA_39 
REMARK   25  A    between atoms: CA_39  and  C_40 
REMARK   26  A    between atoms: CA_39  and  CB_42 
REMARK       I    between atoms: C_40  and  N_47 
REMARK   27  A    between atoms: CB_42  and  CG_43 
REMARK   28  A    between atoms: CG_43  and  CD_44 
REMARK   29  A    between atoms: N_47  and  CA_48 
REMARK   30  A    between atoms: CA_48  and  C_49 
REMARK   31  A    between atoms: CA_48  and  CB_51 
REMARK       I    between atoms: C_49  and  N_54 
REMARK   32  A    between atoms: CB_51  and  CG1_52 
REMARK   33  A    between atoms: CB_51  and  CG2_53 
REMARK   34  A    between atoms: N_54  and  CA_55 
REMARK   35  A    between atoms: CA_55  and  C_56 
REMARK   36  A    between atoms: CA_55  and  CB_58 
REMARK   37  A    between atoms: CB_58  and  CG_59 
ROOT
ATOM      1  N   GLU d   1     -32.883  24.167  59.729  0.00  0.00    -0.346 N 
ATOM      2  H28 GLU d   1     -33.144  24.011  58.776  0.00  0.00     0.163 HD
ATOM      3  C   MET d   1     -33.617  25.010  60.431  0.00  0.00     0.241 C 
ATOM      4  O   MET d   1     -33.321  25.338  61.589  0.00  0.00    -0.271 OA
ENDROOT
BRANCH   1   5
ATOM      5  CA  GLU d   1     -31.712  23.440  60.239  0.00  0.00     0.090 C 
ATOM      6  H29 GLU d   1     -31.091  23.203  59.363  0.00  0.00     0.087 H 
BRANCH   5   7
ATOM      7  C   GLU d   1     -32.170  22.123  60.844  0.00  0.00     0.241 C 
ATOM      8  O   GLU d   1     -31.396  21.180  60.771  0.00  0.00    -0.271 OA
ATOM      9  N   GLU d   1     -33.413  22.007  61.378  0.00  0.00    -0.346 N 
ATOM     10  H34 GLU d   1     -33.998  22.817  61.414  0.00  0.00     0.163 HD
BRANCH   9  11
ATOM     11  CA  GLU d   1     -33.929  20.742  61.903  0.00  0.00     0.090 C 
ATOM     12  H35 GLU d   1     -33.141  20.288  62.523  0.00  0.00     0.087 H 
BRANCH  11  13
ATOM     13  C   GLU d   1     -34.241  19.791  60.761  0.00  0.00     0.241 C 
ATOM     14  O   GLU d   1     -34.618  20.225  59.667  0.00  0.00    -0.271 OA
ATOM     15  N   VAL d   1     -34.060  18.504  61.017  0.00  0.00    -0.346 N 
ATOM     16  H40 VAL d   1     -33.779  18.247  61.942  0.00  0.00     0.163 HD
BRANCH  15  17
ATOM     17  CA  VAL d   1     -34.242  17.445  60.047  0.00  0.00     0.092 C 
ATOM     18  H41 VAL d   1     -34.416  17.862  59.044  0.00  0.00     0.088 H 
BRANCH  17  19
ATOM     19  C   VAL d   1     -35.499  16.641  60.459  0.00  0.00     0.241 C 
ATOM     20  O   VAL d   1     -35.834  16.603  61.654  0.00  0.00    -0.271 OA
ATOM     21  N   ASP d   1     -36.255  16.104  59.465  0.00  0.00    -0.344 N 
ATOM     22  H49 ASP d   1     -35.937  16.190  58.521  0.00  0.00     0.163 HD
BRANCH  21  23
ATOM     23  CA  ASP d   1     -37.525  15.399  59.722  0.00  0.00     0.105 C 
ATOM     24  H50 ASP d   1     -37.862  15.693  60.727  0.00  0.00     0.090 H 
BRANCH  23  25
ATOM     25  C   ASP d   1     -37.418  13.852  59.705  0.00  0.00     0.197 C 
ATOM     26  O   ASP d   1     -36.333  13.302  59.409  0.00  0.00    -0.646 OA
ATOM     27  OXT ASP d   1     -38.447  13.191  59.980  0.00  0.00    -0.646 OA
ENDBRANCH  23  25
BRANCH  23  28
ATOM     28  CB  ASP d   1     -38.596  15.847  58.703  0.00  0.00     0.044 C 
ATOM     29  H51 ASP d   1     -39.525  15.304  58.931  0.00  0.00     0.053 H 
ATOM     30  H52 ASP d   1     -38.244  15.565  57.700  0.00  0.00     0.053 H 
BRANCH  28  31
ATOM     31  CG  ASP d   1     -38.921  17.335  58.681  0.00  0.00     0.175 C 
ATOM     32  OD1 ASP d   1     -39.089  17.927  59.773  0.00  0.00    -0.648 OA
ATOM     33  OD2 ASP d   1     -39.086  17.885  57.574  0.00  0.00    -0.648 OA
ENDBRANCH  28  31
ENDBRANCH  23  28
ENDBRANCH  21  23
ENDBRANCH  17  19
BRANCH  17  34
ATOM     34  CB  VAL d   1     -32.893  16.690  60.045  0.00  0.00    -0.033 C 
ATOM     35  H42 VAL d   1     -32.171  17.427  60.428  0.00  0.00     0.042 H 
BRANCH  34  36
ATOM     36  CG1 VAL d   1     -32.805  15.544  61.028  0.00  0.00    -0.071 C 
ATOM     37  H43 VAL d   1     -31.814  15.072  60.953  0.00  0.00     0.028 H 
ATOM     38  H44 VAL d   1     -33.583  14.802  60.797  0.00  0.00     0.028 H 
ATOM     39  H45 VAL d   1     -32.953  15.925  62.049  0.00  0.00     0.028 H 
ENDBRANCH  34  36
BRANCH  34  40
ATOM     40  CG2 VAL d   1     -32.391  16.360  58.668  0.00  0.00    -0.071 C 
ATOM     41  H46 VAL d   1     -32.490  17.243  58.020  0.00  0.00     0.028 H 
ATOM     42  H47 VAL d   1     -32.982  15.531  58.251  0.00  0.00     0.028 H 
ATOM     43  H48 VAL d   1     -31.333  16.064  58.724  0.00  0.00     0.028 H 
ENDBRANCH  34  40
ENDBRANCH  17  34
ENDBRANCH  15  17
ENDBRANCH  11  13
BRANCH  11  44
ATOM     44  CB  GLU d   1     -35.163  20.938  62.787  0.00  0.00    -0.029 C 
ATOM     45  H36 GLU d   1     -35.806  20.050  62.694  0.00  0.00     0.037 H 
ATOM     46  H37 GLU d   1     -35.710  21.826  62.436  0.00  0.00     0.037 H 
BRANCH  44  47
ATOM     47  CG  GLU d   1     -34.812  21.133  64.256  0.00  0.00     0.018 C 
ATOM     48  H38 GLU d   1     -34.365  22.133  64.359  0.00  0.00     0.049 H 
ATOM     49  H39 GLU d   1     -34.066  20.369  64.521  0.00  0.00     0.049 H 
BRANCH  47  50
ATOM     50  CD  GLU d   1     -35.944  21.034  65.264  0.00  0.00     0.172 C 
ATOM     51  OE1 GLU d   1     -37.084  20.708  64.860  0.00  0.00    -0.648 OA
ATOM     52  OE2 GLU d   1     -35.680  21.255  66.468  0.00  0.00    -0.648 OA
ENDBRANCH  47  50
ENDBRANCH  44  47
ENDBRANCH  11  44
ENDBRANCH   9  11
ENDBRANCH   5   7
BRANCH   5  53
ATOM     53  CB  GLU d   1     -30.784  24.211  61.226  0.00  0.00    -0.029 C 
ATOM     54  H30 GLU d   1     -30.364  23.486  61.938  0.00  0.00     0.037 H 
ATOM     55  H31 GLU d   1     -31.397  24.946  61.769  0.00  0.00     0.037 H 
BRANCH  53  56
ATOM     56  CG  GLU d   1     -29.625  24.954  60.565  0.00  0.00     0.018 C 
ATOM     57  H32 GLU d   1     -29.071  24.227  59.953  0.00  0.00     0.049 H 
ATOM     58  H33 GLU d   1     -28.973  25.331  61.366  0.00  0.00     0.049 H 
BRANCH  56  59
ATOM     59  CD  GLU d   1     -29.978  26.128  59.672  0.00  0.00     0.172 C 
ATOM     60  OE1 GLU d   1     -30.874  26.928  60.031  0.00  0.00    -0.648 OA
ATOM     61  OE2 GLU d   1     -29.323  26.268  58.617  0.00  0.00    -0.648 OA
ENDBRANCH  56  59
ENDBRANCH  53  56
ENDBRANCH   5  53
ENDBRANCH   1   5
BRANCH   3  62
ATOM     62  CA  MET d   1     -34.871  25.589  59.817  0.00  0.00     0.090 C 
ATOM     63  H20 MET d   1     -35.374  24.850  59.176  0.00  0.00     0.087 H 
BRANCH  62  64
ATOM     64  N   MET d   1     -35.655  25.871  61.003  0.00  0.00    -0.346 N 
ATOM     65  C   GLU d   1     -36.272  24.965  61.760  0.00  0.00     0.240 C 
ATOM     66  O   GLU d   1     -36.407  23.790  61.428  0.00  0.00    -0.271 OA
ATOM     67  H19 MET d   1     -35.740  26.829  61.277  0.00  0.00     0.163 HD
BRANCH  65  68
ATOM     68  CA  GLU d   1     -36.885  25.491  63.048  0.00  0.00     0.086 C 
ATOM     69  H15 GLU d   1     -36.540  26.525  63.198  0.00  0.00     0.086 H 
BRANCH  68  70
ATOM     70  N   GLU d   1     -38.330  25.507  62.927  0.00  0.00    -0.346 N 
ATOM     71  C   THR d   1     -39.008  26.511  62.344  0.00  0.00     0.243 C 
ATOM     72  O   THR d   1     -38.470  27.516  61.872  0.00  0.00    -0.271 OA
ATOM     73  H14 GLU d   1     -38.847  24.734  63.295  0.00  0.00     0.163 HD
BRANCH  71  74
ATOM     74  CA  THR d   1     -40.520  26.325  62.236  0.00  0.00     0.113 C 
ATOM     75  H8  THR d   1     -40.794  25.429  62.812  0.00  0.00     0.091 H 
BRANCH  74  76
ATOM     76  N   THR d   1     -41.209  27.474  62.859  0.00  0.00    -0.344 N 
ATOM     77  C   ASP d   1     -41.497  27.487  64.195  0.00  0.00     0.249 C 
ATOM     78  O   ASP d   1     -41.253  26.532  64.937  0.00  0.00    -0.271 OA
ATOM     79  H7  THR d   1     -41.469  28.256  62.293  0.00  0.00     0.163 HD
BRANCH  77  80
ATOM     80  CA  ASP d   1     -42.138  28.747  64.819  0.00  0.00     0.185 C 
ATOM     81  H4  ASP d   1     -42.051  28.660  65.912  0.00  0.00     0.100 H 
BRANCH  80  82
ATOM     82  N   ASP d   1     -41.413  29.950  64.405  0.00  0.00    -0.066 N 
ATOM     83  H1  ASP d   1     -41.844  30.761  64.820  0.00  0.00     0.275 HD
ATOM     84  H2  ASP d   1     -41.442  30.031  63.401  0.00  0.00     0.275 HD
ATOM     85  H3  ASP d   1     -40.454  29.886  64.709  0.00  0.00     0.275 HD
ENDBRANCH  80  82
BRANCH  80  86
ATOM     86  CB  ASP d   1     -43.637  28.858  64.479  0.00  0.00     0.050 C 
ATOM     87  H5  ASP d   1     -43.729  28.954  63.387  0.00  0.00     0.052 H 
ATOM     88  H6  ASP d   1     -44.026  29.767  64.961  0.00  0.00     0.052 H 
BRANCH  86  89
ATOM     89  CG  ASP d   1     -44.500  27.694  64.918  0.00  0.00     0.175 C 
ATOM     90  OD1 ASP d   1     -44.640  27.486  66.150  0.00  0.00    -0.648 OA
ATOM     91  OD2 ASP d   1     -45.096  27.033  64.034  0.00  0.00    -0.648 OA
ENDBRANCH  86  89
ENDBRANCH  80  86
ENDBRANCH  77  80
ENDBRANCH  74  76
BRANCH  74  92
ATOM     92  CB  THR d   1     -40.925  26.063  60.772  0.00  0.00     0.060 C 
ATOM     93  H9  THR d   1     -40.830  27.002  60.207  0.00  0.00     0.086 H 
BRANCH  92  94
ATOM     94  OG1 THR d   1     -42.275  25.621  60.737  0.00  0.00    -0.393 OA
ATOM     95  H10 THR d   1     -42.836  26.291  61.110  0.00  0.00     0.210 HD
ENDBRANCH  92  94
BRANCH  92  96
ATOM     96  CG2 THR d   1     -40.054  24.991  60.103  0.00  0.00    -0.050 C 
ATOM     97  H11 THR d   1     -40.386  24.845  59.064  0.00  0.00     0.031 H 
ATOM     98  H12 THR d   1     -40.149  24.044  60.655  0.00  0.00     0.031 H 
ATOM     99  H13 THR d   1     -39.003  25.316  60.110  0.00  0.00     0.031 H 
ENDBRANCH  92  96
ENDBRANCH  74  92
ENDBRANCH  71  74
ENDBRANCH  68  70
BRANCH  68 100
ATOM    100  CB  GLU d   1     -36.430  24.659  64.259  0.00  0.00    -0.049 C 
ATOM    101  H16 GLU d   1     -35.332  24.669  64.319  0.00  0.00     0.030 H 
ATOM    102  H17 GLU d   1     -36.781  23.623  64.145  0.00  0.00     0.030 H 
ATOM    103  H18 GLU d   1     -36.852  25.090  65.179  0.00  0.00     0.030 H 
ENDBRANCH  68 100
ENDBRANCH  65  68
ENDBRANCH  62  64
BRANCH  62 104
ATOM    104  CB  MET d   1     -34.590  26.853  58.991  0.00  0.00    -0.030 C 
ATOM    105  H21 MET d   1     -34.159  26.544  58.027  0.00  0.00     0.037 H 
ATOM    106  H22 MET d   1     -33.860  27.466  59.540  0.00  0.00     0.037 H 
BRANCH 104 107
ATOM    107  CG  MET d   1     -35.812  27.708  58.711  0.00  0.00    -0.021 C 
ATOM    108  H23 MET d   1     -35.476  28.627  58.208  0.00  0.00     0.049 H 
ATOM    109  H24 MET d   1     -36.275  27.966  59.675  0.00  0.00     0.049 H 
BRANCH 107 110
ATOM    110  SD  MET d   1     -37.074  26.932  57.675  0.00  0.00    -0.173 SA
BRANCH 110 111
ATOM    111  CE  MET d   1     -38.477  27.868  58.175  0.00  0.00    -0.035 C 
ATOM    112  H25 MET d   1     -39.365  27.519  57.627  0.00  0.00     0.041 H 
ATOM    113  H26 MET d   1     -38.305  28.932  57.955  0.00  0.00     0.041 H 
ATOM    114  H27 MET d   1     -38.638  27.738  59.255  0.00  0.00     0.041 H 
ENDBRANCH 110 111
ENDBRANCH 107 110
ENDBRANCH 104 107
ENDBRANCH  62 104
ENDBRANCH   3  62
TORSDOF 37
