REMARK  10 active torsions:
REMARK  status: ('A' for Active; 'I' for Inactive)
REMARK    1  A    between atoms: CAB_2  and  OAE_3 
REMARK       I    between atoms: NAD_5  and  C_6 
REMARK    2  A    between atoms: C_6  and  CA_8 
REMARK    3  A    between atoms: CA_8  and  N_9 
REMARK    4  A    between atoms: NAL_14  and  CAO_15 
REMARK    5  A    between atoms: CAQ_19  and  CAX_20 
REMARK    6  A    between atoms: CAV_23  and  CAY_24 
REMARK    7  A    between atoms: CAY_24  and  CAZ_25 
REMARK    8  A    between atoms: CAW_26  and  NBA_27 
REMARK    9  A    between atoms: NBA_27  and  CBB_28 
REMARK   10  A    between atoms: NBA_27  and  CBC_29 
ROOT
ATOM      1  CBC 7NB d   1     100.264   1.485  25.984  0.00  0.00     0.176 A 
ATOM      2  NBG 7NB d   1      99.158   0.738  26.023  0.00  0.00    -0.221 NA
ATOM      3  SBD 7NB d   1     101.617   0.455  26.182  0.00  0.00    -0.038 SA
ATOM      4  CBE 7NB d   1     100.643  -0.946  26.313  0.00  0.00     0.118 A 
ATOM      5  CBI 7NB d   1     101.142  -2.274  26.508  0.00  0.00     0.109 C 
ATOM      6  N1  7NB d   1     101.538  -3.331  26.663  0.00  0.00    -0.191 NA
ATOM      7  CBF 7NB d   1      99.364  -0.576  26.201  0.00  0.00     0.097 A 
ATOM      8  CBH 7NB d   1      98.338  -1.425  26.258  0.00  0.00    -0.005 A 
ATOM      9  CBJ 7NB d   1      97.167  -1.037  26.901  0.00  0.00    -0.068 A 
ATOM     10  CBK 7NB d   1      96.085  -1.906  26.970  0.00  0.00    -0.045 A 
ATOM     11  CBL 7NB d   1      96.168  -3.169  26.395  0.00  0.00     0.116 A 
ATOM     12  FBO 7NB d   1      95.108  -4.020  26.463  0.00  0.00    -0.206 F 
ATOM     13  CBM 7NB d   1      97.336  -3.559  25.752  0.00  0.00    -0.045 A 
ATOM     14  CBN 7NB d   1      98.419  -2.689  25.682  0.00  0.00    -0.068 A 
ATOM     15  H31 7NB d   1      97.098  -0.053  27.350  0.00  0.00     0.085 H 
ATOM     16  H32 7NB d   1      95.175  -1.599  27.473  0.00  0.00     0.088 H 
ATOM     17  H33 7NB d   1      97.404  -4.544  25.304  0.00  0.00     0.088 H 
ATOM     18  H34 7NB d   1      99.328  -2.996  25.178  0.00  0.00     0.085 H 
ENDROOT
BRANCH   1  19
ATOM     19  NBA 7NB d   1     100.297   2.805  25.817  0.00  0.00    -0.314 N 
BRANCH  19  20
ATOM     20  CAW 7NB d   1     101.452   3.467  25.793  0.00  0.00     0.142 A 
ATOM     21  NAS 7NB d   1     101.911   4.176  26.822  0.00  0.00    -0.288 N 
ATOM     22  CAT 7NB d   1     101.320   4.365  28.075  0.00  0.00     0.014 A 
ATOM     23  CAR 7NB d   1     103.078   4.707  26.467  0.00  0.00     0.142 A 
ATOM     24  CAO 7NB d   1     101.996   5.156  28.999  0.00  0.00     0.047 A 
ATOM     25  H18 7NB d   1     100.362   3.908  28.320  0.00  0.00     0.116 H 
ATOM     26  CAP 7NB d   1     103.217   5.703  28.611  0.00  0.00    -0.047 A 
ATOM     27  CAQ 7NB d   1     103.737   5.465  27.341  0.00  0.00    -0.013 A 
ATOM     28  H19 7NB d   1     103.773   6.325  29.311  0.00  0.00     0.088 H 
ATOM     29  NAU 7NB d   1     103.353   4.335  25.218  0.00  0.00    -0.231 NA
ATOM     30  CAV 7NB d   1     102.343   3.572  24.813  0.00  0.00     0.081 A 
BRANCH  24  31
ATOM     31  NAL 7NB d   1     101.496   5.385  30.226  0.00  0.00    -0.377 N 
ATOM     32  CAM 7NB d   1     102.339   6.072  31.234  0.00  0.00     0.018 C 
ATOM     33  CAN 7NB d   1     101.492   6.681  32.336  0.00  0.00     0.099 C 
ATOM     34  H12 7NB d   1     103.034   5.343  31.677  0.00  0.00     0.066 H 
ATOM     35  H13 7NB d   1     102.911   6.870  30.739  0.00  0.00     0.066 H 
ATOM     36  N   7NB d   1     100.613   5.643  32.883  0.00  0.00    -0.060 N 
ATOM     37  H10 7NB d   1     102.144   7.070  33.132  0.00  0.00     0.078 H 
ATOM     38  H11 7NB d   1     100.885   7.501  31.925  0.00  0.00     0.078 H 
ATOM     39  CAJ 7NB d   1      99.577   5.385  31.873  0.00  0.00     0.099 C 
ATOM     40  H9  7NB d   1     101.139   4.801  33.057  0.00  0.00     0.280 HD
ATOM     41  CAK 7NB d   1     100.169   4.825  30.587  0.00  0.00     0.018 C 
ATOM     42  H14 7NB d   1      99.059   6.328  31.645  0.00  0.00     0.078 H 
ATOM     43  H15 7NB d   1      98.857   4.660  32.279  0.00  0.00     0.078 H 
ATOM     44  H16 7NB d   1      99.470   5.040  29.765  0.00  0.00     0.066 H 
ATOM     45  H17 7NB d   1     100.275   3.736  30.703  0.00  0.00     0.066 H 
BRANCH  36  46
ATOM     46  CA  7NB d   1     100.010   6.108  34.142  0.00  0.00     0.156 C 
ATOM     47  H7  7NB d   1     100.786   6.570  34.770  0.00  0.00     0.090 H 
ATOM     48  H8  7NB d   1      99.229   6.850  33.920  0.00  0.00     0.090 H 
BRANCH  46  49
ATOM     49  C   7NB d   1      99.390   4.925  34.889  0.00  0.00     0.245 C 
ATOM     50  NAD 7NB d   1      98.062   4.984  35.071  0.00  0.00    -0.346 N 
ATOM     51  CAA 7NB d   1      96.996   5.952  34.714  0.00  0.00     0.023 A 
ATOM     52  CAC 7NB d   1      97.066   4.096  35.717  0.00  0.00     0.023 A 
ATOM     53  CAB 7NB d   1      95.963   5.092  35.419  0.00  0.00     0.066 A 
ATOM     54  H1  7NB d   1      97.129   6.948  35.161  0.00  0.00     0.068 H 
ATOM     55  H2  7NB d   1      96.829   6.055  33.632  0.00  0.00     0.068 H 
ATOM     56  H3  7NB d   1      95.148   4.716  34.783  0.00  0.00     0.087 H 
ATOM     57  H5  7NB d   1      96.940   3.126  35.214  0.00  0.00     0.068 H 
ATOM     58  H6  7NB d   1      97.243   3.933  36.790  0.00  0.00     0.068 H 
ATOM     59  O   7NB d   1     100.092   3.995  35.284  0.00  0.00    -0.272 OA
BRANCH  53  60
ATOM     60  OAE 7NB d   1      95.436   5.713  36.601  0.00  0.00    -0.392 OA
ATOM     61  H4  7NB d   1      94.797   5.136  37.002  0.00  0.00     0.210 HD
ENDBRANCH  53  60
ENDBRANCH  46  49
ENDBRANCH  36  46
ENDBRANCH  24  31
BRANCH  27  62
ATOM     62  CAX 7NB d   1     104.958   6.028  26.987  0.00  0.00    -0.048 C 
ATOM     63  H20 7NB d   1     105.349   6.616  27.830  0.00  0.00     0.033 H 
ATOM     64  H21 7NB d   1     104.820   6.684  26.115  0.00  0.00     0.033 H 
ATOM     65  H22 7NB d   1     105.671   5.229  26.736  0.00  0.00     0.033 H 
ENDBRANCH  27  62
BRANCH  30  66
ATOM     66  CAY 7NB d   1     102.255   2.928  23.430  0.00  0.00    -0.024 C 
ATOM     67  H23 7NB d   1     101.747   1.956  23.510  0.00  0.00     0.042 H 
ATOM     68  H24 7NB d   1     103.269   2.780  23.029  0.00  0.00     0.042 H 
BRANCH  66  69
ATOM     69  CAZ 7NB d   1     101.464   3.841  22.491  0.00  0.00    -0.071 C 
ATOM     70  H25 7NB d   1     101.401   3.377  21.496  0.00  0.00     0.028 H 
ATOM     71  H26 7NB d   1     101.972   4.813  22.411  0.00  0.00     0.028 H 
ATOM     72  H27 7NB d   1     100.450   3.989  22.891  0.00  0.00     0.028 H 
ENDBRANCH  66  69
ENDBRANCH  30  66
ENDBRANCH  19  20
BRANCH  19  73
ATOM     73  CBB 7NB d   1      99.041   3.559  25.683  0.00  0.00    -0.010 C 
ATOM     74  H28 7NB d   1      99.267   4.628  25.554  0.00  0.00     0.057 H 
ATOM     75  H29 7NB d   1      98.431   3.420  26.588  0.00  0.00     0.057 H 
ATOM     76  H30 7NB d   1      98.485   3.193  24.807  0.00  0.00     0.057 H 
ENDBRANCH  19  73
ENDBRANCH   1  19
TORSDOF 10
