REMARK  13 active torsions:
REMARK  status: ('A' for Active; 'I' for Inactive)
REMARK    1  A    between atoms: C4_1  and  N1_12 
REMARK    2  A    between atoms: N6_20  and  C14_2 
REMARK    3  A    between atoms: C14_2  and  C15_21 
REMARK    4  A    between atoms: C14_2  and  C16_22 
REMARK    5  A    between atoms: C5_3  and  N3_15 
REMARK    6  A    between atoms: C6_4  and  C7_6 
REMARK    7  A    between atoms: N3_15  and  C6_4 
REMARK    8  A    between atoms: N1_12  and  C3_14 
REMARK    9  A    between atoms: C3_14  and  C2_17 
REMARK   10  A    between atoms: C3_14  and  C18_25 
REMARK   11  A    between atoms: C2_17  and  C1_16 
REMARK   12  A    between atoms: C18_25  and  C19_26 
REMARK   13  A    between atoms: C18_25  and  O1_27 
ROOT
ATOM      1  C4  8QT d   1      12.536  -9.023   9.646  0.00  0.00     0.726 A 
ATOM      2  C5  8QT d   1      10.948 -10.412  10.655  0.00  0.00     0.176 A 
ATOM      3  C12 8QT d   1      11.852 -10.627  11.698  0.00  0.00     0.151 A 
ATOM      4  C13 8QT d   1      12.898 -11.108  13.464  0.00  0.00     0.069 A 
ATOM      5  N2  8QT d   1      11.318  -9.617   9.636  0.00  0.00    -0.043 NA
ATOM      6  N5  8QT d   1      11.755 -11.365  12.879  0.00  0.00    -0.236 NA
ATOM      7  N6  8QT d   1      13.757 -10.322  12.744  0.00  0.00    -0.320 N 
ATOM      8  C17 8QT d   1      13.059  -9.957  11.612  0.00  0.00     0.183 A 
ATOM      9  N7  8QT d   1      13.474  -9.157  10.611  0.00  0.00    -0.042 NA
ATOM     10  H8  8QT d   1      13.147 -11.492  14.452  0.00  0.00     0.143 H 
ENDROOT
BRANCH   1  11
ATOM     11  N1  8QT d   1      12.799  -8.187   8.628  0.00  0.00    -0.215 N 
ATOM     12  H9  8QT d   1      12.040  -7.951   7.972  0.00  0.00     0.178 HD
BRANCH  11  13
ATOM     13  C3  8QT d   1      14.121  -7.599   8.415  0.00  0.00     0.050 C 
ATOM     14  H10 8QT d   1      14.870  -8.328   8.758  0.00  0.00     0.077 H 
BRANCH  13  15
ATOM     15  C2  8QT d   1      14.346  -7.382   6.921  0.00  0.00    -0.047 C 
ATOM     16  H15 8QT d   1      15.373  -7.019   6.772  0.00  0.00     0.035 H 
ATOM     17  H16 8QT d   1      13.633  -6.622   6.568  0.00  0.00     0.035 H 
BRANCH  15  18
ATOM     18  C1  8QT d   1      14.158  -8.630   6.102  0.00  0.00    -0.075 C 
ATOM     19  H12 8QT d   1      14.335  -8.402   5.040  0.00  0.00     0.027 H 
ATOM     20  H13 8QT d   1      13.131  -9.002   6.231  0.00  0.00     0.027 H 
ATOM     21  H14 8QT d   1      14.871  -9.398   6.436  0.00  0.00     0.027 H 
ENDBRANCH  15  18
ENDBRANCH  13  15
BRANCH  13  22
ATOM     22  C18 8QT d   1      14.324  -6.318   9.252  0.00  0.00     0.052 C 
ATOM     23  H23 8QT d   1      14.153  -6.577  10.307  0.00  0.00     0.085 H 
BRANCH  22  24
ATOM     24  C19 8QT d   1      15.715  -5.751   9.099  0.00  0.00    -0.051 C 
ATOM     25  H24 8QT d   1      15.810  -4.843   9.712  0.00  0.00     0.031 H 
ATOM     26  H25 8QT d   1      15.895  -5.501   8.043  0.00  0.00     0.031 H 
ATOM     27  H26 8QT d   1      16.453  -6.496   9.431  0.00  0.00     0.031 H 
ENDBRANCH  22  24
BRANCH  22  28
ATOM     28  O1  8QT d   1      13.438  -5.265   8.882  0.00  0.00    -0.394 OA
ATOM     29  H27 8QT d   1      12.540  -5.566   8.959  0.00  0.00     0.210 HD
ENDBRANCH  22  28
ENDBRANCH  13  22
ENDBRANCH  11  13
ENDBRANCH   1  11
BRANCH   2  30
ATOM     30  N3  8QT d   1       9.737 -10.976  10.664  0.00  0.00    -0.368 N 
ATOM     31  H11 8QT d   1       9.562 -11.741  11.331  0.00  0.00     0.161 HD
BRANCH  30  32
ATOM     32  C6  8QT d   1       8.651 -10.571   9.785  0.00  0.00     0.019 C 
ATOM     33  H2  8QT d   1       7.733 -10.454  10.380  0.00  0.00     0.071 H 
ATOM     34  H3  8QT d   1       8.909  -9.610   9.316  0.00  0.00     0.071 H 
BRANCH  32  35
ATOM     35  C7  8QT d   1       8.409 -11.596   8.705  0.00  0.00    -0.023 A 
ATOM     36  C11 8QT d   1       8.008 -11.221   7.445  0.00  0.00     0.009 A 
ATOM     37  N4  8QT d   1       7.791 -12.085   6.446  0.00  0.00    -0.273 NA
ATOM     38  H4  8QT d   1       7.859 -10.165   7.249  0.00  0.00     0.115 H 
ATOM     39  C10 8QT d   1       7.985 -13.385   6.721  0.00  0.00     0.002 A 
ATOM     40  C9  8QT d   1       8.372 -13.842   7.935  0.00  0.00    -0.065 A 
ATOM     41  H7  8QT d   1       7.823 -14.107   5.929  0.00  0.00     0.114 H 
ATOM     42  C8  8QT d   1       8.587 -12.935   8.939  0.00  0.00    -0.072 A 
ATOM     43  H6  8QT d   1       8.509 -14.903   8.109  0.00  0.00     0.085 H 
ATOM     44  H5  8QT d   1       8.898 -13.277   9.920  0.00  0.00     0.084 H 
ENDBRANCH  32  35
ENDBRANCH  30  32
ENDBRANCH   2  30
BRANCH   7  45
ATOM     45  C14 8QT d   1      15.080  -9.830  13.161  0.00  0.00     0.012 C 
ATOM     46  H1  8QT d   1      15.373 -10.369  14.074  0.00  0.00     0.072 H 
BRANCH  45  47
ATOM     47  C15 8QT d   1      14.980  -8.365  13.500  0.00  0.00    -0.057 C 
ATOM     48  H17 8QT d   1      15.967  -7.993  13.812  0.00  0.00     0.030 H 
ATOM     49  H18 8QT d   1      14.260  -8.227  14.320  0.00  0.00     0.030 H 
ATOM     50  H19 8QT d   1      14.641  -7.806  12.615  0.00  0.00     0.030 H 
ENDBRANCH  45  47
BRANCH  45  51
ATOM     51  C16 8QT d   1      16.138 -10.116  12.103  0.00  0.00    -0.057 C 
ATOM     52  H20 8QT d   1      17.112  -9.736  12.446  0.00  0.00     0.030 H 
ATOM     53  H21 8QT d   1      15.861  -9.617  11.163  0.00  0.00     0.030 H 
ATOM     54  H22 8QT d   1      16.206 -11.201  11.936  0.00  0.00     0.030 H 
ENDBRANCH  45  51
ENDBRANCH   7  45
TORSDOF 13
