REMARK  9 active torsions:
REMARK  status: ('A' for Active; 'I' for Inactive)
REMARK    1  A    between atoms: PB_1  and  O3A_5 
REMARK    2  A    between atoms: O3A_5  and  PA_6 
REMARK    3  A    between atoms: PA_6  and  O5'_9 
REMARK    4  A    between atoms: O5'_9  and  C5'_10 
REMARK    5  A    between atoms: C5'_10  and  C4'_11 
REMARK    6  A    between atoms: C3'_13  and  O3'_14 
REMARK    7  A    between atoms: C2'_15  and  O2'_16 
REMARK    8  A    between atoms: C1'_17  and  N9_18 
REMARK    9  A    between atoms: C2_25  and  N2_26 
ROOT
ATOM      1  C4' GDP d   1      -5.806  37.149  -1.792  0.00  0.00     0.089 C 
ATOM      2  O4' GDP d   1      -5.547  37.499  -0.428  0.00  0.00    -0.353 OA
ATOM      3  C3' GDP d   1      -5.726  35.633  -1.872  0.00  0.00     0.091 C 
ATOM      4  C2' GDP d   1      -6.020  35.246  -0.449  0.00  0.00     0.105 C 
ATOM      5  C1' GDP d   1      -5.245  36.314   0.293  0.00  0.00     0.139 C 
ATOM      6  H3  GDP d   1      -5.034  37.588  -2.441  0.00  0.00     0.090 H 
ATOM      7  H4  GDP d   1      -6.448  35.206  -2.584  0.00  0.00     0.091 H 
ATOM      8  H6  GDP d   1      -7.096  35.351  -0.246  0.00  0.00     0.093 H 
ATOM      9  H8  GDP d   1      -4.163  36.118   0.319  0.00  0.00     0.122 H 
ENDROOT
BRANCH   5  10
ATOM     10  N9  GDP d   1      -5.810  36.347   1.644  0.00  0.00    -0.295 N 
ATOM     11  C8  GDP d   1      -7.112  36.356   1.962  0.00  0.00     0.071 A 
ATOM     12  N7  GDP d   1      -7.248  36.372   3.305  0.00  0.00    -0.234 NA
ATOM     13  H9  GDP d   1      -7.934  36.351   1.247  0.00  0.00     0.144 H 
ATOM     14  C5  GDP d   1      -6.025  36.368   3.865  0.00  0.00     0.171 A 
ATOM     15  C6  GDP d   1      -5.456  36.378   5.232  0.00  0.00     0.292 A 
ATOM     16  C4  GDP d   1      -5.082  36.351   2.749  0.00  0.00     0.161 A 
ATOM     17  O6  GDP d   1      -6.202  36.388   6.228  0.00  0.00    -0.265 OA
ATOM     18  N1  GDP d   1      -4.121  36.370   5.345  0.00  0.00    -0.154 N 
ATOM     19  C2  GDP d   1      -3.311  36.349   4.265  0.00  0.00     0.680 A 
ATOM     20  H10 GDP d   1      -3.712  36.380   6.257  0.00  0.00     0.187 HD
ATOM     21  N3  GDP d   1      -3.761  36.345   2.999  0.00  0.00    -0.174 N 
ATOM     22  H13 GDP d   1      -3.091  36.337   2.217  0.00  0.00     0.186 HD
BRANCH  19  23
ATOM     23  N2  GDP d   1      -1.974  36.349   4.409  0.00  0.00    -0.234 N 
ATOM     24  H11 GDP d   1      -1.367  36.333   3.577  0.00  0.00     0.174 HD
ATOM     25  H12 GDP d   1      -1.558  36.365   5.351  0.00  0.00     0.174 HD
ENDBRANCH  19  23
ENDBRANCH   5  10
BRANCH   4  26
ATOM     26  O2' GDP d   1      -5.651  33.910  -0.105  0.00  0.00    -0.388 OA
ATOM     27  H7  GDP d   1      -4.716  33.798  -0.233  0.00  0.00     0.210 HD
ENDBRANCH   4  26
BRANCH   1  28
ATOM     28  C5' GDP d   1      -7.174  37.687  -2.229  0.00  0.00     0.058 C 
ATOM     29  H1  GDP d   1      -7.173  38.783  -2.140  0.00  0.00     0.079 H 
ATOM     30  H2  GDP d   1      -7.352  37.404  -3.277  0.00  0.00     0.079 H 
BRANCH  28  31
ATOM     31  O5' GDP d   1      -8.221  37.156  -1.420  0.00  0.00    -0.287 OA
BRANCH  31  32
ATOM     32  PA  GDP d   1      -9.730  37.080  -1.967  0.00  0.00     0.418 P 
ATOM     33  O1A GDP d   1      -9.807  36.389  -3.302  0.00  0.00    -0.624 OA
ATOM     34  O2A GDP d   1     -10.645  36.393  -0.985  0.00  0.00    -0.624 OA
BRANCH  32  35
ATOM     35  O3A GDP d   1     -10.040  38.652  -2.085  0.00  0.00    -0.173 OA
BRANCH  35  36
ATOM     36  PB  GDP d   1     -11.476  39.230  -2.545  0.00  0.00     0.431 P 
ATOM     37  O1B GDP d   1     -11.246  39.910  -3.888  0.00  0.00    -0.616 OA
ATOM     38  O2B GDP d   1     -11.887  40.270  -1.508  0.00  0.00    -0.616 OA
ATOM     39  O3B GDP d   1     -12.509  38.112  -2.623  0.00  0.00    -0.616 OA
ENDBRANCH  35  36
ENDBRANCH  32  35
ENDBRANCH  31  32
ENDBRANCH  28  31
ENDBRANCH   1  28
BRANCH   3  40
ATOM     40  O3' GDP d   1      -4.391  35.254  -2.205  0.00  0.00    -0.390 OA
ATOM     41  H5  GDP d   1      -4.335  34.307  -2.256  0.00  0.00     0.210 HD
ENDBRANCH   3  40
TORSDOF 9
