REMARK  10 active torsions:
REMARK  status: ('A' for Active; 'I' for Inactive)
REMARK    1  A    between atoms: CAH_1  and  CAG_2 
REMARK       I    between atoms: CAG_2  and  NAI_4 
REMARK    2  A    between atoms: NAI_4  and  CAB_5 
REMARK    3  A    between atoms: CAC_6  and  OAJ_7 
REMARK    4  A    between atoms: CAD_8  and  OAK_9 
REMARK    5  A    between atoms: CAE_10  and  CAF_11 
REMARK    6  A    between atoms: CAF_11  and  OAM_12 
REMARK    7  A    between atoms: CAA_14  and  NAY_15 
REMARK    8  A    between atoms: NAY_15  and  OAQ_16 
REMARK    9  A    between atoms: OAQ_16  and  CAP_17 
REMARK       I    between atoms: CAP_17  and  NAO_19 
REMARK   10  A    between atoms: NAO_19  and  CAS_20 
ROOT
ATOM      1  CAB OAN d   1      31.579   7.250  12.371  0.00  0.00     0.091 C 
ATOM      2  CAC OAN d   1      30.184   6.903  12.936  0.00  0.00     0.086 C 
ATOM      3  CAD OAN d   1      29.503   5.906  11.961  0.00  0.00     0.089 C 
ATOM      4  CAE OAN d   1      30.331   4.606  12.153  0.00  0.00     0.088 C 
ATOM      5  OAL OAN d   1      31.632   4.810  11.650  0.00  0.00    -0.345 OA
ATOM      6  CAA OAN d   1      32.007   6.110  11.463  0.00  0.00     0.243 C 
ATOM      7  H5  OAN d   1      31.497   8.165  11.767  0.00  0.00     0.083 H 
ATOM      8  H6  OAN d   1      30.255   6.459  13.940  0.00  0.00     0.090 H 
ATOM      9  H8  OAN d   1      29.501   6.248  10.916  0.00  0.00     0.091 H 
ATOM     10  H10 OAN d   1      30.368   4.335  13.218  0.00  0.00     0.090 H 
ATOM     11  H14 OAN d   1      32.919   5.942  12.055  0.00  0.00     0.137 H 
ENDROOT
BRANCH   6  12
ATOM     12  NAY OAN d   1      32.695   6.460  10.412  0.00  0.00     0.077 N 
ATOM     13  H15 OAN d   1      33.242   7.272  10.653  0.00  0.00     0.319 HD
ATOM     14  H16 OAN d   1      32.045   6.698   9.679  0.00  0.00     0.319 HD
BRANCH  12  15
ATOM     15  OAQ OAN d   1      33.526   5.528   9.940  0.00  0.00    -0.101 OA
BRANCH  15  16
ATOM     16  CAP OAN d   1      33.718   5.764   8.603  0.00  0.00     0.392 C 
ATOM     17  OAR OAN d   1      33.123   5.111   7.738  0.00  0.00    -0.236 OA
ATOM     18  NAO OAN d   1      34.644   6.767   8.422  0.00  0.00    -0.301 N 
ATOM     19  H17 OAN d   1      35.216   7.086   9.178  0.00  0.00     0.171 HD
BRANCH  18  20
ATOM     20  CAS OAN d   1      34.758   7.327   7.138  0.00  0.00     0.036 A 
ATOM     21  CAT OAN d   1      34.645   8.719   6.995  0.00  0.00    -0.057 A 
ATOM     22  CAU OAN d   1      34.772   9.261   5.732  0.00  0.00    -0.081 A 
ATOM     23  H18 OAN d   1      34.462   9.353   7.855  0.00  0.00     0.086 H 
ATOM     24  CAV OAN d   1      35.014   8.437   4.640  0.00  0.00    -0.083 A 
ATOM     25  H19 OAN d   1      34.683  10.332   5.592  0.00  0.00     0.083 H 
ATOM     26  CAW OAN d   1      35.130   7.064   4.806  0.00  0.00    -0.081 A 
ATOM     27  H20 OAN d   1      35.113   8.870   3.651  0.00  0.00     0.083 H 
ATOM     28  CAX OAN d   1      35.013   6.492   6.060  0.00  0.00    -0.057 A 
ATOM     29  H21 OAN d   1      35.314   6.433   3.944  0.00  0.00     0.083 H 
ATOM     30  H22 OAN d   1      35.118   5.422   6.196  0.00  0.00     0.086 H 
ENDBRANCH  18  20
ENDBRANCH  15  16
ENDBRANCH  12  15
ENDBRANCH   6  12
BRANCH   1  31
ATOM     31  NAI OAN d   1      32.542   7.507  13.443  0.00  0.00    -0.350 N 
ATOM     32  CAG OAN d   1      32.885   6.487  14.343  0.00  0.00     0.214 C 
ATOM     33  OAN OAN d   1      32.410   5.361  14.261  0.00  0.00    -0.274 OA
ATOM     34  H4  OAN d   1      32.957   8.412  13.534  0.00  0.00     0.163 HD
BRANCH  32  35
ATOM     35  CAH OAN d   1      33.877   6.882  15.404  0.00  0.00    -0.003 C 
ATOM     36  H1  OAN d   1      34.155   7.938  15.271  0.00  0.00     0.040 H 
ATOM     37  H2  OAN d   1      34.775   6.253  15.319  0.00  0.00     0.040 H 
ATOM     38  H3  OAN d   1      33.426   6.744  16.398  0.00  0.00     0.040 H 
ENDBRANCH  32  35
ENDBRANCH   1  31
BRANCH   2  39
ATOM     39  OAJ OAN d   1      29.512   8.117  12.982  0.00  0.00    -0.391 OA
ATOM     40  H7  OAN d   1      28.636   7.980  13.323  0.00  0.00     0.210 HD
ENDBRANCH   2  39
BRANCH   4  41
ATOM     41  CAF OAN d   1      29.692   3.469  11.328  0.00  0.00     0.043 C 
ATOM     42  H11 OAN d   1      28.754   3.145  11.802  0.00  0.00     0.078 H 
ATOM     43  H12 OAN d   1      30.385   2.617  11.266  0.00  0.00     0.078 H 
BRANCH  41  44
ATOM     44  OAM OAN d   1      29.432   3.962  10.052  0.00  0.00    -0.398 OA
ATOM     45  H13 OAN d   1      30.246   4.244   9.651  0.00  0.00     0.209 HD
ENDBRANCH  41  44
ENDBRANCH   4  41
BRANCH   3  46
ATOM     46  OAK OAN d   1      28.212   5.744  12.456  0.00  0.00    -0.390 OA
ATOM     47  H9  OAN d   1      27.735   5.139  11.900  0.00  0.00     0.210 HD
ENDBRANCH   3  46
TORSDOF 10
