REMARK  7 active torsions:
REMARK  status: ('A' for Active; 'I' for Inactive)
REMARK    1  A    between atoms: C3_3  and  O3_10 
REMARK    2  A    between atoms: C4_4  and  O4_11 
REMARK    3  A    between atoms: C5_5  and  C6_6 
REMARK    4  A    between atoms: C6_6  and  O6_14 
REMARK    5  A    between atoms: N1_13  and  C7_7 
REMARK    6  A    between atoms: C9_16  and  C10_8 
REMARK    7  A    between atoms: N1_13  and  C9_16 
ROOT
ATOM      1  C1  NHT d   1      32.058   5.752  12.427  0.00  0.00     0.114 C 
ATOM      2  C2  NHT d   1      31.274   7.060  12.612  0.00  0.00     0.096 C 
ATOM      3  C3  NHT d   1      29.842   6.826  13.064  0.00  0.00     0.087 C 
ATOM      4  C4  NHT d   1      29.170   5.899  12.082  0.00  0.00     0.089 C 
ATOM      5  C5  NHT d   1      29.937   4.587  12.092  0.00  0.00     0.087 C 
ATOM      6  C7  NHT d   1      32.553   6.784  14.505  0.00  0.00     0.160 C 
ATOM      7  N2  NHT d   1      31.978   7.618  13.741  0.00  0.00    -0.256 NA
ATOM      8  O5  NHT d   1      31.309   4.793  11.712  0.00  0.00    -0.363 OA
ATOM      9  S1  NHT d   1      32.581   5.164  14.018  0.00  0.00    -0.058 SA
ATOM     10  H1  NHT d   1      32.959   5.974  11.835  0.00  0.00     0.104 H 
ATOM     11  H2  NHT d   1      31.306   7.696  11.715  0.00  0.00     0.085 H 
ATOM     12  H3  NHT d   1      29.841   6.351  14.056  0.00  0.00     0.090 H 
ATOM     13  H4  NHT d   1      29.198   6.337  11.073  0.00  0.00     0.091 H 
ATOM     14  H5  NHT d   1      29.910   4.207  13.124  0.00  0.00     0.090 H 
ENDROOT
BRANCH   6  15
ATOM     15  N1  NHT d   1      33.091   7.183  15.654  0.00  0.00    -0.370 N 
ATOM     16  H13 NHT d   1      33.025   8.177  15.916  0.00  0.00     0.161 HD
BRANCH  15  17
ATOM     17  C9  NHT d   1      33.770   6.262  16.554  0.00  0.00    -0.009 C 
ATOM     18  H15 NHT d   1      33.034   5.556  16.966  0.00  0.00     0.063 H 
ATOM     19  H16 NHT d   1      34.534   5.707  15.990  0.00  0.00     0.063 H 
BRANCH  17  20
ATOM     20  C10 NHT d   1      34.438   7.001  17.695  0.00  0.00    -0.061 C 
ATOM     21  H8  NHT d   1      34.941   6.279  18.355  0.00  0.00     0.029 H 
ATOM     22  H9  NHT d   1      33.679   7.554  18.267  0.00  0.00     0.029 H 
ATOM     23  H10 NHT d   1      35.179   7.706  17.291  0.00  0.00     0.029 H 
ENDBRANCH  17  20
ENDBRANCH  15  17
ENDBRANCH   6  15
BRANCH   3  24
ATOM     24  O3  NHT d   1      29.189   8.093  13.158  0.00  0.00    -0.391 OA
ATOM     25  H11 NHT d   1      28.292   7.965  13.443  0.00  0.00     0.210 HD
ENDBRANCH   3  24
BRANCH   4  26
ATOM     26  O4  NHT d   1      27.813   5.698  12.470  0.00  0.00    -0.390 OA
ATOM     27  H12 NHT d   1      27.397   5.096  11.864  0.00  0.00     0.210 HD
ENDBRANCH   4  26
BRANCH   5  28
ATOM     28  C6  NHT d   1      29.389   3.501  11.184  0.00  0.00     0.043 C 
ATOM     29  H6  NHT d   1      28.523   3.035  11.676  0.00  0.00     0.078 H 
ATOM     30  H7  NHT d   1      30.172   2.745  11.027  0.00  0.00     0.078 H 
BRANCH  28  31
ATOM     31  O6  NHT d   1      28.977   4.002   9.914  0.00  0.00    -0.398 OA
ATOM     32  H14 NHT d   1      28.294   4.651  10.037  0.00  0.00     0.209 HD
ENDBRANCH  28  31
ENDBRANCH   5  28
TORSDOF 7
