REMARK  9 active torsions:
REMARK  status: ('A' for Active; 'I' for Inactive)
REMARK    1  A    between atoms: CAH_1  and  CAG_2 
REMARK       I    between atoms: CAG_2  and  NAI_4 
REMARK    2  A    between atoms: NAI_4  and  CAB_5 
REMARK    3  A    between atoms: CAC_6  and  OAJ_7 
REMARK    4  A    between atoms: CAD_8  and  OAK_9 
REMARK    5  A    between atoms: CAE_10  and  CAF_11 
REMARK    6  A    between atoms: CAF_11  and  OAM_12 
REMARK    7  A    between atoms: NAY_15  and  OAQ_16 
REMARK    8  A    between atoms: OAQ_16  and  CAP_17 
REMARK       I    between atoms: CAP_17  and  NAO_19 
REMARK    9  A    between atoms: NAO_19  and  CAS_20 
ROOT
ATOM      1  CAB OAN d   1      31.390   7.274  11.130  0.00  0.00     0.105 C 
ATOM      2  CAC OAN d   1      30.020   6.959  11.768  0.00  0.00     0.089 C 
ATOM      3  CAD OAN d   1      29.260   5.989  10.825  0.00  0.00     0.090 C 
ATOM      4  CAE OAN d   1      30.012   4.631  10.880  0.00  0.00     0.094 C 
ATOM      5  OAL OAN d   1      31.343   4.824  10.460  0.00  0.00    -0.324 OA
ATOM      6  CAA OAN d   1      31.743   6.108  10.226  0.00  0.00     0.194 C 
ATOM      7  NAY OAN d   1      32.661   6.355   9.337  0.00  0.00    -0.100 NA
ATOM      8  H5  OAN d   1      31.309   8.189  10.525  0.00  0.00     0.090 H 
ATOM      9  H6  OAN d   1      30.134   6.506  12.764  0.00  0.00     0.090 H 
ATOM     10  H8  OAN d   1      29.218   6.371   9.794  0.00  0.00     0.091 H 
ATOM     11  H10 OAN d   1      29.984   4.220  11.900  0.00  0.00     0.091 H 
ENDROOT
BRANCH   1  12
ATOM     12  NAI OAN d   1      32.402   7.488  12.159  0.00  0.00    -0.347 N 
ATOM     13  CAG OAN d   1      32.754   6.427  13.003  0.00  0.00     0.214 C 
ATOM     14  OAN OAN d   1      32.235   5.322  12.898  0.00  0.00    -0.274 OA
ATOM     15  H4  OAN d   1      32.839   8.382  12.261  0.00  0.00     0.163 HD
BRANCH  13  16
ATOM     16  CAH OAN d   1      33.797   6.752  14.037  0.00  0.00    -0.003 C 
ATOM     17  H1  OAN d   1      34.106   7.802  13.929  0.00  0.00     0.040 H 
ATOM     18  H2  OAN d   1      34.669   6.097  13.896  0.00  0.00     0.040 H 
ATOM     19  H3  OAN d   1      33.379   6.595  15.042  0.00  0.00     0.040 H 
ENDBRANCH  13  16
ENDBRANCH   1  12
BRANCH   7  20
ATOM     20  OAQ OAN d   1      33.077   5.300   8.662  0.00  0.00    -0.153 OA
BRANCH  20  21
ATOM     21  CAP OAN d   1      33.295   5.682   7.367  0.00  0.00     0.389 C 
ATOM     22  OAR OAN d   1      32.555   5.311   6.448  0.00  0.00    -0.236 OA
ATOM     23  NAO OAN d   1      34.405   6.489   7.291  0.00  0.00    -0.301 N 
ATOM     24  H14 OAN d   1      34.981   6.652   8.092  0.00  0.00     0.171 HD
BRANCH  23  25
ATOM     25  CAS OAN d   1      34.703   7.076   6.051  0.00  0.00     0.036 A 
ATOM     26  CAT OAN d   1      34.513   6.329   4.876  0.00  0.00    -0.057 A 
ATOM     27  CAU OAN d   1      34.828   6.919   3.670  0.00  0.00    -0.081 A 
ATOM     28  H15 OAN d   1      34.129   5.316   4.917  0.00  0.00     0.086 H 
ATOM     29  CAV OAN d   1      35.331   8.215   3.636  0.00  0.00    -0.083 A 
ATOM     30  H16 OAN d   1      34.683   6.371   2.746  0.00  0.00     0.083 H 
ATOM     31  CAW OAN d   1      35.526   8.926   4.811  0.00  0.00    -0.081 A 
ATOM     32  H17 OAN d   1      35.573   8.673   2.684  0.00  0.00     0.083 H 
ATOM     33  CAX OAN d   1      35.211   8.364   6.035  0.00  0.00    -0.057 A 
ATOM     34  H18 OAN d   1      35.929   9.931   4.770  0.00  0.00     0.083 H 
ATOM     35  H19 OAN d   1      35.358   8.916   6.956  0.00  0.00     0.086 H 
ENDBRANCH  23  25
ENDBRANCH  20  21
ENDBRANCH   7  20
BRANCH   2  36
ATOM     36  OAJ OAN d   1      29.383   8.191  11.856  0.00  0.00    -0.390 OA
ATOM     37  H7  OAN d   1      28.524   8.075  12.244  0.00  0.00     0.210 HD
ENDBRANCH   2  36
BRANCH   4  38
ATOM     38  CAF OAN d   1      29.352   3.656   9.882  0.00  0.00     0.044 C 
ATOM     39  H11 OAN d   1      28.278   3.565  10.102  0.00  0.00     0.078 H 
ATOM     40  H12 OAN d   1      29.827   2.666   9.956  0.00  0.00     0.078 H 
BRANCH  38  41
ATOM     41  OAM OAN d   1      29.531   4.173   8.601  0.00  0.00    -0.398 OA
ATOM     42  H13 OAN d   1      30.460   4.253   8.420  0.00  0.00     0.209 HD
ENDBRANCH  38  41
ENDBRANCH   4  38
BRANCH   3  43
ATOM     43  OAK OAN d   1      27.981   5.862  11.364  0.00  0.00    -0.390 OA
ATOM     44  H9  OAN d   1      27.467   5.274  10.822  0.00  0.00     0.210 HD
ENDBRANCH   3  43
TORSDOF 9
