REMARK  6 active torsions:
REMARK  status: ('A' for Active; 'I' for Inactive)
REMARK    1  A    between atoms: O2_1  and  C2_2 
REMARK    2  A    between atoms: C3_3  and  O3_4 
REMARK    3  A    between atoms: C1_5  and  O1_13 
REMARK    4  A    between atoms: C5_7  and  C6_8 
REMARK    5  A    between atoms: C4_11  and  O4_12 
REMARK    6  A    between atoms: O1_13  and  C8_14 
ROOT
ATOM      1  C2  7NU d   1      17.125 -32.528  14.008  0.00  0.00     0.110 C 
ATOM      2  C3  7NU d   1      16.874 -32.939  15.474  0.00  0.00     0.092 C 
ATOM      3  C1  7NU d   1      15.916 -32.821  13.196  0.00  0.00     0.164 C 
ATOM      4  O5  7NU d   1      14.814 -32.128  13.689  0.00  0.00    -0.348 OA
ATOM      5  C5  7NU d   1      14.460 -32.608  14.948  0.00  0.00     0.095 C 
ATOM      6  C4  7NU d   1      15.525 -32.325  15.949  0.00  0.00     0.090 C 
ATOM      7  H2  7NU d   1      17.348 -31.451  13.972  0.00  0.00     0.094 H 
ATOM      8  H3  7NU d   1      16.773 -34.034  15.514  0.00  0.00     0.091 H 
ATOM      9  H5  7NU d   1      15.708 -33.900  13.255  0.00  0.00     0.134 H 
ATOM     10  H6  7NU d   1      14.319 -33.697  14.882  0.00  0.00     0.091 H 
ATOM     11  H10 7NU d   1      15.216 -32.780  16.902  0.00  0.00     0.091 H 
ENDROOT
BRANCH   3  12
ATOM     12  O1  7NU d   1      16.137 -32.471  11.828  0.00  0.00    -0.318 OA
BRANCH  12  13
ATOM     13  C8  7NU d   1      15.545 -32.996  10.796  0.00  0.00     0.072 A 
ATOM     14  C9  7NU d   1      14.580 -34.043  10.885  0.00  0.00    -0.051 A 
ATOM     15  C10 7NU d   1      13.937 -34.493   9.715  0.00  0.00    -0.080 A 
ATOM     16  H12 7NU d   1      14.344 -34.488  11.845  0.00  0.00     0.087 H 
ATOM     17  C11 7NU d   1      14.235 -33.936   8.466  0.00  0.00    -0.083 A 
ATOM     18  H13 7NU d   1      13.199 -35.284   9.783  0.00  0.00     0.083 H 
ATOM     19  C12 7NU d   1      15.181 -32.908   8.381  0.00  0.00    -0.080 A 
ATOM     20  H14 7NU d   1      13.738 -34.297   7.573  0.00  0.00     0.083 H 
ATOM     21  C13 7NU d   1      15.806 -32.464   9.564  0.00  0.00    -0.051 A 
ATOM     22  H15 7NU d   1      15.428 -32.462   7.424  0.00  0.00     0.083 H 
ATOM     23  H16 7NU d   1      16.530 -31.660   9.493  0.00  0.00     0.087 H 
ENDBRANCH  12  13
ENDBRANCH   3  12
BRANCH   1  24
ATOM     24  O2  7NU d   1      18.194 -33.248  13.439  0.00  0.00    -0.388 OA
ATOM     25  H1  7NU d   1      18.319 -32.969  12.539  0.00  0.00     0.210 HD
ENDBRANCH   1  24
BRANCH   2  26
ATOM     26  O3  7NU d   1      17.962 -32.596  16.261  0.00  0.00    -0.390 OA
ATOM     27  H4  7NU d   1      18.737 -33.043  15.941  0.00  0.00     0.210 HD
ENDBRANCH   2  26
BRANCH   5  28
ATOM     28  C6  7NU d   1      13.121 -31.951  15.409  0.00  0.00     0.086 A 
ATOM     29  O6  7NU d   1      12.162 -31.559  14.479  0.00  0.00    -0.378 OA
ATOM     30  C7  7NU d   1      12.894 -30.557  15.146  0.00  0.00     0.047 A 
ATOM     31  H8  7NU d   1      13.646 -29.966  14.603  0.00  0.00     0.078 H 
ATOM     32  H9  7NU d   1      12.405 -29.923  15.901  0.00  0.00     0.078 H 
ATOM     33  H7  7NU d   1      12.806 -32.393  16.366  0.00  0.00     0.090 H 
ENDBRANCH   5  28
BRANCH   6  34
ATOM     34  O4  7NU d   1      15.836 -30.945  16.177  0.00  0.00    -0.390 OA
ATOM     35  H11 7NU d   1      15.060 -30.494  16.488  0.00  0.00     0.210 HD
ENDBRANCH   6  34
TORSDOF 6
