REMARK  10 active torsions:
REMARK  status: ('A' for Active; 'I' for Inactive)
REMARK       I    between atoms: N13_1  and  C28_2 
REMARK       I    between atoms: C28_2  and  N12_3 
REMARK       I    between atoms: C28_2  and  N11_4 
REMARK    1  A    between atoms: N11_4  and  C18_5 
REMARK    2  A    between atoms: C10_6  and  O2_8 
REMARK    3  A    between atoms: O2_8  and  C11_9 
REMARK    4  A    between atoms: C14_12  and  N4_15 
REMARK       I    between atoms: N4_15  and  C15_16 
REMARK       I    between atoms: C15_16  and  N6_17 
REMARK       I    between atoms: C15_16  and  N5_18 
REMARK    5  A    between atoms: C20_20  and  N7_21 
REMARK    6  A    between atoms: N7_21  and  C21_22 
REMARK    7  A    between atoms: C24_25  and  N8_28 
REMARK       I    between atoms: N8_28  and  C25_29 
REMARK       I    between atoms: C25_29  and  N10_30 
REMARK       I    between atoms: C25_29  and  N9_31 
REMARK    8  A    between atoms: C8_32  and  O1_33 
REMARK    9  A    between atoms: O1_33  and  C5_34 
REMARK   10  A    between atoms: C2_39  and  N3_40 
REMARK       I    between atoms: N3_40  and  C1_41 
REMARK       I    between atoms: C1_41  and  N2_42 
ROOT
ATOM      1  C18  1N d   1      58.104 -31.508  -9.715  0.00  0.00     0.054 C 
ATOM      2  C10  1N d   1      58.365 -30.007  -9.826  0.00  0.00     0.067 C 
ATOM      3  C9   1N d   1      57.141 -29.335 -10.466  0.00  0.00    -0.012 C 
ATOM      4  C19  1N d   1      57.839 -32.080 -11.109  0.00  0.00    -0.022 C 
ATOM      5  C20  1N d   1      56.599 -31.416 -11.695  0.00  0.00     0.037 C 
ATOM      6  C8   1N d   1      56.844 -29.926 -11.840  0.00  0.00     0.067 C 
ATOM      7  H6   1N d   1      57.219 -31.672  -9.083  0.00  0.00     0.077 H 
ATOM      8  H7   1N d   1      59.250 -29.829 -10.455  0.00  0.00     0.087 H 
ATOM      9  H8   1N d   1      57.338 -28.258 -10.573  0.00  0.00     0.040 H 
ATOM     10  H9   1N d   1      56.267 -29.485  -9.814  0.00  0.00     0.040 H 
ATOM     11  H19  1N d   1      57.676 -33.165 -11.037  0.00  0.00     0.039 H 
ATOM     12  H20  1N d   1      58.704 -31.882 -11.759  0.00  0.00     0.039 H 
ATOM     13  H21  1N d   1      55.751 -31.579 -11.014  0.00  0.00     0.076 H 
ATOM     14  H32  1N d   1      57.686 -29.739 -12.523  0.00  0.00     0.087 H 
ENDROOT
BRANCH   5  15
ATOM     15  N7   1N d   1      56.272 -31.991 -13.013  0.00  0.00    -0.383 N 
ATOM     16  H22  1N d   1      57.022 -32.443 -13.556  0.00  0.00     0.160 HD
BRANCH  15  17
ATOM     17  C21  1N d   1      55.037 -31.948 -13.531  0.00  0.00     0.028 A 
ATOM     18  C27  1N d   1      53.926 -31.952 -12.691  0.00  0.00    -0.055 A 
ATOM     19  C26  1N d   1      52.646 -31.901 -13.235  0.00  0.00    -0.054 A 
ATOM     20  H23  1N d   1      54.058 -31.995 -11.616  0.00  0.00     0.087 H 
ATOM     21  C24  1N d   1      52.470 -31.844 -14.617  0.00  0.00     0.049 A 
ATOM     22  H24  1N d   1      51.782 -31.906 -12.581  0.00  0.00     0.087 H 
ATOM     23  C23  1N d   1      53.580 -31.843 -15.460  0.00  0.00    -0.054 A 
ATOM     24  C22  1N d   1      54.859 -31.889 -14.913  0.00  0.00    -0.055 A 
ATOM     25  H25  1N d   1      53.448 -31.807 -16.535  0.00  0.00     0.087 H 
ATOM     26  H26  1N d   1      55.724 -31.879 -15.566  0.00  0.00     0.087 H 
BRANCH  21  27
ATOM     27  N8   1N d   1      51.232 -31.806 -15.121  0.00  0.00    -0.193 N 
ATOM     28  C25  1N d   1      50.396 -32.863 -15.099  0.00  0.00     0.669 C 
ATOM     29  N10  1N d   1      49.156 -32.763 -15.596  0.00  0.00    -0.235 N 
ATOM     30  N9   1N d   1      50.803 -34.030 -14.574  0.00  0.00    -0.235 N 
ATOM     31  H28  1N d   1      48.525 -33.577 -15.574  0.00  0.00     0.174 HD
ATOM     32  H29  1N d   1      48.833 -31.872 -16.000  0.00  0.00     0.174 HD
ATOM     33  H30  1N d   1      51.754 -34.118 -14.189  0.00  0.00     0.174 HD
ATOM     34  H31  1N d   1      50.164 -34.837 -14.556  0.00  0.00     0.174 HD
ATOM     35  H27  1N d   1      50.902 -30.928 -15.546  0.00  0.00     0.184 HD
ENDBRANCH  21  27
ENDBRANCH  15  17
ENDBRANCH   5  15
BRANCH   6  36
ATOM     36  O1   1N d   1      55.644 -29.340 -12.353  0.00  0.00    -0.344 OA
BRANCH  36  37
ATOM     37  C5   1N d   1      55.784 -28.586 -13.480  0.00  0.00     0.069 A 
ATOM     38  C4   1N d   1      54.717 -28.507 -14.371  0.00  0.00    -0.049 A 
ATOM     39  C3   1N d   1      54.822 -27.745 -15.527  0.00  0.00    -0.054 A 
ATOM     40  H33  1N d   1      53.799 -29.044 -14.161  0.00  0.00     0.087 H 
ATOM     41  C2   1N d   1      55.994 -27.041 -15.790  0.00  0.00     0.049 A 
ATOM     42  H34  1N d   1      53.993 -27.698 -16.224  0.00  0.00     0.087 H 
ATOM     43  C7   1N d   1      57.062 -27.123 -14.899  0.00  0.00    -0.054 A 
ATOM     44  C6   1N d   1      56.956 -27.890 -13.741  0.00  0.00    -0.049 A 
ATOM     45  H36  1N d   1      57.981 -26.587 -15.108  0.00  0.00     0.087 H 
ATOM     46  H35  1N d   1      57.786 -27.943 -13.046  0.00  0.00     0.087 H 
BRANCH  41  47
ATOM     47  N3   1N d   1      56.123 -26.311 -16.903  0.00  0.00    -0.193 N 
ATOM     48  C1   1N d   1      55.315 -25.324 -17.315  0.00  0.00     0.669 C 
ATOM     49  N2   1N d   1      55.593 -24.690 -18.462  0.00  0.00    -0.235 N 
ATOM     50  N1   1N d   1      54.247 -24.956 -16.594  0.00  0.00    -0.235 N 
ATOM     51  H38  1N d   1      54.981 -23.930 -18.791  0.00  0.00     0.174 HD
ATOM     52  H39  1N d   1      56.418 -24.963 -19.014  0.00  0.00     0.174 HD
ATOM     53  H40  1N d   1      54.029 -25.441 -15.712  0.00  0.00     0.174 HD
ATOM     54  H41  1N d   1      53.644 -24.189 -16.922  0.00  0.00     0.174 HD
ATOM     55  H37  1N d   1      56.928 -26.530 -17.507  0.00  0.00     0.184 HD
ENDBRANCH  41  47
ENDBRANCH  36  37
ENDBRANCH   6  36
BRANCH   1  56
ATOM     56  N11  1N d   1      59.260 -32.193  -9.105  0.00  0.00    -0.220 N 
ATOM     57  C28  1N d   1      59.479 -32.311  -7.779  0.00  0.00     0.665 C 
ATOM     58  N13  1N d   1      58.616 -31.785  -6.899  0.00  0.00    -0.235 N 
ATOM     59  N12  1N d   1      60.561 -32.962  -7.330  0.00  0.00    -0.235 N 
ATOM     60  H1   1N d   1      58.790 -31.879  -5.888  0.00  0.00     0.174 HD
ATOM     61  H2   1N d   1      57.779 -31.287  -7.234  0.00  0.00     0.174 HD
ATOM     62  H3   1N d   1      61.231 -33.370  -7.998  0.00  0.00     0.174 HD
ATOM     63  H4   1N d   1      60.723 -33.054  -6.317  0.00  0.00     0.174 HD
ATOM     64  H5   1N d   1      59.953 -32.613  -9.741  0.00  0.00     0.178 HD
ENDBRANCH   1  56
BRANCH   2  65
ATOM     65  O2   1N d   1      58.603 -29.475  -8.495  0.00  0.00    -0.344 OA
BRANCH  65  66
ATOM     66  C11  1N d   1      59.555 -28.495  -8.426  0.00  0.00     0.069 A 
ATOM     67  C17  1N d   1      59.843 -27.698  -9.526  0.00  0.00    -0.049 A 
ATOM     68  C16  1N d   1      60.811 -26.707  -9.442  0.00  0.00    -0.054 A 
ATOM     69  H10  1N d   1      59.308 -27.851 -10.457  0.00  0.00     0.087 H 
ATOM     70  C14  1N d   1      61.502 -26.487  -8.255  0.00  0.00     0.049 A 
ATOM     71  H11  1N d   1      61.031 -26.098 -10.311  0.00  0.00     0.087 H 
ATOM     72  C13  1N d   1      61.222 -27.287  -7.152  0.00  0.00    -0.054 A 
ATOM     73  C12  1N d   1      60.253 -28.286  -7.238  0.00  0.00    -0.049 A 
ATOM     74  H12  1N d   1      61.759 -27.133  -6.223  0.00  0.00     0.087 H 
ATOM     75  H13  1N d   1      60.041 -28.905  -6.374  0.00  0.00     0.087 H 
BRANCH  70  76
ATOM     76  N4   1N d   1      62.441 -25.539  -8.166  0.00  0.00    -0.193 N 
ATOM     77  C15  1N d   1      62.384 -24.278  -8.646  0.00  0.00     0.669 C 
ATOM     78  N6   1N d   1      63.432 -23.464  -8.467  0.00  0.00    -0.235 N 
ATOM     79  N5   1N d   1      61.298 -23.810  -9.282  0.00  0.00    -0.235 N 
ATOM     80  H15  1N d   1      63.403 -22.500  -8.828  0.00  0.00     0.174 HD
ATOM     81  H16  1N d   1      64.268 -23.802  -7.969  0.00  0.00     0.174 HD
ATOM     82  H17  1N d   1      60.483 -24.422  -9.428  0.00  0.00     0.174 HD
ATOM     83  H18  1N d   1      61.280 -22.838  -9.624  0.00  0.00     0.174 HD
ATOM     84  H14  1N d   1      63.308 -25.801  -7.675  0.00  0.00     0.184 HD
ENDBRANCH  70  76
ENDBRANCH  65  66
ENDBRANCH   2  65
TORSDOF 10
