REMARK  5 active torsions:
REMARK  status: ('A' for Active; 'I' for Inactive)
REMARK    1  A    between atoms: C6_22  and  C7_4 
REMARK    2  A    between atoms: C9_6  and  N3_15 
REMARK    3  A    between atoms: N3_15  and  C10_7 
REMARK    4  A    between atoms: C12_9  and  O1_14 
REMARK    5  A    between atoms: N_21  and  C5_19 
REMARK       I    between atoms: N_21  and  C6_22 
ROOT
ATOM      1  C1  7O3 d   1       0.312  47.834 -11.209  0.00  0.00    -0.065 A 
ATOM      2  C2  7O3 d   1      -1.101  47.829 -11.336  0.00  0.00     0.039 A 
ATOM      3  C3  7O3 d   1      -1.820  48.989 -10.939  0.00  0.00     0.074 A 
ATOM      4  C8  7O3 d   1      -3.794  47.950 -11.428  0.00  0.00     0.089 A 
ATOM      5  C9  7O3 d   1      -1.904  46.726 -11.809  0.00  0.00     0.142 A 
ATOM      6  N2  7O3 d   1      -3.240  46.807 -11.863  0.00  0.00    -0.224 NA
ATOM      7  N1  7O3 d   1      -3.188  49.055 -10.987  0.00  0.00    -0.241 NA
ATOM      8  C4  7O3 d   1      -1.111  50.093 -10.407  0.00  0.00    -0.028 A 
ATOM      9  C5  7O3 d   1       0.270  50.081 -10.348  0.00  0.00     0.037 A 
ATOM     10  C   7O3 d   1       0.966  48.932 -10.736  0.00  0.00    -0.056 A 
ATOM     11  H1  7O3 d   1       0.878  46.954 -11.492  0.00  0.00     0.085 H 
ATOM     12  H4  7O3 d   1      -4.878  47.980 -11.436  0.00  0.00     0.146 H 
ATOM     13  H10 7O3 d   1      -1.656  50.956 -10.042  0.00  0.00     0.090 H 
ATOM     14  H11 7O3 d   1       2.047  48.914 -10.659  0.00  0.00     0.086 H 
ENDROOT
BRANCH   5  15
ATOM     15  N3  7O3 d   1      -1.294  45.584 -12.228  0.00  0.00    -0.339 N 
ATOM     16  H9  7O3 d   1      -0.266  45.650 -12.246  0.00  0.00     0.167 HD
BRANCH  15  17
ATOM     17  C10 7O3 d   1      -1.786  44.326 -12.643  0.00  0.00     0.058 A 
ATOM     18  C11 7O3 d   1      -1.700  43.203 -11.819  0.00  0.00    -0.024 A 
ATOM     19  C12 7O3 d   1      -2.124  41.958 -12.276  0.00  0.00     0.068 A 
ATOM     20  H5  7O3 d   1      -1.300  43.301 -10.816  0.00  0.00     0.091 H 
ATOM     21  C13 7O3 d   1      -2.666  41.823 -13.549  0.00  0.00    -0.049 A 
ATOM     22  C14 7O3 d   1      -2.715  42.915 -14.394  0.00  0.00    -0.057 A 
ATOM     23  H6  7O3 d   1      -3.049  40.864 -13.878  0.00  0.00     0.087 H 
ATOM     24  C15 7O3 d   1      -2.285  44.157 -13.943  0.00  0.00     0.060 A 
ATOM     25  H7  7O3 d   1      -3.088  42.803 -15.406  0.00  0.00     0.086 H 
ATOM     26 CL1  7O3 d   1      -2.356  45.510 -15.026  0.00  0.00    -0.082 Cl
BRANCH  19  27
ATOM     27  O1  7O3 d   1      -2.056  40.891 -11.429  0.00  0.00    -0.361 OA
ATOM     28  H8  7O3 d   1      -1.529  40.207 -11.825  0.00  0.00     0.217 HD
ENDBRANCH  19  27
ENDBRANCH  15  17
ENDBRANCH   5  15
BRANCH   9  29
ATOM     29  N   7O3 d   1       1.106  51.105  -9.813  0.00  0.00    -0.326 N 
ATOM     30  C6  7O3 d   1       0.859  52.430  -9.637  0.00  0.00     0.235 C 
ATOM     31  O   7O3 d   1      -0.154  53.022 -10.026  0.00  0.00    -0.272 OA
ATOM     32  H12 7O3 d   1       2.014  50.802  -9.523  0.00  0.00     0.169 HD
BRANCH  30  33
ATOM     33  C7  7O3 d   1       1.952  53.179  -8.897  0.00  0.00     0.076 C 
ATOM     34 CL   7O3 d   1       3.030  52.174  -7.914  0.00  0.00    -0.121 Cl
ATOM     35  H2  7O3 d   1       1.471  53.912  -8.232  0.00  0.00     0.070 H 
ATOM     36  H3  7O3 d   1       2.566  53.707  -9.642  0.00  0.00     0.070 H 
ENDBRANCH  30  33
ENDBRANCH   9  29
TORSDOF 5
