REMARK  5 active torsions:
REMARK  status: ('A' for Active; 'I' for Inactive)
REMARK    1  A    between atoms: C6_22  and  C7_4 
REMARK    2  A    between atoms: C9_6  and  N3_15 
REMARK    3  A    between atoms: N3_15  and  C10_7 
REMARK    4  A    between atoms: C12_9  and  O1_14 
REMARK    5  A    between atoms: N_21  and  C5_19 
REMARK       I    between atoms: N_21  and  C6_22 
ROOT
ATOM      1  C1  7O3 d   1       0.377  47.806 -11.405  0.00  0.00    -0.065 A 
ATOM      2  C2  7O3 d   1      -1.036  47.849 -11.554  0.00  0.00     0.039 A 
ATOM      3  C3  7O3 d   1      -1.723  49.039 -11.194  0.00  0.00     0.074 A 
ATOM      4  C8  7O3 d   1      -3.724  48.048 -11.688  0.00  0.00     0.089 A 
ATOM      5  C9  7O3 d   1      -1.864  46.750 -11.973  0.00  0.00     0.142 A 
ATOM      6  N2  7O3 d   1      -3.197  46.876 -12.078  0.00  0.00    -0.224 NA
ATOM      7  N1  7O3 d   1      -3.089  49.153 -11.276  0.00  0.00    -0.241 NA
ATOM      8  C4  7O3 d   1      -0.984  50.138 -10.696  0.00  0.00    -0.028 A 
ATOM      9  C5  7O3 d   1       0.397  50.077 -10.621  0.00  0.00     0.036 A 
ATOM     10  C   7O3 d   1       1.063  48.899 -10.968  0.00  0.00    -0.056 A 
ATOM     11  H1  7O3 d   1       0.914  46.895 -11.641  0.00  0.00     0.085 H 
ATOM     12  H5  7O3 d   1      -4.806  48.108 -11.710  0.00  0.00     0.146 H 
ATOM     13  H11 7O3 d   1      -1.502  51.033 -10.371  0.00  0.00     0.090 H 
ATOM     14  H12 7O3 d   1       2.143  48.854 -10.888  0.00  0.00     0.086 H 
ENDROOT
BRANCH   5  15
ATOM     15  N3  7O3 d   1      -1.278  45.599 -12.351  0.00  0.00    -0.339 N 
ATOM     16  H10 7O3 d   1      -0.249  45.632 -12.330  0.00  0.00     0.167 HD
BRANCH  15  17
ATOM     17  C10 7O3 d   1      -1.777  44.402 -12.755  0.00  0.00     0.058 A 
ATOM     18  C11 7O3 d   1      -1.775  43.290 -11.913  0.00  0.00    -0.024 A 
ATOM     19  C12 7O3 d   1      -2.241  42.064 -12.372  0.00  0.00     0.068 A 
ATOM     20  H6  7O3 d   1      -1.409  43.383 -10.897  0.00  0.00     0.091 H 
ATOM     21  C13 7O3 d   1      -2.712  41.935 -13.673  0.00  0.00    -0.049 A 
ATOM     22  C14 7O3 d   1      -2.690  43.025 -14.525  0.00  0.00    -0.057 A 
ATOM     23  H7  7O3 d   1      -3.096  40.982 -14.020  0.00  0.00     0.087 H 
ATOM     24  C15 7O3 d   1      -2.256  44.250 -14.059  0.00  0.00     0.060 A 
ATOM     25  H8  7O3 d   1      -3.012  42.918 -15.554  0.00  0.00     0.086 H 
ATOM     26 CL1  7O3 d   1      -2.226  45.598 -15.153  0.00  0.00    -0.082 Cl
BRANCH  19  27
ATOM     27  O1  7O3 d   1      -2.212  40.999 -11.517  0.00  0.00    -0.361 OA
ATOM     28  H9  7O3 d   1      -1.661  40.316 -11.882  0.00  0.00     0.217 HD
ENDBRANCH  19  27
ENDBRANCH  15  17
ENDBRANCH   5  15
BRANCH   9  29
ATOM     29  N   7O3 d   1       1.238  51.093 -10.115  0.00  0.00    -0.327 N 
ATOM     30  C6  7O3 d   1       0.993  52.411  -9.971  0.00  0.00     0.218 C 
ATOM     31  O   7O3 d   1      -0.016  52.993 -10.381  0.00  0.00    -0.274 OA
ATOM     32  H13 7O3 d   1       2.145  50.791  -9.822  0.00  0.00     0.169 HD
BRANCH  30  33
ATOM     33  C7  7O3 d   1       2.076  53.142  -9.209  0.00  0.00    -0.003 C 
ATOM     34  H2  7O3 d   1       1.813  54.207  -9.129  0.00  0.00     0.040 H 
ATOM     35  H3  7O3 d   1       3.033  53.040  -9.742  0.00  0.00     0.040 H 
ATOM     36  H4  7O3 d   1       2.170  52.711  -8.201  0.00  0.00     0.040 H 
ENDBRANCH  30  33
ENDBRANCH   9  29
TORSDOF 5
