REMARK WARNING: 32 MAX_TORS EXCEEDED!!!
REMARK  53 active torsions:
REMARK  status: ('A' for Active; 'I' for Inactive)
REMARK    1  A    between atoms: N_1  and  CA_2 
REMARK    2  A    between atoms: CA_2  and  C_3 
REMARK    3  A    between atoms: CA_2  and  CB_5 
REMARK       I    between atoms: C_3  and  N_10 
REMARK    4  A    between atoms: CB_5  and  CG_6 
REMARK    5  A    between atoms: CG_6  and  CD_7 
REMARK    6  A    between atoms: N_10  and  CA_11 
REMARK    7  A    between atoms: CA_11  and  C_12 
REMARK    8  A    between atoms: CA_11  and  CB_14 
REMARK       I    between atoms: C_12  and  N_15 
REMARK    9  A    between atoms: N_15  and  CA_16 
REMARK   10  A    between atoms: CA_16  and  C_17 
REMARK   11  A    between atoms: CA_16  and  CB_19 
REMARK       I    between atoms: C_17  and  N_23 
REMARK   12  A    between atoms: CB_19  and  CG_20 
REMARK   13  A    between atoms: CG_20  and  CD1_21 
REMARK   14  A    between atoms: CG_20  and  CD2_22 
REMARK   15  A    between atoms: N_23  and  CA_24 
REMARK   16  A    between atoms: CA_24  and  C_25 
REMARK   17  A    between atoms: CA_24  and  CB_27 
REMARK       I    between atoms: C_25  and  N_32 
REMARK   18  A    between atoms: CB_27  and  CG_28 
REMARK   19  A    between atoms: CG_28  and  CD_29 
REMARK   20  A    between atoms: CD_29  and  CE_30 
REMARK   21  A    between atoms: CE_30  and  NZ_31 
REMARK   22  A    between atoms: N_32  and  CA_33 
REMARK   23  A    between atoms: CA_33  and  C_34 
REMARK   24  A    between atoms: CA_33  and  CB_36 
REMARK       I    between atoms: C_34  and  N_41 
REMARK   25  A    between atoms: CB_36  and  CG_37 
REMARK   26  A    between atoms: CG_37  and  CD_38 
REMARK       I    between atoms: CD_38  and  NE2_40 
REMARK   27  A    between atoms: N_41  and  CA_42 
REMARK   28  A    between atoms: CA_42  and  C_43 
REMARK   29  A    between atoms: CA_42  and  CB_45 
REMARK       I    between atoms: C_43  and  N_49 
REMARK   30  A    between atoms: CB_45  and  CG_46 
REMARK   31  A    between atoms: CG_46  and  CD1_47 
REMARK   32  A    between atoms: CG_46  and  CD2_48 
REMARK   33  A    between atoms: N_49  and  CA_50 
REMARK   34  A    between atoms: CA_50  and  C_51 
REMARK   35  A    between atoms: CA_50  and  CB_53 
REMARK       I    between atoms: C_51  and  N_54 
REMARK   36  A    between atoms: N_54  and  CA_55 
REMARK   37  A    between atoms: CA_55  and  C_56 
REMARK   38  A    between atoms: CA_55  and  CB_58 
REMARK       I    between atoms: C_56  and  N_63 
REMARK   39  A    between atoms: CB_58  and  CG_59 
REMARK   40  A    between atoms: CG_59  and  CD_60 
REMARK   41  A    between atoms: N_63  and  CA_64 
REMARK   42  A    between atoms: CA_64  and  C_65 
REMARK   43  A    between atoms: CA_64  and  CB_67 
REMARK       I    between atoms: C_65  and  N_77 
REMARK   44  A    between atoms: CB_67  and  CG_68 
REMARK   45  A    between atoms: N_77  and  CA_78 
REMARK   46  A    between atoms: CA_78  and  C_79 
REMARK   47  A    between atoms: CA_78  and  CB_81 
REMARK       I    between atoms: C_79  and  N_84 
REMARK   48  A    between atoms: CB_81  and  CG1_82 
REMARK   49  A    between atoms: CB_81  and  CG2_83 
REMARK   50  A    between atoms: N_84  and  CA_85 
REMARK   51  A    between atoms: CA_85  and  C_86 
REMARK   52  A    between atoms: CA_85  and  CB_88 
REMARK   53  A    between atoms: CB_88  and  OG_89 
ROOT
ATOM      1  CA  LEU d   1       7.284  -1.631  21.489  0.00  0.00     0.089 C 
ATOM      2  H47 LEU d   1       6.661  -2.156  20.750  0.00  0.00     0.087 H 
ENDROOT
BRANCH   1   3
ATOM      3  N   LEU d   1       8.330  -2.553  21.924  0.00  0.00    -0.346 N 
ATOM      4  C   GLN d   1       9.028  -3.276  21.044  0.00  0.00     0.241 C 
ATOM      5  O   GLN d   1       8.864  -3.170  19.823  0.00  0.00    -0.271 OA
ATOM      6  H46 LEU d   1       8.527  -2.645  22.900  0.00  0.00     0.163 HD
BRANCH   4   7
ATOM      7  CA  GLN d   1      10.067  -4.242  21.608  0.00  0.00     0.090 C 
ATOM      8  H39 GLN d   1      10.752  -4.525  20.795  0.00  0.00     0.087 H 
BRANCH   7   9
ATOM      9  N   GLN d   1      10.849  -3.620  22.671  0.00  0.00    -0.346 N 
ATOM     10  C   LYS d   1      11.750  -2.677  22.385  0.00  0.00     0.241 C 
ATOM     11  O   LYS d   1      12.017  -2.352  21.222  0.00  0.00    -0.271 OA
ATOM     12  H38 GLN d   1      10.709  -3.902  23.620  0.00  0.00     0.163 HD
BRANCH  10  13
ATOM     13  CA  LYS d   1      12.425  -1.960  23.552  0.00  0.00     0.089 C 
ATOM     14  H26 LYS d   1      12.617  -0.922  23.243  0.00  0.00     0.087 H 
BRANCH  13  15
ATOM     15  N   LYS d   1      11.563  -1.935  24.727  0.00  0.00    -0.346 N 
ATOM     16  C   LEU d   1      10.458  -1.192  24.714  0.00  0.00     0.241 C 
ATOM     17  O   LEU d   1      10.158  -0.475  23.752  0.00  0.00    -0.271 OA
ATOM     18  H25 LYS d   1      11.800  -2.472  25.537  0.00  0.00     0.163 HD
BRANCH  16  19
ATOM     19  CA  LEU d   1       9.538  -1.256  25.925  0.00  0.00     0.089 C 
ATOM     20  H15 LEU d   1       8.510  -1.072  25.579  0.00  0.00     0.087 H 
BRANCH  19  21
ATOM     21  N   LEU d   1       9.562  -2.562  26.585  0.00  0.00    -0.346 N 
ATOM     22  C   ALA d   1       9.098  -3.645  25.953  0.00  0.00     0.240 C 
ATOM     23  O   ALA d   1       8.714  -3.604  24.778  0.00  0.00    -0.271 OA
ATOM     24  H14 LEU d   1       9.927  -2.645  27.512  0.00  0.00     0.163 HD
BRANCH  22  25
ATOM     25  CA  ALA d   1       9.036  -4.966  26.715  0.00  0.00     0.086 C 
ATOM     26  H10 ALA d   1       9.241  -5.773  25.996  0.00  0.00     0.086 H 
BRANCH  25  27
ATOM     27  N   ALA d   1      10.025  -5.069  27.786  0.00  0.00    -0.346 N 
ATOM     28  C   GLU d   1      11.333  -5.167  27.538  0.00  0.00     0.248 C 
ATOM     29  O   GLU d   1      11.829  -5.036  26.418  0.00  0.00    -0.271 OA
ATOM     30  H9  ALA d   1       9.712  -5.066  28.736  0.00  0.00     0.163 HD
BRANCH  28  31
ATOM     31  CA  GLU d   1      12.200  -5.468  28.762  0.00  0.00     0.176 C 
ATOM     32  H4  GLU d   1      13.243  -5.574  28.429  0.00  0.00     0.099 H 
BRANCH  31  33
ATOM     33  N   GLU d   1      12.154  -4.398  29.754  0.00  0.00    -0.066 N 
ATOM     34  H1  GLU d   1      12.739  -4.642  30.538  0.00  0.00     0.275 HD
ATOM     35  H2  GLU d   1      11.205  -4.272  30.069  0.00  0.00     0.275 HD
ATOM     36  H3  GLU d   1      12.487  -3.541  29.340  0.00  0.00     0.275 HD
ENDBRANCH  31  33
BRANCH  31  37
ATOM     37  CB  GLU d   1      11.740  -6.803  29.369  0.00  0.00    -0.021 C 
ATOM     38  H5  GLU d   1      12.195  -7.615  28.783  0.00  0.00     0.037 H 
ATOM     39  H6  GLU d   1      10.645  -6.855  29.280  0.00  0.00     0.037 H 
BRANCH  37  40
ATOM     40  CG  GLU d   1      12.100  -7.023  30.828  0.00  0.00     0.018 C 
ATOM     41  H7  GLU d   1      11.365  -7.712  31.269  0.00  0.00     0.049 H 
ATOM     42  H8  GLU d   1      12.054  -6.055  31.349  0.00  0.00     0.049 H 
BRANCH  40  43
ATOM     43  CD  GLU d   1      13.481  -7.607  31.022  0.00  0.00     0.172 C 
ATOM     44  OE1 GLU d   1      13.814  -8.620  30.371  0.00  0.00    -0.648 OA
ATOM     45  OE2 GLU d   1      14.239  -7.036  31.827  0.00  0.00    -0.648 OA
ENDBRANCH  40  43
ENDBRANCH  37  40
ENDBRANCH  31  37
ENDBRANCH  28  31
ENDBRANCH  25  27
BRANCH  25  46
ATOM     46  CB  ALA d   1       7.634  -5.177  27.284  0.00  0.00    -0.049 C 
ATOM     47  H11 ALA d   1       6.894  -5.098  26.474  0.00  0.00     0.030 H 
ATOM     48  H12 ALA d   1       7.428  -4.410  28.045  0.00  0.00     0.030 H 
ATOM     49  H13 ALA d   1       7.571  -6.175  27.743  0.00  0.00     0.030 H 
ENDBRANCH  25  46
ENDBRANCH  22  25
ENDBRANCH  19  21
BRANCH  19  50
ATOM     50  CB  LEU d   1       9.917  -0.158  26.918  0.00  0.00    -0.035 C 
ATOM     51  H16 LEU d   1      10.137   0.753  26.342  0.00  0.00     0.037 H 
ATOM     52  H17 LEU d   1      10.823  -0.485  27.449  0.00  0.00     0.037 H 
BRANCH  50  53
ATOM     53  CG  LEU d   1       8.868   0.197  27.965  0.00  0.00    -0.059 C 
ATOM     54  H18 LEU d   1       8.302  -0.705  28.239  0.00  0.00     0.038 H 
BRANCH  53  55
ATOM     55  CD1 LEU d   1       9.500   0.781  29.211  0.00  0.00    -0.073 C 
ATOM     56  H19 LEU d   1       8.714   1.024  29.941  0.00  0.00     0.028 H 
ATOM     57  H20 LEU d   1      10.052   1.696  28.948  0.00  0.00     0.028 H 
ATOM     58  H21 LEU d   1      10.193   0.048  29.649  0.00  0.00     0.028 H 
ENDBRANCH  53  55
BRANCH  53  59
ATOM     59  CD2 LEU d   1       7.939   1.221  27.337  0.00  0.00    -0.073 C 
ATOM     60  H22 LEU d   1       7.481   0.794  26.432  0.00  0.00     0.028 H 
ATOM     61  H23 LEU d   1       8.512   2.120  27.069  0.00  0.00     0.028 H 
ATOM     62  H24 LEU d   1       7.150   1.490  28.055  0.00  0.00     0.028 H 
ENDBRANCH  53  59
ENDBRANCH  50  53
ENDBRANCH  19  50
ENDBRANCH  16  19
ENDBRANCH  13  15
BRANCH  13  63
ATOM     63  CB  LYS d   1      13.764  -2.604  23.921  0.00  0.00    -0.038 C 
ATOM     64  H27 LYS d   1      13.553  -3.510  24.508  0.00  0.00     0.036 H 
ATOM     65  H28 LYS d   1      14.324  -1.888  24.540  0.00  0.00     0.036 H 
BRANCH  63  66
ATOM     66  CG  LYS d   1      14.648  -3.001  22.754  0.00  0.00    -0.061 C 
ATOM     67  H29 LYS d   1      15.678  -2.661  22.937  0.00  0.00     0.033 H 
ATOM     68  H30 LYS d   1      14.269  -2.541  21.829  0.00  0.00     0.033 H 
BRANCH  66  69
ATOM     69  CD  LYS d   1      14.625  -4.521  22.619  0.00  0.00    -0.043 C 
ATOM     70  H31 LYS d   1      13.593  -4.869  22.774  0.00  0.00     0.035 H 
ATOM     71  H32 LYS d   1      15.277  -4.950  23.394  0.00  0.00     0.035 H 
BRANCH  69  72
ATOM     72  CE  LYS d   1      15.100  -5.013  21.266  0.00  0.00     0.080 C 
ATOM     73  H33 LYS d   1      16.143  -4.701  21.109  0.00  0.00     0.075 H 
ATOM     74  H34 LYS d   1      14.466  -4.582  20.477  0.00  0.00     0.075 H 
BRANCH  72  75
ATOM     75  NZ  LYS d   1      15.015  -6.498  21.212  0.00  0.00    -0.079 N 
ATOM     76  H35 LYS d   1      15.332  -6.820  20.311  0.00  0.00     0.274 HD
ATOM     77  H36 LYS d   1      14.059  -6.785  21.355  0.00  0.00     0.274 HD
ATOM     78  H37 LYS d   1      15.596  -6.894  21.934  0.00  0.00     0.274 HD
ENDBRANCH  72  75
ENDBRANCH  69  72
ENDBRANCH  66  69
ENDBRANCH  63  66
ENDBRANCH  13  63
ENDBRANCH  10  13
ENDBRANCH   7   9
BRANCH   7  79
ATOM     79  CB  GLN d   1       9.383  -5.509  22.132  0.00  0.00    -0.030 C 
ATOM     80  H40 GLN d   1       8.741  -5.906  21.332  0.00  0.00     0.037 H 
ATOM     81  H41 GLN d   1       8.762  -5.230  22.996  0.00  0.00     0.037 H 
BRANCH  79  82
ATOM     82  CG  GLN d   1      10.333  -6.616  22.570  0.00  0.00     0.011 C 
ATOM     83  H42 GLN d   1      10.982  -6.228  23.369  0.00  0.00     0.047 H 
ATOM     84  H43 GLN d   1      10.949  -6.914  21.709  0.00  0.00     0.047 H 
BRANCH  82  85
ATOM     85  CD  GLN d   1       9.597  -7.842  23.091  0.00  0.00     0.215 C 
ATOM     86  OE1 GLN d   1       8.913  -7.780  24.114  0.00  0.00    -0.274 OA
ATOM     87  NE2 GLN d   1       9.759  -8.971  22.405  0.00  0.00    -0.370 N 
ATOM     88  H44 GLN d   1       9.299  -9.807  22.703  0.00  0.00     0.159 HD
ATOM     89  H45 GLN d   1      10.341  -8.983  21.592  0.00  0.00     0.159 HD
ENDBRANCH  82  85
ENDBRANCH  79  82
ENDBRANCH   7  79
ENDBRANCH   4   7
ENDBRANCH   1   3
BRANCH   1  90
ATOM     90  C   LEU d   1       7.846  -0.384  20.821  0.00  0.00     0.241 C 
ATOM     91  O   LEU d   1       7.154   0.234  20.002  0.00  0.00    -0.271 OA
ATOM     92  N   ALA d   1       9.065   0.031  21.176  0.00  0.00    -0.346 N 
ATOM     93  H57 ALA d   1       9.585  -0.467  21.870  0.00  0.00     0.163 HD
BRANCH  92  94
ATOM     94  CA  ALA d   1       9.631   1.218  20.541  0.00  0.00     0.086 C 
ATOM     95  H58 ALA d   1       8.897   2.032  20.628  0.00  0.00     0.086 H 
BRANCH  94  96
ATOM     96  C   ALA d   1       9.904   0.992  19.056  0.00  0.00     0.240 C 
ATOM     97  O   ALA d   1       9.654   1.883  18.237  0.00  0.00    -0.271 OA
ATOM     98  N   GLU d   1      10.423  -0.181  18.680  0.00  0.00    -0.346 N 
ATOM     99  H62 GLU d   1      10.760  -0.827  19.365  0.00  0.00     0.163 HD
BRANCH  98 100
ATOM    100  CA  GLU d   1      10.493  -0.511  17.258  0.00  0.00     0.090 C 
ATOM    101  H63 GLU d   1      10.944   0.350  16.744  0.00  0.00     0.087 H 
BRANCH 100 102
ATOM    102  C   GLU d   1       9.109  -0.721  16.659  0.00  0.00     0.241 C 
ATOM    103  O   GLU d   1       8.885  -0.380  15.490  0.00  0.00    -0.271 OA
ATOM    104  N   TRP d   1       8.173  -1.283  17.431  0.00  0.00    -0.346 N 
ATOM    105  H68 TRP d   1       8.392  -1.549  18.370  0.00  0.00     0.163 HD
BRANCH 104 106
ATOM    106  CA  TRP d   1       6.831  -1.508  16.903  0.00  0.00     0.093 C 
ATOM    107  H69 TRP d   1       6.912  -2.149  16.013  0.00  0.00     0.088 H 
BRANCH 106 108
ATOM    108  C   TRP d   1       6.166  -0.201  16.501  0.00  0.00     0.241 C 
ATOM    109  O   TRP d   1       5.442  -0.157  15.499  0.00  0.00    -0.271 OA
ATOM    110  N   VAL d   1       6.435   0.880  17.237  0.00  0.00    -0.346 N 
ATOM    111  H78 VAL d   1       7.107   0.816  17.975  0.00  0.00     0.163 HD
BRANCH 110 112
ATOM    112  CA  VAL d   1       5.768   2.151  16.986  0.00  0.00     0.092 C 
ATOM    113  H79 VAL d   1       4.690   1.954  16.893  0.00  0.00     0.088 H 
BRANCH 112 114
ATOM    114  C   VAL d   1       6.238   2.797  15.692  0.00  0.00     0.241 C 
ATOM    115  O   VAL d   1       5.582   3.720  15.194  0.00  0.00    -0.271 OA
ATOM    116  N   SER d   1       7.356   2.339  15.136  0.00  0.00    -0.343 N 
ATOM    117  H87 SER d   1       7.899   1.656  15.624  0.00  0.00     0.163 HD
BRANCH 116 118
ATOM    118  CA  SER d   1       7.809   2.808  13.834  0.00  0.00     0.116 C 
ATOM    119  H88 SER d   1       6.970   3.317  13.336  0.00  0.00     0.093 H 
BRANCH 118 120
ATOM    120  C   SER d   1       8.239   1.622  12.969  0.00  0.00     0.198 C 
ATOM    121  O   SER d   1       7.559   0.593  12.922  0.00  0.00    -0.646 OA
ATOM    122  OXT SER d   1       9.275   1.669  12.300  0.00  0.00    -0.646 OA
ENDBRANCH 118 120
BRANCH 118 123
ATOM    123  CB  SER d   1       8.955   3.807  13.985  0.00  0.00     0.045 C 
ATOM    124  H89 SER d   1       9.774   3.333  14.546  0.00  0.00     0.077 H 
ATOM    125  H90 SER d   1       8.594   4.688  14.536  0.00  0.00     0.077 H 
BRANCH 123 126
ATOM    126  OG  SER d   1       9.439   4.219  12.718  0.00  0.00    -0.398 OA
ATOM    127  H91 SER d   1       9.755   3.462  12.239  0.00  0.00     0.209 HD
ENDBRANCH 123 126
ENDBRANCH 118 123
ENDBRANCH 116 118
ENDBRANCH 112 114
BRANCH 112 128
ATOM    128  CB  VAL d   1       5.982   3.112  18.176  0.00  0.00    -0.033 C 
ATOM    129  H80 VAL d   1       6.018   2.502  19.091  0.00  0.00     0.042 H 
BRANCH 128 130
ATOM    130  CG1 VAL d   1       7.313   3.842  18.067  0.00  0.00    -0.071 C 
ATOM    131  H81 VAL d   1       7.433   4.516  18.928  0.00  0.00     0.028 H 
ATOM    132  H82 VAL d   1       7.335   4.428  17.137  0.00  0.00     0.028 H 
ATOM    133  H83 VAL d   1       8.133   3.109  18.058  0.00  0.00     0.028 H 
ENDBRANCH 128 130
BRANCH 128 134
ATOM    134  CG2 VAL d   1       4.819   4.069  18.318  0.00  0.00    -0.071 C 
ATOM    135  H84 VAL d   1       3.882   3.498  18.393  0.00  0.00     0.028 H 
ATOM    136  H85 VAL d   1       4.777   4.728  17.439  0.00  0.00     0.028 H 
ATOM    137  H86 VAL d   1       4.952   4.676  19.226  0.00  0.00     0.028 H 
ENDBRANCH 128 134
ENDBRANCH 112 128
ENDBRANCH 110 112
ENDBRANCH 106 108
BRANCH 106 138
ATOM    138  CB  TRP d   1       5.959  -2.214  17.939  0.00  0.00    -0.012 C 
ATOM    139  H70 TRP d   1       5.788  -1.525  18.779  0.00  0.00     0.044 H 
ATOM    140  H71 TRP d   1       6.495  -3.105  18.298  0.00  0.00     0.044 H 
BRANCH 138 141
ATOM    141  CG  TRP d   1       4.619  -2.648  17.396  0.00  0.00    -0.028 A 
ATOM    142  CD1 TRP d   1       4.348  -3.767  16.658  0.00  0.00    -0.015 A 
ATOM    143  NE1 TRP d   1       3.011  -3.809  16.334  0.00  0.00    -0.365 N 
ATOM    144  H72 TRP d   1       5.083  -4.516  16.369  0.00  0.00     0.112 H 
ATOM    145  CE2 TRP d   1       2.392  -2.698  16.846  0.00  0.00     0.042 A 
ATOM    146  H73 TRP d   1       2.550  -4.555  15.794  0.00  0.00     0.165 HD
ATOM    147  CD2 TRP d   1       3.376  -1.936  17.514  0.00  0.00    -0.002 A 
ATOM    148  CZ2 TRP d   1       1.056  -2.297  16.776  0.00  0.00    -0.056 A 
ATOM    149  CE3 TRP d   1       2.998  -0.734  18.129  0.00  0.00    -0.070 A 
ATOM    150  CZ3 TRP d   1       1.670  -0.338  18.057  0.00  0.00    -0.082 A 
ATOM    151  H74 TRP d   1       3.729  -0.126  18.650  0.00  0.00     0.084 H 
ATOM    152  CH2 TRP d   1       0.715  -1.119  17.383  0.00  0.00    -0.081 A 
ATOM    153  H76 TRP d   1       1.364   0.589  18.528  0.00  0.00     0.083 H 
ATOM    154  H77 TRP d   1      -0.314  -0.781  17.343  0.00  0.00     0.083 H 
ATOM    155  H75 TRP d   1       0.316  -2.897  16.259  0.00  0.00     0.086 H 
ENDBRANCH 138 141
ENDBRANCH 106 138
ENDBRANCH 104 106
ENDBRANCH 100 102
BRANCH 100 156
ATOM    156  CB  GLU d   1      11.399  -1.716  17.009  0.00  0.00    -0.029 C 
ATOM    157  H64 GLU d   1      11.063  -2.221  16.091  0.00  0.00     0.037 H 
ATOM    158  H65 GLU d   1      11.306  -2.405  17.862  0.00  0.00     0.037 H 
BRANCH 156 159
ATOM    159  CG  GLU d   1      12.878  -1.341  16.845  0.00  0.00     0.018 C 
ATOM    160  H66 GLU d   1      12.933  -0.385  16.304  0.00  0.00     0.049 H 
ATOM    161  H67 GLU d   1      13.369  -2.127  16.253  0.00  0.00     0.049 H 
BRANCH 159 162
ATOM    162  CD  GLU d   1      13.630  -1.191  18.152  0.00  0.00     0.172 C 
ATOM    163  OE1 GLU d   1      13.819  -0.038  18.602  0.00  0.00    -0.648 OA
ATOM    164  OE2 GLU d   1      14.053  -2.222  18.717  0.00  0.00    -0.648 OA
ENDBRANCH 159 162
ENDBRANCH 156 159
ENDBRANCH 100 156
ENDBRANCH  98 100
ENDBRANCH  94  96
BRANCH  94 165
ATOM    165  CB  ALA d   1      10.902   1.644  21.270  0.00  0.00    -0.049 C 
ATOM    166  H59 ALA d   1      11.321   2.538  20.785  0.00  0.00     0.030 H 
ATOM    167  H60 ALA d   1      11.638   0.827  21.232  0.00  0.00     0.030 H 
ATOM    168  H61 ALA d   1      10.664   1.874  22.319  0.00  0.00     0.030 H 
ENDBRANCH  94 165
ENDBRANCH  92  94
ENDBRANCH   1  90
BRANCH   1 169
ATOM    169  CB  LEU d   1       6.396  -1.240  22.671  0.00  0.00    -0.035 C 
ATOM    170  H48 LEU d   1       5.634  -0.537  22.302  0.00  0.00     0.037 H 
ATOM    171  H49 LEU d   1       7.029  -0.737  23.416  0.00  0.00     0.037 H 
BRANCH 169 172
ATOM    172  CG  LEU d   1       5.670  -2.392  23.374  0.00  0.00    -0.059 C 
ATOM    173  H50 LEU d   1       6.395  -3.208  23.515  0.00  0.00     0.038 H 
BRANCH 172 174
ATOM    174  CD1 LEU d   1       5.197  -1.941  24.750  0.00  0.00    -0.073 C 
ATOM    175  H51 LEU d   1       4.677  -2.772  25.249  0.00  0.00     0.028 H 
ATOM    176  H52 LEU d   1       4.508  -1.090  24.640  0.00  0.00     0.028 H 
ATOM    177  H53 LEU d   1       6.064  -1.635  25.354  0.00  0.00     0.028 H 
ENDBRANCH 172 174
BRANCH 172 178
ATOM    178  CD2 LEU d   1       4.517  -2.945  22.548  0.00  0.00    -0.073 C 
ATOM    179  H54 LEU d   1       4.890  -3.261  21.563  0.00  0.00     0.028 H 
ATOM    180  H55 LEU d   1       3.752  -2.165  22.417  0.00  0.00     0.028 H 
ATOM    181  H56 LEU d   1       4.075  -3.808  23.067  0.00  0.00     0.028 H 
ENDBRANCH 172 178
ENDBRANCH 169 172
ENDBRANCH   1 169
TORSDOF 53
