REMARK WARNING: 32 MAX_TORS EXCEEDED!!!
REMARK  50 active torsions:
REMARK  status: ('A' for Active; 'I' for Inactive)
REMARK    1  A    between atoms: N_1  and  CA_2 
REMARK    2  A    between atoms: CA_2  and  C_3 
REMARK    3  A    between atoms: CA_2  and  CB_5 
REMARK       I    between atoms: C_3  and  N_9 
REMARK    4  A    between atoms: CB_5  and  CG_6 
REMARK    5  A    between atoms: N_9  and  CA_10 
REMARK    6  A    between atoms: CA_10  and  C_11 
REMARK    7  A    between atoms: CA_10  and  CB_13 
REMARK       I    between atoms: C_11  and  N_17 
REMARK    8  A    between atoms: CB_13  and  CG_14 
REMARK    9  A    between atoms: N_17  and  CA_18 
REMARK   10  A    between atoms: CA_18  and  C_19 
REMARK   11  A    between atoms: CA_18  and  CB_21 
REMARK       I    between atoms: C_19  and  N_25 
REMARK   12  A    between atoms: CB_21  and  CG1_22 
REMARK   13  A    between atoms: CB_21  and  CG2_23 
REMARK   14  A    between atoms: CG1_22  and  CD1_24 
REMARK   15  A    between atoms: N_25  and  CA_26 
REMARK   16  A    between atoms: CA_26  and  C_27 
REMARK   17  A    between atoms: CA_26  and  CB_29 
REMARK       I    between atoms: C_27  and  N_34 
REMARK   18  A    between atoms: CB_29  and  CG_30 
REMARK   19  A    between atoms: CG_30  and  CD_31 
REMARK   20  A    between atoms: CD_31  and  CE_32 
REMARK   21  A    between atoms: CE_32  and  NZ_33 
REMARK   22  A    between atoms: N_34  and  CA_35 
REMARK   23  A    between atoms: CA_35  and  C_36 
REMARK   24  A    between atoms: CA_35  and  CB_38 
REMARK       I    between atoms: C_36  and  N_43 
REMARK   25  A    between atoms: CB_38  and  CG_39 
REMARK   26  A    between atoms: CG_39  and  CD_40 
REMARK       I    between atoms: CD_40  and  NE2_42 
REMARK   27  A    between atoms: N_43  and  CA_44 
REMARK   28  A    between atoms: CA_44  and  C_45 
REMARK   29  A    between atoms: CA_44  and  CB_47 
REMARK       I    between atoms: C_45  and  N_51 
REMARK   30  A    between atoms: CB_47  and  CG_48 
REMARK   31  A    between atoms: CG_48  and  CD1_49 
REMARK   32  A    between atoms: CG_48  and  CD2_50 
REMARK   33  A    between atoms: N_51  and  CA_52 
REMARK   34  A    between atoms: CA_52  and  C_53 
REMARK   35  A    between atoms: CA_52  and  CB_55 
REMARK       I    between atoms: C_53  and  N_56 
REMARK   36  A    between atoms: N_56  and  CA_57 
REMARK   37  A    between atoms: CA_57  and  C_58 
REMARK   38  A    between atoms: CA_57  and  CB_60 
REMARK       I    between atoms: C_58  and  N_61 
REMARK   39  A    between atoms: N_61  and  CA_62 
REMARK   40  A    between atoms: CA_62  and  C_63 
REMARK   41  A    between atoms: CA_62  and  CB_65 
REMARK       I    between atoms: C_63  and  N_75 
REMARK   42  A    between atoms: CB_65  and  CG_66 
REMARK   43  A    between atoms: N_75  and  CA_76 
REMARK   44  A    between atoms: CA_76  and  C_77 
REMARK   45  A    between atoms: CA_76  and  CB_79 
REMARK       I    between atoms: C_77  and  N_80 
REMARK   46  A    between atoms: N_80  and  CA_81 
REMARK   47  A    between atoms: CA_81  and  C_82 
REMARK   48  A    between atoms: CA_81  and  CB_84 
REMARK   49  A    between atoms: CB_84  and  OG1_85 
REMARK   50  A    between atoms: CB_84  and  CG2_86 
ROOT
ATOM      1  C   GLN d   1       7.993  23.484 -16.546  0.00  0.00     0.241 C 
ATOM      2  O   GLN d   1       8.653  23.398 -17.588  0.00  0.00    -0.271 OA
ATOM      3  N   LEU d   1       7.165  22.516 -16.145  0.00  0.00    -0.346 N 
ATOM      4  H43 LEU d   1       6.648  22.626 -15.296  0.00  0.00     0.163 HD
ENDROOT
BRANCH   3   5
ATOM      5  CA  LEU d   1       7.009  21.299 -16.935  0.00  0.00     0.089 C 
ATOM      6  H44 LEU d   1       8.011  20.924 -17.191  0.00  0.00     0.087 H 
BRANCH   5   7
ATOM      7  C   LEU d   1       6.258  21.572 -18.233  0.00  0.00     0.241 C 
ATOM      8  O   LEU d   1       6.555  20.963 -19.268  0.00  0.00    -0.271 OA
ATOM      9  N   ALA d   1       5.277  22.478 -18.196  0.00  0.00    -0.346 N 
ATOM     10  H54 ALA d   1       5.047  22.929 -17.334  0.00  0.00     0.163 HD
BRANCH   9  11
ATOM     11  CA  ALA d   1       4.540  22.812 -19.411  0.00  0.00     0.086 C 
ATOM     12  H55 ALA d   1       4.159  21.878 -19.850  0.00  0.00     0.086 H 
BRANCH  11  13
ATOM     13  C   ALA d   1       5.445  23.484 -20.435  0.00  0.00     0.240 C 
ATOM     14  O   ALA d   1       5.376  23.177 -21.631  0.00  0.00    -0.271 OA
ATOM     15  N   ALA d   1       6.303  24.402 -19.985  0.00  0.00    -0.346 N 
ATOM     16  H59 ALA d   1       6.303  24.649 -19.016  0.00  0.00     0.163 HD
BRANCH  15  17
ATOM     17  CA  ALA d   1       7.241  25.047 -20.897  0.00  0.00     0.086 C 
ATOM     18  H60 ALA d   1       6.676  25.424 -21.762  0.00  0.00     0.086 H 
BRANCH  17  19
ATOM     19  C   ALA d   1       8.284  24.060 -21.405  0.00  0.00     0.240 C 
ATOM     20  O   ALA d   1       8.730  24.154 -22.554  0.00  0.00    -0.271 OA
ATOM     21  N   TRP d   1       8.684  23.106 -20.560  0.00  0.00    -0.346 N 
ATOM     22  H64 TRP d   1       8.316  23.083 -19.630  0.00  0.00     0.163 HD
BRANCH  21  23
ATOM     23  CA  TRP d   1       9.651  22.097 -20.978  0.00  0.00     0.093 C 
ATOM     24  H65 TRP d   1      10.550  22.610 -21.350  0.00  0.00     0.088 H 
BRANCH  23  25
ATOM     25  C   TRP d   1       9.096  21.233 -22.103  0.00  0.00     0.241 C 
ATOM     26  O   TRP d   1       9.837  20.818 -23.001  0.00  0.00    -0.271 OA
ATOM     27  N   ALA d   1       7.788  20.967 -22.082  0.00  0.00    -0.346 N 
ATOM     28  H74 ALA d   1       7.214  21.387 -21.379  0.00  0.00     0.163 HD
BRANCH  27  29
ATOM     29  CA  ALA d   1       7.180  20.078 -23.062  0.00  0.00     0.086 C 
ATOM     30  H75 ALA d   1       7.886  19.255 -23.250  0.00  0.00     0.086 H 
BRANCH  29  31
ATOM     31  C   ALA d   1       6.893  20.757 -24.395  0.00  0.00     0.240 C 
ATOM     32  O   ALA d   1       6.648  20.060 -25.386  0.00  0.00    -0.271 OA
ATOM     33  N   THR d   1       6.912  22.086 -24.449  0.00  0.00    -0.343 N 
ATOM     34  H79 THR d   1       7.154  22.608 -23.631  0.00  0.00     0.163 HD
BRANCH  33  35
ATOM     35  CA  THR d   1       6.586  22.797 -25.683  0.00  0.00     0.120 C 
ATOM     36  H80 THR d   1       5.660  22.363 -26.087  0.00  0.00     0.093 H 
BRANCH  35  37
ATOM     37  C   THR d   1       7.684  22.643 -26.729  0.00  0.00     0.199 C 
ATOM     38  O   THR d   1       8.254  23.632 -27.192  0.00  0.00    -0.646 OA
ATOM     39  OXT THR d   1       8.019  21.527 -27.128  0.00  0.00    -0.646 OA
ENDBRANCH  35  37
BRANCH  35  40
ATOM     40  CB  THR d   1       6.348  24.298 -25.430  0.00  0.00     0.061 C 
ATOM     41  H81 THR d   1       6.194  24.802 -26.396  0.00  0.00     0.086 H 
BRANCH  40  42
ATOM     42  OG1 THR d   1       7.492  24.868 -24.782  0.00  0.00    -0.393 OA
ATOM     43  H82 THR d   1       7.637  24.428 -23.953  0.00  0.00     0.210 HD
ENDBRANCH  40  42
BRANCH  40  44
ATOM     44  CG2 THR d   1       5.116  24.504 -24.564  0.00  0.00    -0.050 C 
ATOM     45  H83 THR d   1       4.963  25.580 -24.395  0.00  0.00     0.031 H 
ATOM     46  H84 THR d   1       5.258  23.997 -23.598  0.00  0.00     0.031 H 
ATOM     47  H85 THR d   1       4.236  24.084 -25.073  0.00  0.00     0.031 H 
ENDBRANCH  40  44
ENDBRANCH  35  40
ENDBRANCH  33  35
ENDBRANCH  29  31
BRANCH  29  48
ATOM     48  CB  ALA d   1       5.886  19.486 -22.499  0.00  0.00    -0.049 C 
ATOM     49  H76 ALA d   1       5.434  18.816 -23.245  0.00  0.00     0.030 H 
ATOM     50  H77 ALA d   1       5.184  20.299 -22.262  0.00  0.00     0.030 H 
ATOM     51  H78 ALA d   1       6.110  18.917 -21.584  0.00  0.00     0.030 H 
ENDBRANCH  29  48
ENDBRANCH  27  29
ENDBRANCH  23  25
BRANCH  23  52
ATOM     52  CB  TRP d   1      10.043  21.236 -19.776  0.00  0.00    -0.012 C 
ATOM     53  H66 TRP d   1       9.133  20.751 -19.393  0.00  0.00     0.044 H 
ATOM     54  H67 TRP d   1      10.458  21.900 -19.003  0.00  0.00     0.044 H 
BRANCH  52  55
ATOM     55  CG  TRP d   1      11.056  20.164 -20.060  0.00  0.00    -0.028 A 
ATOM     56  CD1 TRP d   1      12.414  20.277 -19.978  0.00  0.00    -0.015 A 
ATOM     57  NE1 TRP d   1      13.008  19.079 -20.299  0.00  0.00    -0.365 N 
ATOM     58  H68 TRP d   1      12.949  21.184 -19.699  0.00  0.00     0.112 H 
ATOM     59  CE2 TRP d   1      12.032  18.163 -20.589  0.00  0.00     0.042 A 
ATOM     60  H69 TRP d   1      14.022  18.900 -20.318  0.00  0.00     0.165 HD
ATOM     61  CD2 TRP d   1      10.788  18.809 -20.445  0.00  0.00    -0.002 A 
ATOM     62  CZ2 TRP d   1      12.138  16.824 -20.962  0.00  0.00    -0.056 A 
ATOM     63  CE3 TRP d   1       9.619  18.083 -20.689  0.00  0.00    -0.070 A 
ATOM     64  CZ3 TRP d   1       9.727  16.755 -21.060  0.00  0.00    -0.082 A 
ATOM     65  H70 TRP d   1       8.647  18.552 -20.589  0.00  0.00     0.084 H 
ATOM     66  CH2 TRP d   1      10.977  16.140 -21.194  0.00  0.00    -0.081 A 
ATOM     67  H72 TRP d   1       8.828  16.180 -21.250  0.00  0.00     0.083 H 
ATOM     68  H73 TRP d   1      11.026  15.098 -21.488  0.00  0.00     0.083 H 
ATOM     69  H71 TRP d   1      13.104  16.343 -21.064  0.00  0.00     0.086 H 
ENDBRANCH  52  55
ENDBRANCH  23  52
ENDBRANCH  21  23
ENDBRANCH  17  19
BRANCH  17  70
ATOM     70  CB  ALA d   1       7.913  26.233 -20.207  0.00  0.00    -0.049 C 
ATOM     71  H61 ALA d   1       8.617  26.711 -20.903  0.00  0.00     0.030 H 
ATOM     72  H62 ALA d   1       8.458  25.880 -19.319  0.00  0.00     0.030 H 
ATOM     73  H63 ALA d   1       7.147  26.962 -19.902  0.00  0.00     0.030 H 
ENDBRANCH  17  70
ENDBRANCH  15  17
ENDBRANCH  11  13
BRANCH  11  74
ATOM     74  CB  ALA d   1       3.347  23.709 -19.076  0.00  0.00    -0.049 C 
ATOM     75  H56 ALA d   1       2.801  23.953 -19.999  0.00  0.00     0.030 H 
ATOM     76  H57 ALA d   1       3.706  24.637 -18.607  0.00  0.00     0.030 H 
ATOM     77  H58 ALA d   1       2.676  23.183 -18.381  0.00  0.00     0.030 H 
ENDBRANCH  11  74
ENDBRANCH   9  11
ENDBRANCH   5   7
BRANCH   5  78
ATOM     78  CB  LEU d   1       6.288  20.230 -16.115  0.00  0.00    -0.035 C 
ATOM     79  H45 LEU d   1       5.983  19.430 -16.806  0.00  0.00     0.037 H 
ATOM     80  H46 LEU d   1       5.393  20.695 -15.676  0.00  0.00     0.037 H 
BRANCH  78  81
ATOM     81  CG  LEU d   1       7.077  19.581 -14.977  0.00  0.00    -0.059 C 
ATOM     82  H47 LEU d   1       7.465  20.380 -14.327  0.00  0.00     0.038 H 
BRANCH  81  83
ATOM     83  CD1 LEU d   1       6.171  18.688 -14.146  0.00  0.00    -0.073 C 
ATOM     84  H48 LEU d   1       6.753  18.230 -13.333  0.00  0.00     0.028 H 
ATOM     85  H49 LEU d   1       5.749  17.898 -14.785  0.00  0.00     0.028 H 
ATOM     86  H50 LEU d   1       5.355  19.290 -13.719  0.00  0.00     0.028 H 
ENDBRANCH  81  83
BRANCH  81  87
ATOM     87  CD2 LEU d   1       8.260  18.793 -15.518  0.00  0.00    -0.073 C 
ATOM     88  H51 LEU d   1       8.901  19.458 -16.115  0.00  0.00     0.028 H 
ATOM     89  H52 LEU d   1       7.894  17.971 -16.151  0.00  0.00     0.028 H 
ATOM     90  H53 LEU d   1       8.840  18.380 -14.679  0.00  0.00     0.028 H 
ENDBRANCH  81  87
ENDBRANCH  78  81
ENDBRANCH   5  78
ENDBRANCH   3   5
BRANCH   1  91
ATOM     91  CA  GLN d   1       8.097  24.723 -15.666  0.00  0.00     0.090 C 
ATOM     92  H36 GLN d   1       8.539  25.534 -16.264  0.00  0.00     0.087 H 
BRANCH  91  93
ATOM     93  N   GLN d   1       6.781  25.155 -15.212  0.00  0.00    -0.346 N 
ATOM     94  C   LYS d   1       5.885  25.606 -16.091  0.00  0.00     0.241 C 
ATOM     95  O   LYS d   1       6.156  25.762 -17.287  0.00  0.00    -0.271 OA
ATOM     96  H35 GLN d   1       6.550  25.113 -14.240  0.00  0.00     0.163 HD
BRANCH  94  97
ATOM     97  CA  LYS d   1       4.500  25.946 -15.564  0.00  0.00     0.089 C 
ATOM     98  H23 LYS d   1       3.793  25.910 -16.406  0.00  0.00     0.087 H 
BRANCH  97  99
ATOM     99  N   LYS d   1       4.056  24.986 -14.557  0.00  0.00    -0.346 N 
ATOM    100  C   ILE d   1       3.906  23.697 -14.876  0.00  0.00     0.241 C 
ATOM    101  O   ILE d   1       4.190  23.263 -15.998  0.00  0.00    -0.271 OA
ATOM    102  H22 LYS d   1       3.864  25.294 -13.625  0.00  0.00     0.163 HD
BRANCH 100 103
ATOM    103  CA  ILE d   1       3.365  22.775 -13.792  0.00  0.00     0.092 C 
ATOM    104  H12 ILE d   1       3.564  21.737 -14.097  0.00  0.00     0.088 H 
BRANCH 103 105
ATOM    105  N   ILE d   1       4.045  23.019 -12.524  0.00  0.00    -0.346 N 
ATOM    106  C   ASP d   1       5.343  22.751 -12.372  0.00  0.00     0.241 C 
ATOM    107  O   ASP d   1       6.043  22.317 -13.294  0.00  0.00    -0.271 OA
ATOM    108  H11 ILE d   1       3.528  23.394 -11.755  0.00  0.00     0.163 HD
BRANCH 106 109
ATOM    109  CA  ASP d   1       5.946  23.021 -11.000  0.00  0.00     0.098 C 
ATOM    110  H8  ASP d   1       7.035  23.130 -11.113  0.00  0.00     0.088 H 
BRANCH 109 111
ATOM    111  N   ASP d   1       5.412  24.254 -10.434  0.00  0.00    -0.345 N 
ATOM    112  C   ASP d   1       5.509  25.404 -11.106  0.00  0.00     0.249 C 
ATOM    113  O   ASP d   1       6.193  25.539 -12.123  0.00  0.00    -0.271 OA
ATOM    114  H7  ASP d   1       4.970  24.238  -9.537  0.00  0.00     0.163 HD
BRANCH 112 115
ATOM    115  CA  ASP d   1       4.729  26.577 -10.531  0.00  0.00     0.185 C 
ATOM    116  H4  ASP d   1       5.186  27.512 -10.888  0.00  0.00     0.100 H 
BRANCH 115 117
ATOM    117  N   ASP d   1       3.346  26.528 -10.994  0.00  0.00    -0.066 N 
ATOM    118  H1  ASP d   1       2.835  27.307 -10.610  0.00  0.00     0.275 HD
ATOM    119  H2  ASP d   1       2.921  25.666 -10.691  0.00  0.00     0.275 HD
ATOM    120  H3  ASP d   1       3.327  26.577 -12.001  0.00  0.00     0.275 HD
ENDBRANCH 115 117
BRANCH 115 121
ATOM    121  CB  ASP d   1       4.784  26.563  -9.004  0.00  0.00     0.050 C 
ATOM    122  H5  ASP d   1       4.383  25.603  -8.646  0.00  0.00     0.052 H 
ATOM    123  H6  ASP d   1       4.162  27.386  -8.621  0.00  0.00     0.052 H 
BRANCH 121 124
ATOM    124  CG  ASP d   1       6.194  26.731  -8.469  0.00  0.00     0.175 C 
ATOM    125  OD1 ASP d   1       6.391  26.554  -7.248  0.00  0.00    -0.648 OA
ATOM    126  OD2 ASP d   1       7.103  27.043  -9.266  0.00  0.00    -0.648 OA
ENDBRANCH 121 124
ENDBRANCH 115 121
ENDBRANCH 112 115
ENDBRANCH 109 111
BRANCH 109 127
ATOM    127  CB  ASP d   1       5.668  21.852 -10.056  0.00  0.00     0.043 C 
ATOM    128  H9  ASP d   1       5.457  20.956 -10.658  0.00  0.00     0.052 H 
ATOM    129  H10 ASP d   1       4.789  22.097  -9.442  0.00  0.00     0.052 H 
BRANCH 127 130
ATOM    130  CG  ASP d   1       6.832  21.553  -9.136  0.00  0.00     0.175 C 
ATOM    131  OD1 ASP d   1       7.875  22.231  -9.252  0.00  0.00    -0.648 OA
ATOM    132  OD2 ASP d   1       6.704  20.637  -8.296  0.00  0.00    -0.648 OA
ENDBRANCH 127 130
ENDBRANCH 109 127
ENDBRANCH 106 109
ENDBRANCH 103 105
BRANCH 103 133
ATOM    133  CB  ILE d   1       1.845  22.940 -13.621  0.00  0.00    -0.030 C 
ATOM    134  H13 ILE d   1       1.655  23.911 -13.140  0.00  0.00     0.043 H 
BRANCH 133 135
ATOM    135  CG1 ILE d   1       1.291  21.842 -12.712  0.00  0.00    -0.063 C 
ATOM    136  H14 ILE d   1       1.589  22.067 -11.677  0.00  0.00     0.033 H 
ATOM    137  H15 ILE d   1       1.732  20.883 -13.020  0.00  0.00     0.033 H 
BRANCH 135 138
ATOM    138  CD1 ILE d   1      -0.214  21.708 -12.755  0.00  0.00    -0.076 C 
ATOM    139  H19 ILE d   1      -0.530  20.901 -12.077  0.00  0.00     0.027 H 
ATOM    140  H20 ILE d   1      -0.532  21.471 -13.781  0.00  0.00     0.027 H 
ATOM    141  H21 ILE d   1      -0.676  22.655 -12.438  0.00  0.00     0.027 H 
ENDBRANCH 135 138
ENDBRANCH 133 135
BRANCH 133 142
ATOM    142  CG2 ILE d   1       1.150  22.940 -14.974  0.00  0.00    -0.071 C 
ATOM    143  H16 ILE d   1       1.570  23.739 -15.602  0.00  0.00     0.028 H 
ATOM    144  H17 ILE d   1       0.073  23.113 -14.833  0.00  0.00     0.028 H 
ATOM    145  H18 ILE d   1       1.304  21.968 -15.465  0.00  0.00     0.028 H 
ENDBRANCH 133 142
ENDBRANCH 103 133
ENDBRANCH 100 103
ENDBRANCH  97  99
BRANCH  97 146
ATOM    146  CB  LYS d   1       4.497  27.360 -14.991  0.00  0.00    -0.038 C 
ATOM    147  H24 LYS d   1       4.989  28.024 -15.717  0.00  0.00     0.036 H 
ATOM    148  H25 LYS d   1       5.072  27.351 -14.053  0.00  0.00     0.036 H 
BRANCH 146 149
ATOM    149  CG  LYS d   1       3.125  27.921 -14.695  0.00  0.00    -0.061 C 
ATOM    150  H26 LYS d   1       2.659  27.347 -13.880  0.00  0.00     0.033 H 
ATOM    151  H27 LYS d   1       2.497  27.855 -15.596  0.00  0.00     0.033 H 
BRANCH 149 152
ATOM    152  CD  LYS d   1       3.267  29.373 -14.278  0.00  0.00    -0.043 C 
ATOM    153  H28 LYS d   1       2.702  30.000 -14.983  0.00  0.00     0.035 H 
ATOM    154  H29 LYS d   1       4.331  29.649 -14.314  0.00  0.00     0.035 H 
BRANCH 152 155
ATOM    155  CE  LYS d   1       2.750  29.623 -12.887  0.00  0.00     0.080 C 
ATOM    156  H30 LYS d   1       1.914  28.934 -12.694  0.00  0.00     0.075 H 
ATOM    157  H31 LYS d   1       2.391  30.661 -12.827  0.00  0.00     0.075 H 
BRANCH 155 158
ATOM    158  NZ  LYS d   1       3.785  29.418 -11.842  0.00  0.00    -0.079 N 
ATOM    159  H32 LYS d   1       3.386  29.598 -10.934  0.00  0.00     0.274 HD
ATOM    160  H33 LYS d   1       4.554  30.049 -12.002  0.00  0.00     0.274 HD
ATOM    161  H34 LYS d   1       4.117  28.467 -11.880  0.00  0.00     0.274 HD
ENDBRANCH 155 158
ENDBRANCH 152 155
ENDBRANCH 149 152
ENDBRANCH 146 149
ENDBRANCH  97 146
ENDBRANCH  94  97
ENDBRANCH  91  93
BRANCH  91 162
ATOM    162  CB  GLN d   1       9.007  24.456 -14.468  0.00  0.00    -0.030 C 
ATOM    163  H37 GLN d   1       9.996  24.157 -14.846  0.00  0.00     0.037 H 
ATOM    164  H38 GLN d   1       8.573  23.632 -13.883  0.00  0.00     0.037 H 
BRANCH 162 165
ATOM    165  CG  GLN d   1       9.192  25.648 -13.545  0.00  0.00     0.011 C 
ATOM    166  H39 GLN d   1       8.212  25.929 -13.131  0.00  0.00     0.047 H 
ATOM    167  H40 GLN d   1       9.597  26.487 -14.130  0.00  0.00     0.047 H 
BRANCH 165 168
ATOM    168  CD  GLN d   1      10.138  25.354 -12.397  0.00  0.00     0.215 C 
ATOM    169  OE1 GLN d   1       9.771  25.472 -11.228  0.00  0.00    -0.274 OA
ATOM    170  NE2 GLN d   1      11.365  24.967 -12.727  0.00  0.00    -0.370 N 
ATOM    171  H41 GLN d   1      12.033  24.759 -12.012  0.00  0.00     0.159 HD
ATOM    172  H42 GLN d   1      11.621  24.884 -13.690  0.00  0.00     0.159 HD
ENDBRANCH 165 168
ENDBRANCH 162 165
ENDBRANCH  91 162
ENDBRANCH   1  91
TORSDOF 50
