REMARK  28 active torsions:
REMARK  status: ('A' for Active; 'I' for Inactive)
REMARK    1  A    between atoms: C21_2  and  O21_3 
REMARK    2  A    between atoms: C31_4  and  O31_5 
REMARK    3  A    between atoms: C51_8  and  C61_10 
REMARK    4  A    between atoms: C61_10  and  O61_11 
REMARK    5  A    between atoms: C22_13  and  O22_14 
REMARK    6  A    between atoms: C32_15  and  O32_16 
REMARK    7  A    between atoms: C52_19  and  C62_21 
REMARK    8  A    between atoms: C62_21  and  O62_22 
REMARK    9  A    between atoms: C23_24  and  O23_25 
REMARK   10  A    between atoms: C33_26  and  O33_27 
REMARK   11  A    between atoms: C53_30  and  C63_32 
REMARK   12  A    between atoms: C63_32  and  O63_33 
REMARK   13  A    between atoms: C24_35  and  O24_36 
REMARK   14  A    between atoms: C34_37  and  O34_38 
REMARK   15  A    between atoms: C54_41  and  C64_43 
REMARK   16  A    between atoms: C64_43  and  O64_44 
REMARK   17  A    between atoms: C25_46  and  O25_47 
REMARK   18  A    between atoms: C35_48  and  O35_49 
REMARK   19  A    between atoms: C55_52  and  C65_54 
REMARK   20  A    between atoms: C65_54  and  O65_55 
REMARK   21  A    between atoms: C26_57  and  O26_58 
REMARK   22  A    between atoms: C36_59  and  O36_60 
REMARK   23  A    between atoms: C56_63  and  C66_65 
REMARK   24  A    between atoms: C66_65  and  O66_66 
REMARK   25  A    between atoms: C27_68  and  O27_69 
REMARK   26  A    between atoms: C37_70  and  O37_71 
REMARK   27  A    between atoms: C57_74  and  C67_76 
REMARK   28  A    between atoms: C67_76  and  O67_77 
ROOT
ATOM      1  C11 BCD d   1     -11.498 -15.596  -2.625  0.00  0.00     0.159 C 
ATOM      2  C21 BCD d   1     -12.123 -14.686  -3.641  0.00  0.00     0.110 C 
ATOM      3  C31 BCD d   1     -12.998 -13.659  -2.934  0.00  0.00     0.092 C 
ATOM      4  C41 BCD d   1     -13.944 -14.373  -1.989  0.00  0.00     0.096 C 
ATOM      5  O41 BCD d   1     -14.644 -13.362  -1.240  0.00  0.00    -0.348 OA
ATOM      6  C51 BCD d   1     -13.159 -15.251  -1.048  0.00  0.00     0.089 C 
ATOM      7  O51 BCD d   1     -12.393 -16.190  -1.763  0.00  0.00    -0.348 OA
ATOM      8  C12 BCD d   1     -16.042 -13.206  -1.578  0.00  0.00     0.159 C 
ATOM      9  C22 BCD d   1     -16.388 -11.743  -1.732  0.00  0.00     0.110 C 
ATOM     10  C32 BCD d   1     -16.253 -11.024  -0.404  0.00  0.00     0.092 C 
ATOM     11  C42 BCD d   1     -16.985 -11.731   0.712  0.00  0.00     0.096 C 
ATOM     12  O42 BCD d   1     -16.507 -11.027   1.897  0.00  0.00    -0.348 OA
ATOM     13  C52 BCD d   1     -16.688 -13.221   0.727  0.00  0.00     0.089 C 
ATOM     14  O52 BCD d   1     -16.838 -13.769  -0.587  0.00  0.00    -0.348 OA
ATOM     15  C13 BCD d   1     -17.158 -11.346   3.141  0.00  0.00     0.159 C 
ATOM     16  C23 BCD d   1     -17.172 -10.115   4.020  0.00  0.00     0.110 C 
ATOM     17  C33 BCD d   1     -15.794  -9.768   4.548  0.00  0.00     0.092 C 
ATOM     18  C43 BCD d   1     -15.154 -11.021   5.148  0.00  0.00     0.096 C 
ATOM     19  O43 BCD d   1     -13.809 -10.682   5.540  0.00  0.00    -0.348 OA
ATOM     20  C53 BCD d   1     -15.164 -12.148   4.139  0.00  0.00     0.089 C 
ATOM     21  O53 BCD d   1     -16.517 -12.409   3.781  0.00  0.00    -0.348 OA
ATOM     22  C14 BCD d   1     -13.510 -10.857   6.902  0.00  0.00     0.159 C 
ATOM     23  C24 BCD d   1     -12.803  -9.614   7.433  0.00  0.00     0.110 C 
ATOM     24  C34 BCD d   1     -11.391  -9.504   6.875  0.00  0.00     0.092 C 
ATOM     25  C44 BCD d   1     -10.629 -10.790   7.022  0.00  0.00     0.096 C 
ATOM     26  O44 BCD d   1      -9.384 -10.658   6.254  0.00  0.00    -0.348 OA
ATOM     27  C54 BCD d   1     -11.399 -11.974   6.486  0.00  0.00     0.089 C 
ATOM     28  O54 BCD d   1     -12.693 -12.028   7.104  0.00  0.00    -0.348 OA
ATOM     29  C15 BCD d   1      -8.215 -10.502   6.996  0.00  0.00     0.159 C 
ATOM     30  C25 BCD d   1      -7.386  -9.370   6.384  0.00  0.00     0.110 C 
ATOM     31  C35 BCD d   1      -6.930  -9.729   4.986  0.00  0.00     0.092 C 
ATOM     32  C45 BCD d   1      -6.240 -11.067   4.965  0.00  0.00     0.096 C 
ATOM     33  O45 BCD d   1      -6.108 -11.432   3.556  0.00  0.00    -0.348 OA
ATOM     34  C55 BCD d   1      -7.068 -12.122   5.673  0.00  0.00     0.089 C 
ATOM     35  O55 BCD d   1      -7.449 -11.700   6.976  0.00  0.00    -0.348 OA
ATOM     36  C16 BCD d   1      -4.823 -11.788   3.061  0.00  0.00     0.159 C 
ATOM     37  C26 BCD d   1      -4.709 -11.196   1.686  0.00  0.00     0.110 C 
ATOM     38  C36 BCD d   1      -5.688 -11.802   0.706  0.00  0.00     0.092 C 
ATOM     39  C46 BCD d   1      -5.582 -13.320   0.746  0.00  0.00     0.096 C 
ATOM     40  O46 BCD d   1      -6.643 -13.780  -0.094  0.00  0.00    -0.348 OA
ATOM     41  C56 BCD d   1      -5.670 -13.833   2.195  0.00  0.00     0.089 C 
ATOM     42  O56 BCD d   1      -4.673 -13.194   3.001  0.00  0.00    -0.348 OA
ATOM     43  C17 BCD d   1      -6.444 -15.044  -0.708  0.00  0.00     0.159 C 
ATOM     44  C27 BCD d   1      -6.706 -14.858  -2.198  0.00  0.00     0.110 C 
ATOM     45  C37 BCD d   1      -8.145 -14.426  -2.415  0.00  0.00     0.092 C 
ATOM     46  C47 BCD d   1      -9.084 -15.363  -1.706  0.00  0.00     0.096 C 
ATOM     47  O47 BCD d   1     -10.446 -14.901  -1.878  0.00  0.00    -0.348 OA
ATOM     48  C57 BCD d   1      -8.707 -15.570  -0.266  0.00  0.00     0.089 C 
ATOM     49  O57 BCD d   1      -7.351 -15.980  -0.158  0.00  0.00    -0.348 OA
ATOM     50  H1  BCD d   1     -11.017 -16.410  -3.188  0.00  0.00     0.133 H 
ATOM     51  H2  BCD d   1     -12.756 -15.280  -4.316  0.00  0.00     0.094 H 
ATOM     52  H4  BCD d   1     -12.363 -12.972  -2.355  0.00  0.00     0.091 H 
ATOM     53  H6  BCD d   1     -14.658 -14.986  -2.559  0.00  0.00     0.091 H 
ATOM     54  H7  BCD d   1     -12.500 -14.621  -0.432  0.00  0.00     0.090 H 
ATOM     55  H11 BCD d   1     -16.237 -13.721  -2.530  0.00  0.00     0.133 H 
ATOM     56  H12 BCD d   1     -17.429 -11.656  -2.076  0.00  0.00     0.094 H 
ATOM     57  H14 BCD d   1     -15.186 -10.978  -0.139  0.00  0.00     0.091 H 
ATOM     58  H16 BCD d   1     -18.072 -11.597   0.605  0.00  0.00     0.091 H 
ATOM     59  H17 BCD d   1     -15.659 -13.361   1.089  0.00  0.00     0.090 H 
ATOM     60  H21 BCD d   1     -18.196 -11.643   2.931  0.00  0.00     0.133 H 
ATOM     61  H22 BCD d   1     -17.787 -10.366   4.897  0.00  0.00     0.094 H 
ATOM     62  H24 BCD d   1     -15.163  -9.400   3.725  0.00  0.00     0.091 H 
ATOM     63  H26 BCD d   1     -15.723 -11.335   6.035  0.00  0.00     0.091 H 
ATOM     64  H27 BCD d   1     -14.586 -11.844   3.254  0.00  0.00     0.090 H 
ATOM     65  H31 BCD d   1     -14.452 -10.990   7.454  0.00  0.00     0.133 H 
ATOM     66  H32 BCD d   1     -12.736  -9.682   8.529  0.00  0.00     0.094 H 
ATOM     67  H34 BCD d   1     -11.452  -9.262   5.804  0.00  0.00     0.091 H 
ATOM     68  H36 BCD d   1     -10.401 -10.959   8.085  0.00  0.00     0.091 H 
ATOM     69  H37 BCD d   1     -11.497 -11.879   5.395  0.00  0.00     0.090 H 
ATOM     70  H41 BCD d   1      -8.473 -10.252   8.036  0.00  0.00     0.133 H 
ATOM     71  H42 BCD d   1      -6.493  -9.204   7.004  0.00  0.00     0.094 H 
ATOM     72  H44 BCD d   1      -7.828  -9.807   4.356  0.00  0.00     0.091 H 
ATOM     73  H46 BCD d   1      -5.251 -10.992   5.441  0.00  0.00     0.091 H 
ATOM     74  H47 BCD d   1      -7.965 -12.329   5.071  0.00  0.00     0.090 H 
ATOM     75  H51 BCD d   1      -4.043 -11.370   3.715  0.00  0.00     0.133 H 
ATOM     76  H52 BCD d   1      -3.696 -11.412   1.316  0.00  0.00     0.094 H 
ATOM     77  H54 BCD d   1      -6.711 -11.514   0.988  0.00  0.00     0.091 H 
ATOM     78  H56 BCD d   1      -4.618 -13.642   0.325  0.00  0.00     0.091 H 
ATOM     79  H57 BCD d   1      -6.668 -13.577   2.581  0.00  0.00     0.090 H 
ATOM     80  H61 BCD d   1      -5.412 -15.390  -0.546  0.00  0.00     0.133 H 
ATOM     81  H62 BCD d   1      -6.549 -15.822  -2.703  0.00  0.00     0.094 H 
ATOM     82  H64 BCD d   1      -8.280 -13.417  -1.998  0.00  0.00     0.091 H 
ATOM     83  H66 BCD d   1      -9.006 -16.344  -2.198  0.00  0.00     0.091 H 
ATOM     84  H67 BCD d   1      -8.829 -14.614   0.265  0.00  0.00     0.090 H 
ENDROOT
BRANCH   6  85
ATOM     85  C61 BCD d   1     -14.114 -16.062  -0.140  0.00  0.00     0.043 C 
ATOM     86  H8  BCD d   1     -14.761 -15.368   0.416  0.00  0.00     0.078 H 
ATOM     87  H9  BCD d   1     -13.520 -16.657   0.569  0.00  0.00     0.078 H 
BRANCH  85  88
ATOM     88  O61 BCD d   1     -14.929 -16.940  -0.925  0.00  0.00    -0.398 OA
ATOM     89  H10 BCD d   1     -15.445 -16.428  -1.537  0.00  0.00     0.209 HD
ENDBRANCH  85  88
ENDBRANCH   6  85
BRANCH   3  90
ATOM     90  O31 BCD d   1     -13.708 -12.927  -3.900  0.00  0.00    -0.390 OA
ATOM     91  H5  BCD d   1     -14.257 -12.283  -3.468  0.00  0.00     0.210 HD
ENDBRANCH   3  90
BRANCH   2  92
ATOM     92  O21 BCD d   1     -11.103 -14.074  -4.401  0.00  0.00    -0.388 OA
ATOM     93  H3  BCD d   1     -11.494 -13.496  -5.046  0.00  0.00     0.210 HD
ENDBRANCH   2  92
BRANCH   9  94
ATOM     94  O22 BCD d   1     -15.520 -11.155  -2.715  0.00  0.00    -0.388 OA
ATOM     95  H13 BCD d   1     -15.734 -10.235  -2.815  0.00  0.00     0.210 HD
ENDBRANCH   9  94
BRANCH  10  96
ATOM     96  O32 BCD d   1     -16.750  -9.695  -0.554  0.00  0.00    -0.390 OA
ATOM     97  H15 BCD d   1     -16.671  -9.233   0.273  0.00  0.00     0.210 HD
ENDBRANCH  10  96
BRANCH  13  98
ATOM     98  C62 BCD d   1     -17.645 -14.068   1.568  0.00  0.00     0.043 C 
ATOM     99  H18 BCD d   1     -18.674 -13.711   1.409  0.00  0.00     0.078 H 
ATOM    100  H19 BCD d   1     -17.380 -13.961   2.630  0.00  0.00     0.078 H 
BRANCH  98 101
ATOM    101  O62 BCD d   1     -17.570 -15.430   1.210  0.00  0.00    -0.398 OA
ATOM    102  H20 BCD d   1     -17.802 -15.529   0.294  0.00  0.00     0.209 HD
ENDBRANCH  98 101
ENDBRANCH  13  98
BRANCH  45 103
ATOM    103  O37 BCD d   1      -8.413 -14.381  -3.812  0.00  0.00    -0.390 OA
ATOM    104  H65 BCD d   1      -7.826 -13.759  -4.226  0.00  0.00     0.210 HD
ENDBRANCH  45 103
BRANCH  48 105
ATOM    105  C67 BCD d   1      -9.620 -16.621   0.401  0.00  0.00     0.043 C 
ATOM    106  H68 BCD d   1     -10.671 -16.313   0.295  0.00  0.00     0.078 H 
ATOM    107  H69 BCD d   1      -9.367 -16.701   1.469  0.00  0.00     0.078 H 
BRANCH 105 108
ATOM    108  O67 BCD d   1      -9.433 -17.870  -0.219  0.00  0.00    -0.398 OA
ATOM    109  H70 BCD d   1      -8.525 -18.135  -0.127  0.00  0.00     0.209 HD
ENDBRANCH 105 108
ENDBRANCH  48 105
BRANCH  44 110
ATOM    110  O27 BCD d   1      -5.821 -13.918  -2.753  0.00  0.00    -0.388 OA
ATOM    111  H63 BCD d   1      -6.005 -13.821  -3.680  0.00  0.00     0.210 HD
ENDBRANCH  44 110
BRANCH  16 112
ATOM    112  O23 BCD d   1     -17.805  -9.000   3.387  0.00  0.00    -0.388 OA
ATOM    113  H23 BCD d   1     -17.339  -8.785   2.587  0.00  0.00     0.210 HD
ENDBRANCH  16 112
BRANCH  17 114
ATOM    114  O33 BCD d   1     -15.935  -8.749   5.521  0.00  0.00    -0.390 OA
ATOM    115  H25 BCD d   1     -15.079  -8.519   5.863  0.00  0.00     0.210 HD
ENDBRANCH  17 114
BRANCH  20 116
ATOM    116  C63 BCD d   1     -14.590 -13.455   4.695  0.00  0.00     0.043 C 
ATOM    117  H28 BCD d   1     -15.247 -13.840   5.489  0.00  0.00     0.078 H 
ATOM    118  H29 BCD d   1     -13.586 -13.273   5.106  0.00  0.00     0.078 H 
BRANCH 116 119
ATOM    119  O63 BCD d   1     -14.509 -14.403   3.641  0.00  0.00    -0.398 OA
ATOM    120  H30 BCD d   1     -13.942 -14.067   2.957  0.00  0.00     0.209 HD
ENDBRANCH 116 119
ENDBRANCH  20 116
BRANCH  38 121
ATOM    121  O36 BCD d   1      -5.400 -11.275  -0.605  0.00  0.00    -0.390 OA
ATOM    122  H55 BCD d   1      -6.007 -11.646  -1.235  0.00  0.00     0.210 HD
ENDBRANCH  38 121
BRANCH  41 123
ATOM    123  C66 BCD d   1      -5.470 -15.331   2.347  0.00  0.00     0.043 C 
ATOM    124  H58 BCD d   1      -6.224 -15.855   1.741  0.00  0.00     0.078 H 
ATOM    125  H59 BCD d   1      -5.597 -15.603   3.405  0.00  0.00     0.078 H 
BRANCH 123 126
ATOM    126  O66 BCD d   1      -4.145 -15.740   1.910  0.00  0.00    -0.398 OA
ATOM    127  H60 BCD d   1      -3.489 -15.294   2.433  0.00  0.00     0.209 HD
ENDBRANCH 123 126
ENDBRANCH  41 123
BRANCH  37 128
ATOM    128  O26 BCD d   1      -4.863  -9.777   1.742  0.00  0.00    -0.388 OA
ATOM    129  H53 BCD d   1      -4.185  -9.408   2.296  0.00  0.00     0.210 HD
ENDBRANCH  37 128
BRANCH  23 130
ATOM    130  O24 BCD d   1     -13.583  -8.487   7.093  0.00  0.00    -0.388 OA
ATOM    131  H33 BCD d   1     -13.670  -8.437   6.148  0.00  0.00     0.210 HD
ENDBRANCH  23 130
BRANCH  24 132
ATOM    132  O34 BCD d   1     -10.728  -8.436   7.555  0.00  0.00    -0.390 OA
ATOM    133  H35 BCD d   1      -9.843  -8.350   7.221  0.00  0.00     0.210 HD
ENDBRANCH  24 132
BRANCH  27 134
ATOM    134  C64 BCD d   1     -10.720 -13.298   6.837  0.00  0.00     0.043 C 
ATOM    135  H38 BCD d   1     -10.754 -13.431   7.928  0.00  0.00     0.078 H 
ATOM    136  H39 BCD d   1      -9.672 -13.254   6.505  0.00  0.00     0.078 H 
BRANCH 134 137
ATOM    137  O64 BCD d   1     -11.341 -14.418   6.225  0.00  0.00    -0.398 OA
ATOM    138  H40 BCD d   1     -11.311 -14.319   5.281  0.00  0.00     0.209 HD
ENDBRANCH 134 137
ENDBRANCH  27 134
BRANCH  31 139
ATOM    139  O35 BCD d   1      -6.084  -8.707   4.413  0.00  0.00    -0.390 OA
ATOM    140  H45 BCD d   1      -5.314  -8.594   4.957  0.00  0.00     0.210 HD
ENDBRANCH  31 139
BRANCH  34 141
ATOM    141  C65 BCD d   1      -6.262 -13.422   5.876  0.00  0.00     0.043 C 
ATOM    142  H48 BCD d   1      -5.513 -13.254   6.664  0.00  0.00     0.078 H 
ATOM    143  H49 BCD d   1      -5.753 -13.672   4.934  0.00  0.00     0.078 H 
BRANCH 141 144
ATOM    144  O65 BCD d   1      -7.070 -14.499   6.248  0.00  0.00    -0.398 OA
ATOM    145  H50 BCD d   1      -7.716 -14.658   5.570  0.00  0.00     0.209 HD
ENDBRANCH 141 144
ENDBRANCH  34 141
BRANCH  30 146
ATOM    146  O25 BCD d   1      -8.181  -8.189   6.400  0.00  0.00    -0.388 OA
ATOM    147  H43 BCD d   1      -7.686  -7.470   6.024  0.00  0.00     0.210 HD
ENDBRANCH  30 146
TORSDOF 28
