REMARK  32 active torsions:
REMARK  status: ('A' for Active; 'I' for Inactive)
REMARK    1  A    between atoms: C2A_9  and  O2A_10 
REMARK    2  A    between atoms: C2B_11  and  O2B_12 
REMARK    3  A    between atoms: C2C_13  and  O2C_14 
REMARK    4  A    between atoms: C2D_15  and  O2D_16 
REMARK    5  A    between atoms: C2E_17  and  O2E_18 
REMARK    6  A    between atoms: C2F_19  and  O2F_20 
REMARK    7  A    between atoms: C2G_21  and  O2G_22 
REMARK    8  A    between atoms: C2H_23  and  O2H_24 
REMARK    9  A    between atoms: C3A_25  and  O3A_26 
REMARK   10  A    between atoms: C3B_27  and  O3B_28 
REMARK   11  A    between atoms: C3C_29  and  O3C_30 
REMARK   12  A    between atoms: C3D_31  and  O3D_32 
REMARK   13  A    between atoms: C3E_33  and  O3E_34 
REMARK   14  A    between atoms: C3F_35  and  O3F_36 
REMARK   15  A    between atoms: C3G_37  and  O3G_38 
REMARK   16  A    between atoms: C3H_39  and  O3H_40 
REMARK   17  A    between atoms: C5B_58  and  C6B_75 
REMARK   18  A    between atoms: C5C_60  and  C6C_77 
REMARK   19  A    between atoms: C5D_62  and  C6D_79 
REMARK   20  A    between atoms: C5E_64  and  C6E_81 
REMARK   21  A    between atoms: C5F_66  and  C6F_83 
REMARK   22  A    between atoms: C5G_68  and  C6G_85 
REMARK   23  A    between atoms: C5H_70  and  C6H_87 
REMARK   24  A    between atoms: C5M_72  and  C6A_73 
REMARK   25  A    between atoms: C6A_73  and  O6A_74 
REMARK   26  A    between atoms: C6B_75  and  O6B_76 
REMARK   27  A    between atoms: C6C_77  and  O6C_78 
REMARK   28  A    between atoms: C6D_79  and  O6D_80 
REMARK   29  A    between atoms: C6E_81  and  O6E_82 
REMARK   30  A    between atoms: C6F_83  and  O6F_84 
REMARK   31  A    between atoms: C6G_85  and  O6G_86 
REMARK   32  A    between atoms: C6H_87  and  O6H_88 
ROOT
ATOM      1  C1A RCD d   1     -15.444  17.760   3.089  0.00  0.00     0.159 C 
ATOM      2  C1B RCD d   1     -10.223  18.783   2.764  0.00  0.00     0.159 C 
ATOM      3  C1C RCD d   1      -6.216  15.710   1.240  0.00  0.00     0.159 C 
ATOM      4  C1D RCD d   1      -6.451  12.861  -3.218  0.00  0.00     0.159 C 
ATOM      5  C1E RCD d   1     -10.057  12.259  -6.975  0.00  0.00     0.159 C 
ATOM      6  C1F RCD d   1     -15.354  12.589  -7.363  0.00  0.00     0.159 C 
ATOM      7  C1G RCD d   1     -19.367  13.143  -3.939  0.00  0.00     0.159 C 
ATOM      8  C1H RCD d   1     -19.212  14.930   1.023  0.00  0.00     0.159 C 
ATOM      9  C2A RCD d   1     -16.032  16.746   4.028  0.00  0.00     0.110 C 
ATOM     10  C2B RCD d   1     -10.910  18.661   4.121  0.00  0.00     0.110 C 
ATOM     11  C2C RCD d   1      -6.655  15.580   2.680  0.00  0.00     0.110 C 
ATOM     12  C2D RCD d   1      -6.101  12.000  -1.981  0.00  0.00     0.110 C 
ATOM     13  C2E RCD d   1      -9.309  11.109  -6.363  0.00  0.00     0.110 C 
ATOM     14  C2F RCD d   1     -14.622  11.339  -7.809  0.00  0.00     0.110 C 
ATOM     15  C2G RCD d   1     -19.290  11.871  -4.801  0.00  0.00     0.110 C 
ATOM     16  C2H RCD d   1     -19.314  13.418   0.997  0.00  0.00     0.110 C 
ATOM     17  C3A RCD d   1     -16.543  15.668   3.013  0.00  0.00     0.092 C 
ATOM     18  C3B RCD d   1     -12.201  17.847   3.964  0.00  0.00     0.092 C 
ATOM     19  C3C RCD d   1      -8.138  15.936   2.848  0.00  0.00     0.092 C 
ATOM     20  C3D RCD d   1      -6.635  12.716  -0.734  0.00  0.00     0.092 C 
ATOM     21  C3E RCD d   1      -8.921  11.373  -4.917  0.00  0.00     0.092 C 
ATOM     22  C3F RCD d   1     -13.277  11.209  -7.093  0.00  0.00     0.092 C 
ATOM     23  C3G RCD d   1     -17.854  11.523  -5.153  0.00  0.00     0.092 C 
ATOM     24  C3H RCD d   1     -18.825  12.841  -0.333  0.00  0.00     0.092 C 
ATOM     25  C4A RCD d   1     -17.413  16.320   1.994  0.00  0.00     0.096 C 
ATOM     26  O4A RCD d   1     -17.804  15.282   1.015  0.00  0.00    -0.348 OA
ATOM     27  C4B RCD d   1     -13.071  18.453   2.905  0.00  0.00     0.096 C 
ATOM     28  O4B RCD d   1     -14.142  17.521   2.639  0.00  0.00    -0.348 OA
ATOM     29  C4C RCD d   1      -8.372  17.281   2.292  0.00  0.00     0.096 C 
ATOM     30  O4C RCD d   1      -9.830  17.498   2.310  0.00  0.00    -0.348 OA
ATOM     31  C4D RCD d   1      -6.192  14.147  -0.674  0.00  0.00     0.096 C 
ATOM     32  O4D RCD d   1      -6.944  14.764   0.447  0.00  0.00    -0.348 OA
ATOM     33  C4E RCD d   1      -8.138  12.656  -4.874  0.00  0.00     0.096 C 
ATOM     34  O4E RCD d   1      -7.836  12.890  -3.484  0.00  0.00    -0.348 OA
ATOM     35  C4F RCD d   1     -12.495  12.503  -7.194  0.00  0.00     0.096 C 
ATOM     36  O4F RCD d   1     -11.353  12.358  -6.319  0.00  0.00    -0.348 OA
ATOM     37  C4G RCD d   1     -17.194  12.735  -5.760  0.00  0.00     0.096 C 
ATOM     38  O4G RCD d   1     -15.805  12.385  -5.998  0.00  0.00    -0.348 OA
ATOM     39  C4H RCD d   1     -19.477  13.527  -1.538  0.00  0.00     0.096 C 
ATOM     40  O4H RCD d   1     -18.781  12.942  -2.668  0.00  0.00    -0.348 OA
ATOM     41  O5A RCD d   1     -16.293  18.442   2.276  0.00  0.00    -0.348 OA
ATOM     42  C5B RCD d   1     -12.307  18.570   1.599  0.00  0.00     0.089 C 
ATOM     43  O5B RCD d   1     -11.109  19.332   1.795  0.00  0.00    -0.348 OA
ATOM     44  C5C RCD d   1      -7.906  17.382   0.873  0.00  0.00     0.089 C 
ATOM     45  O5C RCD d   1      -6.520  17.060   0.784  0.00  0.00    -0.348 OA
ATOM     46  C5D RCD d   1      -6.528  14.885  -1.947  0.00  0.00     0.089 C 
ATOM     47  O5D RCD d   1      -5.942  14.207  -3.057  0.00  0.00    -0.348 OA
ATOM     48  C5E RCD d   1      -9.007  13.794  -5.451  0.00  0.00     0.089 C 
ATOM     49  O5E RCD d   1      -9.351  13.473  -6.800  0.00  0.00    -0.348 OA
ATOM     50  C5F RCD d   1     -13.318  13.678  -6.728  0.00  0.00     0.089 C 
ATOM     51  O5F RCD d   1     -14.528  13.740  -7.464  0.00  0.00    -0.348 OA
ATOM     52  C5G RCD d   1     -17.291  13.908  -4.807  0.00  0.00     0.089 C 
ATOM     53  O5G RCD d   1     -18.681  14.191  -4.602  0.00  0.00    -0.348 OA
ATOM     54  C5H RCD d   1     -19.298  15.047  -1.423  0.00  0.00     0.089 C 
ATOM     55  O5H RCD d   1     -19.788  15.489  -0.133  0.00  0.00    -0.348 OA
ATOM     56  C5M RCD d   1     -16.740  17.476   1.294  0.00  0.00     0.089 C 
ATOM     57  H1  RCD d   1     -15.229  18.560   3.813  0.00  0.00     0.133 H 
ATOM     58  H2  RCD d   1      -9.339  19.430   2.863  0.00  0.00     0.133 H 
ATOM     59  H3  RCD d   1      -5.136  15.518   1.155  0.00  0.00     0.133 H 
ATOM     60  H4  RCD d   1      -5.954  12.410  -4.089  0.00  0.00     0.133 H 
ATOM     61  H5  RCD d   1     -10.197  12.074  -8.050  0.00  0.00     0.133 H 
ATOM     62  H6  RCD d   1     -16.231  12.737  -8.010  0.00  0.00     0.133 H 
ATOM     63  H7  RCD d   1     -20.423  13.422  -3.806  0.00  0.00     0.133 H 
ATOM     64  H8  RCD d   1     -19.707  15.325   1.922  0.00  0.00     0.133 H 
ATOM     65  H9  RCD d   1     -16.840  17.157   4.651  0.00  0.00     0.094 H 
ATOM     66  H11 RCD d   1     -11.160  19.669   4.484  0.00  0.00     0.094 H 
ATOM     67  H13 RCD d   1      -6.089  16.316   3.269  0.00  0.00     0.094 H 
ATOM     68  H15 RCD d   1      -5.006  11.928  -1.901  0.00  0.00     0.094 H 
ATOM     69  H17 RCD d   1      -8.379  10.968  -6.934  0.00  0.00     0.094 H 
ATOM     70  H19 RCD d   1     -14.443  11.396  -8.893  0.00  0.00     0.094 H 
ATOM     71  H21 RCD d   1     -19.826  12.069  -5.741  0.00  0.00     0.094 H 
ATOM     72  H23 RCD d   1     -20.366  13.129   1.140  0.00  0.00     0.094 H 
ATOM     73  H25 RCD d   1     -15.675  15.227   2.501  0.00  0.00     0.091 H 
ATOM     74  H27 RCD d   1     -11.939  16.825   3.652  0.00  0.00     0.091 H 
ATOM     75  H29 RCD d   1      -8.738  15.217   2.270  0.00  0.00     0.091 H 
ATOM     76  H31 RCD d   1      -7.735  12.693  -0.738  0.00  0.00     0.091 H 
ATOM     77  H33 RCD d   1      -9.839  11.507  -4.326  0.00  0.00     0.091 H 
ATOM     78  H35 RCD d   1     -13.445  10.966  -6.033  0.00  0.00     0.091 H 
ATOM     79  H37 RCD d   1     -17.307  11.225  -4.246  0.00  0.00     0.091 H 
ATOM     80  H39 RCD d   1     -17.739  13.006  -0.400  0.00  0.00     0.091 H 
ATOM     81  H41 RCD d   1     -18.315  16.703   2.495  0.00  0.00     0.091 H 
ATOM     82  H42 RCD d   1     -13.454  19.432   3.229  0.00  0.00     0.091 H 
ATOM     83  H43 RCD d   1      -7.859  18.036   2.906  0.00  0.00     0.091 H 
ATOM     84  H44 RCD d   1      -5.109  14.200  -0.491  0.00  0.00     0.091 H 
ATOM     85  H45 RCD d   1      -7.210  12.566  -5.457  0.00  0.00     0.091 H 
ATOM     86  H46 RCD d   1     -12.169  12.668  -8.232  0.00  0.00     0.091 H 
ATOM     87  H47 RCD d   1     -17.684  12.996  -6.710  0.00  0.00     0.091 H 
ATOM     88  H48 RCD d   1     -20.551  13.296  -1.592  0.00  0.00     0.091 H 
ATOM     89  H49 RCD d   1     -12.036  17.557   1.266  0.00  0.00     0.090 H 
ATOM     90  H50 RCD d   1      -8.493  16.680   0.263  0.00  0.00     0.090 H 
ATOM     91  H51 RCD d   1      -7.622  14.919  -2.054  0.00  0.00     0.090 H 
ATOM     92  H52 RCD d   1      -9.915  13.910  -4.841  0.00  0.00     0.090 H 
ATOM     93  H53 RCD d   1     -13.537  13.574  -5.655  0.00  0.00     0.090 H 
ATOM     94  H54 RCD d   1     -16.818  13.635  -3.852  0.00  0.00     0.090 H 
ATOM     95  H55 RCD d   1     -18.232  15.291  -1.541  0.00  0.00     0.090 H 
ATOM     96  H56 RCD d   1     -15.861  17.078   0.765  0.00  0.00     0.090 H 
ENDROOT
BRANCH  42  97
ATOM     97  C6B RCD d   1     -13.119  19.223   0.523  0.00  0.00     0.043 C 
ATOM     98  H60 RCD d   1     -14.082  18.703   0.415  0.00  0.00     0.078 H 
ATOM     99  H61 RCD d   1     -12.573  19.186  -0.431  0.00  0.00     0.078 H 
BRANCH  97 100
ATOM    100  O6B RCD d   1     -13.338  20.551   0.891  0.00  0.00    -0.398 OA
ATOM    101  H62 RCD d   1     -13.853  20.984   0.220  0.00  0.00     0.209 HD
ENDBRANCH  97 100
ENDBRANCH  42  97
BRANCH  18 102
ATOM    102  O3B RCD d   1     -12.866  17.778   5.214  0.00  0.00    -0.390 OA
ATOM    103  H28 RCD d   1     -13.666  17.274   5.119  0.00  0.00     0.210 HD
ENDBRANCH  18 102
BRANCH  10 104
ATOM    104  O2B RCD d   1     -10.067  18.032   5.068  0.00  0.00    -0.388 OA
ATOM    105  H12 RCD d   1      -9.843  17.161   4.762  0.00  0.00     0.210 HD
ENDBRANCH  10 104
BRANCH   9 106
ATOM    106  O2A RCD d   1     -15.021  16.226   4.809  0.00  0.00    -0.388 OA
ATOM    107  H10 RCD d   1     -14.613  16.926   5.304  0.00  0.00     0.210 HD
ENDBRANCH   9 106
BRANCH  17 108
ATOM    108  O3A RCD d   1     -17.230  14.640   3.684  0.00  0.00    -0.390 OA
ATOM    109  H26 RCD d   1     -17.531  13.997   3.053  0.00  0.00     0.210 HD
ENDBRANCH  17 108
BRANCH  56 110
ATOM    110  C6A RCD d   1     -17.610  18.181   0.276  0.00  0.00     0.043 C 
ATOM    111  H57 RCD d   1     -18.469  18.645   0.782  0.00  0.00     0.078 H 
ATOM    112  H58 RCD d   1     -17.971  17.456  -0.468  0.00  0.00     0.078 H 
BRANCH 110 113
ATOM    113  O6A RCD d   1     -16.833  19.189  -0.373  0.00  0.00    -0.398 OA
ATOM    114  H59 RCD d   1     -16.522  19.812   0.273  0.00  0.00     0.209 HD
ENDBRANCH 110 113
ENDBRANCH  56 110
BRANCH  19 115
ATOM    115  O3C RCD d   1      -8.536  15.829   4.236  0.00  0.00    -0.390 OA
ATOM    116  H30 RCD d   1      -9.456  16.053   4.319  0.00  0.00     0.210 HD
ENDBRANCH  19 115
BRANCH  44 117
ATOM    117  C6C RCD d   1      -8.045  18.783   0.300  0.00  0.00     0.043 C 
ATOM    118  H63 RCD d   1      -9.110  19.033   0.183  0.00  0.00     0.078 H 
ATOM    119  H64 RCD d   1      -7.546  18.836  -0.679  0.00  0.00     0.078 H 
BRANCH 117 120
ATOM    120  O6C RCD d   1      -7.427  19.704   1.210  0.00  0.00    -0.398 OA
ATOM    121  H65 RCD d   1      -6.509  19.481   1.309  0.00  0.00     0.209 HD
ENDBRANCH 117 120
ENDBRANCH  44 117
BRANCH  11 122
ATOM    122  O2C RCD d   1      -6.287  14.289   3.163  0.00  0.00    -0.388 OA
ATOM    123  H14 RCD d   1      -6.712  13.622   2.636  0.00  0.00     0.210 HD
ENDBRANCH  11 122
BRANCH  16 124
ATOM    124  O2H RCD d   1     -18.536  12.900   2.063  0.00  0.00    -0.388 OA
ATOM    125  H24 RCD d   1     -18.589  11.951   2.061  0.00  0.00     0.210 HD
ENDBRANCH  16 124
BRANCH  24 126
ATOM    126  O3H RCD d   1     -19.069  11.431  -0.350  0.00  0.00    -0.390 OA
ATOM    127  H40 RCD d   1     -18.767  11.068  -1.174  0.00  0.00     0.210 HD
ENDBRANCH  24 126
BRANCH  54 128
ATOM    128  C6H RCD d   1     -20.118  15.831  -2.420  0.00  0.00     0.043 C 
ATOM    129  H78 RCD d   1     -21.179  15.552  -2.344  0.00  0.00     0.078 H 
ATOM    130  H79 RCD d   1     -19.761  15.639  -3.442  0.00  0.00     0.078 H 
BRANCH 128 131
ATOM    131  O6H RCD d   1     -19.947  17.176  -2.092  0.00  0.00    -0.398 OA
ATOM    132  H80 RCD d   1     -20.252  17.326  -1.205  0.00  0.00     0.209 HD
ENDBRANCH 128 131
ENDBRANCH  54 128
BRANCH  20 133
ATOM    133  O3D RCD d   1      -6.136  11.956   0.393  0.00  0.00    -0.390 OA
ATOM    134  H32 RCD d   1      -5.186  11.952   0.375  0.00  0.00     0.210 HD
ENDBRANCH  20 133
BRANCH  46 135
ATOM    135  C6D RCD d   1      -5.968  16.303  -2.009  0.00  0.00     0.043 C 
ATOM    136  H66 RCD d   1      -6.403  16.905  -1.198  0.00  0.00     0.078 H 
ATOM    137  H67 RCD d   1      -6.222  16.756  -2.979  0.00  0.00     0.078 H 
BRANCH 135 138
ATOM    138  O6D RCD d   1      -4.537  16.259  -1.860  0.00  0.00    -0.398 OA
ATOM    139  H68 RCD d   1      -4.188  17.142  -1.899  0.00  0.00     0.209 HD
ENDBRANCH 135 138
ENDBRANCH  46 135
BRANCH  12 140
ATOM    140  O2D RCD d   1      -6.614  10.687  -2.103  0.00  0.00    -0.388 OA
ATOM    141  H16 RCD d   1      -6.243  10.273  -2.873  0.00  0.00     0.210 HD
ENDBRANCH  12 140
BRANCH  15 142
ATOM    142  O2G RCD d   1     -19.939  10.782  -4.150  0.00  0.00    -0.388 OA
ATOM    143  H22 RCD d   1     -19.515  10.615  -3.316  0.00  0.00     0.210 HD
ENDBRANCH  15 142
BRANCH  23 144
ATOM    144  O3G RCD d   1     -17.874  10.428  -6.083  0.00  0.00    -0.390 OA
ATOM    145  H38 RCD d   1     -16.983  10.195  -6.316  0.00  0.00     0.210 HD
ENDBRANCH  23 144
BRANCH  52 146
ATOM    146  C6G RCD d   1     -16.620  15.175  -5.351  0.00  0.00     0.043 C 
ATOM    147  H75 RCD d   1     -15.541  14.996  -5.464  0.00  0.00     0.078 H 
ATOM    148  H76 RCD d   1     -16.782  16.005  -4.647  0.00  0.00     0.078 H 
BRANCH 146 149
ATOM    149  O6G RCD d   1     -17.182  15.517  -6.627  0.00  0.00    -0.398 OA
ATOM    150  H77 RCD d   1     -18.114  15.673  -6.530  0.00  0.00     0.209 HD
ENDBRANCH 146 149
ENDBRANCH  52 146
BRANCH  21 151
ATOM    151  O3E RCD d   1      -8.201  10.266  -4.359  0.00  0.00    -0.390 OA
ATOM    152  H34 RCD d   1      -7.973  10.460  -3.457  0.00  0.00     0.210 HD
ENDBRANCH  21 151
BRANCH  48 153
ATOM    153  C6E RCD d   1      -8.248  15.087  -5.488  0.00  0.00     0.043 C 
ATOM    154  H69 RCD d   1      -7.524  15.057  -6.315  0.00  0.00     0.078 H 
ATOM    155  H70 RCD d   1      -7.713  15.219  -4.536  0.00  0.00     0.078 H 
BRANCH 153 156
ATOM    156  O6E RCD d   1      -9.134  16.182  -5.682  0.00  0.00    -0.398 OA
ATOM    157  H71 RCD d   1      -9.760  16.212  -4.968  0.00  0.00     0.209 HD
ENDBRANCH 153 156
ENDBRANCH  48 153
BRANCH  13 158
ATOM    158  O2E RCD d   1     -10.090   9.922  -6.487  0.00  0.00    -0.388 OA
ATOM    159  H18 RCD d   1      -9.619   9.193  -6.101  0.00  0.00     0.210 HD
ENDBRANCH  13 158
BRANCH  14 160
ATOM    160  O2F RCD d   1     -15.428  10.211  -7.528  0.00  0.00    -0.388 OA
ATOM    161  H20 RCD d   1     -15.597  10.169  -6.594  0.00  0.00     0.210 HD
ENDBRANCH  14 160
BRANCH  22 162
ATOM    162  O3F RCD d   1     -12.540  10.156  -7.721  0.00  0.00    -0.390 OA
ATOM    163  H36 RCD d   1     -11.699  10.059  -7.290  0.00  0.00     0.210 HD
ENDBRANCH  22 162
BRANCH  50 164
ATOM    164  C6F RCD d   1     -12.543  14.977  -6.982  0.00  0.00     0.043 C 
ATOM    165  H72 RCD d   1     -12.435  15.126  -8.067  0.00  0.00     0.078 H 
ATOM    166  H73 RCD d   1     -11.547  14.898  -6.522  0.00  0.00     0.078 H 
BRANCH 164 167
ATOM    167  O6F RCD d   1     -13.242  16.121  -6.411  0.00  0.00    -0.398 OA
ATOM    168  H74 RCD d   1     -14.102  16.196  -6.808  0.00  0.00     0.209 HD
ENDBRANCH 164 167
ENDBRANCH  50 164
TORSDOF 32
