REMARK  10 active torsions:
REMARK  status: ('A' for Active; 'I' for Inactive)
REMARK    1  A    between atoms: C13_19  and  C12_1 
REMARK    2  A    between atoms: C15_4  and  C16_20 
REMARK    3  A    between atoms: C16_20  and  C17_5 
REMARK    4  A    between atoms: C21_7  and  O22_8 
REMARK    5  A    between atoms: O22_8  and  C23_23 
REMARK    6  A    between atoms: C02_10  and  O01_9 
REMARK    7  A    between atoms: C05_13  and  C06_14 
REMARK    8  A    between atoms: C07_15  and  C08_16 
REMARK    9  A    between atoms: C23_23  and  C24_24 
REMARK   10  A    between atoms: C24_24  and  C25_25 
ROOT
ATOM      1  C14 4CU d   1       2.109 -17.812  -4.787  0.00  0.00    -0.063 A 
ATOM      2  C15 4CU d   1       1.105 -17.949  -5.734  0.00  0.00    -0.054 A 
ATOM      3  C20 4CU d   1      -0.445 -18.561  -4.012  0.00  0.00    -0.049 A 
ATOM      4  C21 4CU d   1       0.559 -18.427  -3.063  0.00  0.00     0.080 A 
ATOM      5  C13 4CU d   1       1.840 -18.050  -3.447  0.00  0.00     0.011 A 
ATOM      6  C19 4CU d   1      -0.171 -18.325  -5.348  0.00  0.00    -0.074 A 
ATOM      7  H2  4CU d   1       3.106 -17.518  -5.095  0.00  0.00     0.085 H 
ATOM      8  H4  4CU d   1      -1.444 -18.851  -3.707  0.00  0.00     0.087 H 
ATOM      9  H14 4CU d   1      -0.953 -18.434  -6.090  0.00  0.00     0.084 H 
ENDROOT
BRANCH   5  10
ATOM     10  C12 4CU d   1       2.947 -17.894  -2.397  0.00  0.00     0.011 A 
ATOM     11  C11 4CU d   1       4.191 -18.480  -2.593  0.00  0.00    -0.060 A 
ATOM     12  C05 4CU d   1       5.191 -18.334  -1.641  0.00  0.00    -0.035 A 
ATOM     13  H1  4CU d   1       4.382 -19.054  -3.493  0.00  0.00     0.086 H 
ATOM     14  C04 4CU d   1       4.948 -17.602  -0.491  0.00  0.00    -0.070 A 
ATOM     15  C03 4CU d   1       3.711 -17.014  -0.294  0.00  0.00    -0.049 A 
ATOM     16  H7  4CU d   1       5.727 -17.490   0.255  0.00  0.00     0.084 H 
ATOM     17  C02 4CU d   1       2.715 -17.157  -1.244  0.00  0.00     0.076 A 
ATOM     18  H6  4CU d   1       3.522 -16.440   0.606  0.00  0.00     0.087 H 
BRANCH  12  19
ATOM     19  C06 4CU d   1       6.564 -18.977  -1.846  0.00  0.00    -0.067 C 
ATOM     20  C07 4CU d   1       7.656 -18.284  -1.588  0.00  0.00    -0.009 C 
ATOM     21  H9  4CU d   1       7.571 -17.259  -1.230  0.00  0.00     0.094 H 
ATOM     22  H8  4CU d   1       6.639 -20.003  -2.204  0.00  0.00     0.085 H 
BRANCH  20  23
ATOM     23  C08 4CU d   1       9.039 -18.902  -1.785  0.00  0.00     0.198 C 
ATOM     24  O09 4CU d   1       9.162 -20.023  -2.342  0.00  0.00    -0.645 OA
ATOM     25  O10 4CU d   1      10.062 -18.281  -1.394  0.00  0.00    -0.645 OA
ENDBRANCH  20  23
ENDBRANCH  12  19
BRANCH  17  26
ATOM     26  O01 4CU d   1       1.468 -16.558  -1.028  0.00  0.00    -0.360 OA
ATOM     27  H5  4CU d   1       0.795 -17.228  -1.009  0.00  0.00     0.217 HD
ENDBRANCH  17  26
ENDBRANCH   5  10
BRANCH   4  28
ATOM     28  O22 4CU d   1       0.282 -18.663  -1.709  0.00  0.00    -0.350 OA
BRANCH  28  29
ATOM     29  C23 4CU d   1      -0.216 -19.937  -1.410  0.00  0.00     0.026 C 
ATOM     30  H15 4CU d   1      -0.149 -20.584  -2.297  0.00  0.00     0.075 H 
ATOM     31  H16 4CU d   1      -1.265 -19.863  -1.088  0.00  0.00     0.075 H 
BRANCH  29  32
ATOM     32  C24 4CU d   1       0.635 -20.513  -0.281  0.00  0.00    -0.048 C 
ATOM     33  H17 4CU d   1       1.616 -20.801  -0.688  0.00  0.00     0.035 H 
ATOM     34  H18 4CU d   1       0.131 -21.403   0.125  0.00  0.00     0.035 H 
BRANCH  32  35
ATOM     35  C25 4CU d   1       0.846 -19.509   0.849  0.00  0.00    -0.075 C 
ATOM     36  H19 4CU d   1       1.462 -19.967   1.636  0.00  0.00     0.027 H 
ATOM     37  H20 4CU d   1      -0.129 -19.219   1.269  0.00  0.00     0.027 H 
ATOM     38  H21 4CU d   1       1.356 -18.617   0.457  0.00  0.00     0.027 H 
ENDBRANCH  32  35
ENDBRANCH  29  32
ENDBRANCH  28  29
ENDBRANCH   4  28
BRANCH   2  39
ATOM     39  C16 4CU d   1       1.402 -17.692  -7.209  0.00  0.00    -0.026 C 
ATOM     40  H10 4CU d   1       0.472 -17.818  -7.783  0.00  0.00     0.045 H 
ATOM     41  H11 4CU d   1       2.147 -18.425  -7.552  0.00  0.00     0.045 H 
BRANCH  39  42
ATOM     42  C17 4CU d   1       1.946 -16.287  -7.459  0.00  0.00    -0.108 C 
ATOM     43  C18 4CU d   1       3.055 -16.120  -8.147  0.00  0.00    -0.124 C 
ATOM     44  H12 4CU d   1       3.440 -15.117  -8.324  0.00  0.00     0.066 H 
ATOM     45  H13 4CU d   1       3.587 -16.985  -8.540  0.00  0.00     0.066 H 
ATOM     46  H3  4CU d   1       1.415 -15.421  -7.067  0.00  0.00     0.076 H 
ENDBRANCH  39  42
ENDBRANCH   2  39
TORSDOF 10
