REMARK  2 active torsions:
REMARK  status: ('A' for Active; 'I' for Inactive)
REMARK    1  A    between atoms: C01_1  and  N05_2 
REMARK    2  A    between atoms: N11_6  and  C12_7 
ROOT
ATOM      1  N05 82I d   1      -1.266   9.758  34.371  0.00  0.00    -0.295 NA
ATOM      2  C07 82I d   1      -0.527   9.723  33.250  0.00  0.00     0.075 A 
ATOM      3  C08 82I d   1      -0.004   8.491  32.736  0.00  0.00     0.047 A 
ATOM      4  N10 82I d   1       0.695   8.379  31.647  0.00  0.00    -0.180 NA
ATOM      5  N11 82I d   1       0.958   9.517  30.939  0.00  0.00    -0.241 N 
ATOM      6  C16 82I d   1       0.530  10.781  31.260  0.00  0.00     0.264 A 
ATOM      7  O17 82I d   1       0.809  11.745  30.554  0.00  0.00    -0.269 OA
ATOM      8  C18 82I d   1      -0.254  10.841  32.466  0.00  0.00     0.139 A 
ATOM      9 CL1  82I d   1      -0.836  12.395  32.942  0.00  0.00    -0.108 Cl
ATOM     10  H4  82I d   1      -0.208   7.582  33.300  0.00  0.00     0.120 H 
ATOM     11  H8  82I d   1      -1.171  10.653  31.888  0.00  0.00     0.089 H 
ENDROOT
BRANCH   1  12
ATOM     12  C01 82I d   1      -1.633   8.574  35.147  0.00  0.00     0.001 C 
ATOM     13  H1  82I d   1      -2.238   8.877  36.014  0.00  0.00     0.059 H 
ATOM     14  H2  82I d   1      -0.721   8.067  35.495  0.00  0.00     0.059 H 
ATOM     15  H3  82I d   1      -2.216   7.888  34.515  0.00  0.00     0.059 H 
ENDBRANCH   1  12
BRANCH   5  16
ATOM     16  C12 82I d   1       1.747   9.315  29.727  0.00  0.00     0.005 C 
ATOM     17  H5  82I d   1       1.906  10.282  29.228  0.00  0.00     0.059 H 
ATOM     18  H6  82I d   1       1.210   8.636  29.048  0.00  0.00     0.059 H 
ATOM     19  H7  82I d   1       2.720   8.874  29.992  0.00  0.00     0.059 H 
ENDBRANCH   5  16
TORSDOF 2
