REMARK  4 active torsions:
REMARK  status: ('A' for Active; 'I' for Inactive)
REMARK    1  A    between atoms: N24_13  and  C26_4 
REMARK    2  A    between atoms: N05_6  and  C01_5 
REMARK    3  A    between atoms: C23_12  and  N24_13 
REMARK    4  A    between atoms: N30_16  and  C31_17 
ROOT
ATOM      1  C13 I0D d   1       4.964  14.664   8.200  0.00  0.00    -0.024 A 
ATOM      2  C17 I0D d   1       5.084  16.054   8.190  0.00  0.00    -0.075 A 
ATOM      3  C21 I0D d   1       2.713  16.303   8.457  0.00  0.00    -0.055 A 
ATOM      4  N05 I0D d   1       5.859  12.479   7.511  0.00  0.00    -0.071 N 
ATOM      5  C06 I0D d   1       4.885  11.848   8.404  0.00  0.00     0.087 C 
ATOM      6  C09 I0D d   1       3.549  12.573   8.348  0.00  0.00    -0.015 C 
ATOM      7  C12 I0D d   1       3.702  14.080   8.356  0.00  0.00    -0.020 A 
ATOM      8  C14 I0D d   1       6.191  13.810   8.021  0.00  0.00     0.107 C 
ATOM      9  C19 I0D d   1       3.972  16.866   8.327  0.00  0.00    -0.080 A 
ATOM     10  C23 I0D d   1       2.580  14.915   8.494  0.00  0.00     0.064 A 
ATOM     11  H1  I0D d   1       6.063  16.505   8.073  0.00  0.00     0.084 H 
ATOM     12  H2  I0D d   1       1.837  16.937   8.530  0.00  0.00     0.087 H 
ATOM     13  H6  I0D d   1       5.452  12.568   6.593  0.00  0.00     0.279 HD
ATOM     14  H7  I0D d   1       5.268  11.878   9.434  0.00  0.00     0.076 H 
ATOM     15  H8  I0D d   1       4.740  10.802   8.097  0.00  0.00     0.076 H 
ATOM     16  H9  I0D d   1       2.950  12.275   9.221  0.00  0.00     0.042 H 
ATOM     17  H10 I0D d   1       3.026  12.277   7.426  0.00  0.00     0.042 H 
ATOM     18  H11 I0D d   1       6.695  13.703   8.993  0.00  0.00     0.083 H 
ATOM     19  H12 I0D d   1       6.868  14.305   7.309  0.00  0.00     0.083 H 
ATOM     20  H13 I0D d   1       4.086  17.944   8.333  0.00  0.00     0.083 H 
ENDROOT
BRANCH  10  21
ATOM     21  N24 I0D d   1       1.295  14.336   8.669  0.00  0.00    -0.249 NA
BRANCH  21  22
ATOM     22  C26 I0D d   1       0.546  14.403   9.802  0.00  0.00     0.082 A 
ATOM     23  C27 I0D d   1       1.121  14.883  11.022  0.00  0.00     0.048 A 
ATOM     24  N29 I0D d   1       0.496  14.970  12.148  0.00  0.00    -0.180 NA
ATOM     25  H14 I0D d   1       2.163  15.198  10.998  0.00  0.00     0.120 H 
ATOM     26  N30 I0D d   1      -0.806  14.570  12.194  0.00  0.00    -0.241 N 
ATOM     27  C35 I0D d   1      -1.531  14.060  11.147  0.00  0.00     0.264 A 
ATOM     28  O36 I0D d   1      -2.697  13.729  11.294  0.00  0.00    -0.269 OA
ATOM     29  C37 I0D d   1      -0.781  13.991   9.910  0.00  0.00     0.140 A 
ATOM     30 CL3  I0D d   1      -1.617  13.390   8.519  0.00  0.00    -0.108 Cl
ATOM     31  H18 I0D d   1      -0.440  12.977  10.166  0.00  0.00     0.089 H 
BRANCH  26  32
ATOM     32  C31 I0D d   1      -1.434  14.674  13.509  0.00  0.00     0.005 C 
ATOM     33  H15 I0D d   1      -2.477  14.331  13.445  0.00  0.00     0.059 H 
ATOM     34  H16 I0D d   1      -1.413  15.722  13.844  0.00  0.00     0.059 H 
ATOM     35  H17 I0D d   1      -0.885  14.048  14.228  0.00  0.00     0.059 H 
ENDBRANCH  26  32
ENDBRANCH  21  22
ENDBRANCH  10  21
BRANCH   4  36
ATOM     36  C01 I0D d   1       7.086  11.665   7.411  0.00  0.00     0.067 C 
ATOM     37  H3  I0D d   1       6.833  10.666   7.027  0.00  0.00     0.068 H 
ATOM     38  H4  I0D d   1       7.545  11.570   8.406  0.00  0.00     0.068 H 
ATOM     39  H5  I0D d   1       7.794  12.152   6.725  0.00  0.00     0.068 H 
ENDBRANCH   4  36
TORSDOF 4
