REMARK  5 active torsions:
REMARK  status: ('A' for Active; 'I' for Inactive)
REMARK    1  A    between atoms: N15_12  and  C17_1 
REMARK    2  A    between atoms: N21_15  and  C22_2 
REMARK    3  A    between atoms: C05_6  and  C01_5 
REMARK    4  A    between atoms: C12_11  and  C11_10 
REMARK    5  A    between atoms: C12_11  and  N15_12 
ROOT
ATOM      1  N15 RNK d   1      25.628  51.909  -1.630  0.00  0.00    -0.382 N 
ATOM      2  H11 RNK d   1      24.827  52.483  -1.931  0.00  0.00     0.160 HD
ENDROOT
BRANCH   1   3
ATOM      3  C17 RNK d   1      25.375  50.845  -0.846  0.00  0.00     0.075 A 
ATOM      4  C28 RNK d   1      24.158  50.192  -0.792  0.00  0.00     0.131 A 
ATOM      5  C26 RNK d   1      23.936  49.029   0.002  0.00  0.00     0.287 A 
ATOM      6 CL2  RNK d   1      22.870  50.694  -1.801  0.00  0.00    -0.076 Cl
ATOM      7  N21 RNK d   1      25.015  48.655   0.770  0.00  0.00    -0.238 N 
ATOM      8  O27 RNK d   1      22.882  48.400   0.029  0.00  0.00    -0.265 OA
ATOM      9  N20 RNK d   1      26.221  49.288   0.794  0.00  0.00    -0.180 NA
ATOM     10  C18 RNK d   1      26.376  50.316   0.036  0.00  0.00     0.049 A 
ATOM     11  H12 RNK d   1      27.339  50.823   0.066  0.00  0.00     0.121 H 
BRANCH   7  12
ATOM     12  C22 RNK d   1      24.925  47.479   1.625  0.00  0.00     0.006 C 
ATOM     13  H1  RNK d   1      25.877  47.339   2.158  0.00  0.00     0.059 H 
ATOM     14  H2  RNK d   1      24.716  46.592   1.008  0.00  0.00     0.059 H 
ATOM     15  H3  RNK d   1      24.113  47.617   2.355  0.00  0.00     0.059 H 
ENDBRANCH   7  12
ENDBRANCH   1   3
BRANCH   1  16
ATOM     16  C12 RNK d   1      26.944  52.304  -2.079  0.00  0.00     0.023 C 
ATOM     17  H9  RNK d   1      26.839  53.178  -2.738  0.00  0.00     0.072 H 
ATOM     18  H10 RNK d   1      27.544  52.578  -1.199  0.00  0.00     0.072 H 
BRANCH  16  19
ATOM     19  C11 RNK d   1      27.678  51.212  -2.841  0.00  0.00     0.006 A 
ATOM     20  C05 RNK d   1      28.916  50.684  -2.592  0.00  0.00    -0.047 A 
ATOM     21  C06 RNK d   1      29.274  49.678  -3.538  0.00  0.00    -0.070 A 
ATOM     22  C08 RNK d   1      28.321  49.461  -4.473  0.00  0.00    -0.044 A 
ATOM     23  H7  RNK d   1      30.220  49.139  -3.510  0.00  0.00     0.085 H 
ATOM     24  S10 RNK d   1      26.959  50.477  -4.235  0.00  0.00    -0.104 SA
ATOM     25  H8  RNK d   1      28.407  48.732  -5.277  0.00  0.00     0.095 H 
BRANCH  20  26
ATOM     26  C01 RNK d   1      29.817  51.117  -1.469  0.00  0.00    -0.050 C 
ATOM     27  H4  RNK d   1      30.748  50.532  -1.499  0.00  0.00     0.033 H 
ATOM     28  H5  RNK d   1      29.310  50.950  -0.507  0.00  0.00     0.033 H 
ATOM     29  H6  RNK d   1      30.052  52.186  -1.579  0.00  0.00     0.033 H 
ENDBRANCH  20  26
ENDBRANCH  16  19
ENDBRANCH   1  16
TORSDOF 5
