REMARK  3 active torsions:
REMARK  status: ('A' for Active; 'I' for Inactive)
REMARK    1  A    between atoms: C15_1  and  N20_9 
REMARK    2  A    between atoms: N05_5  and  C01_4 
REMARK    3  A    between atoms: N26_12  and  C27_13 
ROOT
ATOM      1  C15 P2L d   1     -14.894  16.357   9.877  0.00  0.00     0.056 C 
ATOM      2  C17 P2L d   1     -13.868  16.366  10.987  0.00  0.00     0.103 C 
ATOM      3  N05 P2L d   1     -14.417  17.054  12.162  0.00  0.00    -0.073 N 
ATOM      4  C06 P2L d   1     -14.716  18.451  11.833  0.00  0.00     0.083 C 
ATOM      5  C09 P2L d   1     -15.759  18.524  10.738  0.00  0.00    -0.040 C 
ATOM      6  C12 P2L d   1     -15.294  17.768   9.505  0.00  0.00    -0.041 C 
ATOM      7  H1  P2L d   1     -15.794  15.840  10.242  0.00  0.00     0.078 H 
ATOM      8  H2  P2L d   1     -12.964  16.891  10.645  0.00  0.00     0.079 H 
ATOM      9  H3  P2L d   1     -13.611  15.331  11.256  0.00  0.00     0.079 H 
ATOM     10  H7  P2L d   1     -15.274  16.597  12.431  0.00  0.00     0.279 HD
ATOM     11  H8  P2L d   1     -13.796  18.948  11.491  0.00  0.00     0.075 H 
ATOM     12  H9  P2L d   1     -15.096  18.961  12.730  0.00  0.00     0.075 H 
ATOM     13  H10 P2L d   1     -15.931  19.578  10.472  0.00  0.00     0.035 H 
ATOM     14  H11 P2L d   1     -16.697  18.080  11.102  0.00  0.00     0.035 H 
ATOM     15  H12 P2L d   1     -16.112  17.732   8.771  0.00  0.00     0.036 H 
ATOM     16  H13 P2L d   1     -14.429  18.287   9.065  0.00  0.00     0.036 H 
ENDROOT
BRANCH   1  17
ATOM     17  N20 P2L d   1     -14.371  15.603   8.739  0.00  0.00    -0.284 NA
ATOM     18  C22 P2L d   1     -14.617  14.315   8.475  0.00  0.00     0.076 A 
ATOM     19  C23 P2L d   1     -15.408  13.514   9.371  0.00  0.00     0.047 A 
ATOM     20  C33 P2L d   1     -14.151  13.643   7.362  0.00  0.00     0.139 A 
ATOM     21  N25 P2L d   1     -15.702  12.268   9.185  0.00  0.00    -0.180 NA
ATOM     22  H14 P2L d   1     -15.787  13.992  10.273  0.00  0.00     0.120 H 
ATOM     23  N26 P2L d   1     -15.222  11.660   8.065  0.00  0.00    -0.241 N 
ATOM     24  C31 P2L d   1     -14.447  12.256   7.103  0.00  0.00     0.264 A 
ATOM     25  O32 P2L d   1     -14.071  11.634   6.116  0.00  0.00    -0.269 OA
ATOM     26 CL1  P2L d   1     -13.167  14.446   6.187  0.00  0.00    -0.108 Cl
ATOM     27  H18 P2L d   1     -13.256  13.351   7.930  0.00  0.00     0.089 H 
BRANCH  23  28
ATOM     28  C27 P2L d   1     -15.599  10.256   7.920  0.00  0.00     0.005 C 
ATOM     29  H15 P2L d   1     -15.167   9.854   6.992  0.00  0.00     0.059 H 
ATOM     30  H16 P2L d   1     -16.695  10.173   7.880  0.00  0.00     0.059 H 
ATOM     31  H17 P2L d   1     -15.219   9.684   8.779  0.00  0.00     0.059 H 
ENDBRANCH  23  28
ENDBRANCH   1  17
BRANCH   3  32
ATOM     32  C01 P2L d   1     -13.474  16.977  13.289  0.00  0.00     0.066 C 
ATOM     33  H4  P2L d   1     -13.900  17.497  14.160  0.00  0.00     0.068 H 
ATOM     34  H5  P2L d   1     -12.524  17.454  13.006  0.00  0.00     0.068 H 
ATOM     35  H6  P2L d   1     -13.293  15.922  13.544  0.00  0.00     0.068 H 
ENDBRANCH   3  32
TORSDOF 3
