REMARK  9 active torsions:
REMARK  status: ('A' for Active; 'I' for Inactive)
REMARK    1  A    between atoms: CAW_7  and  CAV_8 
REMARK    2  A    between atoms: CAV_8  and  NAU_9 
REMARK    3  A    between atoms: NAU_9  and  CAX_10 
REMARK    4  A    between atoms: NAU_9  and  SAR_15 
REMARK    5  A    between atoms: SAR_15  and  CAO_18 
REMARK    6  A    between atoms: CAL_23  and  SAI_24 
REMARK    7  A    between atoms: SAI_24  and  NAH_27 
REMARK    8  A    between atoms: NAH_27  and  CAA_28 
REMARK    9  A    between atoms: CAA_28  and  CAB_29 
ROOT
ATOM      1  SAR NH6 d   1     -22.507  24.927   6.498  0.00  0.00     0.261 S 
ATOM      2  OAS NH6 d   1     -23.504  25.179   7.564  0.00  0.00    -0.200 OA
ATOM      3  OAT NH6 d   1     -21.139  24.554   6.936  0.00  0.00    -0.200 OA
ENDROOT
BRANCH   1   4
ATOM      4  NAU NH6 d   1     -23.130  23.530   5.563  0.00  0.00    -0.298 N 
BRANCH   4   5
ATOM      5  CAV NH6 d   1     -22.084  22.527   5.184  0.00  0.00     0.029 C 
ATOM      6  H5  NH6 d   1     -22.329  22.103   4.199  0.00  0.00     0.072 H 
ATOM      7  H6  NH6 d   1     -21.105  23.025   5.135  0.00  0.00     0.072 H 
BRANCH   5   8
ATOM      8  CAW NH6 d   1     -22.031  21.499   6.128  0.00  0.00    -0.040 A 
ATOM      9  CBC NH6 d   1     -22.709  21.524   7.356  0.00  0.00    -0.074 A 
ATOM     10  CBD NH6 d   1     -22.591  20.476   8.260  0.00  0.00    -0.061 A 
ATOM     11  H1  NH6 d   1     -23.334  22.374   7.603  0.00  0.00     0.084 H 
ATOM     12  CBE NH6 d   1     -21.814  19.394   7.902  0.00  0.00     0.034 A 
ATOM     13  H2  NH6 d   1     -23.095  20.508   9.219  0.00  0.00     0.086 H 
ATOM     14 CL   NH6 d   1     -21.678  18.121   8.998  0.00  0.00    -0.084 Cl
ATOM     15  CBF NH6 d   1     -21.132  19.344   6.708  0.00  0.00    -0.061 A 
ATOM     16  CBG NH6 d   1     -21.233  20.406   5.822  0.00  0.00    -0.074 A 
ATOM     17  H3  NH6 d   1     -20.521  18.483   6.462  0.00  0.00     0.086 H 
ATOM     18  H4  NH6 d   1     -20.686  20.382   4.886  0.00  0.00     0.084 H 
ENDBRANCH   5   8
ENDBRANCH   4   5
BRANCH   4  19
ATOM     19  CAX NH6 d   1     -24.056  23.466   4.420  0.00  0.00     0.023 C 
ATOM     20  CAY NH6 d   1     -24.499  24.629   3.652  0.00  0.00    -0.045 C 
ATOM     21  CAZ NH6 d   1     -25.279  23.745   2.642  0.00  0.00    -0.063 C 
ATOM     22  H8  NH6 d   1     -23.674  25.195   3.195  0.00  0.00     0.036 H 
ATOM     23  H9  NH6 d   1     -25.141  25.315   4.224  0.00  0.00     0.036 H 
ATOM     24  CBA NH6 d   1     -25.812  22.548   3.405  0.00  0.00    -0.063 C 
ATOM     25  H10 NH6 d   1     -24.607  23.410   1.838  0.00  0.00     0.033 H 
ATOM     26  H11 NH6 d   1     -26.113  24.316   2.208  0.00  0.00     0.033 H 
ATOM     27  CBB NH6 d   1     -25.339  22.792   4.809  0.00  0.00    -0.045 C 
ATOM     28  H12 NH6 d   1     -25.396  21.610   3.007  0.00  0.00     0.033 H 
ATOM     29  H13 NH6 d   1     -26.910  22.510   3.361  0.00  0.00     0.033 H 
ATOM     30  H14 NH6 d   1     -26.012  23.452   5.377  0.00  0.00     0.036 H 
ATOM     31  H15 NH6 d   1     -25.177  21.861   5.372  0.00  0.00     0.036 H 
ATOM     32  H7  NH6 d   1     -23.538  22.821   3.695  0.00  0.00     0.073 H 
ENDBRANCH   4  19
ENDBRANCH   1   4
BRANCH   1  33
ATOM     33  CAO NH6 d   1     -22.410  26.384   5.527  0.00  0.00     0.079 A 
ATOM     34  CAP NH6 d   1     -21.475  26.425   4.510  0.00  0.00    -0.059 A 
ATOM     35  CAQ NH6 d   1     -21.379  27.546   3.700  0.00  0.00    -0.059 A 
ATOM     36  H16 NH6 d   1     -20.816  25.580   4.346  0.00  0.00     0.086 H 
ATOM     37  CAL NH6 d   1     -22.210  28.626   3.925  0.00  0.00     0.079 A 
ATOM     38  H17 NH6 d   1     -20.655  27.575   2.894  0.00  0.00     0.086 H 
ATOM     39  CAM NH6 d   1     -23.145  28.598   4.939  0.00  0.00    -0.059 A 
ATOM     40  CAN NH6 d   1     -23.244  27.474   5.751  0.00  0.00    -0.059 A 
ATOM     41  H19 NH6 d   1     -23.799  29.447   5.102  0.00  0.00     0.086 H 
ATOM     42  H18 NH6 d   1     -23.969  27.447   6.556  0.00  0.00     0.086 H 
BRANCH  37  43
ATOM     43  SAI NH6 d   1     -22.073  30.061   2.886  0.00  0.00     0.259 S 
ATOM     44  OAJ NH6 d   1     -21.823  29.577   1.510  0.00  0.00    -0.201 OA
ATOM     45  OAK NH6 d   1     -23.310  30.892   3.077  0.00  0.00    -0.201 OA
BRANCH  43  46
ATOM     46  NAH NH6 d   1     -20.708  30.990   3.379  0.00  0.00    -0.311 N 
ATOM     47  H20 NH6 d   1     -20.779  31.919   3.743  0.00  0.00     0.172 HD
BRANCH  46  48
ATOM     48  CAA NH6 d   1     -19.434  30.287   3.214  0.00  0.00     0.026 C 
ATOM     49  H21 NH6 d   1     -19.602  29.388   2.603  0.00  0.00     0.072 H 
ATOM     50  H22 NH6 d   1     -19.061  29.992   4.206  0.00  0.00     0.072 H 
BRANCH  48  51
ATOM     51  CAB NH6 d   1     -18.441  31.105   2.570  0.00  0.00    -0.040 A 
ATOM     52  CAC NH6 d   1     -18.285  31.101   1.183  0.00  0.00    -0.075 A 
ATOM     53  CAD NH6 d   1     -17.298  31.873   0.562  0.00  0.00    -0.082 A 
ATOM     54  H23 NH6 d   1     -18.941  30.488   0.576  0.00  0.00     0.084 H 
ATOM     55  CAE NH6 d   1     -16.438  32.664   1.327  0.00  0.00    -0.083 A 
ATOM     56  H24 NH6 d   1     -17.200  31.857  -0.517  0.00  0.00     0.083 H 
ATOM     57  CAF NH6 d   1     -16.586  32.678   2.713  0.00  0.00    -0.082 A 
ATOM     58  H25 NH6 d   1     -15.667  33.258   0.850  0.00  0.00     0.083 H 
ATOM     59  CAG NH6 d   1     -17.569  31.899   3.320  0.00  0.00    -0.075 A 
ATOM     60  H26 NH6 d   1     -15.935  33.296   3.320  0.00  0.00     0.083 H 
ATOM     61  H27 NH6 d   1     -17.660  31.909   4.400  0.00  0.00     0.084 H 
ENDBRANCH  48  51
ENDBRANCH  46  48
ENDBRANCH  43  46
ENDBRANCH  37  43
ENDBRANCH   1  33
TORSDOF 9
