REMARK  13 active torsions:
REMARK  status: ('A' for Active; 'I' for Inactive)
REMARK    1  A    between atoms: C4_1  and  CAA_9 
REMARK    2  A    between atoms: NBP_7  and  CBQ_6 
REMARK    3  A    between atoms: NBP_7  and  C2_8 
REMARK    4  A    between atoms: CAA_9  and  NAH_10 
REMARK    5  A    between atoms: NAH_10  and  CAI_11 
REMARK    6  A    between atoms: NAH_10  and  SAP_18 
REMARK    7  A    between atoms: CAI_11  and  CAJ_12 
REMARK    8  A    between atoms: SAP_18  and  CAS_21 
REMARK    9  A    between atoms: CAV_26  and  SAY_27 
REMARK   10  A    between atoms: SAY_27  and  NBB_30 
REMARK   11  A    between atoms: NBB_30  and  CBE_31 
REMARK   12  A    between atoms: NBB_30  and  CBC_36 
REMARK   13  A    between atoms: CBC_36  and  CBD_37 
ROOT
ATOM      1  CAS DL3 d   1     -35.815   4.675  -4.000  0.00  0.00     0.074 A 
ATOM      2  CAX DL3 d   1     -36.247   5.607  -4.943  0.00  0.00    -0.059 A 
ATOM      3  CAW DL3 d   1     -35.314   6.251  -5.757  0.00  0.00    -0.059 A 
ATOM      4  CAT DL3 d   1     -34.475   4.402  -3.857  0.00  0.00    -0.059 A 
ATOM      5  CAU DL3 d   1     -33.539   5.035  -4.651  0.00  0.00    -0.059 A 
ATOM      6  CAV DL3 d   1     -33.958   5.965  -5.604  0.00  0.00     0.079 A 
ATOM      7  H22 DL3 d   1     -37.303   5.830  -5.043  0.00  0.00     0.085 H 
ATOM      8  H23 DL3 d   1     -35.641   6.968  -6.502  0.00  0.00     0.086 H 
ATOM      9  H24 DL3 d   1     -34.150   3.683  -3.114  0.00  0.00     0.085 H 
ATOM     10  H25 DL3 d   1     -32.485   4.811  -4.535  0.00  0.00     0.086 H 
ENDROOT
BRANCH   1  11
ATOM     11  SAP DL3 d   1     -36.930   3.810  -2.944  0.00  0.00     0.244 S 
ATOM     12  OAQ DL3 d   1     -36.221   3.541  -1.643  0.00  0.00    -0.206 OA
ATOM     13  OAR DL3 d   1     -38.194   4.589  -2.964  0.00  0.00    -0.206 OA
BRANCH  11  14
ATOM     14  NAH DL3 d   1     -37.277   2.205  -3.565  0.00  0.00    -0.200 NA
BRANCH  14  15
ATOM     15  CAA DL3 d   1     -36.181   1.173  -3.439  0.00  0.00     0.034 C 
ATOM     16  H7  DL3 d   1     -35.965   0.777  -4.442  0.00  0.00     0.067 H 
ATOM     17  H8  DL3 d   1     -35.285   1.671  -3.041  0.00  0.00     0.067 H 
BRANCH  15  18
ATOM     18  C4  DL3 d   1     -36.501   0.067  -2.578  0.00  0.00     0.069 A 
ATOM     19  C5  DL3 d   1     -36.667   0.242  -1.209  0.00  0.00    -0.040 A 
ATOM     20  C6  DL3 d   1     -36.978  -0.861  -0.413  0.00  0.00     0.023 A 
ATOM     21  H1  DL3 d   1     -36.556   1.224  -0.765  0.00  0.00     0.088 H 
ATOM     22  N1  DL3 d   1     -37.096  -2.124  -0.948  0.00  0.00    -0.075 NA
ATOM     23  H2  DL3 d   1     -37.130  -0.720   0.651  0.00  0.00     0.115 H 
ATOM     24  C2  DL3 d   1     -36.905  -2.265  -2.271  0.00  0.00     0.722 A 
ATOM     25  N3  DL3 d   1     -36.617  -1.191  -3.038  0.00  0.00    -0.066 NA
BRANCH  24  26
ATOM     26  NBP DL3 d   1     -37.015  -3.462  -2.821  0.00  0.00    -0.227 N 
ATOM     27  H6  DL3 d   1     -36.772  -3.577  -3.815  0.00  0.00     0.177 HD
BRANCH  26  28
ATOM     28  CBQ DL3 d   1     -37.473  -4.638  -2.060  0.00  0.00    -0.005 C 
ATOM     29  H3  DL3 d   1     -37.486  -5.519  -2.719  0.00  0.00     0.057 H 
ATOM     30  H4  DL3 d   1     -38.487  -4.454  -1.675  0.00  0.00     0.057 H 
ATOM     31  H5  DL3 d   1     -36.788  -4.819  -1.218  0.00  0.00     0.057 H 
ENDBRANCH  26  28
ENDBRANCH  24  26
ENDBRANCH  15  18
ENDBRANCH  14  15
BRANCH  14  32
ATOM     32  CAI DL3 d   1     -37.897   2.513  -4.862  0.00  0.00    -0.003 C 
ATOM     33  H9  DL3 d   1     -37.152   2.313  -5.646  0.00  0.00     0.058 H 
ATOM     34  H10 DL3 d   1     -38.155   3.582  -4.865  0.00  0.00     0.058 H 
BRANCH  32  35
ATOM     35  CAJ DL3 d   1     -39.161   1.728  -5.210  0.00  0.00    -0.039 C 
ATOM     36  CAK DL3 d   1     -40.011   2.539  -6.104  0.00  0.00    -0.038 C 
ATOM     37  CAL DL3 d   1     -41.036   1.600  -6.690  0.00  0.00     0.082 C 
ATOM     38  H12 DL3 d   1     -39.403   2.985  -6.905  0.00  0.00     0.036 H 
ATOM     39  H13 DL3 d   1     -40.509   3.337  -5.534  0.00  0.00     0.036 H 
ATOM     40  NAM DL3 d   1     -41.745   0.812  -5.648  0.00  0.00    -0.075 N 
ATOM     41  H14 DL3 d   1     -40.528   0.904  -7.374  0.00  0.00     0.075 H 
ATOM     42  H15 DL3 d   1     -41.776   2.190  -7.251  0.00  0.00     0.075 H 
ATOM     43  CAN DL3 d   1     -41.468   1.258  -4.260  0.00  0.00     0.082 C 
ATOM     44  H16 DL3 d   1     -41.463  -0.152  -5.733  0.00  0.00     0.277 HD
ATOM     45  H17 DL3 d   1     -42.736   0.888  -5.813  0.00  0.00     0.277 HD
ATOM     46  CAO DL3 d   1     -39.980   1.452  -3.954  0.00  0.00    -0.038 C 
ATOM     47  H18 DL3 d   1     -41.868   0.503  -3.567  0.00  0.00     0.075 H 
ATOM     48  H19 DL3 d   1     -41.983   2.216  -4.095  0.00  0.00     0.075 H 
ATOM     49  H20 DL3 d   1     -39.869   2.303  -3.265  0.00  0.00     0.036 H 
ATOM     50  H21 DL3 d   1     -39.596   0.539  -3.475  0.00  0.00     0.036 H 
ATOM     51  H11 DL3 d   1     -38.886   0.781  -5.698  0.00  0.00     0.042 H 
ENDBRANCH  32  35
ENDBRANCH  14  32
ENDBRANCH  11  14
ENDBRANCH   1  11
BRANCH   6  52
ATOM     52  SAY DL3 d   1     -32.750   6.769  -6.541  0.00  0.00     0.261 S 
ATOM     53  OAZ DL3 d   1     -33.494   7.430  -7.663  0.00  0.00    -0.200 OA
ATOM     54  OBA DL3 d   1     -31.700   5.794  -6.941  0.00  0.00    -0.200 OA
BRANCH  52  55
ATOM     55  NBB DL3 d   1     -31.928   7.985  -5.668  0.00  0.00    -0.298 N 
BRANCH  55  56
ATOM     56  CBE DL3 d   1     -32.346   8.898  -4.556  0.00  0.00     0.023 C 
ATOM     57  CBF DL3 d   1     -33.472   8.591  -3.636  0.00  0.00    -0.045 C 
ATOM     58  CBG DL3 d   1     -33.223   9.820  -2.728  0.00  0.00    -0.063 C 
ATOM     59  H27 DL3 d   1     -33.350   7.633  -3.109  0.00  0.00     0.036 H 
ATOM     60  H28 DL3 d   1     -34.453   8.613  -4.133  0.00  0.00     0.036 H 
ATOM     61  CBH DL3 d   1     -32.420  10.869  -3.532  0.00  0.00    -0.063 C 
ATOM     62  H29 DL3 d   1     -32.650   9.515  -1.840  0.00  0.00     0.033 H 
ATOM     63  H30 DL3 d   1     -34.185  10.250  -2.414  0.00  0.00     0.033 H 
ATOM     64  CBI DL3 d   1     -32.418  10.308  -4.950  0.00  0.00    -0.045 C 
ATOM     65  H31 DL3 d   1     -31.395  10.960  -3.144  0.00  0.00     0.033 H 
ATOM     66  H32 DL3 d   1     -32.914  11.851  -3.499  0.00  0.00     0.033 H 
ATOM     67  H33 DL3 d   1     -33.338  10.548  -5.503  0.00  0.00     0.036 H 
ATOM     68  H34 DL3 d   1     -31.544  10.631  -5.534  0.00  0.00     0.036 H 
ATOM     69  H26 DL3 d   1     -31.474   8.847  -3.888  0.00  0.00     0.073 H 
ENDBRANCH  55  56
BRANCH  55  70
ATOM     70  CBC DL3 d   1     -30.533   7.656  -5.226  0.00  0.00     0.029 C 
ATOM     71  H35 DL3 d   1     -30.427   6.564  -5.142  0.00  0.00     0.072 H 
ATOM     72  H36 DL3 d   1     -30.343   8.120  -4.247  0.00  0.00     0.072 H 
BRANCH  70  73
ATOM     73  CBD DL3 d   1     -29.589   8.148  -6.169  0.00  0.00    -0.040 A 
ATOM     74  CBJ DL3 d   1     -29.953   8.601  -7.445  0.00  0.00    -0.074 A 
ATOM     75  CBK DL3 d   1     -28.997   9.036  -8.358  0.00  0.00    -0.061 A 
ATOM     76  H37 DL3 d   1     -31.000   8.613  -7.726  0.00  0.00     0.084 H 
ATOM     77  CBL DL3 d   1     -27.668   9.024  -7.976  0.00  0.00     0.034 A 
ATOM     78  H38 DL3 d   1     -29.287   9.376  -9.345  0.00  0.00     0.086 H 
ATOM     79 CL   DL3 d   1     -26.464   9.538  -9.078  0.00  0.00    -0.084 Cl
ATOM     80  CBM DL3 d   1     -27.294   8.573  -6.717  0.00  0.00    -0.061 A 
ATOM     81  CBN DL3 d   1     -28.255   8.137  -5.821  0.00  0.00    -0.074 A 
ATOM     82  H39 DL3 d   1     -26.247   8.562  -6.435  0.00  0.00     0.086 H 
ATOM     83  H40 DL3 d   1     -27.957   7.785  -4.840  0.00  0.00     0.084 H 
ENDBRANCH  70  73
ENDBRANCH  55  70
ENDBRANCH  52  55
ENDBRANCH   6  52
TORSDOF 13
