REMARK  14 active torsions:
REMARK  status: ('A' for Active; 'I' for Inactive)
REMARK    1  A    between atoms: CBT_1  and  NBP_2 
REMARK    2  A    between atoms: NBP_2  and  CBL_3 
REMARK    3  A    between atoms: CBM_5  and  CBQ_6 
REMARK    4  A    between atoms: CBJ_11  and  CBB_12 
REMARK    5  A    between atoms: CBB_12  and  NAA_13 
REMARK    6  A    between atoms: NAA_13  and  CBC_14 
REMARK    7  A    between atoms: NAA_13  and  SAB_21 
REMARK    8  A    between atoms: CBC_14  and  CBD_15 
REMARK    9  A    between atoms: SAB_21  and  CAE_24 
REMARK   10  A    between atoms: CAH_29  and  SAK_30 
REMARK   11  A    between atoms: SAK_30  and  NAN_33 
REMARK   12  A    between atoms: NAN_33  and  CAQ_34 
REMARK   13  A    between atoms: NAN_33  and  CAO_39 
REMARK   14  A    between atoms: CAO_39  and  CAP_40 
ROOT
ATOM      1  SAB RRQ d   1     -21.732  30.151   2.920  0.00  0.00     0.243 S 
ATOM      2  OAC RRQ d   1     -21.452  29.678   1.505  0.00  0.00    -0.206 OA
ATOM      3  OAD RRQ d   1     -22.992  30.947   2.933  0.00  0.00    -0.206 OA
ENDROOT
BRANCH   1   4
ATOM      4  NAA RRQ d   1     -20.421  31.176   3.452  0.00  0.00    -0.202 NA
BRANCH   4   5
ATOM      5  CBB RRQ d   1     -19.040  30.658   3.209  0.00  0.00     0.017 C 
ATOM      6  H8  RRQ d   1     -18.505  30.550   4.164  0.00  0.00     0.064 H 
ATOM      7  H9  RRQ d   1     -19.087  29.682   2.703  0.00  0.00     0.064 H 
BRANCH   5   8
ATOM      8  CBJ RRQ d   1     -18.389  31.584   2.399  0.00  0.00    -0.042 A 
ATOM      9  CBK RRQ d   1     -17.197  32.167   2.842  0.00  0.00    -0.049 A 
ATOM     10  CBL RRQ d   1     -16.498  33.108   2.075  0.00  0.00     0.045 A 
ATOM     11  H5  RRQ d   1     -16.802  31.881   3.810  0.00  0.00     0.087 H 
ATOM     12  CBM RRQ d   1     -16.978  33.497   0.809  0.00  0.00     0.067 A 
ATOM     13  CBN RRQ d   1     -18.172  32.901   0.384  0.00  0.00    -0.064 A 
ATOM     14  CBO RRQ d   1     -18.870  31.957   1.146  0.00  0.00    -0.074 A 
ATOM     15  H6  RRQ d   1     -18.575  33.184  -0.582  0.00  0.00     0.085 H 
ATOM     16  H7  RRQ d   1     -19.783  31.517   0.762  0.00  0.00     0.084 H 
BRANCH  10  17
ATOM     17  NBP RRQ d   1     -15.350  33.664   2.509  0.00  0.00    -0.393 N 
ATOM     18  H4  RRQ d   1     -14.673  34.051   1.837  0.00  0.00     0.159 HD
BRANCH  17  19
ATOM     19  CBT RRQ d   1     -15.073  33.712   3.961  0.00  0.00    -0.021 C 
ATOM     20  H1  RRQ d   1     -14.100  34.196   4.133  0.00  0.00     0.056 H 
ATOM     21  H2  RRQ d   1     -15.050  32.689   4.364  0.00  0.00     0.056 H 
ATOM     22  H3  RRQ d   1     -15.863  34.287   4.466  0.00  0.00     0.056 H 
ENDBRANCH  17  19
ENDBRANCH  10  17
BRANCH  12  23
ATOM     23  CBQ RRQ d   1     -16.326  34.456  -0.022  0.00  0.00     0.211 C 
ATOM     24  OBS RRQ d   1     -16.768  34.758  -1.158  0.00  0.00    -0.644 OA
ATOM     25  OBR RRQ d   1     -15.317  35.082   0.373  0.00  0.00    -0.644 OA
ENDBRANCH  12  23
ENDBRANCH   5   8
ENDBRANCH   4   5
BRANCH   4  26
ATOM     26  CBC RRQ d   1     -20.632  31.609   4.850  0.00  0.00    -0.003 C 
ATOM     27  H10 RRQ d   1     -19.661  31.804   5.329  0.00  0.00     0.058 H 
ATOM     28  H11 RRQ d   1     -21.163  30.822   5.406  0.00  0.00     0.058 H 
BRANCH  26  29
ATOM     29  CBD RRQ d   1     -21.475  32.899   4.842  0.00  0.00    -0.039 C 
ATOM     30  CBE RRQ d   1     -20.829  33.937   3.934  0.00  0.00    -0.038 C 
ATOM     31  CBF RRQ d   1     -21.753  35.166   4.010  0.00  0.00     0.082 C 
ATOM     32  H13 RRQ d   1     -20.768  33.563   2.901  0.00  0.00     0.036 H 
ATOM     33  H14 RRQ d   1     -19.820  34.190   4.293  0.00  0.00     0.036 H 
ATOM     34  NBG RRQ d   1     -21.807  35.698   5.380  0.00  0.00    -0.075 N 
ATOM     35  H15 RRQ d   1     -22.766  34.875   3.697  0.00  0.00     0.075 H 
ATOM     36  H16 RRQ d   1     -21.371  35.946   3.336  0.00  0.00     0.075 H 
ATOM     37  CBH RRQ d   1     -22.414  34.699   6.276  0.00  0.00     0.082 C 
ATOM     38  H17 RRQ d   1     -22.362  36.539   5.391  0.00  0.00     0.277 HD
ATOM     39  H18 RRQ d   1     -20.873  35.907   5.695  0.00  0.00     0.277 HD
ATOM     40  CBI RRQ d   1     -21.589  33.423   6.283  0.00  0.00    -0.038 C 
ATOM     41  H19 RRQ d   1     -23.432  34.471   5.927  0.00  0.00     0.075 H 
ATOM     42  H20 RRQ d   1     -22.459  35.107   7.296  0.00  0.00     0.075 H 
ATOM     43  H21 RRQ d   1     -20.585  33.634   6.680  0.00  0.00     0.036 H 
ATOM     44  H22 RRQ d   1     -22.081  32.668   6.913  0.00  0.00     0.036 H 
ATOM     45  H12 RRQ d   1     -22.482  32.672   4.462  0.00  0.00     0.042 H 
ENDBRANCH  26  29
ENDBRANCH   4  26
ENDBRANCH   1   4
BRANCH   1  46
ATOM     46  CAE RRQ d   1     -21.914  28.703   3.987  0.00  0.00     0.074 A 
ATOM     47  CAJ RRQ d   1     -20.984  27.700   3.873  0.00  0.00    -0.059 A 
ATOM     48  CAI RRQ d   1     -21.088  26.586   4.651  0.00  0.00    -0.059 A 
ATOM     49  H23 RRQ d   1     -20.168  27.794   3.165  0.00  0.00     0.085 H 
ATOM     50  CAH RRQ d   1     -22.119  26.459   5.562  0.00  0.00     0.079 A 
ATOM     51  H24 RRQ d   1     -20.356  25.793   4.554  0.00  0.00     0.086 H 
ATOM     52  CAG RRQ d   1     -23.060  27.459   5.705  0.00  0.00    -0.059 A 
ATOM     53  CAF RRQ d   1     -22.959  28.589   4.910  0.00  0.00    -0.059 A 
ATOM     54  H26 RRQ d   1     -23.863  27.362   6.426  0.00  0.00     0.086 H 
ATOM     55  H25 RRQ d   1     -23.689  29.384   5.003  0.00  0.00     0.085 H 
BRANCH  50  56
ATOM     56  SAK RRQ d   1     -22.192  25.051   6.490  0.00  0.00     0.261 S 
ATOM     57  OAL RRQ d   1     -23.059  25.362   7.682  0.00  0.00    -0.200 OA
ATOM     58  OAM RRQ d   1     -20.799  24.621   6.973  0.00  0.00    -0.200 OA
BRANCH  56  59
ATOM     59  NAN RRQ d   1     -22.951  23.579   5.639  0.00  0.00    -0.298 N 
BRANCH  59  60
ATOM     60  CAQ RRQ d   1     -24.159  23.728   4.783  0.00  0.00     0.023 C 
ATOM     61  CAR RRQ d   1     -24.708  22.375   4.421  0.00  0.00    -0.045 C 
ATOM     62  CAS RRQ d   1     -25.579  22.723   3.216  0.00  0.00    -0.063 C 
ATOM     63  H28 RRQ d   1     -25.305  21.949   5.241  0.00  0.00     0.036 H 
ATOM     64  H29 RRQ d   1     -23.905  21.674   4.149  0.00  0.00     0.036 H 
ATOM     65  CAT RRQ d   1     -24.987  23.941   2.568  0.00  0.00    -0.063 C 
ATOM     66  H30 RRQ d   1     -26.607  22.935   3.544  0.00  0.00     0.033 H 
ATOM     67  H31 RRQ d   1     -25.587  21.885   2.504  0.00  0.00     0.033 H 
ATOM     68  CAU RRQ d   1     -23.874  24.421   3.442  0.00  0.00    -0.045 C 
ATOM     69  H32 RRQ d   1     -25.753  24.725   2.472  0.00  0.00     0.033 H 
ATOM     70  H33 RRQ d   1     -24.598  23.684   1.572  0.00  0.00     0.033 H 
ATOM     71  H34 RRQ d   1     -22.897  24.116   3.040  0.00  0.00     0.036 H 
ATOM     72  H35 RRQ d   1     -23.901  25.515   3.550  0.00  0.00     0.036 H 
ATOM     73  H27 RRQ d   1     -24.912  24.305   5.340  0.00  0.00     0.073 H 
ENDBRANCH  59  60
BRANCH  59  74
ATOM     74  CAO RRQ d   1     -21.940  22.615   5.116  0.00  0.00     0.029 C 
ATOM     75  H36 RRQ d   1     -20.959  23.106   5.038  0.00  0.00     0.072 H 
ATOM     76  H37 RRQ d   1     -22.247  22.250   4.125  0.00  0.00     0.072 H 
BRANCH  74  77
ATOM     77  CAP RRQ d   1     -21.869  21.539   6.023  0.00  0.00    -0.040 A 
ATOM     78  CAV RRQ d   1     -21.206  20.364   5.687  0.00  0.00    -0.074 A 
ATOM     79  CAW RRQ d   1     -21.129  19.329   6.608  0.00  0.00    -0.061 A 
ATOM     80  H38 RRQ d   1     -20.751  20.257   4.709  0.00  0.00     0.084 H 
ATOM     81  CAX RRQ d   1     -21.704  19.495   7.861  0.00  0.00     0.034 A 
ATOM     82  H39 RRQ d   1     -20.627  18.403   6.353  0.00  0.00     0.086 H 
ATOM     83 CL   RRQ d   1     -21.661  18.283   9.011  0.00  0.00    -0.084 Cl
ATOM     84  CAY RRQ d   1     -22.348  20.662   8.215  0.00  0.00    -0.061 A 
ATOM     85  CAZ RRQ d   1     -22.426  21.670   7.300  0.00  0.00    -0.074 A 
ATOM     86  H40 RRQ d   1     -22.784  20.776   9.201  0.00  0.00     0.086 H 
ATOM     87  H41 RRQ d   1     -22.930  22.592   7.567  0.00  0.00     0.084 H 
ENDBRANCH  74  77
ENDBRANCH  59  74
ENDBRANCH  56  59
ENDBRANCH  50  56
ENDBRANCH   1  46
TORSDOF 14
