REMARK  13 active torsions:
REMARK  status: ('A' for Active; 'I' for Inactive)
REMARK    1  A    between atoms: CAJ_6  and  CAI_7 
REMARK    2  A    between atoms: CAI_7  and  NAH_8 
REMARK    3  A    between atoms: NAH_8  and  CAA_9 
REMARK    4  A    between atoms: NAH_8  and  SAP_20 
REMARK    5  A    between atoms: CAA_9  and  CAB_10 
REMARK    6  A    between atoms: CAD_12  and  NBP_13 
REMARK    7  A    between atoms: CAE_14  and  CBQ_15 
REMARK    8  A    between atoms: SAP_20  and  CAS_23 
REMARK    9  A    between atoms: CAV_28  and  SAY_29 
REMARK   10  A    between atoms: SAY_29  and  NBB_32 
REMARK   11  A    between atoms: NBB_32  and  CBE_33 
REMARK   12  A    between atoms: NBB_32  and  CBC_38 
REMARK   13  A    between atoms: CBC_38  and  CBD_39 
ROOT
ATOM      1  CAS 9GD d   1     -21.885  28.743   4.000  0.00  0.00     0.074 A 
ATOM      2  CAX 9GD d   1     -20.982  27.712   3.831  0.00  0.00    -0.059 A 
ATOM      3  CAW 9GD d   1     -21.116  26.555   4.585  0.00  0.00    -0.059 A 
ATOM      4  CAT 9GD d   1     -22.937  28.621   4.906  0.00  0.00    -0.059 A 
ATOM      5  CAU 9GD d   1     -23.073  27.460   5.664  0.00  0.00    -0.059 A 
ATOM      6  CAV 9GD d   1     -22.163  26.427   5.485  0.00  0.00     0.074 A 
ATOM      7  H21 9GD d   1     -20.174  27.806   3.114  0.00  0.00     0.085 H 
ATOM      8  H22 9GD d   1     -20.400  25.749   4.470  0.00  0.00     0.085 H 
ATOM      9  H23 9GD d   1     -23.650  29.430   5.021  0.00  0.00     0.085 H 
ATOM     10  H24 9GD d   1     -23.878  27.365   6.383  0.00  0.00     0.085 H 
ENDROOT
BRANCH   1  11
ATOM     11  SAP 9GD d   1     -21.703  30.237   3.003  0.00  0.00     0.243 S 
ATOM     12  OAQ 9GD d   1     -21.564  29.802   1.554  0.00  0.00    -0.206 OA
ATOM     13  OAR 9GD d   1     -22.979  31.021   3.175  0.00  0.00    -0.206 OA
BRANCH  11  14
ATOM     14  NAH 9GD d   1     -20.266  31.229   3.489  0.00  0.00    -0.202 NA
BRANCH  14  15
ATOM     15  CAI 9GD d   1     -20.284  31.664   4.923  0.00  0.00    -0.003 C 
ATOM     16  H12 9GD d   1     -20.518  30.801   5.563  0.00  0.00     0.058 H 
ATOM     17  H13 9GD d   1     -19.297  32.066   5.195  0.00  0.00     0.058 H 
BRANCH  15  18
ATOM     18  CAJ 9GD d   1     -21.348  32.750   5.124  0.00  0.00    -0.039 C 
ATOM     19  CAK 9GD d   1     -21.183  33.873   4.096  0.00  0.00    -0.038 C 
ATOM     20  CAL 9GD d   1     -22.188  34.990   4.326  0.00  0.00     0.082 C 
ATOM     21  H1  9GD d   1     -20.166  34.285   4.176  0.00  0.00     0.036 H 
ATOM     22  H2  9GD d   1     -21.332  33.459   3.088  0.00  0.00     0.036 H 
ATOM     23  NAM 9GD d   1     -21.922  35.528   5.679  0.00  0.00    -0.075 N 
ATOM     24  H3  9GD d   1     -23.213  34.595   4.270  0.00  0.00     0.075 H 
ATOM     25  H4  9GD d   1     -22.057  35.779   3.571  0.00  0.00     0.075 H 
ATOM     26  CAN 9GD d   1     -22.144  34.503   6.723  0.00  0.00     0.082 C 
ATOM     27  H5  9GD d   1     -22.538  36.307   5.849  0.00  0.00     0.277 HD
ATOM     28  H6  9GD d   1     -20.965  35.840   5.725  0.00  0.00     0.277 HD
ATOM     29  CAO 9GD d   1     -21.195  33.322   6.531  0.00  0.00    -0.038 C 
ATOM     30  H7  9GD d   1     -23.182  34.145   6.663  0.00  0.00     0.075 H 
ATOM     31  H8  9GD d   1     -21.967  34.951   7.712  0.00  0.00     0.075 H 
ATOM     32  H9  9GD d   1     -21.432  32.541   7.269  0.00  0.00     0.036 H 
ATOM     33  H10 9GD d   1     -20.159  33.661   6.675  0.00  0.00     0.036 H 
ATOM     34  H11 9GD d   1     -22.348  32.305   5.013  0.00  0.00     0.042 H 
ENDBRANCH  15  18
ENDBRANCH  14  15
BRANCH  14  35
ATOM     35  CAA 9GD d   1     -18.988  30.616   3.113  0.00  0.00     0.017 C 
ATOM     36  H14 9GD d   1     -19.168  29.727   2.491  0.00  0.00     0.064 H 
ATOM     37  H15 9GD d   1     -18.432  30.325   4.016  0.00  0.00     0.064 H 
BRANCH  35  38
ATOM     38  CAB 9GD d   1     -18.247  31.578   2.378  0.00  0.00    -0.042 A 
ATOM     39  CAC 9GD d   1     -17.264  32.368   2.993  0.00  0.00    -0.049 A 
ATOM     40  CAD 9GD d   1     -16.537  33.308   2.251  0.00  0.00     0.043 A 
ATOM     41  H16 9GD d   1     -17.065  32.250   4.052  0.00  0.00     0.087 H 
ATOM     42  CAE 9GD d   1     -16.755  33.510   0.876  0.00  0.00     0.067 A 
ATOM     43  CAF 9GD d   1     -17.732  32.707   0.278  0.00  0.00    -0.064 A 
ATOM     44  CAG 9GD d   1     -18.472  31.760   1.009  0.00  0.00    -0.074 A 
ATOM     45  H19 9GD d   1     -17.925  32.818  -0.783  0.00  0.00     0.085 H 
ATOM     46  H20 9GD d   1     -19.225  31.164   0.506  0.00  0.00     0.084 H 
BRANCH  40  47
ATOM     47  NBP 9GD d   1     -15.599  34.062   2.839  0.00  0.00    -0.398 N 
ATOM     48  H17 9GD d   1     -15.404  33.950   3.844  0.00  0.00     0.156 HD
ATOM     49  H18 9GD d   1     -15.073  34.754   2.286  0.00  0.00     0.156 HD
ENDBRANCH  40  47
BRANCH  42  50
ATOM     50  CBQ 9GD d   1     -16.021  34.470   0.133  0.00  0.00     0.211 C 
ATOM     51  OBS 9GD d   1     -16.407  34.889  -0.995  0.00  0.00    -0.644 OA
ATOM     52  OBR 9GD d   1     -14.952  34.942   0.603  0.00  0.00    -0.644 OA
ENDBRANCH  42  50
ENDBRANCH  35  38
ENDBRANCH  14  35
ENDBRANCH  11  14
ENDBRANCH   1  11
BRANCH   6  53
ATOM     53  SAY 9GD d   1     -22.289  24.953   6.410  0.00  0.00     0.244 S 
ATOM     54  OAZ 9GD d   1     -23.203  25.226   7.581  0.00  0.00    -0.206 OA
ATOM     55  OBA 9GD d   1     -20.888  24.649   6.882  0.00  0.00    -0.206 OA
BRANCH  53  56
ATOM     56  NBB 9GD d   1     -22.933  23.464   5.473  0.00  0.00    -0.198 NA
BRANCH  56  57
ATOM     57  CBE 9GD d   1     -23.679  23.504   4.214  0.00  0.00     0.009 C 
ATOM     58  CBF 9GD d   1     -24.140  24.817   3.792  0.00  0.00    -0.049 C 
ATOM     59  CBG 9GD d   1     -25.170  24.344   2.759  0.00  0.00    -0.064 C 
ATOM     60  H26 9GD d   1     -23.337  25.417   3.339  0.00  0.00     0.035 H 
ATOM     61  H27 9GD d   1     -24.601  25.383   4.614  0.00  0.00     0.035 H 
ATOM     62  CBH 9GD d   1     -25.554  22.906   3.082  0.00  0.00    -0.064 C 
ATOM     63  H28 9GD d   1     -24.734  24.394   1.750  0.00  0.00     0.033 H 
ATOM     64  H29 9GD d   1     -26.062  24.985   2.804  0.00  0.00     0.033 H 
ATOM     65  CBI 9GD d   1     -24.956  22.740   4.432  0.00  0.00    -0.049 C 
ATOM     66  H30 9GD d   1     -25.118  22.201   2.359  0.00  0.00     0.033 H 
ATOM     67  H31 9GD d   1     -26.646  22.777   3.107  0.00  0.00     0.033 H 
ATOM     68  H32 9GD d   1     -25.579  23.192   5.218  0.00  0.00     0.035 H 
ATOM     69  H33 9GD d   1     -24.769  21.683   4.674  0.00  0.00     0.035 H 
ATOM     70  H25 9GD d   1     -23.067  23.052   3.420  0.00  0.00     0.065 H 
ENDBRANCH  56  57
BRANCH  56  71
ATOM     71  CBC 9GD d   1     -21.868  22.476   5.194  0.00  0.00     0.018 C 
ATOM     72  H34 9GD d   1     -20.896  22.992   5.185  0.00  0.00     0.064 H 
ATOM     73  H35 9GD d   1     -22.052  22.022   4.209  0.00  0.00     0.064 H 
BRANCH  71  74
ATOM     74  CBD 9GD d   1     -21.836  21.473   6.153  0.00  0.00    -0.044 A 
ATOM     75  CBJ 9GD d   1     -21.120  20.330   5.847  0.00  0.00    -0.074 A 
ATOM     76  CBK 9GD d   1     -21.039  19.301   6.770  0.00  0.00    -0.061 A 
ATOM     77  H36 9GD d   1     -20.624  20.240   4.888  0.00  0.00     0.084 H 
ATOM     78  CBL 9GD d   1     -21.671  19.435   7.995  0.00  0.00     0.034 A 
ATOM     79  H37 9GD d   1     -20.486  18.399   6.536  0.00  0.00     0.086 H 
ATOM     80 CL   9GD d   1     -21.563  18.208   9.109  0.00  0.00    -0.084 Cl
ATOM     81  CBM 9GD d   1     -22.387  20.574   8.321  0.00  0.00    -0.061 A 
ATOM     82  CBN 9GD d   1     -22.473  21.601   7.395  0.00  0.00    -0.074 A 
ATOM     83  H38 9GD d   1     -22.873  20.661   9.286  0.00  0.00     0.086 H 
ATOM     84  H39 9GD d   1     -23.031  22.500   7.630  0.00  0.00     0.084 H 
ENDBRANCH  71  74
ENDBRANCH  56  71
ENDBRANCH  53  56
ENDBRANCH   6  53
TORSDOF 13
