REMARK  11 active torsions:
REMARK  status: ('A' for Active; 'I' for Inactive)
REMARK    1  A    between atoms: CAJ_6  and  CAI_7 
REMARK    2  A    between atoms: CAI_7  and  NAH_8 
REMARK    3  A    between atoms: NAH_8  and  CAA_9 
REMARK    4  A    between atoms: NAH_8  and  SAP_16 
REMARK    5  A    between atoms: CAA_9  and  CAB_10 
REMARK    6  A    between atoms: SAP_16  and  CAS_19 
REMARK    7  A    between atoms: CAV_24  and  SAY_25 
REMARK    8  A    between atoms: SAY_25  and  NBB_28 
REMARK    9  A    between atoms: NBB_28  and  CBE_29 
REMARK   10  A    between atoms: NBB_28  and  CBC_34 
REMARK   11  A    between atoms: CBC_34  and  CBD_35 
ROOT
ATOM      1  CAS V98 d   1     -20.265   5.176 -15.318  0.00  0.00     0.074 A 
ATOM      2  CAX V98 d   1     -19.863   6.201 -14.456  0.00  0.00    -0.059 A 
ATOM      3  CAW V98 d   1     -20.805   6.851 -13.653  0.00  0.00    -0.059 A 
ATOM      4  CAT V98 d   1     -21.613   4.812 -15.370  0.00  0.00    -0.059 A 
ATOM      5  CAU V98 d   1     -22.549   5.458 -14.574  0.00  0.00    -0.059 A 
ATOM      6  CAV V98 d   1     -22.150   6.482 -13.720  0.00  0.00     0.074 A 
ATOM      7  H21 V98 d   1     -18.820   6.492 -14.410  0.00  0.00     0.085 H 
ATOM      8  H22 V98 d   1     -20.492   7.640 -12.979  0.00  0.00     0.085 H 
ATOM      9  H23 V98 d   1     -21.930   4.019 -16.037  0.00  0.00     0.085 H 
ATOM     10  H24 V98 d   1     -23.592   5.165 -14.618  0.00  0.00     0.085 H 
ENDROOT
BRANCH   1  11
ATOM     11  SAP V98 d   1     -19.070   4.330 -16.353  0.00  0.00     0.243 S 
ATOM     12  OAQ V98 d   1     -19.705   4.146 -17.733  0.00  0.00    -0.206 OA
ATOM     13  OAR V98 d   1     -17.831   5.197 -16.466  0.00  0.00    -0.206 OA
BRANCH  11  14
ATOM     14  NAH V98 d   1     -18.633   2.782 -15.647  0.00  0.00    -0.202 NA
BRANCH  14  15
ATOM     15  CAI V98 d   1     -18.055   3.083 -14.302  0.00  0.00    -0.003 C 
ATOM     16  H12 V98 d   1     -17.681   4.117 -14.301  0.00  0.00     0.058 H 
ATOM     17  H13 V98 d   1     -18.846   2.978 -13.545  0.00  0.00     0.058 H 
BRANCH  15  18
ATOM     18  CAJ V98 d   1     -16.917   2.153 -13.949  0.00  0.00    -0.039 C 
ATOM     19  CAK V98 d   1     -16.066   2.869 -12.882  0.00  0.00    -0.038 C 
ATOM     20  CAL V98 d   1     -14.896   2.007 -12.445  0.00  0.00     0.082 C 
ATOM     21  H1  V98 d   1     -15.681   3.810 -13.302  0.00  0.00     0.036 H 
ATOM     22  H2  V98 d   1     -16.697   3.088 -12.008  0.00  0.00     0.036 H 
ATOM     23  NAM V98 d   1     -14.086   1.727 -13.658  0.00  0.00    -0.075 N 
ATOM     24  H3  V98 d   1     -15.262   1.065 -12.010  0.00  0.00     0.075 H 
ATOM     25  H4  V98 d   1     -14.289   2.543 -11.701  0.00  0.00     0.075 H 
ATOM     26  CAN V98 d   1     -14.829   0.983 -14.698  0.00  0.00     0.082 C 
ATOM     27  H5  V98 d   1     -13.282   1.182 -13.387  0.00  0.00     0.277 HD
ATOM     28  H6  V98 d   1     -13.781   2.605 -14.049  0.00  0.00     0.277 HD
ATOM     29  CAO V98 d   1     -16.037   1.797 -15.166  0.00  0.00    -0.038 C 
ATOM     30  H7  V98 d   1     -15.175   0.025 -14.283  0.00  0.00     0.075 H 
ATOM     31  H8  V98 d   1     -14.165   0.793 -15.554  0.00  0.00     0.075 H 
ATOM     32  H9  V98 d   1     -16.624   1.204 -15.883  0.00  0.00     0.036 H 
ATOM     33  H10 V98 d   1     -15.691   2.721 -15.652  0.00  0.00     0.036 H 
ATOM     34  H11 V98 d   1     -17.329   1.223 -13.531  0.00  0.00     0.042 H 
ENDBRANCH  15  18
ENDBRANCH  14  15
BRANCH  14  35
ATOM     35  CAA V98 d   1     -19.790   1.865 -15.600  0.00  0.00     0.017 C 
ATOM     36  H14 V98 d   1     -20.674   2.388 -15.993  0.00  0.00     0.064 H 
ATOM     37  H15 V98 d   1     -19.971   1.574 -14.555  0.00  0.00     0.064 H 
BRANCH  35  38
ATOM     38  CAB V98 d   1     -19.571   0.705 -16.363  0.00  0.00    -0.044 A 
ATOM     39  CAC V98 d   1     -19.400  -0.546 -15.750  0.00  0.00    -0.076 A 
ATOM     40  CAD V98 d   1     -19.200  -1.702 -16.518  0.00  0.00    -0.082 A 
ATOM     41  H16 V98 d   1     -19.423  -0.620 -14.669  0.00  0.00     0.084 H 
ATOM     42  CAE V98 d   1     -19.182  -1.619 -17.901  0.00  0.00    -0.083 A 
ATOM     43  H17 V98 d   1     -19.060  -2.660 -16.030  0.00  0.00     0.083 H 
ATOM     44  CAF V98 d   1     -19.368  -0.383 -18.510  0.00  0.00    -0.082 A 
ATOM     45  H18 V98 d   1     -19.025  -2.508 -18.501  0.00  0.00     0.083 H 
ATOM     46  CAG V98 d   1     -19.570   0.769 -17.753  0.00  0.00    -0.076 A 
ATOM     47  H19 V98 d   1     -19.356  -0.315 -19.592  0.00  0.00     0.083 H 
ATOM     48  H20 V98 d   1     -19.727   1.720 -18.249  0.00  0.00     0.084 H 
ENDBRANCH  35  38
ENDBRANCH  14  35
ENDBRANCH  11  14
ENDBRANCH   1  11
BRANCH   6  49
ATOM     49  SAY V98 d   1     -23.323   7.299 -12.757  0.00  0.00     0.244 S 
ATOM     50  OAZ V98 d   1     -22.597   8.068 -11.663  0.00  0.00    -0.206 OA
ATOM     51  OBA V98 d   1     -24.218   6.265 -12.085  0.00  0.00    -0.206 OA
BRANCH  49  52
ATOM     52  NBB V98 d   1     -24.365   8.518 -13.689  0.00  0.00    -0.198 NA
BRANCH  52  53
ATOM     53  CBE V98 d   1     -23.956   9.142 -14.971  0.00  0.00     0.009 C 
ATOM     54  CBF V98 d   1     -22.594   8.818 -15.458  0.00  0.00    -0.049 C 
ATOM     55  CBG V98 d   1     -22.490   9.914 -16.545  0.00  0.00    -0.064 C 
ATOM     56  H26 V98 d   1     -22.532   7.804 -15.881  0.00  0.00     0.035 H 
ATOM     57  H27 V98 d   1     -21.832   8.935 -14.674  0.00  0.00     0.035 H 
ATOM     58  CBH V98 d   1     -23.388  11.068 -16.115  0.00  0.00    -0.064 C 
ATOM     59  H28 V98 d   1     -22.827   9.516 -17.514  0.00  0.00     0.033 H 
ATOM     60  H29 V98 d   1     -21.449  10.260 -16.632  0.00  0.00     0.033 H 
ATOM     61  CBI V98 d   1     -23.920  10.640 -14.788  0.00  0.00    -0.049 C 
ATOM     62  H30 V98 d   1     -24.207  11.215 -16.835  0.00  0.00     0.033 H 
ATOM     63  H31 V98 d   1     -22.810  11.999 -16.022  0.00  0.00     0.033 H 
ATOM     64  H32 V98 d   1     -23.247  10.932 -13.968  0.00  0.00     0.035 H 
ATOM     65  H33 V98 d   1     -24.924  11.050 -14.602  0.00  0.00     0.035 H 
ATOM     66  H25 V98 d   1     -24.691   8.860 -15.740  0.00  0.00     0.065 H 
ENDBRANCH  52  53
BRANCH  52  67
ATOM     67  CBC V98 d   1     -25.746   8.036 -13.911  0.00  0.00     0.018 C 
ATOM     68  H34 V98 d   1     -25.768   6.943 -13.789  0.00  0.00     0.064 H 
ATOM     69  H35 V98 d   1     -26.057   8.298 -14.933  0.00  0.00     0.064 H 
BRANCH  67  70
ATOM     70  CBD V98 d   1     -26.624   8.606 -13.014  0.00  0.00    -0.044 A 
ATOM     71  CBJ V98 d   1     -27.977   8.561 -13.313  0.00  0.00    -0.074 A 
ATOM     72  CBK V98 d   1     -28.900   9.100 -12.433  0.00  0.00    -0.061 A 
ATOM     73  H36 V98 d   1     -28.312   8.103 -14.237  0.00  0.00     0.084 H 
ATOM     74  CBL V98 d   1     -28.443   9.675 -11.262  0.00  0.00     0.034 A 
ATOM     75  H37 V98 d   1     -29.960   9.072 -12.658  0.00  0.00     0.086 H 
ATOM     76 CL   V98 d   1     -29.517  10.330 -10.207  0.00  0.00    -0.084 Cl
ATOM     77  CBM V98 d   1     -27.095   9.718 -10.952  0.00  0.00    -0.061 A 
ATOM     78  CBN V98 d   1     -26.175   9.185 -11.830  0.00  0.00    -0.074 A 
ATOM     79  H38 V98 d   1     -26.764  10.169 -10.023  0.00  0.00     0.086 H 
ATOM     80  H39 V98 d   1     -25.116   9.216 -11.601  0.00  0.00     0.084 H 
ENDBRANCH  67  70
ENDBRANCH  52  67
ENDBRANCH  49  52
ENDBRANCH   6  49
TORSDOF 11
