REMARK  2 active torsions:
REMARK  status: ('A' for Active; 'I' for Inactive)
REMARK    1  A    between atoms: C01_1  and  N05_2 
REMARK    2  A    between atoms: N11_6  and  C12_7 
ROOT
ATOM      1  N05 82I d   1      26.759  46.766   1.005  0.00  0.00    -0.295 NA
ATOM      2  C07 82I d   1      25.590  47.057   0.416  0.00  0.00     0.075 A 
ATOM      3  C08 82I d   1      25.389  48.262  -0.336  0.00  0.00     0.047 A 
ATOM      4  N10 82I d   1      24.281  48.606  -0.896  0.00  0.00    -0.180 NA
ATOM      5  N11 82I d   1      23.208  47.780  -0.762  0.00  0.00    -0.241 N 
ATOM      6  C16 82I d   1      23.196  46.590  -0.077  0.00  0.00     0.264 A 
ATOM      7  O17 82I d   1      22.180  45.907  -0.012  0.00  0.00    -0.269 OA
ATOM      8  C18 82I d   1      24.470  46.252   0.522  0.00  0.00     0.139 A 
ATOM      9 CL1  82I d   1      24.548  44.780   1.407  0.00  0.00    -0.108 Cl
ATOM     10  H4  82I d   1      26.237  48.937  -0.441  0.00  0.00     0.120 H 
ATOM     11  H8  82I d   1      24.768  45.731  -0.400  0.00  0.00     0.089 H 
ENDROOT
BRANCH   1  12
ATOM     12  C01 82I d   1      27.947  47.601   0.949  0.00  0.00     0.001 C 
ATOM     13  H1  82I d   1      28.758  47.123   1.518  0.00  0.00     0.059 H 
ATOM     14  H2  82I d   1      27.724  48.586   1.386  0.00  0.00     0.059 H 
ATOM     15  H3  82I d   1      28.258  47.726  -0.099  0.00  0.00     0.059 H 
ENDBRANCH   1  12
BRANCH   5  16
ATOM     16  C12 82I d   1      21.995  48.238  -1.429  0.00  0.00     0.005 C 
ATOM     17  H5  82I d   1      21.188  47.508  -1.264  0.00  0.00     0.059 H 
ATOM     18  H6  82I d   1      22.185  48.337  -2.508  0.00  0.00     0.059 H 
ATOM     19  H7  82I d   1      21.697  49.214  -1.018  0.00  0.00     0.059 H 
ENDBRANCH   5  16
TORSDOF 2
