REMARK WARNING: 32 MAX_TORS EXCEEDED!!!
REMARK  49 active torsions:
REMARK  status: ('A' for Active; 'I' for Inactive)
REMARK    1  A    between atoms: N_1  and  CA_2 
REMARK    2  A    between atoms: CA_2  and  C_3 
REMARK    3  A    between atoms: CA_2  and  CB_5 
REMARK       I    between atoms: C_3  and  N_10 
REMARK    4  A    between atoms: CB_5  and  CG_6 
REMARK    5  A    between atoms: CG_6  and  CD_7 
REMARK    6  A    between atoms: CD_7  and  CE_8 
REMARK    7  A    between atoms: CE_8  and  NZ_9 
REMARK    8  A    between atoms: N_10  and  CA_11 
REMARK    9  A    between atoms: CA_11  and  C_12 
REMARK   10  A    between atoms: CA_11  and  CB_14 
REMARK       I    between atoms: C_12  and  N_19 
REMARK   11  A    between atoms: CB_14  and  CG_15 
REMARK   12  A    between atoms: CG_15  and  CD_16 
REMARK       I    between atoms: CD_16  and  NE2_18 
REMARK   13  A    between atoms: N_19  and  CA_20 
REMARK   14  A    between atoms: CA_20  and  C_21 
REMARK   15  A    between atoms: CA_20  and  CB_23 
REMARK       I    between atoms: C_21  and  N_29 
REMARK   16  A    between atoms: CB_23  and  CG_24 
REMARK   17  A    between atoms: N_29  and  CA_30 
REMARK   18  A    between atoms: CA_30  and  C_31 
REMARK   19  A    between atoms: CA_30  and  CB_33 
REMARK       I    between atoms: C_31  and  N_37 
REMARK   20  A    between atoms: CB_33  and  CG_34 
REMARK   21  A    between atoms: N_37  and  CA_38 
REMARK   22  A    between atoms: CA_38  and  C_39 
REMARK   23  A    between atoms: CA_38  and  CB_41 
REMARK       I    between atoms: C_39  and  N_45 
REMARK   24  A    between atoms: CB_41  and  CG1_42 
REMARK   25  A    between atoms: CB_41  and  CG2_43 
REMARK   26  A    between atoms: CG1_42  and  CD1_44 
REMARK   27  A    between atoms: N_45  and  CA_46 
REMARK   28  A    between atoms: CA_46  and  C_47 
REMARK   29  A    between atoms: CA_46  and  CB_49 
REMARK       I    between atoms: C_47  and  N_56 
REMARK   30  A    between atoms: CB_49  and  CG_50 
REMARK   31  A    between atoms: CG_50  and  CD_51 
REMARK   32  A    between atoms: CD_51  and  NE_52 
REMARK       I    between atoms: NE_52  and  CZ_53 
REMARK       I    between atoms: CZ_53  and  NH1_54 
REMARK   33  A    between atoms: N_56  and  CA_57 
REMARK   34  A    between atoms: CA_57  and  C_58 
REMARK   35  A    between atoms: CA_57  and  CB_60 
REMARK       I    between atoms: C_58  and  N_62 
REMARK   36  A    between atoms: CB_60  and  OG_61 
REMARK   37  A    between atoms: N_62  and  CA_63 
REMARK   38  A    between atoms: CA_63  and  C_64 
REMARK   39  A    between atoms: CA_63  and  CB_66 
REMARK       I    between atoms: C_64  and  N_73 
REMARK   40  A    between atoms: CB_66  and  CG_67 
REMARK   41  A    between atoms: N_73  and  CA_74 
REMARK   42  A    between atoms: CA_74  and  C_75 
REMARK   43  A    between atoms: CA_74  and  CB_77 
REMARK       I    between atoms: C_75  and  N_84 
REMARK   44  A    between atoms: CB_77  and  CG_78 
REMARK   45  A    between atoms: N_84  and  CA_85 
REMARK   46  A    between atoms: CA_85  and  C_86 
REMARK   47  A    between atoms: CA_85  and  CB_88 
REMARK   48  A    between atoms: CB_88  and  CG1_89 
REMARK   49  A    between atoms: CB_88  and  CG2_90 
ROOT
ATOM      1  C   ILE d   1      87.643  13.529  32.290  0.00  0.00     0.241 C 
ATOM      2  O   ILE d   1      87.628  12.855  33.321  0.00  0.00    -0.271 OA
ATOM      3  N   ARG d   1      88.774  13.844  31.666  0.00  0.00    -0.346 N 
ATOM      4  H46 ARG d   1      88.734  14.364  30.813  0.00  0.00     0.163 HD
ENDROOT
BRANCH   3   5
ATOM      5  CA  ARG d   1      90.078  13.444  32.203  0.00  0.00     0.089 C 
ATOM      6  H47 ARG d   1      89.981  12.414  32.576  0.00  0.00     0.087 H 
BRANCH   5   7
ATOM      7  C   ARG d   1      90.545  14.320  33.369  0.00  0.00     0.241 C 
ATOM      8  O   ARG d   1      91.467  13.948  34.093  0.00  0.00    -0.271 OA
ATOM      9  N   SER d   1      89.905  15.470  33.556  0.00  0.00    -0.344 N 
ATOM     10  H59 SER d   1      89.251  15.781  32.866  0.00  0.00     0.163 HD
BRANCH   9  11
ATOM     11  CA  SER d   1      90.132  16.290  34.742  0.00  0.00     0.109 C 
ATOM     12  H60 SER d   1      91.210  16.498  34.805  0.00  0.00     0.090 H 
BRANCH  11  13
ATOM     13  C   SER d   1      89.704  15.588  36.040  0.00  0.00     0.243 C 
ATOM     14  O   SER d   1      90.054  16.046  37.124  0.00  0.00    -0.271 OA
ATOM     15  N   PHE d   1      88.927  14.507  35.933  0.00  0.00    -0.346 N 
ATOM     16  H64 PHE d   1      88.766  14.111  35.029  0.00  0.00     0.163 HD
BRANCH  15  17
ATOM     17  CA  PHE d   1      88.303  13.884  37.104  0.00  0.00     0.093 C 
ATOM     18  H65 PHE d   1      88.543  14.511  37.976  0.00  0.00     0.088 H 
BRANCH  17  19
ATOM     19  C   PHE d   1      88.798  12.478  37.406  0.00  0.00     0.241 C 
ATOM     20  O   PHE d   1      88.584  11.978  38.509  0.00  0.00    -0.271 OA
ATOM     21  N   PHE d   1      89.421  11.823  36.430  0.00  0.00    -0.346 N 
ATOM     22  H73 PHE d   1      89.573  12.281  35.554  0.00  0.00     0.163 HD
BRANCH  21  23
ATOM     23  CA  PHE d   1      89.889  10.450  36.608  0.00  0.00     0.093 C 
ATOM     24  H74 PHE d   1      89.811  10.189  37.674  0.00  0.00     0.088 H 
BRANCH  23  25
ATOM     25  C   PHE d   1      91.341  10.325  36.179  0.00  0.00     0.241 C 
ATOM     26  O   PHE d   1      91.772  10.985  35.236  0.00  0.00    -0.271 OA
ATOM     27  N   VAL d   1      92.068   9.431  36.845  0.00  0.00    -0.344 N 
ATOM     28  H82 VAL d   1      91.606   8.822  37.489  0.00  0.00     0.163 HD
BRANCH  27  29
ATOM     29  CA  VAL d   1      93.515   9.303  36.673  0.00  0.00     0.099 C 
ATOM     30  H83 VAL d   1      93.790   9.753  35.708  0.00  0.00     0.090 H 
BRANCH  29  31
ATOM     31  C   VAL d   1      93.924   7.828  36.656  0.00  0.00     0.197 C 
ATOM     32  O   VAL d   1      94.554   7.356  35.707  0.00  0.00    -0.646 OA
ATOM     33  OXT VAL d   1      93.633   7.079  37.591  0.00  0.00    -0.646 OA
ENDBRANCH  29  31
BRANCH  29  34
ATOM     34  CB  VAL d   1      94.271  10.054  37.796  0.00  0.00    -0.032 C 
ATOM     35  H84 VAL d   1      94.103  11.132  37.652  0.00  0.00     0.042 H 
BRANCH  34  36
ATOM     36  CG1 VAL d   1      93.725   9.677  39.170  0.00  0.00    -0.071 C 
ATOM     37  H85 VAL d   1      94.279  10.224  39.947  0.00  0.00     0.028 H 
ATOM     38  H86 VAL d   1      93.844   8.595  39.328  0.00  0.00     0.028 H 
ATOM     39  H87 VAL d   1      92.659   9.941  39.226  0.00  0.00     0.028 H 
ENDBRANCH  34  36
BRANCH  34  40
ATOM     40  CG2 VAL d   1      95.773   9.801  37.709  0.00  0.00    -0.071 C 
ATOM     41  H88 VAL d   1      96.135  10.082  36.709  0.00  0.00     0.028 H 
ATOM     42  H89 VAL d   1      95.976   8.735  37.886  0.00  0.00     0.028 H 
ATOM     43  H90 VAL d   1      96.291  10.404  38.469  0.00  0.00     0.028 H 
ENDBRANCH  34  40
ENDBRANCH  29  34
ENDBRANCH  27  29
ENDBRANCH  23  25
BRANCH  23  44
ATOM     44  CB  PHE d   1      89.028   9.472  35.797  0.00  0.00    -0.014 C 
ATOM     45  H75 PHE d   1      89.449   8.463  35.914  0.00  0.00     0.043 H 
ATOM     46  H76 PHE d   1      89.074   9.768  34.739  0.00  0.00     0.043 H 
BRANCH  44  47
ATOM     47  CG  PHE d   1      87.578   9.432  36.215  0.00  0.00    -0.056 A 
ATOM     48  CD1 PHE d   1      87.223   9.320  37.555  0.00  0.00    -0.077 A 
ATOM     49  CE1 PHE d   1      85.891   9.273  37.938  0.00  0.00    -0.082 A 
ATOM     50  H77 PHE d   1      87.998   9.269  38.311  0.00  0.00     0.084 H 
ATOM     51  CZ  PHE d   1      84.896   9.321  36.977  0.00  0.00    -0.083 A 
ATOM     52  H79 PHE d   1      85.630   9.199  38.987  0.00  0.00     0.083 H 
ATOM     53  CE2 PHE d   1      85.234   9.415  35.636  0.00  0.00    -0.082 A 
ATOM     54  H81 PHE d   1      83.854   9.285  37.273  0.00  0.00     0.083 H 
ATOM     55  CD2 PHE d   1      86.567   9.467  35.260  0.00  0.00    -0.077 A 
ATOM     56  H80 PHE d   1      84.456   9.448  34.882  0.00  0.00     0.083 H 
ATOM     57  H78 PHE d   1      86.825   9.536  34.209  0.00  0.00     0.084 H 
ENDBRANCH  44  47
ENDBRANCH  23  44
ENDBRANCH  21  23
ENDBRANCH  17  19
BRANCH  17  58
ATOM     58  CB  PHE d   1      86.782  13.866  36.929  0.00  0.00    -0.014 C 
ATOM     59  H66 PHE d   1      86.330  13.464  37.848  0.00  0.00     0.043 H 
ATOM     60  H67 PHE d   1      86.537  13.209  36.082  0.00  0.00     0.043 H 
BRANCH  58  61
ATOM     61  CG  PHE d   1      86.196  15.218  36.665  0.00  0.00    -0.056 A 
ATOM     62  CD1 PHE d   1      85.899  16.070  37.708  0.00  0.00    -0.077 A 
ATOM     63  CE1 PHE d   1      85.369  17.324  37.469  0.00  0.00    -0.082 A 
ATOM     64  H68 PHE d   1      86.084  15.752  38.728  0.00  0.00     0.084 H 
ATOM     65  CZ  PHE d   1      85.154  17.748  36.169  0.00  0.00    -0.083 A 
ATOM     66  H70 PHE d   1      85.122  17.975  38.300  0.00  0.00     0.083 H 
ATOM     67  CE2 PHE d   1      85.487  16.918  35.115  0.00  0.00    -0.082 A 
ATOM     68  H72 PHE d   1      84.727  18.726  35.978  0.00  0.00     0.083 H 
ATOM     69  CD2 PHE d   1      85.998  15.659  35.367  0.00  0.00    -0.077 A 
ATOM     70  H71 PHE d   1      85.348  17.254  34.094  0.00  0.00     0.083 H 
ATOM     71  H69 PHE d   1      86.247  15.008  34.537  0.00  0.00     0.084 H 
ENDBRANCH  58  61
ENDBRANCH  17  58
ENDBRANCH  15  17
ENDBRANCH  11  13
BRANCH  11  72
ATOM     72  CB  SER d   1      89.385  17.622  34.628  0.00  0.00     0.044 C 
ATOM     73  H61 SER d   1      89.714  18.286  35.441  0.00  0.00     0.077 H 
ATOM     74  H62 SER d   1      88.305  17.434  34.722  0.00  0.00     0.077 H 
BRANCH  72  75
ATOM     75  OG  SER d   1      89.634  18.257  33.387  0.00  0.00    -0.398 OA
ATOM     76  H63 SER d   1      89.156  19.078  33.351  0.00  0.00     0.209 HD
ENDBRANCH  72  75
ENDBRANCH  11  72
ENDBRANCH   9  11
ENDBRANCH   5   7
BRANCH   5  77
ATOM     77  CB  ARG d   1      91.136  13.456  31.099  0.00  0.00    -0.036 C 
ATOM     78  H48 ARG d   1      92.121  13.290  31.559  0.00  0.00     0.036 H 
ATOM     79  H49 ARG d   1      91.120  14.442  30.612  0.00  0.00     0.036 H 
BRANCH  77  80
ATOM     80  CG  ARG d   1      90.915  12.393  30.039  0.00  0.00    -0.048 C 
ATOM     81  H50 ARG d   1      89.859  12.411  29.732  0.00  0.00     0.035 H 
ATOM     82  H51 ARG d   1      91.156  11.409  30.466  0.00  0.00     0.035 H 
BRANCH  80  83
ATOM     83  CD  ARG d   1      91.784  12.624  28.819  0.00  0.00     0.009 C 
ATOM     84  H52 ARG d   1      91.680  11.764  28.141  0.00  0.00     0.064 H 
ATOM     85  H53 ARG d   1      92.832  12.712  29.141  0.00  0.00     0.064 H 
BRANCH  83  86
ATOM     86  NE  ARG d   1      91.407  13.839  28.102  0.00  0.00    -0.227 N 
ATOM     87  CZ  ARG d   1      91.819  14.141  26.874  0.00  0.00     0.665 C 
ATOM     88  NH1 ARG d   1      92.620  13.314  26.207  0.00  0.00    -0.235 N 
ATOM     89  NH2 ARG d   1      91.431  15.273  26.311  0.00  0.00    -0.235 N 
ATOM     90  H55 ARG d   1      92.934  13.556  25.256  0.00  0.00     0.174 HD
ATOM     91  H56 ARG d   1      92.926  12.432  26.641  0.00  0.00     0.174 HD
ATOM     92  H57 ARG d   1      90.811  15.917  26.823  0.00  0.00     0.174 HD
ATOM     93  H58 ARG d   1      91.749  15.511  25.361  0.00  0.00     0.174 HD
ATOM     94  H54 ARG d   1      90.782  14.505  28.578  0.00  0.00     0.177 HD
ENDBRANCH  83  86
ENDBRANCH  80  83
ENDBRANCH  77  80
ENDBRANCH   5  77
ENDBRANCH   3   5
BRANCH   1  95
ATOM     95  CA  ILE d   1      86.334  14.063  31.683  0.00  0.00     0.092 C 
ATOM     96  H36 ILE d   1      85.688  14.370  32.519  0.00  0.00     0.088 H 
BRANCH  95  97
ATOM     97  N   ILE d   1      86.536  15.246  30.833  0.00  0.00    -0.346 N 
ATOM     98  C   ASP d   1      86.906  16.429  31.322  0.00  0.00     0.241 C 
ATOM     99  O   ASP d   1      87.189  16.616  32.500  0.00  0.00    -0.271 OA
ATOM    100  H35 ILE d   1      86.390  15.159  29.848  0.00  0.00     0.163 HD
BRANCH  98 101
ATOM    101  CA  ASP d   1      87.021  17.567  30.326  0.00  0.00     0.098 C 
ATOM    102  H32 ASP d   1      86.458  17.322  29.414  0.00  0.00     0.088 H 
BRANCH 101 103
ATOM    103  N   ASP d   1      86.475  18.769  30.930  0.00  0.00    -0.345 N 
ATOM    104  C   HIS d   1      85.210  19.147  30.776  0.00  0.00     0.241 C 
ATOM    105  O   HIS d   1      84.388  18.531  30.093  0.00  0.00    -0.271 OA
ATOM    106  H31 ASP d   1      87.079  19.339  31.488  0.00  0.00     0.163 HD
BRANCH 104 107
ATOM    107  CA  HIS d   1      84.817  20.406  31.528  0.00  0.00     0.094 C 
ATOM    108  H25 HIS d   1      85.626  21.143  31.420  0.00  0.00     0.088 H 
BRANCH 107 109
ATOM    109  N   HIS d   1      83.601  20.980  30.971  0.00  0.00    -0.346 N 
ATOM    110  C   GLN d   1      83.610  21.650  29.822  0.00  0.00     0.241 C 
ATOM    111  O   GLN d   1      84.635  21.859  29.180  0.00  0.00    -0.271 OA
ATOM    112  H24 HIS d   1      82.738  20.868  31.464  0.00  0.00     0.163 HD
BRANCH 110 113
ATOM    113  CA  GLN d   1      82.266  22.178  29.326  0.00  0.00     0.090 C 
ATOM    114  H17 GLN d   1      81.493  21.948  30.074  0.00  0.00     0.087 H 
BRANCH 113 115
ATOM    115  N   GLN d   1      82.358  23.622  29.162  0.00  0.00    -0.346 N 
ATOM    116  C   LYS d   1      82.267  24.469  30.184  0.00  0.00     0.248 C 
ATOM    117  O   LYS d   1      82.042  24.114  31.347  0.00  0.00    -0.271 OA
ATOM    118  H16 GLN d   1      82.495  23.992  28.243  0.00  0.00     0.163 HD
BRANCH 116 119
ATOM    119  CA  LYS d   1      82.478  25.942  29.836  0.00  0.00     0.176 C 
ATOM    120  H4  LYS d   1      82.430  26.049  28.742  0.00  0.00     0.099 H 
BRANCH 119 121
ATOM    121  N   LYS d   1      81.413  26.798  30.432  0.00  0.00    -0.067 N 
ATOM    122  H1  LYS d   1      81.579  27.761  30.186  0.00  0.00     0.275 HD
ATOM    123  H2  LYS d   1      81.426  26.701  31.435  0.00  0.00     0.275 HD
ATOM    124  H3  LYS d   1      80.514  26.511  30.078  0.00  0.00     0.275 HD
ENDBRANCH 119 121
BRANCH 119 125
ATOM    125  CB  LYS d   1      83.868  26.390  30.306  0.00  0.00    -0.030 C 
ATOM    126  H5  LYS d   1      84.531  25.513  30.296  0.00  0.00     0.036 H 
ATOM    127  H6  LYS d   1      83.775  26.768  31.335  0.00  0.00     0.036 H 
BRANCH 125 128
ATOM    128  CG  LYS d   1      84.512  27.480  29.457  0.00  0.00    -0.061 C 
ATOM    129  H7  LYS d   1      85.386  27.875  29.995  0.00  0.00     0.033 H 
ATOM    130  H8  LYS d   1      83.780  28.287  29.305  0.00  0.00     0.033 H 
BRANCH 128 131
ATOM    131  CD  LYS d   1      84.967  26.970  28.093  0.00  0.00    -0.043 C 
ATOM    132  H9  LYS d   1      85.128  27.833  27.430  0.00  0.00     0.035 H 
ATOM    133  H10 LYS d   1      84.177  26.328  27.675  0.00  0.00     0.035 H 
BRANCH 131 134
ATOM    134  CE  LYS d   1      86.259  26.166  28.170  0.00  0.00     0.080 C 
ATOM    135  H11 LYS d   1      86.370  25.586  27.242  0.00  0.00     0.075 H 
ATOM    136  H12 LYS d   1      86.196  25.479  29.026  0.00  0.00     0.075 H 
BRANCH 134 137
ATOM    137  NZ  LYS d   1      87.460  27.031  28.339  0.00  0.00    -0.079 N 
ATOM    138  H13 LYS d   1      88.286  26.454  28.384  0.00  0.00     0.274 HD
ATOM    139  H14 LYS d   1      87.374  27.562  29.191  0.00  0.00     0.274 HD
ATOM    140  H15 LYS d   1      87.533  27.661  27.556  0.00  0.00     0.274 HD
ENDBRANCH 134 137
ENDBRANCH 131 134
ENDBRANCH 128 131
ENDBRANCH 125 128
ENDBRANCH 119 125
ENDBRANCH 116 119
ENDBRANCH 113 115
BRANCH 113 141
ATOM    141  CB  GLN d   1      81.874  21.518  27.989  0.00  0.00    -0.030 C 
ATOM    142  H18 GLN d   1      82.553  21.897  27.211  0.00  0.00     0.037 H 
ATOM    143  H19 GLN d   1      80.842  21.816  27.752  0.00  0.00     0.037 H 
BRANCH 141 144
ATOM    144  CG  GLN d   1      81.940  19.995  27.971  0.00  0.00     0.011 C 
ATOM    145  H20 GLN d   1      82.941  19.684  28.304  0.00  0.00     0.047 H 
ATOM    146  H21 GLN d   1      81.773  19.649  26.940  0.00  0.00     0.047 H 
BRANCH 144 147
ATOM    147  CD  GLN d   1      80.905  19.343  28.874  0.00  0.00     0.215 C 
ATOM    148  OE1 GLN d   1      79.703  19.474  28.646  0.00  0.00    -0.274 OA
ATOM    149  NE2 GLN d   1      81.370  18.621  29.892  0.00  0.00    -0.370 N 
ATOM    150  H22 GLN d   1      80.733  18.170  30.517  0.00  0.00     0.159 HD
ATOM    151  H23 GLN d   1      82.356  18.530  30.031  0.00  0.00     0.159 HD
ENDBRANCH 144 147
ENDBRANCH 141 144
ENDBRANCH 113 141
ENDBRANCH 110 113
ENDBRANCH 107 109
BRANCH 107 152
ATOM    152  CB  HIS d   1      84.646  20.091  33.017  0.00  0.00     0.004 C 
ATOM    153  H26 HIS d   1      85.355  19.295  33.287  0.00  0.00     0.046 H 
ATOM    154  H27 HIS d   1      83.618  19.737  33.181  0.00  0.00     0.046 H 
BRANCH 152 155
ATOM    155  CG  HIS d   1      84.890  21.265  33.912  0.00  0.00     0.053 A 
ATOM    156  ND1 HIS d   1      86.049  21.412  34.645  0.00  0.00    -0.247 NA
ATOM    157  CE1 HIS d   1      85.996  22.543  35.323  0.00  0.00     0.064 A 
ATOM    158  NE2 HIS d   1      84.850  23.140  35.049  0.00  0.00    -0.359 N 
ATOM    159  H29 HIS d   1      86.766  22.920  35.994  0.00  0.00     0.143 H 
ATOM    160  CD2 HIS d   1      84.141  22.363  34.166  0.00  0.00     0.002 A 
ATOM    161  H30 HIS d   1      84.538  24.043  35.435  0.00  0.00     0.166 HD
ATOM    162  H28 HIS d   1      83.161  22.588  33.749  0.00  0.00     0.114 H 
ENDBRANCH 152 155
ENDBRANCH 107 152
ENDBRANCH 104 107
ENDBRANCH 101 103
BRANCH 101 163
ATOM    163  CB  ASP d   1      88.494  17.786  29.975  0.00  0.00     0.043 C 
ATOM    164  H33 ASP d   1      89.085  17.750  30.902  0.00  0.00     0.052 H 
ATOM    165  H34 ASP d   1      88.600  18.777  29.510  0.00  0.00     0.052 H 
BRANCH 163 166
ATOM    166  CG  ASP d   1      89.032  16.745  29.020  0.00  0.00     0.175 C 
ATOM    167  OD1 ASP d   1      89.254  15.589  29.434  0.00  0.00    -0.648 OA
ATOM    168  OD2 ASP d   1      89.273  17.102  27.853  0.00  0.00    -0.648 OA
ENDBRANCH 163 166
ENDBRANCH 101 163
ENDBRANCH  98 101
ENDBRANCH  95  97
BRANCH  95 169
ATOM    169  CB  ILE d   1      85.592  12.937  30.900  0.00  0.00    -0.030 C 
ATOM    170  H37 ILE d   1      84.727  13.393  30.397  0.00  0.00     0.043 H 
BRANCH 169 171
ATOM    171  CG1 ILE d   1      85.069  11.838  31.837  0.00  0.00    -0.063 C 
ATOM    172  H38 ILE d   1      85.924  11.418  32.387  0.00  0.00     0.033 H 
ATOM    173  H39 ILE d   1      84.607  11.052  31.222  0.00  0.00     0.033 H 
BRANCH 171 174
ATOM    174  CD1 ILE d   1      84.044  12.314  32.846  0.00  0.00    -0.076 C 
ATOM    175  H43 ILE d   1      83.725  11.468  33.472  0.00  0.00     0.027 H 
ATOM    176  H44 ILE d   1      83.172  12.727  32.317  0.00  0.00     0.027 H 
ATOM    177  H45 ILE d   1      84.490  13.093  33.482  0.00  0.00     0.027 H 
ENDBRANCH 171 174
ENDBRANCH 169 171
BRANCH 169 178
ATOM    178  CG2 ILE d   1      86.492  12.326  29.832  0.00  0.00    -0.071 C 
ATOM    179  H40 ILE d   1      86.862  13.120  29.166  0.00  0.00     0.028 H 
ATOM    180  H41 ILE d   1      85.919  11.593  29.245  0.00  0.00     0.028 H 
ATOM    181  H42 ILE d   1      87.345  11.825  30.314  0.00  0.00     0.028 H 
ENDBRANCH 169 178
ENDBRANCH  95 169
ENDBRANCH   1  95
TORSDOF 49
