REMARK WARNING: 32 MAX_TORS EXCEEDED!!!
REMARK  56 active torsions:
REMARK  status: ('A' for Active; 'I' for Inactive)
REMARK    1  A    between atoms: N_1  and  CA_2 
REMARK    2  A    between atoms: CA_2  and  C_3 
REMARK       I    between atoms: C_3  and  N_5 
REMARK    3  A    between atoms: N_5  and  CA_6 
REMARK    4  A    between atoms: CA_6  and  C_7 
REMARK    5  A    between atoms: CA_6  and  CB_9 
REMARK       I    between atoms: C_7  and  N_11 
REMARK    6  A    between atoms: CB_9  and  OG_10 
REMARK    7  A    between atoms: N_11  and  CA_12 
REMARK    8  A    between atoms: CA_12  and  C_13 
REMARK    9  A    between atoms: CA_12  and  CB_15 
REMARK       I    between atoms: C_13  and  N_19 
REMARK   10  A    between atoms: CB_15  and  CG_16 
REMARK   11  A    between atoms: N_19  and  CA_20 
REMARK   12  A    between atoms: CA_20  and  C_21 
REMARK   13  A    between atoms: CA_20  and  CB_23 
REMARK       I    between atoms: C_21  and  N_27 
REMARK   14  A    between atoms: CB_23  and  CG1_24 
REMARK   15  A    between atoms: CB_23  and  CG2_25 
REMARK   16  A    between atoms: CG1_24  and  CD1_26 
REMARK   17  A    between atoms: N_27  and  CA_28 
REMARK   18  A    between atoms: CA_28  and  C_29 
REMARK   19  A    between atoms: CA_28  and  CB_31 
REMARK       I    between atoms: C_29  and  N_34 
REMARK   20  A    between atoms: CB_31  and  OG1_32 
REMARK   21  A    between atoms: CB_31  and  CG2_33 
REMARK   22  A    between atoms: N_34  and  CA_35 
REMARK   23  A    between atoms: CA_35  and  C_36 
REMARK   24  A    between atoms: CA_35  and  CB_38 
REMARK       I    between atoms: C_36  and  N_45 
REMARK   25  A    between atoms: CB_38  and  CG_39 
REMARK   26  A    between atoms: CG_39  and  CD_40 
REMARK   27  A    between atoms: CD_40  and  NE_41 
REMARK       I    between atoms: NE_41  and  CZ_42 
REMARK       I    between atoms: CZ_42  and  NH1_43 
REMARK   28  A    between atoms: N_45  and  CA_46 
REMARK   29  A    between atoms: CA_46  and  C_47 
REMARK   30  A    between atoms: CA_46  and  CB_49 
REMARK       I    between atoms: C_47  and  N_56 
REMARK   31  A    between atoms: CB_49  and  CG_50 
REMARK   32  A    between atoms: N_56  and  CA_57 
REMARK   33  A    between atoms: CA_57  and  C_58 
REMARK   34  A    between atoms: CA_57  and  CB_60 
REMARK       I    between atoms: C_58  and  N_64 
REMARK   35  A    between atoms: CB_60  and  CG_61 
REMARK   36  A    between atoms: CG_61  and  CD1_62 
REMARK   37  A    between atoms: CG_61  and  CD2_63 
REMARK   38  A    between atoms: N_64  and  CA_65 
REMARK   39  A    between atoms: CA_65  and  C_66 
REMARK   40  A    between atoms: CA_65  and  CB_68 
REMARK       I    between atoms: C_66  and  N_71 
REMARK   41  A    between atoms: CB_68  and  CG1_69 
REMARK   42  A    between atoms: CB_68  and  CG2_70 
REMARK   43  A    between atoms: N_71  and  CA_72 
REMARK   44  A    between atoms: CA_72  and  C_73 
REMARK   45  A    between atoms: CA_72  and  CB_75 
REMARK       I    between atoms: C_73  and  N_80 
REMARK   46  A    between atoms: CB_75  and  CG_76 
REMARK   47  A    between atoms: CG_76  and  CD_77 
REMARK   48  A    between atoms: CD_77  and  CE_78 
REMARK   49  A    between atoms: CE_78  and  NZ_79 
REMARK   50  A    between atoms: N_80  and  CA_81 
REMARK   51  A    between atoms: CA_81  and  C_82 
REMARK   52  A    between atoms: CA_81  and  CB_84 
REMARK   53  A    between atoms: CB_84  and  CG_85 
REMARK   54  A    between atoms: CG_85  and  CD_86 
REMARK   55  A    between atoms: CD_86  and  CE_87 
REMARK   56  A    between atoms: CE_87  and  NZ_88 
ROOT
ATOM      1  CA  PHE d   1      -8.107 -27.663   9.847  0.00  0.00     0.093 C 
ATOM      2  H47 PHE d   1      -7.122 -28.142   9.948  0.00  0.00     0.088 H 
ENDROOT
BRANCH   1   3
ATOM      3  N   PHE d   1      -8.295 -27.332   8.420  0.00  0.00    -0.346 N 
ATOM      4  C   ARG d   1      -7.611 -27.964   7.467  0.00  0.00     0.241 C 
ATOM      5  O   ARG d   1      -6.776 -28.821   7.727  0.00  0.00    -0.271 OA
ATOM      6  H46 PHE d   1      -8.948 -26.620   8.164  0.00  0.00     0.163 HD
BRANCH   4   7
ATOM      7  CA  ARG d   1      -7.878 -27.599   6.004  0.00  0.00     0.089 C 
ATOM      8  H34 ARG d   1      -7.887 -28.542   5.438  0.00  0.00     0.087 H 
BRANCH   7   9
ATOM      9  N   ARG d   1      -9.159 -26.950   5.751  0.00  0.00    -0.346 N 
ATOM     10  C   THR d   1     -10.293 -27.336   6.323  0.00  0.00     0.243 C 
ATOM     11  O   THR d   1     -10.355 -28.259   7.137  0.00  0.00    -0.271 OA
ATOM     12  H33 ARG d   1      -9.184 -26.177   5.117  0.00  0.00     0.163 HD
BRANCH  10  13
ATOM     13  CA  THR d   1     -11.513 -26.439   6.059  0.00  0.00     0.113 C 
ATOM     14  H27 THR d   1     -12.340 -26.786   6.697  0.00  0.00     0.091 H 
BRANCH  13  15
ATOM     15  N   THR d   1     -11.237 -25.042   6.396  0.00  0.00    -0.344 N 
ATOM     16  C   ILE d   1     -10.884 -24.667   7.621  0.00  0.00     0.241 C 
ATOM     17  O   ILE d   1     -10.690 -25.471   8.520  0.00  0.00    -0.271 OA
ATOM     18  H26 THR d   1     -11.317 -24.347   5.681  0.00  0.00     0.163 HD
BRANCH  16  19
ATOM     19  CA  ILE d   1     -10.744 -23.156   7.893  0.00  0.00     0.092 C 
ATOM     20  H16 ILE d   1      -9.762 -22.990   8.361  0.00  0.00     0.088 H 
BRANCH  19  21
ATOM     21  N   ILE d   1     -10.801 -22.327   6.685  0.00  0.00    -0.346 N 
ATOM     22  C   ASP d   1      -9.711 -21.900   6.062  0.00  0.00     0.241 C 
ATOM     23  O   ASP d   1      -8.589 -22.295   6.343  0.00  0.00    -0.271 OA
ATOM     24  H15 ILE d   1     -11.696 -22.074   6.317  0.00  0.00     0.163 HD
BRANCH  22  25
ATOM     25  CA  ASP d   1      -9.934 -20.923   4.905  0.00  0.00     0.098 C 
ATOM     26  H12 ASP d   1     -11.011 -20.715   4.822  0.00  0.00     0.088 H 
BRANCH  25  27
ATOM     27  N   ASP d   1      -9.235 -19.650   5.174  0.00  0.00    -0.345 N 
ATOM     28  C   SER d   1      -9.527 -18.511   4.539  0.00  0.00     0.243 C 
ATOM     29  O   SER d   1     -10.362 -18.447   3.637  0.00  0.00    -0.271 OA
ATOM     30  H11 ASP d   1      -8.510 -19.640   5.863  0.00  0.00     0.163 HD
BRANCH  28  31
ATOM     31  CA  SER d   1      -8.772 -17.246   5.002  0.00  0.00     0.109 C 
ATOM     32  H7  SER d   1      -7.788 -17.549   5.389  0.00  0.00     0.090 H 
BRANCH  31  33
ATOM     33  N   SER d   1      -8.567 -16.279   3.911  0.00  0.00    -0.344 N 
ATOM     34  C   GLY d   1      -7.380 -16.023   3.351  0.00  0.00     0.243 C 
ATOM     35  O   GLY d   1      -6.296 -16.240   3.903  0.00  0.00    -0.272 OA
ATOM     36  H6  SER d   1      -9.365 -15.783   3.568  0.00  0.00     0.163 HD
BRANCH  34  37
ATOM     37  CA  GLY d   1      -7.421 -15.350   1.990  0.00  0.00     0.152 C 
ATOM     38  H4  GLY d   1      -8.457 -15.365   1.620  0.00  0.00     0.090 H 
ATOM     39  H5  GLY d   1      -7.087 -14.308   2.102  0.00  0.00     0.090 H 
BRANCH  37  40
ATOM     40  N   GLY d   1      -6.542 -16.031   0.985  0.00  0.00    -0.071 N 
ATOM     41  H1  GLY d   1      -6.604 -15.548   0.102  0.00  0.00     0.274 HD
ATOM     42  H2  GLY d   1      -6.843 -16.986   0.868  0.00  0.00     0.274 HD
ATOM     43  H3  GLY d   1      -5.588 -16.017   1.309  0.00  0.00     0.274 HD
ENDBRANCH  37  40
ENDBRANCH  34  37
ENDBRANCH  31  33
BRANCH  31  44
ATOM     44  CB  SER d   1      -9.569 -16.578   6.123  0.00  0.00     0.044 C 
ATOM     45  H8  SER d   1      -9.575 -17.243   6.999  0.00  0.00     0.077 H 
ATOM     46  H9  SER d   1     -10.601 -16.417   5.777  0.00  0.00     0.077 H 
BRANCH  44  47
ATOM     47  OG  SER d   1      -9.010 -15.322   6.503  0.00  0.00    -0.398 OA
ATOM     48  H10 SER d   1      -9.006 -14.739   5.753  0.00  0.00     0.209 HD
ENDBRANCH  44  47
ENDBRANCH  31  44
ENDBRANCH  28  31
ENDBRANCH  25  27
BRANCH  25  49
ATOM     49  CB  ASP d   1      -9.462 -21.563   3.590  0.00  0.00     0.043 C 
ATOM     50  H13 ASP d   1      -8.376 -21.729   3.651  0.00  0.00     0.052 H 
ATOM     51  H14 ASP d   1      -9.681 -20.869   2.765  0.00  0.00     0.052 H 
BRANCH  49  52
ATOM     52  CG  ASP d   1     -10.148 -22.909   3.294  0.00  0.00     0.175 C 
ATOM     53  OD1 ASP d   1     -11.000 -23.357   4.089  0.00  0.00    -0.648 OA
ATOM     54  OD2 ASP d   1      -9.824 -23.532   2.259  0.00  0.00    -0.648 OA
ENDBRANCH  49  52
ENDBRANCH  25  49
ENDBRANCH  22  25
ENDBRANCH  19  21
BRANCH  19  55
ATOM     55  CB  ILE d   1     -11.839 -22.721   8.890  0.00  0.00    -0.030 C 
ATOM     56  H17 ILE d   1     -11.835 -21.622   8.945  0.00  0.00     0.043 H 
BRANCH  55  57
ATOM     57  CG1 ILE d   1     -11.547 -23.266  10.276  0.00  0.00    -0.063 C 
ATOM     58  H18 ILE d   1     -10.456 -23.344  10.394  0.00  0.00     0.033 H 
ATOM     59  H19 ILE d   1     -11.996 -24.267  10.355  0.00  0.00     0.033 H 
BRANCH  57  60
ATOM     60  CD1 ILE d   1     -12.087 -22.412  11.402  0.00  0.00    -0.076 C 
ATOM     61  H23 ILE d   1     -11.834 -22.875  12.367  0.00  0.00     0.027 H 
ATOM     62  H24 ILE d   1     -13.180 -22.332  11.310  0.00  0.00     0.027 H 
ATOM     63  H25 ILE d   1     -11.640 -21.409  11.348  0.00  0.00     0.027 H 
ENDBRANCH  57  60
ENDBRANCH  55  57
BRANCH  55  64
ATOM     64  CG2 ILE d   1     -13.220 -23.168   8.416  0.00  0.00    -0.071 C 
ATOM     65  H20 ILE d   1     -13.412 -22.763   7.411  0.00  0.00     0.028 H 
ATOM     66  H21 ILE d   1     -13.985 -22.796   9.113  0.00  0.00     0.028 H 
ATOM     67  H22 ILE d   1     -13.258 -24.267   8.382  0.00  0.00     0.028 H 
ENDBRANCH  55  64
ENDBRANCH  19  55
ENDBRANCH  16  19
ENDBRANCH  13  15
BRANCH  13  68
ATOM     68  CB  THR d   1     -11.946 -26.572   4.588  0.00  0.00     0.060 C 
ATOM     69  H28 THR d   1     -11.993 -27.637   4.317  0.00  0.00     0.086 H 
BRANCH  68  70
ATOM     70  OG1 THR d   1     -10.995 -25.904   3.743  0.00  0.00    -0.393 OA
ATOM     71  H29 THR d   1     -10.955 -24.985   3.979  0.00  0.00     0.210 HD
ENDBRANCH  68  70
BRANCH  68  72
ATOM     72  CG2 THR d   1     -13.312 -25.941   4.394  0.00  0.00    -0.050 C 
ATOM     73  H30 THR d   1     -13.615 -26.040   3.341  0.00  0.00     0.031 H 
ATOM     74  H31 THR d   1     -13.265 -24.876   4.664  0.00  0.00     0.031 H 
ATOM     75  H32 THR d   1     -14.046 -26.450   5.036  0.00  0.00     0.031 H 
ENDBRANCH  68  72
ENDBRANCH  13  68
ENDBRANCH  10  13
ENDBRANCH   7   9
BRANCH   7  76
ATOM     76  CB  ARG d   1      -6.722 -26.744   5.465  0.00  0.00    -0.036 C 
ATOM     77  H35 ARG d   1      -7.041 -26.313   4.505  0.00  0.00     0.036 H 
ATOM     78  H36 ARG d   1      -5.860 -27.407   5.301  0.00  0.00     0.036 H 
BRANCH  76  79
ATOM     79  CG  ARG d   1      -6.266 -25.600   6.362  0.00  0.00    -0.048 C 
ATOM     80  H37 ARG d   1      -6.061 -25.993   7.369  0.00  0.00     0.035 H 
ATOM     81  H38 ARG d   1      -7.065 -24.846   6.418  0.00  0.00     0.035 H 
BRANCH  79  82
ATOM     82  CD  ARG d   1      -5.001 -24.945   5.816  0.00  0.00     0.009 C 
ATOM     83  H39 ARG d   1      -5.119 -24.791   4.733  0.00  0.00     0.064 H 
ATOM     84  H40 ARG d   1      -4.146 -25.612   6.000  0.00  0.00     0.064 H 
BRANCH  82  85
ATOM     85  NE  ARG d   1      -4.740 -23.654   6.453  0.00  0.00    -0.227 N 
ATOM     86  CZ  ARG d   1      -5.327 -22.510   6.095  0.00  0.00     0.665 C 
ATOM     87  NH1 ARG d   1      -6.222 -22.482   5.110  0.00  0.00    -0.235 N 
ATOM     88  NH2 ARG d   1      -5.034 -21.384   6.735  0.00  0.00    -0.235 N 
ATOM     89  H42 ARG d   1      -6.667 -21.592   4.844  0.00  0.00     0.174 HD
ATOM     90  H43 ARG d   1      -6.469 -23.350   4.614  0.00  0.00     0.174 HD
ATOM     91  H44 ARG d   1      -4.343 -21.391   7.499  0.00  0.00     0.174 HD
ATOM     92  H45 ARG d   1      -5.497 -20.504   6.467  0.00  0.00     0.174 HD
ATOM     93  H41 ARG d   1      -4.060 -23.626   7.226  0.00  0.00     0.177 HD
ENDBRANCH  82  85
ENDBRANCH  79  82
ENDBRANCH  76  79
ENDBRANCH   7  76
ENDBRANCH   4   7
ENDBRANCH   1   3
BRANCH   1  94
ATOM     94  C   PHE d   1      -9.157 -28.629  10.392  0.00  0.00     0.241 C 
ATOM     95  O   PHE d   1      -9.135 -28.982  11.583  0.00  0.00    -0.271 OA
ATOM     96  N   LEU d   1     -10.091 -29.044   9.548  0.00  0.00    -0.346 N 
ATOM     97  H55 LEU d   1     -10.011 -28.818   8.577  0.00  0.00     0.163 HD
BRANCH  96  98
ATOM     98  CA  LEU d   1     -11.244 -29.831  10.014  0.00  0.00     0.089 C 
ATOM     99  H56 LEU d   1     -11.514 -29.452  11.011  0.00  0.00     0.087 H 
BRANCH  98 100
ATOM    100  C   LEU d   1     -10.978 -31.343  10.153  0.00  0.00     0.241 C 
ATOM    101  O   LEU d   1     -10.528 -32.006   9.214  0.00  0.00    -0.271 OA
ATOM    102  N   VAL d   1     -11.363 -31.875  11.307  0.00  0.00    -0.346 N 
ATOM    103  H66 VAL d   1     -11.764 -31.268  11.993  0.00  0.00     0.163 HD
BRANCH 102 104
ATOM    104  CA  VAL d   1     -11.236 -33.292  11.634  0.00  0.00     0.092 C 
ATOM    105  H67 VAL d   1     -10.641 -33.785  10.851  0.00  0.00     0.088 H 
BRANCH 104 106
ATOM    106  C   VAL d   1     -12.627 -33.937  11.667  0.00  0.00     0.241 C 
ATOM    107  O   VAL d   1     -13.552 -33.412  12.290  0.00  0.00    -0.271 OA
ATOM    108  N   LYS d   1     -12.757 -35.085  11.004  0.00  0.00    -0.346 N 
ATOM    109  H75 LYS d   1     -11.948 -35.485  10.574  0.00  0.00     0.163 HD
BRANCH 108 110
ATOM    110  CA  LYS d   1     -14.044 -35.787  10.880  0.00  0.00     0.089 C 
ATOM    111  H76 LYS d   1     -14.821 -35.046  10.641  0.00  0.00     0.087 H 
BRANCH 110 112
ATOM    112  C   LYS d   1     -14.417 -36.470  12.190  0.00  0.00     0.241 C 
ATOM    113  O   LYS d   1     -14.141 -37.647  12.384  0.00  0.00    -0.271 OA
ATOM    114  N   LYS d   1     -15.049 -35.718  13.082  0.00  0.00    -0.345 N 
ATOM    115  H88 LYS d   1     -15.407 -34.829  12.797  0.00  0.00     0.163 HD
BRANCH 114 116
ATOM    116  CA  LYS d   1     -15.240 -36.147  14.471  0.00  0.00     0.096 C 
ATOM    117  H89 LYS d   1     -15.767 -37.112  14.483  0.00  0.00     0.089 H 
BRANCH 116 118
ATOM    118  C   LYS d   1     -16.096 -35.101  15.195  0.00  0.00     0.196 C 
ATOM    119  O   LYS d   1     -17.011 -35.443  15.949  0.00  0.00    -0.646 OA
ATOM    120  OXT LYS d   1     -15.888 -33.895  15.039  0.00  0.00    -0.646 OA
ENDBRANCH 116 118
BRANCH 116 121
ATOM    121  CB  LYS d   1     -13.874 -36.319  15.161  0.00  0.00    -0.037 C 
ATOM    122  H90 LYS d   1     -13.332 -35.365  15.077  0.00  0.00     0.036 H 
ATOM    123  H91 LYS d   1     -13.321 -37.103  14.622  0.00  0.00     0.036 H 
BRANCH 121 124
ATOM    124  CG  LYS d   1     -13.913 -36.706  16.638  0.00  0.00    -0.061 C 
ATOM    125  H92 LYS d   1     -14.039 -37.796  16.719  0.00  0.00     0.033 H 
ATOM    126  H93 LYS d   1     -14.765 -36.202  17.117  0.00  0.00     0.033 H 
BRANCH 124 127
ATOM    127  CD  LYS d   1     -12.627 -36.300  17.357  0.00  0.00    -0.043 C 
ATOM    128  H94 LYS d   1     -12.333 -35.296  17.016  0.00  0.00     0.035 H 
ATOM    129  H95 LYS d   1     -11.836 -37.021  17.101  0.00  0.00     0.035 H 
BRANCH 127 130
ATOM    130  CE  LYS d   1     -12.793 -36.273  18.871  0.00  0.00     0.080 C 
ATOM    131  H96 LYS d   1     -13.780 -35.849  19.110  0.00  0.00     0.075 H 
ATOM    132  H97 LYS d   1     -12.006 -35.636  19.301  0.00  0.00     0.075 H 
BRANCH 130 133
ATOM    133  NZ  LYS d   1     -12.695 -37.629  19.479  0.00  0.00    -0.079 N 
ATOM    134  H98 LYS d   1     -12.811 -37.559  20.478  0.00  0.00     0.274 HD
ATOM    135  H99 LYS d   1     -11.791 -38.025  19.273  0.00  0.00     0.274 HD
ATOM    136 0H10 LYS d   1     -13.416 -38.221  19.098  0.00  0.00     0.274 HD
ENDBRANCH 130 133
ENDBRANCH 127 130
ENDBRANCH 124 127
ENDBRANCH 121 124
ENDBRANCH 116 121
ENDBRANCH 114 116
ENDBRANCH 110 112
BRANCH 110 137
ATOM    137  CB  LYS d   1     -13.986 -36.817   9.741  0.00  0.00    -0.038 C 
ATOM    138  H77 LYS d   1     -14.894 -37.436   9.784  0.00  0.00     0.036 H 
ATOM    139  H78 LYS d   1     -13.101 -37.453   9.891  0.00  0.00     0.036 H 
BRANCH 137 140
ATOM    140  CG  LYS d   1     -13.898 -36.186   8.358  0.00  0.00    -0.061 C 
ATOM    141  H79 LYS d   1     -13.411 -35.204   8.453  0.00  0.00     0.033 H 
ATOM    142  H80 LYS d   1     -14.918 -36.053   7.970  0.00  0.00     0.033 H 
BRANCH 140 143
ATOM    143  CD  LYS d   1     -13.109 -37.022   7.364  0.00  0.00    -0.043 C 
ATOM    144  H81 LYS d   1     -13.710 -37.894   7.066  0.00  0.00     0.035 H 
ATOM    145  H82 LYS d   1     -12.177 -37.364   7.837  0.00  0.00     0.035 H 
BRANCH 143 146
ATOM    146  CE  LYS d   1     -12.772 -36.199   6.130  0.00  0.00     0.080 C 
ATOM    147  H83 LYS d   1     -12.236 -35.292   6.446  0.00  0.00     0.075 H 
ATOM    148  H84 LYS d   1     -13.709 -35.916   5.628  0.00  0.00     0.075 H 
BRANCH 146 149
ATOM    149  NZ  LYS d   1     -11.920 -36.946   5.166  0.00  0.00    -0.079 N 
ATOM    150  H85 LYS d   1     -11.724 -36.362   4.368  0.00  0.00     0.274 HD
ATOM    151  H86 LYS d   1     -12.404 -37.777   4.864  0.00  0.00     0.274 HD
ATOM    152  H87 LYS d   1     -11.055 -37.205   5.613  0.00  0.00     0.274 HD
ENDBRANCH 146 149
ENDBRANCH 143 146
ENDBRANCH 140 143
ENDBRANCH 137 140
ENDBRANCH 110 137
ENDBRANCH 108 110
ENDBRANCH 104 106
BRANCH 104 153
ATOM    153  CB  VAL d   1     -10.497 -33.460  12.991  0.00  0.00    -0.033 C 
ATOM    154  H68 VAL d   1     -10.466 -32.472  13.473  0.00  0.00     0.042 H 
BRANCH 153 155
ATOM    155  CG1 VAL d   1     -11.219 -34.406  13.945  0.00  0.00    -0.071 C 
ATOM    156  H69 VAL d   1     -10.651 -34.484  14.884  0.00  0.00     0.028 H 
ATOM    157  H70 VAL d   1     -11.302 -35.401  13.482  0.00  0.00     0.028 H 
ATOM    158  H71 VAL d   1     -12.225 -34.016  14.157  0.00  0.00     0.028 H 
ENDBRANCH 153 155
BRANCH 153 159
ATOM    159  CG2 VAL d   1      -9.061 -33.909  12.758  0.00  0.00    -0.071 C 
ATOM    160  H72 VAL d   1      -8.566 -33.210  12.068  0.00  0.00     0.028 H 
ATOM    161  H73 VAL d   1      -9.059 -34.919  12.322  0.00  0.00     0.028 H 
ATOM    162  H74 VAL d   1      -8.521 -33.923  13.716  0.00  0.00     0.028 H 
ENDBRANCH 153 159
ENDBRANCH 104 153
ENDBRANCH 102 104
ENDBRANCH  98 100
BRANCH  98 163
ATOM    163  CB  LEU d   1     -12.441 -29.621   9.080  0.00  0.00    -0.035 C 
ATOM    164  H57 LEU d   1     -13.216 -30.348   9.367  0.00  0.00     0.037 H 
ATOM    165  H58 LEU d   1     -12.102 -29.832   8.055  0.00  0.00     0.037 H 
BRANCH 163 166
ATOM    166  CG  LEU d   1     -13.090 -28.235   9.074  0.00  0.00    -0.059 C 
ATOM    167  H59 LEU d   1     -12.339 -27.497   8.755  0.00  0.00     0.038 H 
BRANCH 166 168
ATOM    168  CD1 LEU d   1     -14.238 -28.222   8.080  0.00  0.00    -0.073 C 
ATOM    169  H60 LEU d   1     -14.706 -27.227   8.074  0.00  0.00     0.028 H 
ATOM    170  H61 LEU d   1     -14.984 -28.976   8.371  0.00  0.00     0.028 H 
ATOM    171  H62 LEU d   1     -13.855 -28.453   7.075  0.00  0.00     0.028 H 
ENDBRANCH 166 168
BRANCH 166 172
ATOM    172  CD2 LEU d   1     -13.575 -27.854  10.462  0.00  0.00    -0.073 C 
ATOM    173  H63 LEU d   1     -12.728 -27.870  11.164  0.00  0.00     0.028 H 
ATOM    174  H64 LEU d   1     -14.339 -28.572  10.793  0.00  0.00     0.028 H 
ATOM    175  H65 LEU d   1     -14.009 -26.844  10.434  0.00  0.00     0.028 H 
ENDBRANCH 166 172
ENDBRANCH 163 166
ENDBRANCH  98 163
ENDBRANCH  96  98
ENDBRANCH   1  94
BRANCH   1 176
ATOM    176  CB  PHE d   1      -8.121 -26.392  10.707  0.00  0.00    -0.014 C 
ATOM    177  H48 PHE d   1      -8.048 -26.689  11.764  0.00  0.00     0.043 H 
ATOM    178  H49 PHE d   1      -9.075 -25.871  10.538  0.00  0.00     0.043 H 
BRANCH 176 179
ATOM    179  CG  PHE d   1      -7.000 -25.436  10.406  0.00  0.00    -0.056 A 
ATOM    180  CD1 PHE d   1      -5.744 -25.604  10.999  0.00  0.00    -0.077 A 
ATOM    181  CE1 PHE d   1      -4.710 -24.715  10.737  0.00  0.00    -0.082 A 
ATOM    182  H50 PHE d   1      -5.576 -26.438  11.671  0.00  0.00     0.084 H 
ATOM    183  CZ  PHE d   1      -4.924 -23.638   9.894  0.00  0.00    -0.083 A 
ATOM    184  H52 PHE d   1      -3.737 -24.864  11.192  0.00  0.00     0.083 H 
ATOM    185  CE2 PHE d   1      -6.174 -23.446   9.315  0.00  0.00    -0.082 A 
ATOM    186  H54 PHE d   1      -4.117 -22.944   9.685  0.00  0.00     0.083 H 
ATOM    187  CD2 PHE d   1      -7.204 -24.342   9.567  0.00  0.00    -0.077 A 
ATOM    188  H53 PHE d   1      -6.344 -22.595   8.666  0.00  0.00     0.083 H 
ATOM    189  H51 PHE d   1      -8.174 -24.190   9.108  0.00  0.00     0.084 H 
ENDBRANCH 176 179
ENDBRANCH   1 176
TORSDOF 56
