REMARK  6 active torsions:
REMARK  status: ('A' for Active; 'I' for Inactive)
REMARK       I    between atoms: C2_2  and  N4_3 
REMARK       I    between atoms: C2_2  and  N3_6 
REMARK    1  A    between atoms: N4_3  and  C6_4 
REMARK    2  A    between atoms: C6_4  and  C9_5 
REMARK    3  A    between atoms: N3_6  and  C5_7 
REMARK    4  A    between atoms: C13_10  and  C15_18 
REMARK    5  A    between atoms: C14_13  and  C18_14 
REMARK    6  A    between atoms: C21_22  and  C24_23 
ROOT
ATOM      1  C5  O54 d   1     -46.797   3.394   2.902  0.00  0.00     0.131 A 
ATOM      2  C8  O54 d   1     -47.489   3.168   4.092  0.00  0.00    -0.027 A 
ATOM      3  C11 O54 d   1     -48.734   2.481   4.095  0.00  0.00    -0.009 A 
ATOM      4  C13 O54 d   1     -49.450   2.224   5.279  0.00  0.00    -0.015 A 
ATOM      5  C16 O54 d   1     -50.660   1.537   5.217  0.00  0.00    -0.071 A 
ATOM      6  C17 O54 d   1     -51.173   1.130   3.992  0.00  0.00    -0.075 A 
ATOM      7  C14 O54 d   1     -50.469   1.391   2.801  0.00  0.00    -0.050 A 
ATOM      8  C12 O54 d   1     -49.250   2.082   2.853  0.00  0.00    -0.001 A 
ATOM      9  C10 O54 d   1     -48.505   2.368   1.675  0.00  0.00     0.016 A 
ATOM     10  N7  O54 d   1     -47.318   3.026   1.715  0.00  0.00    -0.242 NA
ATOM     11  H8  O54 d   1     -47.072   3.521   5.028  0.00  0.00     0.090 H 
ATOM     12  H9  O54 d   1     -51.204   1.319   6.129  0.00  0.00     0.084 H 
ATOM     13  H10 O54 d   1     -52.122   0.608   3.953  0.00  0.00     0.084 H 
ATOM     14  H14 O54 d   1     -48.897   2.051   0.716  0.00  0.00     0.116 H 
ENDROOT
BRANCH   1  15
ATOM     15  N3  O54 d   1     -45.627   4.126   2.790  0.00  0.00    -0.293 N 
ATOM     16  C2  O54 d   1     -45.136   4.991   3.689  0.00  0.00     0.321 C 
ATOM     17  O1  O54 d   1     -45.573   5.166   4.837  0.00  0.00    -0.247 OA
ATOM     18  N4  O54 d   1     -44.052   5.652   3.285  0.00  0.00    -0.343 N 
ATOM     19  H1  O54 d   1     -43.677   5.462   2.377  0.00  0.00     0.164 HD
ATOM     20  H7  O54 d   1     -45.094   3.996   1.954  0.00  0.00     0.172 HD
BRANCH  18  21
ATOM     21  C6  O54 d   1     -43.394   6.648   4.131  0.00  0.00    -0.006 C 
ATOM     22  H2  O54 d   1     -42.564   6.178   4.679  0.00  0.00     0.063 H 
ATOM     23  H3  O54 d   1     -44.118   7.062   4.848  0.00  0.00     0.063 H 
BRANCH  21  24
ATOM     24  C9  O54 d   1     -42.865   7.746   3.256  0.00  0.00    -0.061 C 
ATOM     25  H4  O54 d   1     -42.367   8.503   3.879  0.00  0.00     0.029 H 
ATOM     26  H5  O54 d   1     -43.697   8.212   2.708  0.00  0.00     0.029 H 
ATOM     27  H6  O54 d   1     -42.143   7.328   2.539  0.00  0.00     0.029 H 
ENDBRANCH  21  24
ENDBRANCH  18  21
ENDBRANCH   1  15
BRANCH   4  28
ATOM     28  C15 O54 d   1     -48.970   2.630   6.638  0.00  0.00    -0.022 A 
ATOM     29  C20 O54 d   1     -48.369   3.873   6.903  0.00  0.00    -0.055 A 
ATOM     30  C22 O54 d   1     -47.939   4.168   8.186  0.00  0.00     0.003 A 
ATOM     31  H15 O54 d   1     -48.243   4.597   6.106  0.00  0.00     0.087 H 
ATOM     32  N23 O54 d   1     -48.123   3.285   9.192  0.00  0.00    -0.266 NA
ATOM     33  H16 O54 d   1     -47.451   5.115   8.385  0.00  0.00     0.114 H 
ATOM     34  C21 O54 d   1     -48.692   2.090   8.984  0.00  0.00     0.031 A 
ATOM     35  C19 O54 d   1     -49.133   1.745   7.716  0.00  0.00    -0.049 A 
ATOM     36  H20 O54 d   1     -49.608   0.784   7.555  0.00  0.00     0.087 H 
BRANCH  34  37
ATOM     37  C24 O54 d   1     -48.872   1.120  10.130  0.00  0.00    -0.035 C 
ATOM     38  H17 O54 d   1     -49.354   0.202   9.761  0.00  0.00     0.035 H 
ATOM     39  H18 O54 d   1     -49.504   1.580  10.904  0.00  0.00     0.035 H 
ATOM     40  H19 O54 d   1     -47.890   0.872  10.558  0.00  0.00     0.035 H 
ENDBRANCH  34  37
ENDBRANCH   4  28
BRANCH   7  41
ATOM     41  C18 O54 d   1     -51.086   0.918   1.500  0.00  0.00    -0.050 C 
ATOM     42  H11 O54 d   1     -52.035   0.404   1.710  0.00  0.00     0.033 H 
ATOM     43  H12 O54 d   1     -50.396   0.223   0.998  0.00  0.00     0.033 H 
ATOM     44  H13 O54 d   1     -51.274   1.783   0.847  0.00  0.00     0.033 H 
ENDBRANCH   7  41
TORSDOF 6
