REMARK  6 active torsions:
REMARK  status: ('A' for Active; 'I' for Inactive)
REMARK       I    between atoms: C2_2  and  N4_3 
REMARK       I    between atoms: C2_2  and  N3_6 
REMARK    1  A    between atoms: N4_3  and  C6_4 
REMARK    2  A    between atoms: C6_4  and  C9_5 
REMARK    3  A    between atoms: N3_6  and  C5_7 
REMARK    4  A    between atoms: C13_10  and  C15_11 
REMARK    5  A    between atoms: C14_19  and  N17_23 
REMARK    6  A    between atoms: N17_23  and  C21_24 
ROOT
ATOM      1  C5  G3Z d   1      47.099 -17.062 -12.390  0.00  0.00     0.131 A 
ATOM      2  C8  G3Z d   1      46.165 -18.008 -11.924  0.00  0.00    -0.027 A 
ATOM      3  C11 G3Z d   1      45.500 -18.830 -12.845  0.00  0.00    -0.007 A 
ATOM      4  C13 G3Z d   1      44.545 -19.783 -12.437  0.00  0.00    -0.014 A 
ATOM      5  C16 G3Z d   1      43.919 -20.578 -13.408  0.00  0.00    -0.069 A 
ATOM      6  C18 G3Z d   1      44.214 -20.434 -14.768  0.00  0.00    -0.055 A 
ATOM      7  C14 G3Z d   1      45.151 -19.484 -15.190  0.00  0.00     0.045 A 
ATOM      8  C12 G3Z d   1      45.803 -18.703 -14.213  0.00  0.00     0.019 A 
ATOM      9  C10 G3Z d   1      46.749 -17.741 -14.609  0.00  0.00     0.017 A 
ATOM     10  N7  G3Z d   1      47.368 -16.974 -13.707  0.00  0.00    -0.242 NA
ATOM     11  H8  G3Z d   1      45.962 -18.100 -10.863  0.00  0.00     0.090 H 
ATOM     12  H13 G3Z d   1      43.191 -21.320 -13.098  0.00  0.00     0.085 H 
ATOM     13  H14 G3Z d   1      43.715 -21.061 -15.498  0.00  0.00     0.087 H 
ATOM     14  H15 G3Z d   1      46.979 -17.620 -15.661  0.00  0.00     0.116 H 
ENDROOT
BRANCH   1  15
ATOM     15  N3  G3Z d   1      47.789 -16.241 -11.559  0.00  0.00    -0.293 N 
ATOM     16  C2  G3Z d   1      47.316 -15.762 -10.398  0.00  0.00     0.321 C 
ATOM     17  O1  G3Z d   1      46.307 -16.206  -9.838  0.00  0.00    -0.247 OA
ATOM     18  N4  G3Z d   1      48.010 -14.758  -9.865  0.00  0.00    -0.343 N 
ATOM     19  H1  G3Z d   1      48.831 -14.470 -10.357  0.00  0.00     0.164 HD
ATOM     20  H7  G3Z d   1      48.714 -15.974 -11.830  0.00  0.00     0.172 HD
BRANCH  18  21
ATOM     21  C6  G3Z d   1      47.696 -14.038  -8.641  0.00  0.00    -0.006 C 
ATOM     22  H2  G3Z d   1      48.100 -14.582  -7.775  0.00  0.00     0.063 H 
ATOM     23  H3  G3Z d   1      46.605 -13.940  -8.536  0.00  0.00     0.063 H 
BRANCH  21  24
ATOM     24  C9  G3Z d   1      48.332 -12.656  -8.724  0.00  0.00    -0.061 C 
ATOM     25  H4  G3Z d   1      48.107 -12.093  -7.806  0.00  0.00     0.029 H 
ATOM     26  H5  G3Z d   1      47.927 -12.117  -9.593  0.00  0.00     0.029 H 
ATOM     27  H6  G3Z d   1      49.422 -12.760  -8.832  0.00  0.00     0.029 H 
ENDBRANCH  21  24
ENDBRANCH  18  21
ENDBRANCH   1  15
BRANCH   4  28
ATOM     28  C15 G3Z d   1      44.123 -19.983 -11.011  0.00  0.00    -0.022 A 
ATOM     29  C20 G3Z d   1      43.856 -21.261 -10.493  0.00  0.00    -0.055 A 
ATOM     30  C23 G3Z d   1      43.410 -21.385  -9.169  0.00  0.00     0.003 A 
ATOM     31  H9  G3Z d   1      43.993 -22.142 -11.110  0.00  0.00     0.087 H 
ATOM     32  N26 G3Z d   1      43.213 -20.293  -8.404  0.00  0.00    -0.273 NA
ATOM     33  H10 G3Z d   1      43.222 -22.370  -8.757  0.00  0.00     0.114 H 
ATOM     34  C22 G3Z d   1      43.444 -19.048  -8.880  0.00  0.00     0.003 A 
ATOM     35  C19 G3Z d   1      43.875 -18.861 -10.197  0.00  0.00    -0.055 A 
ATOM     36  H11 G3Z d   1      43.294 -18.189  -8.236  0.00  0.00     0.114 H 
ATOM     37  H12 G3Z d   1      44.017 -17.860 -10.588  0.00  0.00     0.087 H 
ENDBRANCH   4  28
BRANCH   7  38
ATOM     38  N17 G3Z d   1      45.448 -19.302 -16.518  0.00  0.00    -0.354 N 
ATOM     39  H16 G3Z d   1      45.929 -18.421 -16.751  0.00  0.00     0.166 HD
BRANCH  38  40
ATOM     40  C21 G3Z d   1      45.190 -20.137 -17.577  0.00  0.00     0.050 A 
ATOM     41  C25 G3Z d   1      45.415 -21.515 -17.497  0.00  0.00    -0.054 A 
ATOM     42  C28 G3Z d   1      45.157 -22.322 -18.608  0.00  0.00    -0.064 A 
ATOM     43  H17 G3Z d   1      45.787 -21.954 -16.579  0.00  0.00     0.087 H 
ATOM     44  C29 G3Z d   1      44.682 -21.741 -19.784  0.00  0.00     0.002 A 
ATOM     45  H18 G3Z d   1      45.325 -23.392 -18.556  0.00  0.00     0.085 H 
ATOM     46  N27 G3Z d   1      44.486 -20.409 -19.837  0.00  0.00    -0.271 NA
ATOM     47  H19 G3Z d   1      44.472 -22.358 -20.650  0.00  0.00     0.114 H 
ATOM     48  C24 G3Z d   1      44.727 -19.609 -18.778  0.00  0.00     0.027 A 
ATOM     49  H20 G3Z d   1      44.558 -18.542 -18.864  0.00  0.00     0.118 H 
ENDBRANCH  38  40
ENDBRANCH   7  38
TORSDOF 6
