REMARK  1 active torsions:
REMARK  status: ('A' for Active; 'I' for Inactive)
REMARK    1  A    between atoms: C2_2  and  N_7 
ROOT
ATOM      1  N1  2AP d   1      -2.405 -14.191 -17.815  0.00  0.00    -0.244 NA
ATOM      2  C2  2AP d   1      -1.842 -15.363 -17.480  0.00  0.00     0.120 A 
ATOM      3  C3  2AP d   1      -1.308 -15.587 -16.192  0.00  0.00    -0.039 A 
ATOM      4  C4  2AP d   1      -1.352 -14.548 -15.277  0.00  0.00    -0.078 A 
ATOM      5  C5  2AP d   1      -1.906 -13.344 -15.633  0.00  0.00    -0.066 A 
ATOM      6  C6  2AP d   1      -2.420 -13.218 -16.890  0.00  0.00     0.004 A 
ATOM      7  H1  2AP d   1      -0.876 -16.545 -15.927  0.00  0.00     0.089 H 
ATOM      8  H2  2AP d   1      -0.949 -14.686 -14.280  0.00  0.00     0.083 H 
ATOM      9  H3  2AP d   1      -1.934 -12.516 -14.934  0.00  0.00     0.085 H 
ATOM     10  H4  2AP d   1      -2.870 -12.270 -17.160  0.00  0.00     0.114 H 
ENDROOT
BRANCH   2  11
ATOM     11  N   2AP d   1      -1.810 -16.319 -18.434  0.00  0.00    -0.384 N 
ATOM     12  H5  2AP d   1      -1.389 -17.237 -18.230  0.00  0.00     0.157 HD
ATOM     13  H6  2AP d   1      -2.206 -16.130 -19.366  0.00  0.00     0.157 HD
ENDBRANCH   2  11
TORSDOF 1
