REMARK  1 active torsions:
REMARK  status: ('A' for Active; 'I' for Inactive)
REMARK    1  A    between atoms: C1_1  and  N_7 
ROOT
ATOM      1  C1  ANL d   1      -1.613 -15.187 -16.992  0.00  0.00     0.025 A 
ATOM      2  C2  ANL d   1      -2.199 -13.959 -17.181  0.00  0.00    -0.058 A 
ATOM      3  C3  ANL d   1      -2.174 -13.044 -16.141  0.00  0.00    -0.081 A 
ATOM      4  C4  ANL d   1      -1.583 -13.366 -14.935  0.00  0.00    -0.083 A 
ATOM      5  C5  ANL d   1      -1.012 -14.599 -14.770  0.00  0.00    -0.081 A 
ATOM      6  C6  ANL d   1      -1.016 -15.514 -15.801  0.00  0.00    -0.058 A 
ATOM      7  H1  ANL d   1      -2.671 -13.711 -18.125  0.00  0.00     0.086 H 
ATOM      8  H2  ANL d   1      -2.623 -12.066 -16.275  0.00  0.00     0.083 H 
ATOM      9  H3  ANL d   1      -1.571 -12.647 -14.124  0.00  0.00     0.083 H 
ATOM     10  H4  ANL d   1      -0.554 -14.858 -13.822  0.00  0.00     0.083 H 
ATOM     11  H5  ANL d   1      -0.551 -16.485 -15.672  0.00  0.00     0.086 H 
ENDROOT
BRANCH   1  12
ATOM     12  N   ANL d   1      -1.627 -16.180 -18.071  0.00  0.00    -0.399 N 
ATOM     13  H6  ANL d   1      -2.070 -15.954 -18.973  0.00  0.00     0.156 HD
ATOM     14  H7  ANL d   1      -1.194 -17.103 -17.927  0.00  0.00     0.156 HD
ENDBRANCH   1  12
TORSDOF 1
