REMARK  2 active torsions:
REMARK  status: ('A' for Active; 'I' for Inactive)
REMARK    1  A    between atoms: C1_1  and  C_7 
REMARK    2  A    between atoms: C_7  and  N1_8 
ROOT
ATOM      1  C1  BAM d   1      -1.743 -14.743 -17.086  0.00  0.00     0.007 A 
ATOM      2  C2  BAM d   1      -1.575 -13.355 -17.164  0.00  0.00    -0.069 A 
ATOM      3  C3  BAM d   1      -1.234 -12.636 -16.035  0.00  0.00    -0.082 A 
ATOM      4  C4  BAM d   1      -1.063 -13.284 -14.820  0.00  0.00    -0.083 A 
ATOM      5  C5  BAM d   1      -1.218 -14.654 -14.742  0.00  0.00    -0.082 A 
ATOM      6  C6  BAM d   1      -1.547 -15.380 -15.869  0.00  0.00    -0.069 A 
ATOM      7  H1  BAM d   1      -1.713 -12.845 -18.110  0.00  0.00     0.085 H 
ATOM      8  H2  BAM d   1      -1.100 -11.562 -16.098  0.00  0.00     0.083 H 
ATOM      9  H3  BAM d   1      -0.808 -12.715 -13.933  0.00  0.00     0.083 H 
ATOM     10  H4  BAM d   1      -1.081 -15.161 -13.793  0.00  0.00     0.083 H 
ATOM     11  H5  BAM d   1      -1.653 -16.457 -15.803  0.00  0.00     0.085 H 
ENDROOT
BRANCH   1  12
ATOM     12  C   BAM d   1      -2.109 -15.520 -18.281  0.00  0.00     0.102 C 
ATOM     13  N2  BAM d   1      -2.779 -14.953 -19.252  0.00  0.00    -0.385 N 
ATOM     14  H8  BAM d   1      -3.076 -13.970 -19.167  0.00  0.00     0.157 HD
ATOM     15  H9  BAM d   1      -3.009 -15.489 -20.101  0.00  0.00     0.157 HD
BRANCH  12  16
ATOM     16  N1  BAM d   1      -1.733 -16.769 -18.393  0.00  0.00    -0.385 N 
ATOM     17  H6  BAM d   1      -1.990 -17.311 -19.230  0.00  0.00     0.157 HD
ATOM     18  H7  BAM d   1      -1.180 -17.209 -17.644  0.00  0.00     0.157 HD
ENDBRANCH  12  16
ENDBRANCH   1  12
TORSDOF 2
