REMARK  2 active torsions:
REMARK  status: ('A' for Active; 'I' for Inactive)
REMARK    1  A    between atoms: C1_1  and  C_7 
REMARK    2  A    between atoms: C_7  and  N1_8 
ROOT
ATOM      1  C1  BAM d   1      -1.793 -14.877 -17.172  0.00  0.00     0.007 A 
ATOM      2  C2  BAM d   1      -1.325 -15.523 -16.044  0.00  0.00    -0.069 A 
ATOM      3  C3  BAM d   1      -1.053 -14.821 -14.888  0.00  0.00    -0.082 A 
ATOM      4  C4  BAM d   1      -1.237 -13.478 -14.848  0.00  0.00    -0.083 A 
ATOM      5  C5  BAM d   1      -1.670 -12.819 -15.972  0.00  0.00    -0.082 A 
ATOM      6  C6  BAM d   1      -1.950 -13.514 -17.133  0.00  0.00    -0.069 A 
ATOM      7  H1  BAM d   1      -1.169 -16.596 -16.068  0.00  0.00     0.085 H 
ATOM      8  H2  BAM d   1      -0.692 -15.344 -14.010  0.00  0.00     0.083 H 
ATOM      9  H3  BAM d   1      -1.043 -12.928 -13.934  0.00  0.00     0.083 H 
ATOM     10  H4  BAM d   1      -1.794 -11.742 -15.948  0.00  0.00     0.083 H 
ATOM     11  H5  BAM d   1      -2.294 -12.983 -18.013  0.00  0.00     0.085 H 
ENDROOT
BRANCH   1  12
ATOM     12  C   BAM d   1      -2.132 -15.641 -18.384  0.00  0.00     0.102 C 
ATOM     13  N2  BAM d   1      -2.833 -15.094 -19.341  0.00  0.00    -0.385 N 
ATOM     14  H8  BAM d   1      -3.148 -14.117 -19.255  0.00  0.00     0.157 HD
ATOM     15  H9  BAM d   1      -3.071 -15.640 -20.181  0.00  0.00     0.157 HD
BRANCH  12  16
ATOM     16  N1  BAM d   1      -1.740 -16.881 -18.507  0.00  0.00    -0.385 N 
ATOM     17  H6  BAM d   1      -1.978 -17.415 -19.355  0.00  0.00     0.157 HD
ATOM     18  H7  BAM d   1      -1.193 -17.325 -17.756  0.00  0.00     0.157 HD
ENDBRANCH  12  16
ENDBRANCH   1  12
TORSDOF 2
