REMARK  0 active torsions:
REMARK  status: ('A' for Active; 'I' for Inactive)
REMARK       I    between atoms: N4_4  and  C7_7 
REMARK       I    between atoms: C7_7  and  N8_8 
ROOT
ATOM      1  C1  MRZ d   1      -1.646 -13.588 -14.638  0.00  0.00    -0.062 C 
ATOM      2  C6  MRZ d   1      -2.459 -13.045 -15.786  0.00  0.00    -0.050 C 
ATOM      3  C5  MRZ d   1      -1.799 -13.340 -17.107  0.00  0.00     0.011 C 
ATOM      4  N4  MRZ d   1      -1.619 -14.789 -17.251  0.00  0.00    -0.219 N 
ATOM      5  C3  MRZ d   1      -0.744 -15.293 -16.184  0.00  0.00     0.011 C 
ATOM      6  C2  MRZ d   1      -1.356 -15.051 -14.839  0.00  0.00    -0.050 C 
ATOM      7  C7  MRZ d   1      -2.003 -15.511 -18.307  0.00  0.00     0.667 C 
ATOM      8  N8  MRZ d   1      -1.649 -16.771 -18.440  0.00  0.00    -0.235 N 
ATOM      9  N9  MRZ d   1      -2.716 -14.973 -19.273  0.00  0.00    -0.235 N 
ATOM     10  H1  MRZ d   1      -2.209 -13.456 -13.702  0.00  0.00     0.033 H 
ATOM     11  H2  MRZ d   1      -0.696 -13.037 -14.575  0.00  0.00     0.033 H 
ATOM     12  H3  MRZ d   1      -2.560 -11.956 -15.671  0.00  0.00     0.035 H 
ATOM     13  H4  MRZ d   1      -3.456 -13.509 -15.771  0.00  0.00     0.035 H 
ATOM     14  H5  MRZ d   1      -0.818 -12.843 -17.146  0.00  0.00     0.065 H 
ATOM     15  H6  MRZ d   1      -2.432 -12.966 -17.925  0.00  0.00     0.065 H 
ATOM     16  H7  MRZ d   1       0.226 -14.776 -16.238  0.00  0.00     0.065 H 
ATOM     17  H8  MRZ d   1      -0.592 -16.374 -16.322  0.00  0.00     0.065 H 
ATOM     18  H9  MRZ d   1      -2.295 -15.618 -14.763  0.00  0.00     0.035 H 
ATOM     19  H10 MRZ d   1      -0.658 -15.391 -14.059  0.00  0.00     0.035 H 
ATOM     20  H11 MRZ d   1      -1.957 -17.308 -19.263  0.00  0.00     0.174 HD
ATOM     21  H12 MRZ d   1      -1.064 -17.220 -17.721  0.00  0.00     0.174 HD
ATOM     22  H13 MRZ d   1      -3.013 -13.989 -19.207  0.00  0.00     0.174 HD
ATOM     23  H14 MRZ d   1      -2.977 -15.536 -20.095  0.00  0.00     0.174 HD
ENDROOT
TORSDOF 0
