REMARK  1 active torsions:
REMARK  status: ('A' for Active; 'I' for Inactive)
REMARK    1  A    between atoms: C2_2  and  N_7 
ROOT
ATOM      1  N1  2AP d   1      -2.342 -14.155 -17.772  0.00  0.00    -0.244 NA
ATOM      2  C2  2AP d   1      -1.870 -15.390 -17.507  0.00  0.00     0.120 A 
ATOM      3  C3  2AP d   1      -1.325 -15.629 -16.232  0.00  0.00    -0.039 A 
ATOM      4  C4  2AP d   1      -1.289 -14.599 -15.312  0.00  0.00    -0.078 A 
ATOM      5  C5  2AP d   1      -1.785 -13.353 -15.627  0.00  0.00    -0.066 A 
ATOM      6  C6  2AP d   1      -2.315 -13.157 -16.870  0.00  0.00     0.004 A 
ATOM      7  H1  2AP d   1      -0.938 -16.609 -15.975  0.00  0.00     0.089 H 
ATOM      8  H2  2AP d   1      -0.865 -14.774 -14.330  0.00  0.00     0.083 H 
ATOM      9  H3  2AP d   1      -1.755 -12.546 -14.904  0.00  0.00     0.085 H 
ATOM     10  H4  2AP d   1      -2.719 -12.186 -17.133  0.00  0.00     0.114 H 
ENDROOT
BRANCH   2  11
ATOM     11  N   2AP d   1      -1.936 -16.313 -18.458  0.00  0.00    -0.384 N 
ATOM     12  H5  2AP d   1      -1.582 -17.263 -18.279  0.00  0.00     0.157 HD
ATOM     13  H6  2AP d   1      -2.341 -16.079 -19.375  0.00  0.00     0.157 HD
ENDBRANCH   2  11
TORSDOF 1
