REMARK  1 active torsions:
REMARK  status: ('A' for Active; 'I' for Inactive)
REMARK    1  A    between atoms: C1_1  and  N_7 
ROOT
ATOM      1  C1  WOT d   1      -1.654 -15.243 -17.044  0.00  0.00     0.025 A 
ATOM      2  C2  WOT d   1      -0.945 -15.569 -15.908  0.00  0.00    -0.058 A 
ATOM      3  C3  WOT d   1      -0.833 -14.617 -14.905  0.00  0.00    -0.081 A 
ATOM      4  C4  WOT d   1      -1.432 -13.383 -15.038  0.00  0.00    -0.083 A 
ATOM      5  C5  WOT d   1      -2.147 -13.086 -16.179  0.00  0.00    -0.081 A 
ATOM      6  C6  WOT d   1      -2.262 -14.018 -17.197  0.00  0.00    -0.058 A 
ATOM      7  H1  WOT d   1      -0.486 -16.545 -15.801  0.00  0.00     0.086 H 
ATOM      8  H2  WOT d   1      -0.269 -14.846 -14.008  0.00  0.00     0.083 H 
ATOM      9  H3  WOT d   1      -1.341 -12.647 -14.247  0.00  0.00     0.083 H 
ATOM     10  H4  WOT d   1      -2.622 -12.117 -16.280  0.00  0.00     0.083 H 
ATOM     11  H5  WOT d   1      -2.820 -13.787 -18.097  0.00  0.00     0.086 H 
ENDROOT
BRANCH   1  12
ATOM     12  N   WOT d   1      -1.727 -16.221 -18.133  0.00  0.00    -0.399 N 
ATOM     13  H6  WOT d   1      -1.276 -17.141 -18.030  0.00  0.00     0.156 HD
ATOM     14  H7  WOT d   1      -2.229 -15.988 -19.001  0.00  0.00     0.156 HD
ENDBRANCH   1  12
TORSDOF 1
