REMARK  2 active torsions:
REMARK  status: ('A' for Active; 'I' for Inactive)
REMARK    1  A    between atoms: C1_1  and  C_7 
REMARK    2  A    between atoms: C_7  and  N1_8 
ROOT
ATOM      1  C1  BAM d   1      -1.838 -14.881 -17.157  0.00  0.00     0.007 A 
ATOM      2  C2  BAM d   1      -1.993 -13.500 -17.151  0.00  0.00    -0.069 A 
ATOM      3  C3  BAM d   1      -1.670 -12.760 -16.028  0.00  0.00    -0.082 A 
ATOM      4  C4  BAM d   1      -1.189 -13.387 -14.898  0.00  0.00    -0.083 A 
ATOM      5  C5  BAM d   1      -1.018 -14.755 -14.896  0.00  0.00    -0.082 A 
ATOM      6  C6  BAM d   1      -1.348 -15.503 -16.011  0.00  0.00    -0.069 A 
ATOM      7  H1  BAM d   1      -2.370 -12.998 -18.035  0.00  0.00     0.085 H 
ATOM      8  H2  BAM d   1      -1.795 -11.683 -16.036  0.00  0.00     0.083 H 
ATOM      9  H3  BAM d   1      -0.946 -12.807 -14.015  0.00  0.00     0.083 H 
ATOM     10  H4  BAM d   1      -0.622 -15.247 -14.015  0.00  0.00     0.083 H 
ATOM     11  H5  BAM d   1      -1.225 -16.580 -15.993  0.00  0.00     0.085 H 
ENDROOT
BRANCH   1  12
ATOM     12  C   BAM d   1      -2.187 -15.674 -18.350  0.00  0.00     0.102 C 
ATOM     13  N2  BAM d   1      -2.902 -15.141 -19.307  0.00  0.00    -0.385 N 
ATOM     14  H8  BAM d   1      -3.216 -14.163 -19.231  0.00  0.00     0.157 HD
ATOM     15  H9  BAM d   1      -3.151 -15.699 -20.136  0.00  0.00     0.157 HD
BRANCH  12  16
ATOM     16  N1  BAM d   1      -1.787 -16.918 -18.446  0.00  0.00    -0.385 N 
ATOM     17  H6  BAM d   1      -2.030 -17.474 -19.278  0.00  0.00     0.157 HD
ATOM     18  H7  BAM d   1      -1.230 -17.340 -17.689  0.00  0.00     0.157 HD
ENDBRANCH  12  16
ENDBRANCH   1  12
TORSDOF 2
