REMARK  0 active torsions:
REMARK  status: ('A' for Active; 'I' for Inactive)
REMARK       I    between atoms: N4_4  and  C7_7 
REMARK       I    between atoms: C7_7  and  N8_8 
ROOT
ATOM      1  C1  D86 d   1      -1.695 -13.542 -14.637  0.00  0.00    -0.062 C 
ATOM      2  C6  D86 d   1      -1.397 -15.011 -14.809  0.00  0.00    -0.050 C 
ATOM      3  C5  D86 d   1      -0.774 -15.281 -16.154  0.00  0.00     0.011 C 
ATOM      4  N4  D86 d   1      -1.624 -14.782 -17.243  0.00  0.00    -0.219 N 
ATOM      5  C3  D86 d   1      -1.899 -13.338 -17.100  0.00  0.00     0.011 C 
ATOM      6  C2  D86 d   1      -2.549 -13.050 -15.772  0.00  0.00    -0.050 C 
ATOM      7  C7  D86 d   1      -2.052 -15.499 -18.271  0.00  0.00     0.667 C 
ATOM      8  N8  D86 d   1      -1.726 -16.783 -18.386  0.00  0.00    -0.235 N 
ATOM      9  N9  D86 d   1      -2.800 -14.984 -19.224  0.00  0.00    -0.235 N 
ATOM     10  H1  D86 d   1      -0.750 -12.979 -14.622  0.00  0.00     0.033 H 
ATOM     11  H2  D86 d   1      -2.228 -13.388 -13.688  0.00  0.00     0.033 H 
ATOM     12  H3  D86 d   1      -2.334 -15.581 -14.726  0.00  0.00     0.035 H 
ATOM     13  H4  D86 d   1      -0.702 -15.332 -14.019  0.00  0.00     0.035 H 
ATOM     14  H5  D86 d   1      -0.636 -16.366 -16.274  0.00  0.00     0.065 H 
ATOM     15  H6  D86 d   1       0.204 -14.780 -16.204  0.00  0.00     0.065 H 
ATOM     16  H7  D86 d   1      -2.572 -13.016 -17.909  0.00  0.00     0.065 H 
ATOM     17  H8  D86 d   1      -0.953 -12.781 -17.167  0.00  0.00     0.065 H 
ATOM     18  H9  D86 d   1      -2.693 -11.964 -15.670  0.00  0.00     0.035 H 
ATOM     19  H10 D86 d   1      -3.526 -13.555 -15.732  0.00  0.00     0.035 H 
ATOM     20  H11 D86 d   1      -2.065 -17.330 -19.190  0.00  0.00     0.174 HD
ATOM     21  H12 D86 d   1      -1.135 -17.230 -17.671  0.00  0.00     0.174 HD
ATOM     22  H13 D86 d   1      -3.079 -13.994 -19.181  0.00  0.00     0.174 HD
ATOM     23  H14 D86 d   1      -3.106 -15.571 -20.013  0.00  0.00     0.174 HD
ENDROOT
TORSDOF 0
