REMARK  8 active torsions:
REMARK  status: ('A' for Active; 'I' for Inactive)
REMARK    1  A    between atoms: C1_1  and  C2_2 
REMARK    2  A    between atoms: C3_3  and  C4_4 
REMARK    3  A    between atoms: C3_3  and  C6_6 
REMARK    4  A    between atoms: C5_5  and  C7_7 
REMARK    5  A    between atoms: C7_7  and  O7_8 
REMARK    6  A    between atoms: C8_9  and  C13_17 
REMARK    7  A    between atoms: C12_15  and  C14_18 
REMARK    8  A    between atoms: C12_15  and  C15_19 
ROOT
ATOM      1  C7  A8S d   1      14.475  11.674   4.162  0.00  0.00     0.086 C 
ATOM      2  C8  A8S d   1      13.460  12.517   3.415  0.00  0.00    -0.017 C 
ATOM      3  C9  A8S d   1      12.455  11.864   2.535  0.00  0.00    -0.004 C 
ATOM      4  C10 A8S d   1      12.373  10.384   2.562  0.00  0.00     0.128 C 
ATOM      5  O10 A8S d   1      11.423   9.829   2.007  0.00  0.00    -0.298 OA
ATOM      6  C11 A8S d   1      13.427   9.591   3.262  0.00  0.00    -0.000 C 
ATOM      7  C12 A8S d   1      13.992  10.275   4.468  0.00  0.00    -0.006 C 
ATOM      8  H8  A8S d   1      12.775  12.529   4.275  0.00  0.00     0.045 H 
ATOM      9  H9  A8S d   1      12.681  12.162   1.500  0.00  0.00     0.045 H 
ATOM     10  H10 A8S d   1      11.466  12.253   2.820  0.00  0.00     0.045 H 
ATOM     11  H11 A8S d   1      14.247   9.402   2.554  0.00  0.00     0.045 H 
ATOM     12  H12 A8S d   1      12.988   8.634   3.579  0.00  0.00     0.045 H 
ENDROOT
BRANCH   1  13
ATOM     13  C5  A8S d   1      15.699  11.655   3.282  0.00  0.00    -0.069 C 
ATOM     14  C4  A8S d   1      16.859  12.255   3.685  0.00  0.00    -0.078 C 
ATOM     15  H2  A8S d   1      16.893  12.701   4.678  0.00  0.00     0.084 H 
ATOM     16  H3  A8S d   1      15.658  11.158   2.314  0.00  0.00     0.081 H 
BRANCH  14  17
ATOM     17  C3  A8S d   1      18.087  12.330   2.829  0.00  0.00    -0.056 C 
ATOM     18  C2  A8S d   1      19.220  12.937   3.297  0.00  0.00    -0.004 C 
ATOM     19  H1  A8S d   1      20.060  12.986   2.605  0.00  0.00     0.094 H 
BRANCH  18  20
ATOM     20  C1  A8S d   1      19.441  13.541   4.648  0.00  0.00     0.199 C 
ATOM     21  O11 A8S d   1      18.527  13.718   5.498  0.00  0.00    -0.644 OA
ATOM     22  O12 A8S d   1      20.598  13.898   4.949  0.00  0.00    -0.644 OA
ENDBRANCH  18  20
BRANCH  17  23
ATOM     23  C6  A8S d   1      18.116  11.666   1.488  0.00  0.00    -0.051 C 
ATOM     24  H4  A8S d   1      19.096  11.833   1.017  0.00  0.00     0.033 H 
ATOM     25  H5  A8S d   1      17.326  12.091   0.851  0.00  0.00     0.033 H 
ATOM     26  H6  A8S d   1      17.947  10.586   1.610  0.00  0.00     0.033 H 
ENDBRANCH  17  23
ENDBRANCH  14  17
ENDBRANCH   1  13
BRANCH   1  27
ATOM     27  O7  A8S d   1      14.758  12.337   5.347  0.00  0.00    -0.385 OA
ATOM     28  H7  A8S d   1      15.463  11.889   5.799  0.00  0.00     0.211 HD
ENDBRANCH   1  27
BRANCH   2  29
ATOM     29  C13 A8S d   1      13.564  14.006   3.395  0.00  0.00    -0.069 C 
ATOM     30  H13 A8S d   1      14.348  14.328   4.096  0.00  0.00     0.028 H 
ATOM     31  H14 A8S d   1      12.601  14.445   3.695  0.00  0.00     0.028 H 
ATOM     32  H15 A8S d   1      13.820  14.342   2.379  0.00  0.00     0.028 H 
ENDBRANCH   2  29
BRANCH   7  33
ATOM     33  C14 A8S d   1      12.897  10.279   5.502  0.00  0.00    -0.066 C 
ATOM     34  H16 A8S d   1      13.258  10.773   6.416  0.00  0.00     0.028 H 
ATOM     35  H17 A8S d   1      12.608   9.243   5.734  0.00  0.00     0.028 H 
ATOM     36  H18 A8S d   1      12.025  10.824   5.111  0.00  0.00     0.028 H 
ENDBRANCH   7  33
BRANCH   7  37
ATOM     37  C15 A8S d   1      15.065   9.400   5.041  0.00  0.00    -0.066 C 
ATOM     38  H19 A8S d   1      15.909   9.346   4.337  0.00  0.00     0.028 H 
ATOM     39  H20 A8S d   1      14.663   8.390   5.210  0.00  0.00     0.028 H 
ATOM     40  H21 A8S d   1      15.411   9.822   5.996  0.00  0.00     0.028 H 
ENDBRANCH   7  37
TORSDOF 8
