REMARK WARNING: 32 MAX_TORS EXCEEDED!!!
REMARK  56 active torsions:
REMARK  status: ('A' for Active; 'I' for Inactive)
REMARK    1  A    between atoms: N_1  and  CA_2 
REMARK    2  A    between atoms: CA_2  and  C_3 
REMARK    3  A    between atoms: CA_2  and  CB_5 
REMARK       I    between atoms: C_3  and  N_10 
REMARK    4  A    between atoms: CB_5  and  CG_6 
REMARK    5  A    between atoms: CG_6  and  CD_7 
REMARK    6  A    between atoms: CD_7  and  CE_8 
REMARK    7  A    between atoms: CE_8  and  NZ_9 
REMARK    8  A    between atoms: N_10  and  CA_11 
REMARK    9  A    between atoms: CA_11  and  C_12 
REMARK   10  A    between atoms: CA_11  and  CB_14 
REMARK       I    between atoms: C_12  and  N_18 
REMARK   11  A    between atoms: CB_14  and  CG_15 
REMARK   12  A    between atoms: CG_15  and  CD1_16 
REMARK   13  A    between atoms: CG_15  and  CD2_17 
REMARK   14  A    between atoms: N_18  and  CA_19 
REMARK   15  A    between atoms: CA_19  and  C_20 
REMARK   16  A    between atoms: CA_19  and  CB_22 
REMARK       I    between atoms: C_20  and  N_26 
REMARK   17  A    between atoms: CB_22  and  CG_23 
REMARK   18  A    between atoms: CG_23  and  SD_24 
REMARK   19  A    between atoms: SD_24  and  CE_25 
REMARK   20  A    between atoms: N_26  and  CA_27 
REMARK   21  A    between atoms: CA_27  and  C_28 
REMARK   22  A    between atoms: CA_27  and  CB_30 
REMARK       I    between atoms: C_28  and  N_37 
REMARK   23  A    between atoms: CB_30  and  CG_31 
REMARK   24  A    between atoms: N_37  and  CA_38 
REMARK   25  A    between atoms: CA_38  and  C_39 
REMARK   26  A    between atoms: CA_38  and  CB_41 
REMARK       I    between atoms: C_39  and  N_46 
REMARK   27  A    between atoms: CB_41  and  CG_42 
REMARK   28  A    between atoms: CG_42  and  CD_43 
REMARK   29  A    between atoms: CD_43  and  CE_44 
REMARK   30  A    between atoms: CE_44  and  NZ_45 
REMARK   31  A    between atoms: N_46  and  CA_47 
REMARK   32  A    between atoms: CA_47  and  CB_48 
REMARK   33  A    between atoms: CA_47  and  C_55 
REMARK   34  A    between atoms: CB_48  and  CG2_49 
REMARK   35  A    between atoms: CB_48  and  OG1_50 
REMARK   36  A    between atoms: OG1_50  and  P_51 
REMARK       I    between atoms: C_55  and  N_57 
REMARK   37  A    between atoms: N_57  and  CA_58 
REMARK   38  A    between atoms: CA_58  and  C_59 
REMARK   39  A    between atoms: CA_58  and  CB_61 
REMARK       I    between atoms: C_59  and  N_66 
REMARK   40  A    between atoms: CB_61  and  CG_62 
REMARK   41  A    between atoms: CG_62  and  CD_63 
REMARK   42  A    between atoms: N_66  and  CA_67 
REMARK   43  A    between atoms: CA_67  and  C_68 
REMARK       I    between atoms: C_68  and  N_70 
REMARK   44  A    between atoms: CA_71  and  C_72 
REMARK       I    between atoms: C_72  and  N_77 
REMARK   45  A    between atoms: N_77  and  CA_78 
REMARK   46  A    between atoms: CA_78  and  C_79 
REMARK   47  A    between atoms: CA_78  and  CB_81 
REMARK       I    between atoms: C_79  and  N_85 
REMARK   48  A    between atoms: CB_81  and  CG_82 
REMARK   49  A    between atoms: N_85  and  CA_86 
REMARK   50  A    between atoms: CA_86  and  C_87 
REMARK   51  A    between atoms: CA_86  and  CB_89 
REMARK       I    between atoms: C_87  and  N_91 
REMARK   52  A    between atoms: CB_89  and  OG_90 
REMARK   53  A    between atoms: N_91  and  CA_92 
REMARK   54  A    between atoms: CA_92  and  C_93 
REMARK   55  A    between atoms: CA_92  and  CB_95 
REMARK   56  A    between atoms: CB_95  and  CG_96 
ROOT
ATOM      1  CA  LYS d   1     -12.799 -14.263  10.755  0.00  0.00     0.089 C 
ATOM      2  H46 LYS d   1     -13.074 -13.398  10.133  0.00  0.00     0.087 H 
ENDROOT
BRANCH   1   3
ATOM      3  N   LYS d   1     -12.586 -13.797  12.116  0.00  0.00    -0.346 N 
ATOM      4  C   PHE d   1     -13.447 -12.976  12.702  0.00  0.00     0.241 C 
ATOM      5  O   PHE d   1     -14.461 -12.564  12.136  0.00  0.00    -0.271 OA
ATOM      6  H45 LYS d   1     -11.777 -14.101  12.618  0.00  0.00     0.163 HD
BRANCH   4   7
ATOM      7  CA  PHE d   1     -13.074 -12.527  14.112  0.00  0.00     0.093 C 
ATOM      8  H37 PHE d   1     -12.024 -12.198  14.101  0.00  0.00     0.088 H 
BRANCH   7   9
ATOM      9  N   PHE d   1     -13.905 -11.407  14.508  0.00  0.00    -0.346 N 
ATOM     10  C   MET d   1     -13.595 -10.179  14.113  0.00  0.00     0.241 C 
ATOM     11  O   MET d   1     -12.593  -9.919  13.441  0.00  0.00    -0.271 OA
ATOM     12  H36 PHE d   1     -14.712 -11.560  15.079  0.00  0.00     0.163 HD
BRANCH  10  13
ATOM     13  CA  MET d   1     -14.554  -9.071  14.525  0.00  0.00     0.090 C 
ATOM     14  H28 MET d   1     -15.278  -9.470  15.251  0.00  0.00     0.087 H 
BRANCH  13  15
ATOM     15  N   MET d   1     -13.798  -7.996  15.157  0.00  0.00    -0.346 N 
ATOM     16  C   LEU d   1     -13.704  -7.856  16.481  0.00  0.00     0.241 C 
ATOM     17  O   LEU d   1     -14.291  -8.595  17.280  0.00  0.00    -0.271 OA
ATOM     18  H27 MET d   1     -13.329  -7.334  14.572  0.00  0.00     0.163 HD
BRANCH  16  19
ATOM     19  CA  LEU d   1     -12.845  -6.705  16.989  0.00  0.00     0.089 C 
ATOM     20  H17 LEU d   1     -12.351  -6.223  16.133  0.00  0.00     0.087 H 
BRANCH  19  21
ATOM     21  N   LEU d   1     -13.707  -5.734  17.656  0.00  0.00    -0.346 N 
ATOM     22  C   LYS d   1     -14.571  -4.983  16.979  0.00  0.00     0.248 C 
ATOM     23  O   LYS d   1     -14.598  -4.920  15.749  0.00  0.00    -0.271 OA
ATOM     24  H16 LEU d   1     -13.646  -5.631  18.649  0.00  0.00     0.163 HD
BRANCH  22  25
ATOM     25  CA  LYS d   1     -15.561  -4.196  17.819  0.00  0.00     0.176 C 
ATOM     26  H4  LYS d   1     -15.140  -4.067  18.827  0.00  0.00     0.099 H 
BRANCH  25  27
ATOM     27  N   LYS d   1     -15.805  -2.875  17.255  0.00  0.00    -0.067 N 
ATOM     28  H1  LYS d   1     -16.465  -2.379  17.834  0.00  0.00     0.275 HD
ATOM     29  H2  LYS d   1     -16.181  -2.971  16.325  0.00  0.00     0.275 HD
ATOM     30  H3  LYS d   1     -14.939  -2.361  17.216  0.00  0.00     0.275 HD
ENDBRANCH  25  27
BRANCH  25  31
ATOM     31  CB  LYS d   1     -16.866  -4.988  17.931  0.00  0.00    -0.030 C 
ATOM     32  H5  LYS d   1     -17.361  -4.983  16.949  0.00  0.00     0.036 H 
ATOM     33  H6  LYS d   1     -17.512  -4.492  18.670  0.00  0.00     0.036 H 
BRANCH  31  34
ATOM     34  CG  LYS d   1     -16.665  -6.436  18.362  0.00  0.00    -0.061 C 
ATOM     35  H7  LYS d   1     -16.211  -6.448  19.364  0.00  0.00     0.033 H 
ATOM     36  H8  LYS d   1     -15.990  -6.929  17.647  0.00  0.00     0.033 H 
BRANCH  34  37
ATOM     37  CD  LYS d   1     -17.969  -7.201  18.408  0.00  0.00    -0.043 C 
ATOM     38  H9  LYS d   1     -18.471  -7.114  17.433  0.00  0.00     0.035 H 
ATOM     39  H10 LYS d   1     -18.611  -6.770  19.191  0.00  0.00     0.035 H 
BRANCH  37  40
ATOM     40  CE  LYS d   1     -17.729  -8.677  18.716  0.00  0.00     0.080 C 
ATOM     41  H11 LYS d   1     -18.704  -9.166  18.856  0.00  0.00     0.075 H 
ATOM     42  H12 LYS d   1     -17.146  -8.748  19.646  0.00  0.00     0.075 H 
BRANCH  40  43
ATOM     43  NZ  LYS d   1     -16.987  -9.401  17.637  0.00  0.00    -0.079 N 
ATOM     44  H13 LYS d   1     -16.863 -10.365  17.903  0.00  0.00     0.274 HD
ATOM     45  H14 LYS d   1     -16.085  -8.971  17.503  0.00  0.00     0.274 HD
ATOM     46  H15 LYS d   1     -17.513  -9.354  16.778  0.00  0.00     0.274 HD
ENDBRANCH  40  43
ENDBRANCH  37  40
ENDBRANCH  34  37
ENDBRANCH  31  34
ENDBRANCH  25  31
ENDBRANCH  22  25
ENDBRANCH  19  21
BRANCH  19  47
ATOM     47  CB  LEU d   1     -11.774  -7.203  17.957  0.00  0.00    -0.035 C 
ATOM     48  H18 LEU d   1     -12.293  -7.636  18.825  0.00  0.00     0.037 H 
ATOM     49  H19 LEU d   1     -11.190  -6.328  18.278  0.00  0.00     0.037 H 
BRANCH  47  50
ATOM     50  CG  LEU d   1     -10.780  -8.254  17.449  0.00  0.00    -0.059 C 
ATOM     51  H20 LEU d   1     -11.350  -9.133  17.113  0.00  0.00     0.038 H 
BRANCH  50  52
ATOM     52  CD1 LEU d   1      -9.973  -7.733  16.268  0.00  0.00    -0.073 C 
ATOM     53  H21 LEU d   1      -9.272  -8.511  15.931  0.00  0.00     0.028 H 
ATOM     54  H22 LEU d   1      -9.409  -6.840  16.575  0.00  0.00     0.028 H 
ATOM     55  H23 LEU d   1     -10.654  -7.472  15.445  0.00  0.00     0.028 H 
ENDBRANCH  50  52
BRANCH  50  56
ATOM     56  CD2 LEU d   1      -9.855  -8.684  18.581  0.00  0.00    -0.073 C 
ATOM     57  H24 LEU d   1     -10.456  -9.057  19.424  0.00  0.00     0.028 H 
ATOM     58  H25 LEU d   1      -9.255  -7.823  18.911  0.00  0.00     0.028 H 
ATOM     59  H26 LEU d   1      -9.187  -9.482  18.226  0.00  0.00     0.028 H 
ENDBRANCH  50  56
ENDBRANCH  47  50
ENDBRANCH  19  47
ENDBRANCH  16  19
ENDBRANCH  13  15
BRANCH  13  60
ATOM     60  CB  MET d   1     -15.316  -8.575  13.292  0.00  0.00    -0.030 C 
ATOM     61  H29 MET d   1     -15.863  -9.428  12.864  0.00  0.00     0.037 H 
ATOM     62  H30 MET d   1     -14.579  -8.208  12.562  0.00  0.00     0.037 H 
BRANCH  60  63
ATOM     63  CG  MET d   1     -16.312  -7.463  13.551  0.00  0.00    -0.021 C 
ATOM     64  H31 MET d   1     -16.842  -7.247  12.611  0.00  0.00     0.049 H 
ATOM     65  H32 MET d   1     -15.757  -6.569  13.873  0.00  0.00     0.049 H 
BRANCH  63  66
ATOM     66  SD  MET d   1     -17.539  -7.857  14.818  0.00  0.00    -0.173 SA
BRANCH  66  67
ATOM     67  CE  MET d   1     -18.545  -9.085  13.994  0.00  0.00    -0.035 C 
ATOM     68  H33 MET d   1     -19.347  -9.416  14.670  0.00  0.00     0.041 H 
ATOM     69  H34 MET d   1     -17.919  -9.947  13.718  0.00  0.00     0.041 H 
ATOM     70  H35 MET d   1     -18.988  -8.648  13.087  0.00  0.00     0.041 H 
ENDBRANCH  66  67
ENDBRANCH  63  66
ENDBRANCH  60  63
ENDBRANCH  13  60
ENDBRANCH  10  13
ENDBRANCH   7   9
BRANCH   7  71
ATOM     71  CB  PHE d   1     -13.206 -13.662  15.127  0.00  0.00    -0.014 C 
ATOM     72  H38 PHE d   1     -12.543 -14.485  14.822  0.00  0.00     0.043 H 
ATOM     73  H39 PHE d   1     -14.249 -14.013  15.128  0.00  0.00     0.043 H 
BRANCH  71  74
ATOM     74  CG  PHE d   1     -12.841 -13.244  16.518  0.00  0.00    -0.056 A 
ATOM     75  CD1 PHE d   1     -11.535 -12.900  16.819  0.00  0.00    -0.077 A 
ATOM     76  CE1 PHE d   1     -11.185 -12.489  18.081  0.00  0.00    -0.082 A 
ATOM     77  H40 PHE d   1     -10.777 -12.956  16.046  0.00  0.00     0.084 H 
ATOM     78  CZ  PHE d   1     -12.146 -12.422  19.073  0.00  0.00    -0.083 A 
ATOM     79  H42 PHE d   1     -10.158 -12.218  18.299  0.00  0.00     0.083 H 
ATOM     80  CE2 PHE d   1     -13.456 -12.761  18.788  0.00  0.00    -0.082 A 
ATOM     81  H44 PHE d   1     -11.873 -12.104  20.073  0.00  0.00     0.083 H 
ATOM     82  CD2 PHE d   1     -13.799 -13.164  17.510  0.00  0.00    -0.077 A 
ATOM     83  H43 PHE d   1     -14.212 -12.711  19.564  0.00  0.00     0.083 H 
ATOM     84  H41 PHE d   1     -14.828 -13.419  17.285  0.00  0.00     0.084 H 
ENDBRANCH  71  74
ENDBRANCH   7  71
ENDBRANCH   4   7
ENDBRANCH   1   3
BRANCH   1  85
ATOM     85  C   LYS d   1     -13.930 -15.280  10.693  0.00  0.00     0.241 C 
ATOM     86  O   LYS d   1     -13.927 -16.264  11.430  0.00  0.00    -0.271 OA
ATOM     87  N   TPO d   1     -14.902 -15.022   9.818  0.00  0.00    -0.344 N 
ATOM     88  H58 TPO d   1     -14.929 -14.128   9.372  0.00  0.00     0.163 HD
BRANCH  87  89
ATOM     89  CA  TPO d   1     -15.925 -16.006   9.494  0.00  0.00     0.114 C 
ATOM     90  H59 TPO d   1     -15.634 -16.972   9.933  0.00  0.00     0.091 H 
BRANCH  89  91
ATOM     91  CB  TPO d   1     -17.295 -15.609  10.068  0.00  0.00     0.076 C 
ATOM     92  H60 TPO d   1     -18.082 -16.264   9.665  0.00  0.00     0.087 H 
BRANCH  91  93
ATOM     93  CG2 TPO d   1     -17.206 -15.783  11.589  0.00  0.00    -0.049 C 
ATOM     94  H61 TPO d   1     -18.168 -15.509  12.046  0.00  0.00     0.031 H 
ATOM     95  H62 TPO d   1     -16.413 -15.133  11.987  0.00  0.00     0.031 H 
ATOM     96  H63 TPO d   1     -16.973 -16.832  11.825  0.00  0.00     0.031 H 
ENDBRANCH  91  93
BRANCH  91  97
ATOM     97  OG1 TPO d   1     -17.575 -14.256   9.704  0.00  0.00    -0.275 OA
BRANCH  97  98
ATOM     98  P   TPO d   1     -19.089 -13.772   9.972  0.00  0.00     0.422 P 
ATOM     99  O1P TPO d   1     -19.329 -12.508   9.028  0.00  0.00    -0.617 OA
ATOM    100  O2P TPO d   1     -19.237 -13.381  11.522  0.00  0.00    -0.617 OA
ATOM    101  O3P TPO d   1     -20.049 -14.851   9.622  0.00  0.00    -0.617 OA
ENDBRANCH  97  98
ENDBRANCH  91  97
ENDBRANCH  89  91
BRANCH  89 102
ATOM    102  C   TPO d   1     -16.001 -16.158   7.986  0.00  0.00     0.243 C 
ATOM    103  O   TPO d   1     -15.437 -15.363   7.236  0.00  0.00    -0.271 OA
ATOM    104  N   GLU d   1     -16.709 -17.189   7.556  0.00  0.00    -0.346 N 
ATOM    105  H64 GLU d   1     -17.253 -17.707   8.216  0.00  0.00     0.163 HD
BRANCH 104 106
ATOM    106  CA  GLU d   1     -16.727 -17.598   6.159  0.00  0.00     0.090 C 
ATOM    107  H65 GLU d   1     -15.688 -17.762   5.838  0.00  0.00     0.087 H 
BRANCH 106 108
ATOM    108  C   GLU d   1     -17.343 -16.550   5.239  0.00  0.00     0.240 C 
ATOM    109  O   GLU d   1     -18.363 -15.939   5.563  0.00  0.00    -0.271 OA
ATOM    110  N   GLY d   1     -16.710 -16.342   4.088  0.00  0.00    -0.351 N 
ATOM    111  H70 GLY d   1     -15.779 -16.689   3.971  0.00  0.00     0.163 HD
BRANCH 110 112
ATOM    112  CA  GLY d   1     -17.338 -15.627   3.006  0.00  0.00     0.069 C 
ATOM    113  H71 GLY d   1     -18.417 -15.838   3.028  0.00  0.00     0.078 H 
ATOM    114  H72 GLY d   1     -16.913 -15.986   2.057  0.00  0.00     0.078 H 
BRANCH 112 115
ATOM    115  C   GLY d   1     -17.140 -14.130   3.085  0.00  0.00     0.238 C 
ATOM    116  O   GLY d   1     -16.248 -13.632   3.784  0.00  0.00    -0.272 OA
ATOM    117  N   PRO d   1     -17.983 -13.375   2.356  0.00  0.00    -0.337 N 
ATOM    118  CA  PRO d   1     -17.782 -11.924   2.255  0.00  0.00     0.091 C 
ATOM    119  CD  PRO d   1     -19.124 -13.832   1.539  0.00  0.00    -0.001 C 
ATOM    120  CB  PRO d   1     -19.061 -11.442   1.556  0.00  0.00    -0.036 C 
ATOM    121  H73 PRO d   1     -16.899 -11.708   1.635  0.00  0.00     0.087 H 
ATOM    122  CG  PRO d   1     -19.516 -12.609   0.764  0.00  0.00    -0.048 C 
ATOM    123  H74 PRO d   1     -18.846 -10.587   0.899  0.00  0.00     0.036 H 
ATOM    124  H75 PRO d   1     -19.823 -11.154   2.295  0.00  0.00     0.036 H 
ATOM    125  H76 PRO d   1     -19.028 -12.612  -0.222  0.00  0.00     0.035 H 
ATOM    126  H77 PRO d   1     -20.608 -12.576   0.633  0.00  0.00     0.035 H 
ATOM    127  H78 PRO d   1     -19.952 -14.174   2.177  0.00  0.00     0.064 H 
ATOM    128  H79 PRO d   1     -18.822 -14.645   0.863  0.00  0.00     0.064 H 
BRANCH 118 129
ATOM    129  C   PRO d   1     -17.604 -11.244   3.598  0.00  0.00     0.241 C 
ATOM    130  O   PRO d   1     -18.502 -11.267   4.446  0.00  0.00    -0.271 OA
ATOM    131  N   ASP d   1     -16.431 -10.640   3.796  0.00  0.00    -0.346 N 
ATOM    132  H80 ASP d   1     -15.702 -10.774   3.124  0.00  0.00     0.163 HD
BRANCH 131 133
ATOM    133  CA  ASP d   1     -16.168  -9.789   4.956  0.00  0.00     0.098 C 
ATOM    134  H81 ASP d   1     -16.590 -10.261   5.855  0.00  0.00     0.088 H 
BRANCH 133 135
ATOM    135  C   ASP d   1     -16.872  -8.450   4.725  0.00  0.00     0.241 C 
ATOM    136  O   ASP d   1     -16.259  -7.404   4.500  0.00  0.00    -0.271 OA
ATOM    137  N   SER d   1     -18.201  -8.511   4.777  0.00  0.00    -0.344 N 
ATOM    138  H84 SER d   1     -18.624  -9.347   5.127  0.00  0.00     0.163 HD
BRANCH 137 139
ATOM    139  CA  SER d   1     -19.071  -7.422   4.350  0.00  0.00     0.109 C 
ATOM    140  H85 SER d   1     -18.537  -6.842   3.583  0.00  0.00     0.090 H 
BRANCH 139 141
ATOM    141  C   SER d   1     -19.451  -6.474   5.477  0.00  0.00     0.243 C 
ATOM    142  O   SER d   1     -20.168  -5.497   5.227  0.00  0.00    -0.271 OA
ATOM    143  N   ASP d   1     -19.010  -6.745   6.702  0.00  0.00    -0.344 N 
ATOM    144  H89 ASP d   1     -18.470  -7.573   6.851  0.00  0.00     0.163 HD
BRANCH 143 145
ATOM    145  CA  ASP d   1     -19.290  -5.873   7.833  0.00  0.00     0.105 C 
ATOM    146  H90 ASP d   1     -19.955  -5.063   7.497  0.00  0.00     0.090 H 
BRANCH 145 147
ATOM    147  C   ASP d   1     -17.988  -5.255   8.338  0.00  0.00     0.197 C 
ATOM    148  O   ASP d   1     -17.174  -4.780   7.546  0.00  0.00    -0.646 OA
ATOM    149  OXT ASP d   1     -17.715  -5.202   9.536  0.00  0.00    -0.646 OA
ENDBRANCH 145 147
BRANCH 145 150
ATOM    150  CB  ASP d   1     -19.998  -6.648   8.945  0.00  0.00     0.044 C 
ATOM    151  H91 ASP d   1     -20.892  -7.130   8.523  0.00  0.00     0.053 H 
ATOM    152  H92 ASP d   1     -20.299  -5.940   9.731  0.00  0.00     0.053 H 
BRANCH 150 153
ATOM    153  CG  ASP d   1     -19.123  -7.711   9.563  0.00  0.00     0.175 C 
ATOM    154  OD1 ASP d   1     -19.259  -7.953  10.782  0.00  0.00    -0.648 OA
ATOM    155  OD2 ASP d   1     -18.294  -8.301   8.833  0.00  0.00    -0.648 OA
ENDBRANCH 150 153
ENDBRANCH 145 150
ENDBRANCH 143 145
ENDBRANCH 139 141
BRANCH 139 156
ATOM    156  CB  SER d   1     -20.344  -7.999   3.735  0.00  0.00     0.044 C 
ATOM    157  H86 SER d   1     -20.098  -8.488   2.781  0.00  0.00     0.077 H 
ATOM    158  H87 SER d   1     -21.062  -7.185   3.555  0.00  0.00     0.077 H 
BRANCH 156 159
ATOM    159  OG  SER d   1     -20.924  -8.951   4.614  0.00  0.00    -0.398 OA
ATOM    160  H88 SER d   1     -21.714  -9.303   4.221  0.00  0.00     0.209 HD
ENDBRANCH 156 159
ENDBRANCH 139 156
ENDBRANCH 137 139
ENDBRANCH 133 135
BRANCH 133 161
ATOM    161  CB  ASP d   1     -14.668  -9.626   5.159  0.00  0.00     0.043 C 
ATOM    162  H82 ASP d   1     -14.286  -8.922   4.405  0.00  0.00     0.052 H 
ATOM    163  H83 ASP d   1     -14.187 -10.606   5.024  0.00  0.00     0.052 H 
BRANCH 161 164
ATOM    164  CG  ASP d   1     -14.316  -9.100   6.534  0.00  0.00     0.175 C 
ATOM    165  OD1 ASP d   1     -13.116  -8.845   6.779  0.00  0.00    -0.648 OA
ATOM    166  OD2 ASP d   1     -15.232  -8.946   7.369  0.00  0.00    -0.648 OA
ENDBRANCH 161 164
ENDBRANCH 133 161
ENDBRANCH 131 133
ENDBRANCH 118 129
ENDBRANCH 112 115
ENDBRANCH 110 112
ENDBRANCH 106 108
BRANCH 106 167
ATOM    167  CB  GLU d   1     -17.497 -18.921   6.033  0.00  0.00    -0.029 C 
ATOM    168  H66 GLU d   1     -18.527 -18.749   6.379  0.00  0.00     0.037 H 
ATOM    169  H67 GLU d   1     -17.010 -19.661   6.685  0.00  0.00     0.037 H 
BRANCH 167 170
ATOM    170  CG  GLU d   1     -17.565 -19.504   4.630  0.00  0.00     0.018 C 
ATOM    171  H68 GLU d   1     -17.624 -20.599   4.710  0.00  0.00     0.049 H 
ATOM    172  H69 GLU d   1     -16.648 -19.224   4.091  0.00  0.00     0.049 H 
BRANCH 170 173
ATOM    173  CD  GLU d   1     -18.768 -19.012   3.825  0.00  0.00     0.172 C 
ATOM    174  OE1 GLU d   1     -19.849 -18.756   4.412  0.00  0.00    -0.648 OA
ATOM    175  OE2 GLU d   1     -18.622 -18.892   2.595  0.00  0.00    -0.648 OA
ENDBRANCH 170 173
ENDBRANCH 167 170
ENDBRANCH 106 167
ENDBRANCH 104 106
ENDBRANCH  89 102
ENDBRANCH  87  89
ENDBRANCH   1  85
BRANCH   1 176
ATOM    176  CB  LYS d   1     -11.519 -14.881  10.190  0.00  0.00    -0.038 C 
ATOM    177  H47 LYS d   1     -11.696 -15.132   9.134  0.00  0.00     0.036 H 
ATOM    178  H48 LYS d   1     -11.303 -15.800  10.754  0.00  0.00     0.036 H 
BRANCH 176 179
ATOM    179  CG  LYS d   1     -10.291 -13.976  10.266  0.00  0.00    -0.061 C 
ATOM    180  H49 LYS d   1      -9.421 -14.519   9.869  0.00  0.00     0.033 H 
ATOM    181  H50 LYS d   1     -10.108 -13.709  11.317  0.00  0.00     0.033 H 
BRANCH 179 182
ATOM    182  CD  LYS d   1     -10.490 -12.700   9.458  0.00  0.00    -0.043 C 
ATOM    183  H51 LYS d   1     -11.225 -12.063   9.973  0.00  0.00     0.035 H 
ATOM    184  H52 LYS d   1     -10.870 -12.966   8.460  0.00  0.00     0.035 H 
BRANCH 182 185
ATOM    185  CE  LYS d   1      -9.185 -11.920   9.299  0.00  0.00     0.080 C 
ATOM    186  H53 LYS d   1      -8.657 -11.916  10.264  0.00  0.00     0.075 H 
ATOM    187  H54 LYS d   1      -9.426 -10.887   9.009  0.00  0.00     0.075 H 
BRANCH 185 188
ATOM    188  NZ  LYS d   1      -8.285 -12.509   8.265  0.00  0.00    -0.079 N 
ATOM    189  H55 LYS d   1      -7.443 -11.959   8.200  0.00  0.00     0.274 HD
ATOM    190  H56 LYS d   1      -8.754 -12.511   7.373  0.00  0.00     0.274 HD
ATOM    191  H57 LYS d   1      -8.050 -13.455   8.523  0.00  0.00     0.274 HD
ENDBRANCH 185 188
ENDBRANCH 182 185
ENDBRANCH 179 182
ENDBRANCH 176 179
ENDBRANCH   1 176
TORSDOF 56
