REMARK  3 active torsions:
REMARK  status: ('A' for Active; 'I' for Inactive)
REMARK    1  A    between atoms: C4_8  and  C7_1 
REMARK    2  A    between atoms: C1_5  and  C_6 
REMARK    3  A    between atoms: C_6  and  N_7 
ROOT
ATOM      1 CL   OQC d   1      34.522 150.375 365.444  0.00  0.00    -0.083 Cl
ATOM      2  C5  OQC d   1      34.081 148.827 366.086  0.00  0.00     0.045 A 
ATOM      3  C6  OQC d   1      34.115 147.741 365.232  0.00  0.00    -0.053 A 
ATOM      4  C1  OQC d   1      33.747 146.480 365.682  0.00  0.00    -0.031 A 
ATOM      5  C4  OQC d   1      33.691 148.695 367.413  0.00  0.00    -0.002 A 
ATOM      6  C3  OQC d   1      33.320 147.428 367.856  0.00  0.00    -0.070 A 
ATOM      7  C2  OQC d   1      33.350 146.342 367.000  0.00  0.00    -0.074 A 
ATOM      8  H1  OQC d   1      34.431 147.875 364.204  0.00  0.00     0.087 H 
ATOM      9  H7  OQC d   1      33.004 147.291 368.884  0.00  0.00     0.084 H 
ATOM     10  H8  OQC d   1      33.057 145.365 367.368  0.00  0.00     0.084 H 
ENDROOT
BRANCH   5  11
ATOM     11  C7  OQC d   1      33.693 149.833 368.362  0.00  0.00    -0.000 A 
ATOM     12  C10 OQC d   1      32.532 150.235 369.075  0.00  0.00    -0.049 A 
ATOM     13  C9  OQC d   1      32.880 151.263 369.854  0.00  0.00     0.019 A 
ATOM     14  H9  OQC d   1      31.542 149.788 369.000  0.00  0.00     0.087 H 
ATOM     15  O   OQC d   1      34.200 151.555 369.691  0.00  0.00    -0.334 OA
ATOM     16  H10 OQC d   1      32.204 151.792 370.524  0.00  0.00     0.123 H 
ATOM     17  C8  OQC d   1      34.673 150.666 368.771  0.00  0.00     0.029 A 
ATOM     18  H11 OQC d   1      35.702 150.633 368.415  0.00  0.00     0.124 H 
ENDBRANCH   5  11
BRANCH   4  19
ATOM     19  C   OQC d   1      33.786 145.300 364.752  0.00  0.00     0.103 C 
ATOM     20  H2  OQC d   1      33.982 145.670 363.735  0.00  0.00     0.082 H 
ATOM     21  H3  OQC d   1      32.803 144.807 364.780  0.00  0.00     0.082 H 
BRANCH  19  22
ATOM     22  N   OQC d   1      34.802 144.310 365.081  0.00  0.00    -0.075 N 
ATOM     23  H4  OQC d   1      34.764 143.555 364.414  0.00  0.00     0.274 HD
ATOM     24  H5  OQC d   1      34.633 143.950 366.007  0.00  0.00     0.274 HD
ATOM     25  H6  OQC d   1      35.713 144.740 365.049  0.00  0.00     0.274 HD
ENDBRANCH  19  22
ENDBRANCH   4  19
TORSDOF 3
