REMARK  1 active torsions:
REMARK  status: ('A' for Active; 'I' for Inactive)
REMARK    1  A    between atoms: C2_2  and  N_7 
ROOT
ATOM      1  N1  2AP d   1      -2.359 -14.171 -17.773  0.00  0.00    -0.244 NA
ATOM      2  C2  2AP d   1      -1.856 -15.391 -17.492  0.00  0.00     0.120 A 
ATOM      3  C3  2AP d   1      -1.327 -15.604 -16.204  0.00  0.00    -0.039 A 
ATOM      4  C4  2AP d   1      -1.331 -14.567 -15.291  0.00  0.00    -0.078 A 
ATOM      5  C5  2AP d   1      -1.852 -13.338 -15.630  0.00  0.00    -0.066 A 
ATOM      6  C6  2AP d   1      -2.370 -13.165 -16.880  0.00  0.00     0.004 A 
ATOM      7  H1  2AP d   1      -0.921 -16.572 -15.932  0.00  0.00     0.089 H 
ATOM      8  H2  2AP d   1      -0.921 -14.722 -14.300  0.00  0.00     0.083 H 
ATOM      9  H3  2AP d   1      -1.851 -12.522 -14.916  0.00  0.00     0.085 H 
ATOM     10  H4  2AP d   1      -2.795 -12.207 -17.157  0.00  0.00     0.114 H 
ENDROOT
BRANCH   2  11
ATOM     11  N   2AP d   1      -1.898 -16.328 -18.431  0.00  0.00    -0.384 N 
ATOM     12  H5  2AP d   1      -1.520 -17.267 -18.239  0.00  0.00     0.157 HD
ATOM     13  H6  2AP d   1      -2.309 -16.116 -19.352  0.00  0.00     0.157 HD
ENDBRANCH   2  11
TORSDOF 1
