REMARK  1 active torsions:
REMARK  status: ('A' for Active; 'I' for Inactive)
REMARK    1  A    between atoms: C1_1  and  N_7 
ROOT
ATOM      1  C1  WOT d   1      -1.631 -15.252 -17.048  0.00  0.00     0.025 A 
ATOM      2  C2  WOT d   1      -1.016 -15.576 -15.858  0.00  0.00    -0.058 A 
ATOM      3  C3  WOT d   1      -1.008 -14.646 -14.834  0.00  0.00    -0.081 A 
ATOM      4  C4  WOT d   1      -1.606 -13.417 -15.007  0.00  0.00    -0.083 A 
ATOM      5  C5  WOT d   1      -2.213 -13.107 -16.206  0.00  0.00    -0.081 A 
ATOM      6  C6  WOT d   1      -2.229 -14.025 -17.240  0.00  0.00    -0.058 A 
ATOM      7  H1  WOT d   1      -0.546 -16.544 -15.727  0.00  0.00     0.086 H 
ATOM      8  H2  WOT d   1      -0.529 -14.885 -13.891  0.00  0.00     0.083 H 
ATOM      9  H3  WOT d   1      -1.599 -12.693 -14.200  0.00  0.00     0.083 H 
ATOM     10  H4  WOT d   1      -2.680 -12.138 -16.339  0.00  0.00     0.083 H 
ATOM     11  H5  WOT d   1      -2.703 -13.784 -18.184  0.00  0.00     0.086 H 
ENDROOT
BRANCH   1  12
ATOM     12  N   WOT d   1      -1.650 -16.235 -18.133  0.00  0.00    -0.399 N 
ATOM     13  H6  WOT d   1      -1.207 -17.155 -18.002  0.00  0.00     0.156 HD
ATOM     14  H7  WOT d   1      -2.107 -16.006 -19.027  0.00  0.00     0.156 HD
ENDBRANCH   1  12
TORSDOF 1
