REMARK  2 active torsions:
REMARK  status: ('A' for Active; 'I' for Inactive)
REMARK    1  A    between atoms: C1_1  and  C_7 
REMARK    2  A    between atoms: C_7  and  N1_8 
ROOT
ATOM      1  C1  BAM d   1      -1.796 -14.876 -17.172  0.00  0.00     0.007 A 
ATOM      2  C2  BAM d   1      -1.951 -13.507 -17.135  0.00  0.00    -0.069 A 
ATOM      3  C3  BAM d   1      -1.670 -12.809 -15.975  0.00  0.00    -0.082 A 
ATOM      4  C4  BAM d   1      -1.237 -13.470 -14.852  0.00  0.00    -0.083 A 
ATOM      5  C5  BAM d   1      -1.042 -14.811 -14.894  0.00  0.00    -0.082 A 
ATOM      6  C6  BAM d   1      -1.331 -15.519 -16.041  0.00  0.00    -0.069 A 
ATOM      7  H1  BAM d   1      -2.294 -12.977 -18.016  0.00  0.00     0.085 H 
ATOM      8  H2  BAM d   1      -1.792 -11.732 -15.952  0.00  0.00     0.083 H 
ATOM      9  H3  BAM d   1      -1.052 -12.922 -13.935  0.00  0.00     0.083 H 
ATOM     10  H4  BAM d   1      -0.657 -15.328 -14.023  0.00  0.00     0.083 H 
ATOM     11  H5  BAM d   1      -1.192 -16.594 -16.056  0.00  0.00     0.085 H 
ENDROOT
BRANCH   1  12
ATOM     12  C   BAM d   1      -2.135 -15.641 -18.383  0.00  0.00     0.102 C 
ATOM     13  N2  BAM d   1      -2.851 -15.100 -19.336  0.00  0.00    -0.385 N 
ATOM     14  H8  BAM d   1      -3.157 -14.120 -19.257  0.00  0.00     0.157 HD
ATOM     15  H9  BAM d   1      -3.108 -15.655 -20.165  0.00  0.00     0.157 HD
BRANCH  12  16
ATOM     16  N1  BAM d   1      -1.753 -16.886 -18.496  0.00  0.00    -0.385 N 
ATOM     17  H6  BAM d   1      -1.990 -17.422 -19.343  0.00  0.00     0.157 HD
ATOM     18  H7  BAM d   1      -1.215 -17.331 -17.738  0.00  0.00     0.157 HD
ENDBRANCH  12  16
ENDBRANCH   1  12
TORSDOF 2
