REMARK  0 active torsions:
REMARK  status: ('A' for Active; 'I' for Inactive)
REMARK       I    between atoms: N4_4  and  C7_7 
REMARK       I    between atoms: C7_7  and  N8_8 
ROOT
ATOM      1  C1  D86 d   1      -1.536 -13.539 -14.687  0.00  0.00    -0.062 C 
ATOM      2  C6  D86 d   1      -1.311 -15.013 -14.833  0.00  0.00    -0.050 C 
ATOM      3  C5  D86 d   1      -0.792 -15.335 -16.172  0.00  0.00     0.011 C 
ATOM      4  N4  D86 d   1      -1.640 -14.798 -17.244  0.00  0.00    -0.219 N 
ATOM      5  C3  D86 d   1      -1.897 -13.357 -17.132  0.00  0.00     0.011 C 
ATOM      6  C2  D86 d   1      -2.437 -13.028 -15.781  0.00  0.00    -0.050 C 
ATOM      7  C7  D86 d   1      -2.008 -15.507 -18.306  0.00  0.00     0.667 C 
ATOM      8  N8  D86 d   1      -1.667 -16.775 -18.438  0.00  0.00    -0.235 N 
ATOM      9  N9  D86 d   1      -2.738 -14.978 -19.263  0.00  0.00    -0.235 N 
ATOM     10  H1  D86 d   1      -0.569 -13.018 -14.743  0.00  0.00     0.033 H 
ATOM     11  H2  D86 d   1      -2.003 -13.340 -13.711  0.00  0.00     0.033 H 
ATOM     12  H3  D86 d   1      -2.264 -15.540 -14.680  0.00  0.00     0.035 H 
ATOM     13  H4  D86 d   1      -0.584 -15.343 -14.076  0.00  0.00     0.035 H 
ATOM     14  H5  D86 d   1      -0.740 -16.429 -16.277  0.00  0.00     0.065 H 
ATOM     15  H6  D86 d   1       0.217 -14.908 -16.272  0.00  0.00     0.065 H 
ATOM     16  H7  D86 d   1      -2.629 -13.059 -17.897  0.00  0.00     0.065 H 
ATOM     17  H8  D86 d   1      -0.957 -12.808 -17.290  0.00  0.00     0.065 H 
ATOM     18  H9  D86 d   1      -2.527 -11.936 -15.689  0.00  0.00     0.035 H 
ATOM     19  H10 D86 d   1      -3.430 -13.489 -15.671  0.00  0.00     0.035 H 
ATOM     20  H11 D86 d   1      -1.964 -17.304 -19.270  0.00  0.00     0.174 HD
ATOM     21  H12 D86 d   1      -1.104 -17.235 -17.709  0.00  0.00     0.174 HD
ATOM     22  H13 D86 d   1      -3.029 -13.992 -19.204  0.00  0.00     0.174 HD
ATOM     23  H14 D86 d   1      -3.019 -15.550 -20.072  0.00  0.00     0.174 HD
ENDROOT
TORSDOF 0
