REMARK  9 active torsions:
REMARK  status: ('A' for Active; 'I' for Inactive)
REMARK    1  A    between atoms: NBG_3  and  CBJ_4 
REMARK    2  A    between atoms: NBD_7  and  CBC_8 
REMARK    3  A    between atoms: CBC_8  and  CAZ_9 
REMARK    4  A    between atoms: CAV_14  and  CAU_15 
REMARK       I    between atoms: CAU_15  and  NAT_17 
REMARK    5  A    between atoms: NAT_17  and  CAO_18 
REMARK    6  A    between atoms: CAR_22  and  CAS_23 
REMARK    7  A    between atoms: CAM_24  and  NAL_25 
REMARK    8  A    between atoms: NAL_25  and  CAJ_26 
REMARK    9  A    between atoms: CAG_30  and  CAF_31 
ROOT
ATOM      1  CAU G65 d   1      33.725  84.672   7.969  0.00  0.00     0.256 C 
ATOM      2  OAW G65 d   1      32.919  83.949   7.378  0.00  0.00    -0.267 OA
ATOM      3  NAT G65 d   1      34.116  84.531   9.259  0.00  0.00    -0.323 N 
ATOM      4  H20 G65 d   1      34.767  85.180   9.653  0.00  0.00     0.169 HD
ENDROOT
BRANCH   1   5
ATOM      5  CAV G65 d   1      34.326  85.738   7.313  0.00  0.00     0.032 A 
ATOM      6  CBB G65 d   1      34.146  87.036   7.810  0.00  0.00    -0.067 A 
ATOM      7  CBA G65 d   1      34.760  88.105   7.164  0.00  0.00    -0.074 A 
ATOM      8  H17 G65 d   1      33.535  87.206   8.689  0.00  0.00     0.085 H 
ATOM      9  CAZ G65 d   1      35.544  87.873   6.027  0.00  0.00    -0.033 A 
ATOM     10  H16 G65 d   1      34.632  89.114   7.540  0.00  0.00     0.084 H 
ATOM     11  CAY G65 d   1      35.705  86.575   5.516  0.00  0.00    -0.074 A 
ATOM     12  CAX G65 d   1      35.103  85.497   6.169  0.00  0.00    -0.067 A 
ATOM     13  H18 G65 d   1      36.293  86.411   4.620  0.00  0.00     0.084 H 
ATOM     14  H19 G65 d   1      35.234  84.487   5.797  0.00  0.00     0.085 H 
BRANCH   9  15
ATOM     15  CBC G65 d   1      36.157  88.958   5.399  0.00  0.00     0.107 C 
ATOM     16  H14 G65 d   1      36.035  88.852   4.311  0.00  0.00     0.083 H 
ATOM     17  H15 G65 d   1      35.666  89.884   5.734  0.00  0.00     0.083 H 
BRANCH  15  18
ATOM     18  NBD G65 d   1      37.599  89.046   5.709  0.00  0.00    -0.064 N 
ATOM     19  CBE G65 d   1      37.901  90.268   6.484  0.00  0.00     0.106 C 
ATOM     20  CBF G65 d   1      39.406  90.376   6.746  0.00  0.00     0.105 C 
ATOM     21  H1  G65 d   1      37.568  91.149   5.916  0.00  0.00     0.078 H 
ATOM     22  H2  G65 d   1      37.368  90.228   7.445  0.00  0.00     0.078 H 
ATOM     23  NBG G65 d   1      40.242  90.154   5.538  0.00  0.00    -0.072 N 
ATOM     24  H3  G65 d   1      39.681  89.625   7.501  0.00  0.00     0.078 H 
ATOM     25  H4  G65 d   1      39.619  91.383   7.135  0.00  0.00     0.078 H 
ATOM     26  CBH G65 d   1      39.847  89.017   4.687  0.00  0.00     0.105 C 
ATOM     27  H5  G65 d   1      40.226  90.995   4.982  0.00  0.00     0.279 HD
ATOM     28  CBI G65 d   1      38.348  89.014   4.436  0.00  0.00     0.106 C 
ATOM     29  H9  G65 d   1      40.129  88.079   5.188  0.00  0.00     0.078 H 
ATOM     30  H10 G65 d   1      40.372  89.091   3.723  0.00  0.00     0.078 H 
ATOM     31  H11 G65 d   1      38.078  88.103   3.882  0.00  0.00     0.078 H 
ATOM     32  H12 G65 d   1      38.081  89.899   3.839  0.00  0.00     0.078 H 
ATOM     33  H13 G65 d   1      37.864  88.246   6.263  0.00  0.00     0.280 HD
BRANCH  23  34
ATOM     34  CBJ G65 d   1      41.608  89.865   5.984  0.00  0.00     0.066 C 
ATOM     35  H6  G65 d   1      42.252  89.696   5.108  0.00  0.00     0.068 H 
ATOM     36  H7  G65 d   1      41.605  88.965   6.616  0.00  0.00     0.068 H 
ATOM     37  H8  G65 d   1      41.993  90.718   6.562  0.00  0.00     0.068 H 
ENDBRANCH  23  34
ENDBRANCH  15  18
ENDBRANCH   9  15
ENDBRANCH   1   5
BRANCH   3  38
ATOM     38  CAO G65 d   1      33.639  83.532  10.011  0.00  0.00     0.037 C 
ATOM     39  CAN G65 d   1      34.014  82.205   9.756  0.00  0.00    -0.031 C 
ATOM     40  CAM G65 d   1      33.500  81.143  10.500  0.00  0.00     0.042 C 
ATOM     41  H21 G65 d   1      34.721  81.999   8.961  0.00  0.00     0.090 H 
ATOM     42  CAR G65 d   1      32.723  81.437  11.645  0.00  0.00    -0.035 C 
ATOM     43  CAQ G65 d   1      32.368  82.765  11.894  0.00  0.00    -0.073 C 
ATOM     44  CAP G65 d   1      32.832  83.819  11.109  0.00  0.00    -0.057 C 
ATOM     45  H23 G65 d   1      31.709  82.983  12.726  0.00  0.00     0.084 H 
ATOM     46  H22 G65 d   1      32.570  84.843  11.349  0.00  0.00     0.086 H 
BRANCH  40  47
ATOM     47  NAL G65 d   1      33.974  79.903  10.238  0.00  0.00    -0.335 N 
ATOM     48  H27 G65 d   1      34.989  79.755  10.328  0.00  0.00     0.168 HD
BRANCH  47  49
ATOM     49  CAJ G65 d   1      33.225  78.850   9.870  0.00  0.00     0.171 A 
ATOM     50  NAK G65 d   1      33.698  77.592   9.890  0.00  0.00    -0.223 NA
ATOM     51  CAG G65 d   1      32.791  76.631   9.556  0.00  0.00     0.078 A 
ATOM     52  CAH G65 d   1      31.559  77.109   9.256  0.00  0.00    -0.013 A 
ATOM     53  SAI G65 d   1      31.597  78.804   9.404  0.00  0.00    -0.061 SA
ATOM     54  H28 G65 d   1      30.694  76.512   8.970  0.00  0.00     0.098 H 
BRANCH  51  55
ATOM     55  CAF G65 d   1      33.107  75.312   9.541  0.00  0.00     0.011 A 
ATOM     56  CAA G65 d   1      32.129  74.310   9.653  0.00  0.00    -0.068 A 
ATOM     57  CAB G65 d   1      32.485  72.956   9.649  0.00  0.00    -0.065 A 
ATOM     58  H29 G65 d   1      31.085  74.589   9.744  0.00  0.00     0.085 H 
ATOM     59  CAC G65 d   1      33.820  72.559   9.548  0.00  0.00     0.002 A 
ATOM     60  H30 G65 d   1      31.710  72.202   9.726  0.00  0.00     0.085 H 
ATOM     61  NAD G65 d   1      34.816  73.539   9.436  0.00  0.00    -0.272 NA
ATOM     62  H31 G65 d   1      34.083  71.507   9.556  0.00  0.00     0.114 H 
ATOM     63  CAE G65 d   1      34.443  74.902   9.443  0.00  0.00     0.014 A 
ATOM     64  H32 G65 d   1      35.218  75.657   9.370  0.00  0.00     0.116 H 
ENDBRANCH  51  55
ENDBRANCH  47  49
ENDBRANCH  40  47
BRANCH  42  65
ATOM     65  CAS G65 d   1      32.198  80.498  12.520  0.00  0.00    -0.049 C 
ATOM     66  H24 G65 d   1      31.639  81.011  13.316  0.00  0.00     0.033 H 
ATOM     67  H25 G65 d   1      33.017  79.913  12.965  0.00  0.00     0.033 H 
ATOM     68  H26 G65 d   1      31.522  79.825  11.973  0.00  0.00     0.033 H 
ENDBRANCH  42  65
ENDBRANCH   3  38
TORSDOF 9
