REMARK  9 active torsions:
REMARK  status: ('A' for Active; 'I' for Inactive)
REMARK    1  A    between atoms: C5_3  and  C7_7 
REMARK    2  A    between atoms: C9_11  and  N13_13 
REMARK    3  A    between atoms: N13_13  and  C14_14 
REMARK    4  A    between atoms: C19_15  and  C20_37 
REMARK    5  A    between atoms: C16_18  and  N21_20 
REMARK       I    between atoms: N21_20  and  C22_21 
REMARK    6  A    between atoms: C22_21  and  C23_22 
REMARK    7  A    between atoms: C27_25  and  C46_28 
REMARK    8  A    between atoms: C46_28  and  N48_29 
REMARK    9  A    between atoms: N51_32  and  C54_33 
ROOT
ATOM      1  N21 STI d   1     -10.362 131.823  24.920  0.00  0.00    -0.323 N 
ATOM      2  C22 STI d   1     -11.241 132.823  25.148  0.00  0.00     0.256 C 
ATOM      3  O29 STI d   1     -11.839 132.964  26.209  0.00  0.00    -0.267 OA
ATOM      4  H11 STI d   1      -9.986 131.763  23.995  0.00  0.00     0.169 HD
ENDROOT
BRANCH   1   5
ATOM      5  C16 STI d   1      -9.915 130.853  25.843  0.00  0.00     0.037 A 
ATOM      6  C17 STI d   1     -10.463 130.799  27.109  0.00  0.00    -0.057 A 
ATOM      7  C18 STI d   1     -10.031 129.844  28.005  0.00  0.00    -0.073 A 
ATOM      8  H9  STI d   1     -11.232 131.506  27.398  0.00  0.00     0.086 H 
ATOM      9  C19 STI d   1      -9.045 128.922  27.681  0.00  0.00    -0.035 A 
ATOM     10  H8  STI d   1     -10.475 129.812  28.993  0.00  0.00     0.084 H 
ATOM     11  C14 STI d   1      -8.487 128.994  26.407  0.00  0.00     0.057 A 
ATOM     12  C15 STI d   1      -8.925 129.947  25.492  0.00  0.00    -0.030 A 
ATOM     13  H10 STI d   1      -8.490 129.981  24.500  0.00  0.00     0.090 H 
BRANCH   9  14
ATOM     14  C20 STI d   1      -8.613 127.879  28.674  0.00  0.00    -0.049 C 
ATOM     15  H31 STI d   1      -7.828 127.251  28.228  0.00  0.00     0.033 H 
ATOM     16  H32 STI d   1      -9.475 127.251  28.945  0.00  0.00     0.033 H 
ATOM     17  H33 STI d   1      -8.220 128.372  29.576  0.00  0.00     0.033 H 
ENDBRANCH   9  14
BRANCH  11  18
ATOM     18  N13 STI d   1      -7.430 128.143  26.106  0.00  0.00    -0.188 N 
ATOM     19  H7  STI d   1      -6.576 128.625  25.792  0.00  0.00     0.184 HD
BRANCH  18  20
ATOM     20  C9  STI d   1      -7.321 126.789  26.151  0.00  0.00     0.727 A 
ATOM     21  N10 STI d   1      -6.118 126.327  25.789  0.00  0.00    -0.075 NA
ATOM     22  C11 STI d   1      -5.975 125.001  25.845  0.00  0.00     0.023 A 
ATOM     23  C12 STI d   1      -6.981 124.151  26.243  0.00  0.00    -0.036 A 
ATOM     24  H6  STI d   1      -5.020 124.573  25.563  0.00  0.00     0.115 H 
ATOM     25  C7  STI d   1      -8.188 124.729  26.591  0.00  0.00     0.089 A 
ATOM     26  H5  STI d   1      -6.834 123.078  26.282  0.00  0.00     0.089 H 
ATOM     27  N8  STI d   1      -8.373 126.059  26.546  0.00  0.00    -0.062 NA
BRANCH  25  28
ATOM     28  C5  STI d   1      -9.339 123.922  27.063  0.00  0.00     0.011 A 
ATOM     29  C6  STI d   1     -10.463 124.510  27.623  0.00  0.00    -0.068 A 
ATOM     30  C1  STI d   1     -11.483 123.718  28.108  0.00  0.00    -0.065 A 
ATOM     31  H2  STI d   1     -10.540 125.590  27.680  0.00  0.00     0.085 H 
ATOM     32  C2  STI d   1     -11.356 122.354  28.012  0.00  0.00     0.002 A 
ATOM     33  H1  STI d   1     -12.365 124.162  28.555  0.00  0.00     0.085 H 
ATOM     34  N3  STI d   1     -10.297 121.752  27.469  0.00  0.00    -0.272 NA
ATOM     35  H4  STI d   1     -12.158 121.735  28.397  0.00  0.00     0.114 H 
ATOM     36  C4  STI d   1      -9.319 122.536  27.009  0.00  0.00     0.014 A 
ATOM     37  H3  STI d   1      -8.453 122.058  26.564  0.00  0.00     0.116 H 
ENDBRANCH  25  28
ENDBRANCH  18  20
ENDBRANCH  11  18
ENDBRANCH   1   5
BRANCH   2  38
ATOM     38  C23 STI d   1     -11.455 133.767  24.013  0.00  0.00     0.032 A 
ATOM     39  C25 STI d   1     -10.781 133.563  22.821  0.00  0.00    -0.067 A 
ATOM     40  C26 STI d   1     -10.969 134.416  21.750  0.00  0.00    -0.074 A 
ATOM     41  H12 STI d   1     -10.099 132.726  22.727  0.00  0.00     0.085 H 
ATOM     42  C27 STI d   1     -11.831 135.494  21.838  0.00  0.00    -0.033 A 
ATOM     43  H13 STI d   1     -10.432 134.237  20.826  0.00  0.00     0.084 H 
ATOM     44  C28 STI d   1     -12.490 135.708  23.036  0.00  0.00    -0.074 A 
ATOM     45  C29 STI d   1     -12.311 134.855  24.110  0.00  0.00    -0.067 A 
ATOM     46  H14 STI d   1     -13.157 136.557  23.134  0.00  0.00     0.084 H 
ATOM     47  H15 STI d   1     -12.844 135.038  25.036  0.00  0.00     0.085 H 
BRANCH  42  48
ATOM     48  C46 STI d   1     -12.084 136.373  20.637  0.00  0.00     0.107 C 
ATOM     49  H16 STI d   1     -13.160 136.345  20.411  0.00  0.00     0.083 H 
ATOM     50  H17 STI d   1     -11.519 135.964  19.786  0.00  0.00     0.083 H 
BRANCH  48  51
ATOM     51  N48 STI d   1     -11.690 137.776  20.817  0.00  0.00    -0.064 N 
ATOM     52  C53 STI d   1     -10.764 138.206  19.779  0.00  0.00     0.106 C 
ATOM     53  C52 STI d   1     -10.448 139.671  19.933  0.00  0.00     0.105 C 
ATOM     54  H19 STI d   1     -11.220 138.035  18.793  0.00  0.00     0.078 H 
ATOM     55  H20 STI d   1      -9.834 137.624  19.859  0.00  0.00     0.078 H 
ATOM     56  N51 STI d   1      -9.846 139.939  21.234  0.00  0.00    -0.072 N 
ATOM     57  H21 STI d   1     -11.377 140.252  19.840  0.00  0.00     0.078 H 
ATOM     58  H22 STI d   1      -9.746 139.973  19.142  0.00  0.00     0.078 H 
ATOM     59  C50 STI d   1     -10.737 139.469  22.290  0.00  0.00     0.105 C 
ATOM     60  H23 STI d   1      -8.975 139.436  21.298  0.00  0.00     0.279 HD
ATOM     61  C49 STI d   1     -11.062 138.003  22.112  0.00  0.00     0.106 C 
ATOM     62  H27 STI d   1     -11.670 140.051  22.259  0.00  0.00     0.078 H 
ATOM     63  H28 STI d   1     -10.247 139.613  23.264  0.00  0.00     0.078 H 
ATOM     64  H29 STI d   1     -10.134 137.416  22.173  0.00  0.00     0.078 H 
ATOM     65  H30 STI d   1     -11.750 137.685  22.909  0.00  0.00     0.078 H 
ATOM     66  H18 STI d   1     -12.522 138.342  20.761  0.00  0.00     0.280 HD
BRANCH  56  67
ATOM     67  C54 STI d   1      -9.573 141.359  21.388  0.00  0.00     0.066 C 
ATOM     68  H24 STI d   1      -9.120 141.541  22.374  0.00  0.00     0.068 H 
ATOM     69  H25 STI d   1     -10.513 141.924  21.307  0.00  0.00     0.068 H 
ATOM     70  H26 STI d   1      -8.879 141.687  20.600  0.00  0.00     0.068 H 
ENDBRANCH  56  67
ENDBRANCH  48  51
ENDBRANCH  42  48
ENDBRANCH   2  38
TORSDOF 9
