REMARK  12 active torsions:
REMARK  status: ('A' for Active; 'I' for Inactive)
REMARK    1  A    between atoms: C01_1  and  O02_2 
REMARK    2  A    between atoms: O02_2  and  C03_3 
REMARK    3  A    between atoms: C06_6  and  O07_7 
REMARK    4  A    between atoms: O07_7  and  C08_8 
REMARK    5  A    between atoms: C09_9  and  C11_11 
REMARK    6  A    between atoms: N13_13  and  C14_14 
REMARK    7  A    between atoms: C15_15  and  C17_17 
REMARK       I    between atoms: C17_17  and  N19_19 
REMARK    8  A    between atoms: N19_19  and  C20_20 
REMARK    9  A    between atoms: C22_22  and  C26_26 
REMARK   10  A    between atoms: C27_27  and  C33_33 
REMARK   11  A    between atoms: C29_29  and  S31_31 
REMARK   12  A    between atoms: S31_31  and  C32_32 
ROOT
ATOM      1  C17 D5Q d   1      38.234  10.977  34.885  0.00  0.00     0.274 C 
ATOM      2  O18 D5Q d   1      38.361  12.152  34.835  0.00  0.00    -0.266 OA
ATOM      3  N19 D5Q d   1      39.081  10.138  35.734  0.00  0.00    -0.306 N 
ATOM      4  H15 D5Q d   1      38.928   9.150  35.732  0.00  0.00     0.170 HD
ENDROOT
BRANCH   3   5
ATOM      5  C20 D5Q d   1      40.143  10.679  36.587  0.00  0.00     0.130 A 
ATOM      6  C21 D5Q d   1      40.024  11.957  37.125  0.00  0.00    -0.026 A 
ATOM      7  C22 D5Q d   1      41.043  12.450  37.940  0.00  0.00    -0.002 A 
ATOM      8  H16 D5Q d   1      39.150  12.562  36.913  0.00  0.00     0.090 H 
ATOM      9  C23 D5Q d   1      42.123  11.617  38.204  0.00  0.00    -0.054 A 
ATOM     10  C24 D5Q d   1      42.175  10.345  37.643  0.00  0.00     0.005 A 
ATOM     11  H17 D5Q d   1      42.926  11.958  38.848  0.00  0.00     0.087 H 
ATOM     12  N25 D5Q d   1      41.185   9.925  36.865  0.00  0.00    -0.243 NA
ATOM     13  H18 D5Q d   1      43.022   9.698  37.841  0.00  0.00     0.114 H 
BRANCH   7  14
ATOM     14  C26 D5Q d   1      40.909  13.857  38.539  0.00  0.00     0.074 A 
ATOM     15  C27 D5Q d   1      41.875  14.764  38.893  0.00  0.00     0.097 A 
ATOM     16  N28 D5Q d   1      41.268  15.828  39.372  0.00  0.00    -0.222 NA
ATOM     17  C29 D5Q d   1      39.948  15.611  39.333  0.00  0.00     0.167 A 
ATOM     18  N30 D5Q d   1      39.741  14.392  38.816  0.00  0.00    -0.333 N 
ATOM     19  H19 D5Q d   1      38.824  13.950  38.662  0.00  0.00     0.168 HD
BRANCH  15  20
ATOM     20  C33 D5Q d   1      43.394  14.662  38.782  0.00  0.00    -0.005 A 
ATOM     21  C34 D5Q d   1      44.168  14.978  39.885  0.00  0.00    -0.068 A 
ATOM     22  C35 D5Q d   1      45.551  14.908  39.806  0.00  0.00    -0.045 A 
ATOM     23  H23 D5Q d   1      43.693  15.280  40.811  0.00  0.00     0.085 H 
ATOM     24  C36 D5Q d   1      46.158  14.529  38.620  0.00  0.00     0.116 A 
ATOM     25  H24 D5Q d   1      46.157  15.150  40.672  0.00  0.00     0.088 H 
ATOM     26  F37 D5Q d   1      47.520  14.459  38.546  0.00  0.00    -0.206 F 
ATOM     27  C38 D5Q d   1      45.385  14.222  37.514  0.00  0.00    -0.045 A 
ATOM     28  C39 D5Q d   1      43.999  14.292  37.592  0.00  0.00    -0.068 A 
ATOM     29  H25 D5Q d   1      45.861  13.927  36.586  0.00  0.00     0.088 H 
ATOM     30  H26 D5Q d   1      43.393  14.058  36.724  0.00  0.00     0.085 H 
ENDBRANCH  15  20
BRANCH  17  31
ATOM     31  S31 D5Q d   1      38.651  16.762  39.876  0.00  0.00    -0.096 SA
BRANCH  31  32
ATOM     32  C32 D5Q d   1      37.357  16.808  38.602  0.00  0.00    -0.027 C 
ATOM     33  H20 D5Q d   1      36.561  17.501  38.913  0.00  0.00     0.042 H 
ATOM     34  H21 D5Q d   1      36.936  15.800  38.471  0.00  0.00     0.042 H 
ATOM     35  H22 D5Q d   1      37.791  17.151  37.651  0.00  0.00     0.042 H 
ENDBRANCH  31  32
ENDBRANCH  17  31
ENDBRANCH   7  14
ENDBRANCH   3   5
BRANCH   1  36
ATOM     36  C15 D5Q d   1      37.143  10.274  34.063  0.00  0.00     0.103 A 
ATOM     37  N13 D5Q d   1      36.592  10.635  32.889  0.00  0.00    -0.356 N 
ATOM     38  C12 D5Q d   1      35.661   9.733  32.526  0.00  0.00    -0.009 A 
ATOM     39  C11 D5Q d   1      35.615   8.774  33.518  0.00  0.00    -0.005 A 
ATOM     40  H10 D5Q d   1      35.057   9.756  31.620  0.00  0.00     0.112 H 
ATOM     41  C16 D5Q d   1      36.535   9.111  34.466  0.00  0.00    -0.039 A 
ATOM     42  H14 D5Q d   1      36.749   8.557  35.379  0.00  0.00     0.088 H 
BRANCH  37  43
ATOM     43  C14 D5Q d   1      36.947  11.810  32.115  0.00  0.00    -0.014 C 
ATOM     44  H11 D5Q d   1      36.333  11.848  31.203  0.00  0.00     0.057 H 
ATOM     45  H12 D5Q d   1      38.011  11.760  31.839  0.00  0.00     0.057 H 
ATOM     46  H13 D5Q d   1      36.767  12.713  32.716  0.00  0.00     0.057 H 
ENDBRANCH  37  43
BRANCH  39  47
ATOM     47  C09 D5Q d   1      34.737   7.524  33.598  0.00  0.00     0.011 A 
ATOM     48  C06 D5Q d   1      33.356   7.614  33.685  0.00  0.00     0.079 A 
ATOM     49  C05 D5Q d   1      32.617   6.446  33.768  0.00  0.00    -0.047 A 
ATOM     50  C04 D5Q d   1      33.249   5.207  33.780  0.00  0.00    -0.048 A 
ATOM     51  H5  D5Q d   1      31.536   6.498  33.824  0.00  0.00     0.087 H 
ATOM     52  C03 D5Q d   1      34.630   5.131  33.706  0.00  0.00     0.069 A 
ATOM     53  H4  D5Q d   1      32.660   4.300  33.847  0.00  0.00     0.087 H 
ATOM     54  C10 D5Q d   1      35.372   6.296  33.624  0.00  0.00    -0.037 A 
ATOM     55  H9  D5Q d   1      36.454   6.246  33.580  0.00  0.00     0.089 H 
BRANCH  48  56
ATOM     56  O07 D5Q d   1      32.751   8.883  33.656  0.00  0.00    -0.355 OA
BRANCH  56  57
ATOM     57  C08 D5Q d   1      31.455   9.061  34.161  0.00  0.00     0.010 C 
ATOM     58  H6  D5Q d   1      31.160  10.115  34.050  0.00  0.00     0.066 H 
ATOM     59  H7  D5Q d   1      31.435   8.785  35.226  0.00  0.00     0.066 H 
ATOM     60  H8  D5Q d   1      30.753   8.423  33.604  0.00  0.00     0.066 H 
ENDBRANCH  56  57
ENDBRANCH  48  56
BRANCH  52  61
ATOM     61  O02 D5Q d   1      35.282   3.891  33.721  0.00  0.00    -0.356 OA
BRANCH  61  62
ATOM     62  C01 D5Q d   1      36.022   3.589  32.568  0.00  0.00     0.010 C 
ATOM     63  H1  D5Q d   1      36.491   2.600  32.682  0.00  0.00     0.066 H 
ATOM     64  H2  D5Q d   1      36.803   4.350  32.423  0.00  0.00     0.066 H 
ATOM     65  H3  D5Q d   1      35.353   3.579  31.695  0.00  0.00     0.066 H 
ENDBRANCH  61  62
ENDBRANCH  52  61
ENDBRANCH  39  47
ENDBRANCH   1  36
TORSDOF 12
