REMARK  7 active torsions:
REMARK  status: ('A' for Active; 'I' for Inactive)
REMARK    1  A    between atoms: C10_5  and  C9_4 
REMARK    2  A    between atoms: N20_22  and  C10_5 
REMARK    3  A    between atoms: O17_19  and  C16_18 
REMARK    4  A    between atoms: C18_20  and  O17_19 
REMARK    5  A    between atoms: C19_21  and  C18_20 
REMARK    6  A    between atoms: N20_22  and  C19_21 
REMARK    7  A    between atoms: C24_25  and  C25_26 
ROOT
ATOM      1  C21 GH4 d   1      53.881  47.771  16.547  0.00  0.00     0.169 A 
ATOM      2  C28 GH4 d   1      53.304  46.419  16.472  0.00  0.00     0.179 A 
ATOM      3  N20 GH4 d   1      54.336  48.381  17.630  0.00  0.00    -0.357 N 
ATOM      4  N22 GH4 d   1      54.001  48.364  15.380  0.00  0.00    -0.207 NA
ATOM      5  C25 GH4 d   1      53.596  47.834  14.212  0.00  0.00     0.168 A 
ATOM      6  N26 GH4 d   1      53.043  46.612  14.089  0.00  0.00    -0.237 NA
ATOM      7  C27 GH4 d   1      52.948  45.984  15.241  0.00  0.00     0.045 A 
ATOM      8  F29 GH4 d   1      53.160  45.644  17.605  0.00  0.00    -0.201 F 
ATOM      9  H19 GH4 d   1      52.529  44.985  15.199  0.00  0.00     0.119 H 
ENDROOT
BRANCH   3  10
ATOM     10  C10 GH4 d   1      54.127  48.008  19.056  0.00  0.00     0.020 C 
ATOM     11  H4  GH4 d   1      53.997  48.918  19.660  0.00  0.00     0.071 H 
ATOM     12  H5  GH4 d   1      53.230  47.378  19.144  0.00  0.00     0.071 H 
BRANCH  10  13
ATOM     13  C9  GH4 d   1      55.318  47.252  19.542  0.00  0.00    -0.037 A 
ATOM     14  C1  GH4 d   1      55.501  45.842  19.340  0.00  0.00    -0.072 A 
ATOM     15  C2  GH4 d   1      56.610  45.062  19.700  0.00  0.00    -0.047 A 
ATOM     16  H10 GH4 d   1      54.687  45.319  18.852  0.00  0.00     0.084 H 
ATOM     17  C3  GH4 d   1      57.593  45.704  20.380  0.00  0.00     0.105 A 
ATOM     18  H1  GH4 d   1      56.678  44.009  19.450  0.00  0.00     0.087 H 
ATOM     19  O4  GH4 d   1      58.811  45.331  20.880  0.00  0.00    -0.323 OA
ATOM     20  C7  GH4 d   1      57.438  47.098  20.586  0.00  0.00     0.105 A 
ATOM     21  C5  GH4 d   1      59.108  46.290  21.889  0.00  0.00     0.115 C 
ATOM     22  O6  GH4 d   1      58.553  47.457  21.293  0.00  0.00    -0.323 OA
ATOM     23  H2  GH4 d   1      60.191  46.390  22.050  0.00  0.00     0.118 H 
ATOM     24  H3  GH4 d   1      58.616  46.045  22.842  0.00  0.00     0.118 H 
ATOM     25  C8  GH4 d   1      56.287  47.835  20.205  0.00  0.00    -0.040 A 
ATOM     26  H11 GH4 d   1      56.209  48.885  20.463  0.00  0.00     0.088 H 
ENDBRANCH  10  13
ENDBRANCH   3  10
BRANCH   3  27
ATOM     27  C19 GH4 d   1      55.018  49.739  17.411  0.00  0.00     0.017 C 
ATOM     28  H15 GH4 d   1      55.471  50.051  18.364  0.00  0.00     0.067 H 
ATOM     29  H16 GH4 d   1      55.807  49.607  16.656  0.00  0.00     0.067 H 
BRANCH  27  30
ATOM     30  C18 GH4 d   1      54.043  50.914  16.913  0.00  0.00     0.041 C 
ATOM     31  H13 GH4 d   1      54.609  51.660  16.335  0.00  0.00     0.077 H 
ATOM     32  H14 GH4 d   1      53.237  50.501  16.289  0.00  0.00     0.077 H 
BRANCH  30  33
ATOM     33  O17 GH4 d   1      53.534  51.473  18.020  0.00  0.00    -0.350 OA
BRANCH  33  34
ATOM     34  C16 GH4 d   1      54.267  52.369  18.837  0.00  0.00     0.068 C 
ATOM     35  C11 GH4 d   1      53.669  52.589  20.061  0.00  0.00    -0.051 C 
ATOM     36  C12 GH4 d   1      54.312  53.420  20.991  0.00  0.00    -0.080 C 
ATOM     37  H6  GH4 d   1      52.718  52.127  20.300  0.00  0.00     0.087 H 
ATOM     38  C13 GH4 d   1      55.490  53.983  20.517  0.00  0.00    -0.083 C 
ATOM     39  H7  GH4 d   1      53.925  53.605  21.987  0.00  0.00     0.083 H 
ATOM     40  C14 GH4 d   1      56.118  53.747  19.377  0.00  0.00    -0.080 C 
ATOM     41  H8  GH4 d   1      55.957  54.713  21.168  0.00  0.00     0.083 H 
ATOM     42  C15 GH4 d   1      55.580  52.855  18.498  0.00  0.00    -0.051 C 
ATOM     43  H9  GH4 d   1      57.047  54.255  19.145  0.00  0.00     0.083 H 
ATOM     44  H12 GH4 d   1      56.104  52.533  17.605  0.00  0.00     0.087 H 
ENDBRANCH  33  34
ENDBRANCH  30  33
ENDBRANCH  27  30
ENDBRANCH   3  27
BRANCH   5  45
ATOM     45  C24 GH4 d   1      53.779  48.610  13.043  0.00  0.00     0.040 C 
ATOM     46  N23 GH4 d   1      53.405  48.183  11.876  0.00  0.00    -0.308 NA
ATOM     47  H17 GH4 d   1      53.548  48.757  11.060  0.00  0.00     0.186 HD
ATOM     48  H18 GH4 d   1      54.246  49.591  13.125  0.00  0.00     0.119 H 
ENDBRANCH   5  45
TORSDOF 7
