REMARK  13 active torsions:
REMARK  status: ('A' for Active; 'I' for Inactive)
REMARK    1  A    between atoms: C4_4  and  O4_5 
REMARK    2  A    between atoms: O4_5  and  C21_30 
REMARK    3  A    between atoms: C8_10  and  O8_11 
REMARK    4  A    between atoms: C10_13  and  O10_14 
REMARK    5  A    between atoms: O10_14  and  C1'_31 
REMARK    6  A    between atoms: C12_16  and  O12_17 
REMARK    7  A    between atoms: C12_16  and  C13_18 
REMARK    8  A    between atoms: C13_18  and  C14_20 
REMARK    9  A    between atoms: C14_20  and  O14_21 
REMARK   10  A    between atoms: C17_24  and  O17_25 
REMARK   11  A    between atoms: C3'_33  and  N3'_34 
REMARK   12  A    between atoms: C4'_35  and  O4'_36 
REMARK   13  A    between atoms: C5'_37  and  C6'_39 
ROOT
ATOM      1  C1  DM2 d   1     -18.297 -31.706  17.825  0.00  0.00    -0.068 A 
ATOM      2  C2  DM2 d   1     -17.261 -31.301  18.647  0.00  0.00    -0.079 A 
ATOM      3  C3  DM2 d   1     -15.927 -31.410  18.242  0.00  0.00    -0.050 A 
ATOM      4  C4  DM2 d   1     -15.554 -31.922  17.014  0.00  0.00     0.083 A 
ATOM      5  C5  DM2 d   1     -16.613 -32.369  16.089  0.00  0.00     0.062 A 
ATOM      6  C6  DM2 d   1     -16.292 -32.931  14.747  0.00  0.00     0.200 A 
ATOM      7  O6  DM2 d   1     -15.115 -33.049  14.351  0.00  0.00    -0.286 OA
ATOM      8  C7  DM2 d   1     -17.401 -33.367  13.863  0.00  0.00     0.066 A 
ATOM      9  C8  DM2 d   1     -17.103 -33.933  12.511  0.00  0.00     0.090 A 
ATOM     10  C9  DM2 d   1     -18.238 -34.367  11.643  0.00  0.00     0.014 A 
ATOM     11  C10 DM2 d   1     -18.073 -34.965  10.294  0.00  0.00     0.073 C 
ATOM     12  C11 DM2 d   1     -19.047 -34.294   9.309  0.00  0.00    -0.001 C 
ATOM     13  C12 DM2 d   1     -20.483 -34.003   9.830  0.00  0.00     0.127 C 
ATOM     14  C15 DM2 d   1     -20.742 -34.675  11.190  0.00  0.00    -0.002 C 
ATOM     15  C16 DM2 d   1     -19.636 -34.241  12.126  0.00  0.00    -0.009 A 
ATOM     16  C17 DM2 d   1     -19.928 -33.671  13.461  0.00  0.00     0.088 A 
ATOM     17  C18 DM2 d   1     -18.814 -33.232  14.340  0.00  0.00     0.066 A 
ATOM     18  C19 DM2 d   1     -19.124 -32.668  15.686  0.00  0.00     0.197 A 
ATOM     19  O19 DM2 d   1     -20.302 -32.561  16.086  0.00  0.00    -0.286 OA
ATOM     20  C20 DM2 d   1     -18.020 -32.233  16.565  0.00  0.00     0.032 A 
ATOM     21  H1  DM2 d   1     -19.324 -31.614  18.161  0.00  0.00     0.085 H 
ATOM     22  H2  DM2 d   1     -17.488 -30.891  19.625  0.00  0.00     0.083 H 
ATOM     23  H3  DM2 d   1     -15.151 -31.078  18.922  0.00  0.00     0.087 H 
ATOM     24  H5  DM2 d   1     -17.038 -34.825   9.950  0.00  0.00     0.091 H 
ATOM     25  H6  DM2 d   1     -19.138 -34.951   8.432  0.00  0.00     0.042 H 
ATOM     26  H7  DM2 d   1     -18.603 -33.335   9.004  0.00  0.00     0.042 H 
ATOM     27  H12 DM2 d   1     -20.731 -35.769  11.077  0.00  0.00     0.045 H 
ATOM     28  H13 DM2 d   1     -21.717 -34.357  11.587  0.00  0.00     0.045 H 
ENDROOT
BRANCH  11  29
ATOM     29  O10 DM2 d   1     -18.385 -36.377  10.357  0.00  0.00    -0.351 OA
BRANCH  29  30
ATOM     30  C1' DM2 d   1     -17.413 -37.350  10.797  0.00  0.00     0.134 C 
ATOM     31  C2' DM2 d   1     -17.417 -37.579  12.318  0.00  0.00     0.010 C 
ATOM     32  C3' DM2 d   1     -18.733 -38.183  12.799  0.00  0.00     0.131 C 
ATOM     33  H19 DM2 d   1     -17.263 -36.614  12.823  0.00  0.00     0.043 H 
ATOM     34  H20 DM2 d   1     -16.596 -38.264  12.577  0.00  0.00     0.043 H 
ATOM     35  C4' DM2 d   1     -19.014 -39.483  12.041  0.00  0.00     0.087 C 
ATOM     36  H21 DM2 d   1     -19.547 -37.474  12.588  0.00  0.00     0.088 H 
ATOM     37  C5' DM2 d   1     -18.926 -39.251  10.522  0.00  0.00     0.065 C 
ATOM     38  H25 DM2 d   1     -20.034 -39.817  12.283  0.00  0.00     0.090 H 
ATOM     39  O5' DM2 d   1     -17.679 -38.619  10.162  0.00  0.00    -0.354 OA
ATOM     40  H27 DM2 d   1     -19.743 -38.569  10.245  0.00  0.00     0.086 H 
ATOM     41  H18 DM2 d   1     -16.415 -36.996  10.500  0.00  0.00     0.129 H 
BRANCH  32  42
ATOM     42  N3' DM2 d   1     -18.676 -38.405  14.233  0.00  0.00    -0.072 N 
ATOM     43  H22 DM2 d   1     -19.547 -38.804  14.546  0.00  0.00     0.274 HD
ATOM     44  H23 DM2 d   1     -18.520 -37.527  14.703  0.00  0.00     0.274 HD
ATOM     45  H24 DM2 d   1     -17.921 -39.038  14.445  0.00  0.00     0.274 HD
ENDBRANCH  32  42
BRANCH  35  46
ATOM     46  O4' DM2 d   1     -18.090 -40.498  12.459  0.00  0.00    -0.391 OA
ATOM     47  H26 DM2 d   1     -18.269 -41.302  11.986  0.00  0.00     0.210 HD
ENDBRANCH  35  46
BRANCH  37  48
ATOM     48  C6' DM2 d   1     -19.109 -40.545   9.723  0.00  0.00    -0.050 C 
ATOM     49  H28 DM2 d   1     -19.038 -40.325   8.648  0.00  0.00     0.031 H 
ATOM     50  H29 DM2 d   1     -20.096 -40.976   9.944  0.00  0.00     0.031 H 
ATOM     51  H30 DM2 d   1     -18.324 -41.263  10.003  0.00  0.00     0.031 H 
ENDBRANCH  37  48
ENDBRANCH  29  30
ENDBRANCH  11  29
BRANCH   9  52
ATOM     52  O8  DM2 d   1     -15.813 -34.056  12.085  0.00  0.00    -0.359 OA
ATOM     53  H4  DM2 d   1     -15.403 -33.199  12.068  0.00  0.00     0.217 HD
ENDBRANCH   9  52
BRANCH  13  54
ATOM     54  O12 DM2 d   1     -21.415 -34.617   8.936  0.00  0.00    -0.382 OA
ATOM     55  H8  DM2 d   1     -21.303 -34.254   8.065  0.00  0.00     0.211 HD
ENDBRANCH  13  54
BRANCH  13  56
ATOM     56  C13 DM2 d   1     -20.778 -32.498   9.815  0.00  0.00     0.184 C 
ATOM     57  O13 DM2 d   1     -20.568 -31.881   8.780  0.00  0.00    -0.292 OA
BRANCH  56  58
ATOM     58  C14 DM2 d   1     -21.337 -31.678  10.974  0.00  0.00     0.074 C 
ATOM     59  H9  DM2 d   1     -21.938 -32.335  11.620  0.00  0.00     0.086 H 
ATOM     60  H10 DM2 d   1     -21.974 -30.877  10.571  0.00  0.00     0.086 H 
BRANCH  58  61
ATOM     61  O14 DM2 d   1     -20.286 -31.091  11.754  0.00  0.00    -0.393 OA
ATOM     62  H11 DM2 d   1     -20.664 -30.588  12.466  0.00  0.00     0.209 HD
ENDBRANCH  58  61
ENDBRANCH  56  58
ENDBRANCH  13  56
BRANCH  16  63
ATOM     63  O17 DM2 d   1     -21.212 -33.561  13.876  0.00  0.00    -0.359 OA
ATOM     64  H14 DM2 d   1     -21.231 -33.180  14.746  0.00  0.00     0.217 HD
ENDBRANCH  16  63
BRANCH   4  65
ATOM     65  O4  DM2 d   1     -14.228 -32.007  16.693  0.00  0.00    -0.355 OA
BRANCH  65  66
ATOM     66  C21 DM2 d   1     -13.569 -30.921  16.066  0.00  0.00     0.010 C 
ATOM     67  H15 DM2 d   1     -12.515 -31.183  15.892  0.00  0.00     0.066 H 
ATOM     68  H16 DM2 d   1     -13.624 -30.035  16.715  0.00  0.00     0.066 H 
ATOM     69  H17 DM2 d   1     -14.056 -30.702  15.104  0.00  0.00     0.066 H 
ENDBRANCH  65  66
ENDBRANCH   4  65
TORSDOF 13
