REMARK  4 active torsions:
REMARK  status: ('A' for Active; 'I' for Inactive)
REMARK    1  A    between atoms: C14_2  and  C23_7 
REMARK    2  A    between atoms: C8_5  and  N11_17 
REMARK    3  A    between atoms: C13_6  and  O22_8 
REMARK    4  A    between atoms: C15_11  and  C16_12 
ROOT
ATOM      1  C14 S26 d   1      -9.134  39.171  -7.154  0.00  0.00    -0.017 A 
ATOM      2  C13 S26 d   1     -10.291  39.001  -6.259  0.00  0.00     0.139 A 
ATOM      3  C12 S26 d   1     -11.437  38.936  -7.188  0.00  0.00     0.284 A 
ATOM      4  O21 S26 d   1     -12.648  38.789  -6.809  0.00  0.00    -0.265 OA
ATOM      5  C15 S26 d   1      -9.474  39.212  -8.593  0.00  0.00     0.078 A 
ATOM      6  N11 S26 d   1     -10.958  39.051  -8.448  0.00  0.00    -0.277 N 
ATOM      7  H7  S26 d   1      -9.174  40.148  -9.086  0.00  0.00     0.089 H 
ENDROOT
BRANCH   6   8
ATOM      8  C8  S26 d   1     -11.861  39.071  -9.443  0.00  0.00     0.178 A 
ATOM      9  S9  S26 d   1     -13.540  38.583  -9.412  0.00  0.00    -0.050 SA
ATOM     10  C2  S26 d   1     -13.705  39.088 -11.007  0.00  0.00     0.038 A 
ATOM     11  C1  S26 d   1     -12.451  39.664 -11.564  0.00  0.00     0.077 A 
ATOM     12  C3  S26 d   1     -14.857  39.003 -11.783  0.00  0.00    -0.043 A 
ATOM     13  C6  S26 d   1     -12.479  40.115 -12.877  0.00  0.00    -0.052 A 
ATOM     14  N7  S26 d   1     -11.457  39.636 -10.614  0.00  0.00    -0.223 NA
ATOM     15  C5  S26 d   1     -13.646  40.025 -13.627  0.00  0.00    -0.060 A 
ATOM     16  H2  S26 d   1     -11.585  40.540 -13.320  0.00  0.00     0.087 H 
ATOM     17  C4  S26 d   1     -14.807  39.474 -13.094  0.00  0.00     0.035 A 
ATOM     18  H1  S26 d   1     -13.652  40.391 -14.647  0.00  0.00     0.086 H 
ATOM     19 CL   S26 d   1     -16.261  39.390 -14.140  0.00  0.00    -0.084 Cl
ATOM     20  H11 S26 d   1     -15.770  38.581 -11.378  0.00  0.00     0.088 H 
ENDBRANCH   6   8
BRANCH   5  21
ATOM     21  C16 S26 d   1      -8.928  38.031  -9.309  0.00  0.00     0.010 A 
ATOM     22  C20 S26 d   1      -7.790  38.064 -10.111  0.00  0.00    -0.068 A 
ATOM     23  C19 S26 d   1      -7.522  36.796 -10.656  0.00  0.00    -0.076 A 
ATOM     24  H8  S26 d   1      -7.188  38.953 -10.292  0.00  0.00     0.085 H 
ATOM     25  C18 S26 d   1      -8.429  35.773 -10.340  0.00  0.00    -0.044 A 
ATOM     26  H9  S26 d   1      -6.655  36.617 -11.291  0.00  0.00     0.084 H 
ATOM     27  S17 S26 d   1      -9.648  36.452  -9.290  0.00  0.00    -0.104 SA
ATOM     28  H10 S26 d   1      -8.381  34.742 -10.687  0.00  0.00     0.095 H 
ENDBRANCH   5  21
BRANCH   2  29
ATOM     29  O22 S26 d   1     -10.307  38.908  -4.781  0.00  0.00    -0.355 OA
ATOM     30  H6  S26 d   1     -11.202  38.801  -4.481  0.00  0.00     0.218 HD
ENDBRANCH   2  29
BRANCH   1  31
ATOM     31  C23 S26 d   1      -7.704  39.288  -6.743  0.00  0.00    -0.050 C 
ATOM     32  H3  S26 d   1      -7.633  39.239  -5.646  0.00  0.00     0.033 H 
ATOM     33  H4  S26 d   1      -7.299  40.249  -7.094  0.00  0.00     0.033 H 
ATOM     34  H5  S26 d   1      -7.127  38.463  -7.186  0.00  0.00     0.033 H 
ENDBRANCH   1  31
TORSDOF 4
