REMARK  8 active torsions:
REMARK  status: ('A' for Active; 'I' for Inactive)
REMARK    1  A    between atoms: N14_13  and  C15_1 
REMARK    2  A    between atoms: C02_3  and  C01_2 
REMARK    3  A    between atoms: C02_3  and  C03_4 
REMARK    4  A    between atoms: C04_5  and  C02_3 
REMARK    5  A    between atoms: C05_6  and  C04_5 
REMARK    6  A    between atoms: N06_10  and  C05_6 
REMARK    7  A    between atoms: C09_7  and  O10_14 
REMARK    8  A    between atoms: C12_9  and  C11_8 
REMARK       I    between atoms: C12_9  and  N14_13 
ROOT
ATOM      1  C05 Q9Y d   1     -11.615 -80.245  32.539  0.00  0.00     0.015 C 
ATOM      2  H13 Q9Y d   1     -11.311 -81.281  32.328  0.00  0.00     0.066 H 
ATOM      3  H14 Q9Y d   1     -12.710 -80.195  32.626  0.00  0.00     0.066 H 
ENDROOT
BRANCH   1   4
ATOM      4  C04 Q9Y d   1     -11.135 -79.326  31.445  0.00  0.00    -0.046 C 
ATOM      5  H11 Q9Y d   1     -12.003 -79.051  30.828  0.00  0.00     0.035 H 
ATOM      6  H12 Q9Y d   1     -10.720 -78.424  31.918  0.00  0.00     0.035 H 
BRANCH   4   7
ATOM      7  C02 Q9Y d   1     -10.021 -79.931  30.482  0.00  0.00    -0.060 C 
ATOM      8  H7  Q9Y d   1     -10.536 -80.377  29.618  0.00  0.00     0.038 H 
BRANCH   7   9
ATOM      9  C01 Q9Y d   1      -9.095 -78.801  29.954  0.00  0.00    -0.073 C 
ATOM     10  H4  Q9Y d   1      -8.331 -79.233  29.291  0.00  0.00     0.028 H 
ATOM     11  H5  Q9Y d   1      -8.604 -78.302  30.803  0.00  0.00     0.028 H 
ATOM     12  H6  Q9Y d   1      -9.694 -78.067  29.394  0.00  0.00     0.028 H 
ENDBRANCH   7   9
BRANCH   7  13
ATOM     13  C03 Q9Y d   1      -9.200 -81.048  31.157  0.00  0.00    -0.073 C 
ATOM     14  H8  Q9Y d   1      -9.879 -81.833  31.521  0.00  0.00     0.028 H 
ATOM     15  H9  Q9Y d   1      -8.637 -80.629  32.004  0.00  0.00     0.028 H 
ATOM     16  H10 Q9Y d   1      -8.498 -81.479  30.428  0.00  0.00     0.028 H 
ENDBRANCH   7  13
ENDBRANCH   4   7
ENDBRANCH   1   4
BRANCH   1  17
ATOM     17  N06 Q9Y d   1     -11.013 -79.794  33.723  0.00  0.00    -0.265 N 
ATOM     18  C11 Q9Y d   1     -11.373 -78.715  34.434  0.00  0.00     0.171 A 
ATOM     19  C09 Q9Y d   1     -10.499 -78.618  35.502  0.00  0.00     0.213 A 
ATOM     20  N08 Q9Y d   1      -9.635 -79.627  35.405  0.00  0.00    -0.132 NA
ATOM     21  N07 Q9Y d   1      -9.943 -80.341  34.312  0.00  0.00     0.008 NA
BRANCH  18  22
ATOM     22  C12 Q9Y d   1     -12.581 -77.786  34.105  0.00  0.00     0.273 C 
ATOM     23  N14 Q9Y d   1     -12.415 -76.351  33.941  0.00  0.00    -0.360 N 
ATOM     24  H15 Q9Y d   1     -11.516 -75.924  34.036  0.00  0.00     0.162 HD
ATOM     25  O13 Q9Y d   1     -13.713 -78.272  33.984  0.00  0.00    -0.266 OA
BRANCH  23  26
ATOM     26  C15 Q9Y d   1     -13.575 -75.565  33.639  0.00  0.00    -0.018 C 
ATOM     27  H1  Q9Y d   1     -13.287 -74.507  33.546  0.00  0.00     0.056 H 
ATOM     28  H2  Q9Y d   1     -14.313 -75.675  34.447  0.00  0.00     0.056 H 
ATOM     29  H3  Q9Y d   1     -14.015 -75.910  32.692  0.00  0.00     0.056 H 
ENDBRANCH  23  26
ENDBRANCH  18  22
BRANCH  19  30
ATOM     30  O10 Q9Y d   1     -10.490 -77.656  36.510  0.00  0.00    -0.342 OA
ATOM     31  H16 Q9Y d   1     -10.602 -78.081  37.352  0.00  0.00     0.219 HD
ENDBRANCH  19  30
ENDBRANCH   1  17
TORSDOF 8
