REMARK  4 active torsions:
REMARK  status: ('A' for Active; 'I' for Inactive)
REMARK    1  A    between atoms: C13_3  and  C15_4 
REMARK       I    between atoms: N11_18  and  C13_3 
REMARK    2  A    between atoms: C17_5  and  C22_7 
REMARK    3  A    between atoms: C9_16  and  C33_21 
REMARK    4  A    between atoms: C10_17  and  N11_18 
ROOT
ATOM      1  C13 QJS d   1       8.943  10.861   4.975  0.00  0.00     0.227 C 
ATOM      2  N11 QJS d   1       9.477   9.967   4.130  0.00  0.00    -0.324 N 
ATOM      3  O14 QJS d   1       8.179  11.739   4.441  0.00  0.00    -0.273 OA
ATOM      4  H11 QJS d   1      10.048   9.248   4.527  0.00  0.00     0.169 HD
ENDROOT
BRANCH   1   5
ATOM      5  C15 QJS d   1       9.157  10.837   6.431  0.00  0.00     0.032 A 
ATOM      6  C17 QJS d   1       8.089  11.142   7.379  0.00  0.00    -0.016 A 
ATOM      7  C19 QJS d   1       9.039  12.273   7.064  0.00  0.00    -0.045 A 
ATOM      8  H3  QJS d   1       7.046  11.253   7.047  0.00  0.00     0.048 H 
ATOM      9  H4  QJS d   1       8.709  13.127   6.455  0.00  0.00     0.035 H 
ATOM     10  H5  QJS d   1       9.768  12.616   7.813  0.00  0.00     0.035 H 
ATOM     11  H2  QJS d   1       9.945  10.120   6.706  0.00  0.00     0.055 H 
BRANCH   6  12
ATOM     12  C22 QJS d   1       8.130  10.239   8.646  0.00  0.00    -0.053 A 
ATOM     13  C23 QJS d   1       6.981   9.483   8.808  0.00  0.00    -0.076 A 
ATOM     14  C25 QJS d   1       6.857   8.648   9.932  0.00  0.00    -0.082 A 
ATOM     15  H6  QJS d   1       6.184   9.535   8.075  0.00  0.00     0.084 H 
ATOM     16  C27 QJS d   1       7.976   8.509  10.802  0.00  0.00    -0.083 A 
ATOM     17  H7  QJS d   1       5.931   8.122  10.132  0.00  0.00     0.083 H 
ATOM     18  C29 QJS d   1       9.110   9.293  10.610  0.00  0.00    -0.082 A 
ATOM     19  H8  QJS d   1       7.944   7.792  11.614  0.00  0.00     0.083 H 
ATOM     20  C31 QJS d   1       9.171  10.151   9.509  0.00  0.00    -0.076 A 
ATOM     21  H9  QJS d   1       9.938   9.238  11.308  0.00  0.00     0.083 H 
ATOM     22  H12 QJS d   1      10.058  10.751   9.344  0.00  0.00     0.084 H 
ENDBRANCH   6  12
ENDBRANCH   1   5
BRANCH   2  23
ATOM     23  C10 QJS d   1       9.307   9.952   2.751  0.00  0.00     0.081 A 
ATOM     24  C5  QJS d   1       9.648  11.087   1.823  0.00  0.00     0.023 A 
ATOM     25  C3  QJS d   1      10.235  12.351   1.956  0.00  0.00    -0.031 A 
ATOM     26  C6  QJS d   1       9.306  10.568   0.580  0.00  0.00     0.045 A 
ATOM     27  C2  QJS d   1      10.406  13.080   0.772  0.00  0.00     0.117 A 
ATOM     28  H1  QJS d   1      10.540  12.743   2.920  0.00  0.00     0.089 H 
ATOM     29  F1  QJS d   1      10.938  14.334   0.842  0.00  0.00    -0.206 F 
ATOM     30  C39 QJS d   1      10.036  12.552  -0.487  0.00  0.00    -0.043 A 
ATOM     31  C37 QJS d   1       9.506  11.272  -0.618  0.00  0.00    -0.053 A 
ATOM     32  H14 QJS d   1      10.169  13.161  -1.374  0.00  0.00     0.088 H 
ATOM     33  H13 QJS d   1       9.263  10.845  -1.584  0.00  0.00     0.087 H 
ATOM     34  N7  QJS d   1       8.793   9.292   0.717  0.00  0.00    -0.348 N 
ATOM     35  C9  QJS d   1       8.739   8.965   2.010  0.00  0.00     0.138 A 
ATOM     36  H10 QJS d   1       8.497   8.685  -0.061  0.00  0.00     0.166 HD
BRANCH  35  37
ATOM     37  C33 QJS d   1       8.263   7.699   2.501  0.00  0.00     0.229 C 
ATOM     38  O34 QJS d   1       8.529   7.233   3.564  0.00  0.00    -0.643 OA
ATOM     39  O35 QJS d   1       7.507   7.029   1.657  0.00  0.00    -0.643 OA
ENDBRANCH  35  37
ENDBRANCH   2  23
TORSDOF 4
