REMARK  4 active torsions:
REMARK  status: ('A' for Active; 'I' for Inactive)
REMARK    1  A    between atoms: N1_12  and  C3_1 
REMARK    2  A    between atoms: C3_1  and  C6_13 
REMARK       I    between atoms: C17_5  and  N1_12 
REMARK       I    between atoms: N19_17  and  C17_5 
REMARK    3  A    between atoms: C21_6  and  N19_17 
REMARK    4  A    between atoms: C22_7  and  C31_18 
ROOT
ATOM      1  C17 M7O d   1       9.370  10.964   5.169  0.00  0.00     0.321 C 
ATOM      2  N1  M7O d   1       9.635  10.500   6.424  0.00  0.00    -0.339 N 
ATOM      3  O18 M7O d   1       8.800  12.092   5.001  0.00  0.00    -0.247 OA
ATOM      4  N19 M7O d   1       9.834  10.155   4.153  0.00  0.00    -0.308 N 
ATOM      5  H10 M7O d   1      10.155   9.650   6.512  0.00  0.00     0.164 HD
ATOM      6  H13 M7O d   1      10.274   9.299   4.424  0.00  0.00     0.170 HD
ENDROOT
BRANCH   2   7
ATOM      7  C3  M7O d   1       9.203  11.174   7.650  0.00  0.00     0.021 C 
ATOM      8  H1  M7O d   1       8.396  11.884   7.415  0.00  0.00     0.071 H 
ATOM      9  H2  M7O d   1      10.052  11.717   8.090  0.00  0.00     0.071 H 
BRANCH   7  10
ATOM     10  C6  M7O d   1       8.683  10.111   8.662  0.00  0.00    -0.040 A 
ATOM     11  C15 M7O d   1       7.419   9.486   8.516  0.00  0.00    -0.075 A 
ATOM     12  C13 M7O d   1       7.002   8.507   9.442  0.00  0.00    -0.082 A 
ATOM     13  H5  M7O d   1       6.772   9.761   7.691  0.00  0.00     0.084 H 
ATOM     14  C11 M7O d   1       7.804   8.104  10.528  0.00  0.00    -0.083 A 
ATOM     15  H4  M7O d   1       6.029   8.048   9.313  0.00  0.00     0.083 H 
ATOM     16  C9  M7O d   1       9.029   8.744  10.701  0.00  0.00    -0.082 A 
ATOM     17  H3  M7O d   1       7.479   7.323  11.206  0.00  0.00     0.083 H 
ATOM     18  C7  M7O d   1       9.473   9.752   9.772  0.00  0.00    -0.075 A 
ATOM     19  H12 M7O d   1       9.656   8.480  11.545  0.00  0.00     0.083 H 
ATOM     20  H11 M7O d   1      10.428  10.241   9.929  0.00  0.00     0.084 H 
ENDBRANCH   7  10
ENDBRANCH   2   7
BRANCH   4  21
ATOM     21  C21 M7O d   1       9.748  10.420   2.744  0.00  0.00     0.053 A 
ATOM     22  C22 M7O d   1       9.198   9.446   1.906  0.00  0.00     0.067 A 
ATOM     23  C23 M7O d   1       9.125   9.670   0.494  0.00  0.00    -0.064 A 
ATOM     24  C25 M7O d   1       9.585  10.882  -0.081  0.00  0.00    -0.082 A 
ATOM     25  H6  M7O d   1       8.711   8.900  -0.147  0.00  0.00     0.085 H 
ATOM     26  C27 M7O d   1      10.154  11.851   0.761  0.00  0.00    -0.081 A 
ATOM     27  H7  M7O d   1       9.499  11.057  -1.147  0.00  0.00     0.083 H 
ATOM     28  C29 M7O d   1      10.225  11.637   2.152  0.00  0.00    -0.056 A 
ATOM     29  H8  M7O d   1      10.542  12.771   0.338  0.00  0.00     0.083 H 
ATOM     30  H9  M7O d   1      10.648  12.407   2.787  0.00  0.00     0.086 H 
BRANCH  22  31
ATOM     31  C31 M7O d   1       8.650   8.157   2.454  0.00  0.00     0.211 C 
ATOM     32  O32 M7O d   1       8.759   7.774   3.618  0.00  0.00    -0.644 OA
ATOM     33  O33 M7O d   1       7.973   7.417   1.580  0.00  0.00    -0.644 OA
ENDBRANCH  22  31
ENDBRANCH   4  21
TORSDOF 4
