REMARK  16 active torsions:
REMARK  status: ('A' for Active; 'I' for Inactive)
REMARK    1  A    between atoms: C5_1  and  C3_2 
REMARK    2  A    between atoms: C5_1  and  C6_6 
REMARK       I    between atoms: C3_2  and  N1_4 
REMARK    3  A    between atoms: N1_4  and  O2_5 
REMARK    4  A    between atoms: C6_6  and  C12_7 
REMARK    5  A    between atoms: C6_6  and  C7_9 
REMARK       I    between atoms: C12_7  and  N14_14 
REMARK    6  A    between atoms: C7_9  and  C8_10 
REMARK    7  A    between atoms: C8_10  and  C9_11 
REMARK    8  A    between atoms: C9_11  and  C10_12 
REMARK    9  A    between atoms: C10_12  and  C11_13 
REMARK   10  A    between atoms: N14_14  and  C15_15 
REMARK   11  A    between atoms: C15_15  and  C16_16 
REMARK   12  A    between atoms: C15_15  and  C19_19 
REMARK   13  A    between atoms: C16_16  and  C18_17 
REMARK   14  A    between atoms: C16_16  and  C17_18 
REMARK       I    between atoms: C19_19  and  N21_21 
REMARK   15  A    between atoms: C22_22  and  C26_26 
REMARK   16  A    between atoms: C26_26  and  O27_27 
ROOT
ATOM      1  C12 BB2 d   1      -2.564 -36.380   7.009  0.00  0.00     0.223 C 
ATOM      2  O13 BB2 d   1      -2.603 -35.285   6.440  0.00  0.00    -0.273 OA
ATOM      3  N14 BB2 d   1      -2.718 -37.564   6.420  0.00  0.00    -0.347 N 
ATOM      4  H17 BB2 d   1      -2.614 -38.389   6.975  0.00  0.00     0.163 HD
ENDROOT
BRANCH   3   5
ATOM      5  C15 BB2 d   1      -3.033 -37.715   4.996  0.00  0.00     0.092 C 
ATOM      6  H18 BB2 d   1      -3.301 -36.730   4.585  0.00  0.00     0.088 H 
BRANCH   5   7
ATOM      7  C16 BB2 d   1      -1.862 -38.259   4.145  0.00  0.00    -0.033 C 
ATOM      8  H19 BB2 d   1      -2.202 -38.240   3.099  0.00  0.00     0.042 H 
BRANCH   7   9
ATOM      9  C18 BB2 d   1      -0.609 -37.384   4.235  0.00  0.00    -0.071 C 
ATOM     10  H20 BB2 d   1       0.187 -37.818   3.612  0.00  0.00     0.028 H 
ATOM     11  H21 BB2 d   1      -0.271 -37.334   5.280  0.00  0.00     0.028 H 
ATOM     12  H22 BB2 d   1      -0.843 -36.371   3.877  0.00  0.00     0.028 H 
ENDBRANCH   7   9
BRANCH   7  13
ATOM     13  C17 BB2 d   1      -1.489 -39.692   4.468  0.00  0.00    -0.071 C 
ATOM     14  H23 BB2 d   1      -2.385 -40.327   4.405  0.00  0.00     0.028 H 
ATOM     15  H24 BB2 d   1      -1.074 -39.742   5.486  0.00  0.00     0.028 H 
ATOM     16  H25 BB2 d   1      -0.737 -40.047   3.748  0.00  0.00     0.028 H 
ENDBRANCH   7  13
ENDBRANCH   5   7
BRANCH   5  17
ATOM     17  C19 BB2 d   1      -4.285 -38.628   4.972  0.00  0.00     0.243 C 
ATOM     18  O20 BB2 d   1      -4.360 -39.637   5.686  0.00  0.00    -0.271 OA
ATOM     19  N21 BB2 d   1      -5.337 -38.329   4.213  0.00  0.00    -0.344 N 
ATOM     20  C22 BB2 d   1      -6.555 -39.156   4.164  0.00  0.00     0.035 C 
ATOM     21  C23 BB2 d   1      -5.431 -37.147   3.328  0.00  0.00    -0.002 C 
ATOM     22  C25 BB2 d   1      -7.583 -38.242   3.486  0.00  0.00    -0.043 C 
ATOM     23  H26 BB2 d   1      -6.884 -39.441   5.174  0.00  0.00     0.076 H 
ATOM     24  C24 BB2 d   1      -6.745 -37.344   2.573  0.00  0.00    -0.048 C 
ATOM     25  H31 BB2 d   1      -8.124 -37.642   4.233  0.00  0.00     0.036 H 
ATOM     26  H32 BB2 d   1      -8.302 -38.832   2.899  0.00  0.00     0.036 H 
ATOM     27  H29 BB2 d   1      -6.567 -37.833   1.604  0.00  0.00     0.035 H 
ATOM     28  H30 BB2 d   1      -7.247 -36.379   2.409  0.00  0.00     0.035 H 
ATOM     29  H27 BB2 d   1      -4.582 -37.114   2.630  0.00  0.00     0.064 H 
ATOM     30  H28 BB2 d   1      -5.456 -36.219   3.918  0.00  0.00     0.064 H 
BRANCH  20  31
ATOM     31  C26 BB2 d   1      -6.303 -40.422   3.322  0.00  0.00     0.036 C 
ATOM     32  H33 BB2 d   1      -5.357 -40.886   3.638  0.00  0.00     0.077 H 
ATOM     33  H34 BB2 d   1      -6.238 -40.145   2.260  0.00  0.00     0.077 H 
BRANCH  31  34
ATOM     34  O27 BB2 d   1      -7.366 -41.353   3.501  0.00  0.00    -0.399 OA
ATOM     35  H35 BB2 d   1      -7.422 -41.595   4.418  0.00  0.00     0.209 HD
ENDBRANCH  31  34
ENDBRANCH  20  31
ENDBRANCH   5  17
ENDBRANCH   3   5
BRANCH   1  36
ATOM     36  C6  BB2 d   1      -2.352 -36.512   8.513  0.00  0.00     0.032 C 
ATOM     37  H5  BB2 d   1      -2.029 -37.539   8.740  0.00  0.00     0.055 H 
BRANCH  36  38
ATOM     38  C5  BB2 d   1      -1.289 -35.542   9.037  0.00  0.00     0.022 C 
ATOM     39  H1  BB2 d   1      -0.446 -35.499   8.332  0.00  0.00     0.048 H 
ATOM     40  H2  BB2 d   1      -1.725 -34.538   9.149  0.00  0.00     0.048 H 
BRANCH  38  41
ATOM     41  C3  BB2 d   1      -0.803 -36.042  10.385  0.00  0.00     0.241 C 
ATOM     42  O4  BB2 d   1       0.034 -36.944  10.495  0.00  0.00    -0.271 OA
ATOM     43  N1  BB2 d   1      -1.362 -35.446  11.427  0.00  0.00    -0.237 N 
ATOM     44  H3  BB2 d   1      -2.038 -34.717  11.315  0.00  0.00     0.197 HD
BRANCH  43  45
ATOM     45  O2  BB2 d   1      -0.972 -35.874  12.653  0.00  0.00    -0.287 OA
ATOM     46  H4  BB2 d   1      -1.433 -35.381  13.321  0.00  0.00     0.244 HD
ENDBRANCH  43  45
ENDBRANCH  38  41
ENDBRANCH  36  38
BRANCH  36  47
ATOM     47  C7  BB2 d   1      -3.708 -36.235   9.203  0.00  0.00    -0.053 C 
ATOM     48  H6  BB2 d   1      -4.106 -35.275   8.843  0.00  0.00     0.034 H 
ATOM     49  H7  BB2 d   1      -3.554 -36.183  10.291  0.00  0.00     0.034 H 
BRANCH  47  50
ATOM     50  C8  BB2 d   1      -4.718 -37.346   8.891  0.00  0.00    -0.064 C 
ATOM     51  H8  BB2 d   1      -4.284 -38.313   9.185  0.00  0.00     0.033 H 
ATOM     52  H9  BB2 d   1      -4.920 -37.348   7.810  0.00  0.00     0.033 H 
BRANCH  50  53
ATOM     53  C9  BB2 d   1      -6.037 -37.150   9.639  0.00  0.00    -0.065 C 
ATOM     54  H10 BB2 d   1      -6.481 -36.194   9.323  0.00  0.00     0.033 H 
ATOM     55  H11 BB2 d   1      -5.827 -37.118  10.718  0.00  0.00     0.033 H 
BRANCH  53  56
ATOM     56  C10 BB2 d   1      -7.051 -38.276   9.369  0.00  0.00    -0.069 C 
ATOM     57  H12 BB2 d   1      -8.042 -37.958   9.725  0.00  0.00     0.032 H 
ATOM     58  H13 BB2 d   1      -6.737 -39.178   9.915  0.00  0.00     0.032 H 
BRANCH  56  59
ATOM     59  C11 BB2 d   1      -7.141 -38.604   7.881  0.00  0.00    -0.077 C 
ATOM     60  H14 BB2 d   1      -7.873 -39.410   7.727  0.00  0.00     0.027 H 
ATOM     61  H15 BB2 d   1      -6.155 -38.929   7.517  0.00  0.00     0.027 H 
ATOM     62  H16 BB2 d   1      -7.460 -37.709   7.327  0.00  0.00     0.027 H 
ENDBRANCH  56  59
ENDBRANCH  53  56
ENDBRANCH  50  53
ENDBRANCH  47  50
ENDBRANCH  36  47
ENDBRANCH   1  36
TORSDOF 16
