REMARK  11 active torsions:
REMARK  status: ('A' for Active; 'I' for Inactive)
REMARK    1  A    between atoms: C13_6  and  N1_1 
REMARK    2  A    between atoms: N1_1  and  C1_9 
REMARK    3  A    between atoms: C4_2  and  O4_14 
REMARK    4  A    between atoms: C5_3  and  C6_4 
REMARK    5  A    between atoms: C6_4  and  O6_16 
REMARK    6  A    between atoms: C20_8  and  C18_20 
REMARK    7  A    between atoms: C2_10  and  O2_11 
REMARK    8  A    between atoms: C3_12  and  O3_13 
REMARK    9  A    between atoms: C18_20  and  C16_18 
REMARK   10  A    between atoms: C06_26  and  C12_31 
REMARK   11  A    between atoms: C07_27  and  C08_28 
ROOT
ATOM      1  C13 XKA d   1     -38.800   1.338  13.732  0.00  0.00     0.169 A 
ATOM      2  C15 XKA d   1     -37.435   1.775  15.410  0.00  0.00     0.025 A 
ATOM      3  S14 XKA d   1     -39.845   0.907  15.033  0.00  0.00    -0.047 SA
ATOM      4  C16 XKA d   1     -38.543   1.326  16.110  0.00  0.00     0.077 A 
ATOM      5  N17 XKA d   1     -37.595   1.772  14.115  0.00  0.00    -0.235 NA
ATOM      6  H7  XKA d   1     -36.516   2.100  15.895  0.00  0.00     0.117 H 
ENDROOT
BRANCH   1   7
ATOM      7  N1  XKA d   1     -39.165   1.254  12.434  0.00  0.00    -0.340 N 
ATOM      8  H1  XKA d   1     -40.077   0.867  12.152  0.00  0.00     0.164 HD
BRANCH   7   9
ATOM      9  C1  XKA d   1     -38.221   1.729  11.473  0.00  0.00     0.133 C 
ATOM     10  C2  XKA d   1     -38.621   1.480   9.999  0.00  0.00     0.104 C 
ATOM     11  C3  XKA d   1     -38.567  -0.038   9.678  0.00  0.00     0.091 C 
ATOM     12  H9  XKA d   1     -39.642   1.853   9.832  0.00  0.00     0.093 H 
ATOM     13  C4  XKA d   1     -37.204  -0.680  10.110  0.00  0.00     0.089 C 
ATOM     14  H11 XKA d   1     -39.375  -0.545  10.226  0.00  0.00     0.091 H 
ATOM     15  C5  XKA d   1     -36.908  -0.314  11.596  0.00  0.00     0.088 C 
ATOM     16  H2  XKA d   1     -36.423  -0.214   9.491  0.00  0.00     0.091 H 
ATOM     17  O5  XKA d   1     -36.940   1.118  11.696  0.00  0.00    -0.354 OA
ATOM     18  H3  XKA d   1     -37.687  -0.761  12.231  0.00  0.00     0.090 H 
ATOM     19  H8  XKA d   1     -38.124   2.815  11.616  0.00  0.00     0.122 H 
BRANCH  10  20
ATOM     20  O2  XKA d   1     -37.714   2.168   9.133  0.00  0.00    -0.389 OA
ATOM     21  H10 XKA d   1     -37.962   2.013   8.229  0.00  0.00     0.210 HD
ENDBRANCH  10  20
BRANCH  11  22
ATOM     22  O3  XKA d   1     -38.785  -0.198   8.279  0.00  0.00    -0.390 OA
ATOM     23  H12 XKA d   1     -39.636   0.157   8.050  0.00  0.00     0.210 HD
ENDBRANCH  11  22
BRANCH  13  24
ATOM     24  O4  XKA d   1     -37.099  -2.105   9.895  0.00  0.00    -0.390 OA
ATOM     25  H13 XKA d   1     -36.245  -2.406  10.184  0.00  0.00     0.210 HD
ENDBRANCH  13  24
BRANCH  15  26
ATOM     26  C6  XKA d   1     -35.518  -0.761  12.120  0.00  0.00     0.043 C 
ATOM     27  H4  XKA d   1     -35.444  -1.855  12.031  0.00  0.00     0.078 H 
ATOM     28  H5  XKA d   1     -35.431  -0.472  13.178  0.00  0.00     0.078 H 
BRANCH  26  29
ATOM     29  O6  XKA d   1     -34.435  -0.168  11.393  0.00  0.00    -0.398 OA
ATOM     30  H14 XKA d   1     -34.495  -0.417  10.478  0.00  0.00     0.209 HD
ENDBRANCH  26  29
ENDBRANCH  15  26
ENDBRANCH   7   9
ENDBRANCH   1   7
BRANCH   4  31
ATOM     31  C18 XKA d   1     -38.518   1.322  17.514  0.00  0.00     0.209 C 
ATOM     32  O19 XKA d   1     -37.959   2.337  17.997  0.00  0.00    -0.285 OA
BRANCH  31  33
ATOM     33  C20 XKA d   1     -38.920   0.465  18.542  0.00  0.00     0.083 A 
ATOM     34  S02 XKA d   1     -38.966   1.211  20.121  0.00  0.00    -0.062 SA
ATOM     35  C07 XKA d   1     -39.434  -0.330  20.755  0.00  0.00     0.129 A 
ATOM     36  N02 XKA d   1     -39.531  -1.297  19.822  0.00  0.00    -0.243 NA
ATOM     37  C06 XKA d   1     -39.241  -0.896  18.566  0.00  0.00     0.053 A 
BRANCH  35  38
ATOM     38  C08 XKA d   1     -39.677  -0.513  22.123  0.00  0.00     0.109 A 
ATOM     39  N03 XKA d   1     -39.947   0.579  22.906  0.00  0.00    -0.255 NA
ATOM     40  C09 XKA d   1     -40.178   0.465  24.232  0.00  0.00     0.020 A 
ATOM     41  C10 XKA d   1     -40.140  -0.816  24.824  0.00  0.00     0.019 A 
ATOM     42  H15 XKA d   1     -40.389   1.343  24.832  0.00  0.00     0.117 H 
ATOM     43  N04 XKA d   1     -39.866  -1.912  24.061  0.00  0.00    -0.269 NA
ATOM     44  H6  XKA d   1     -40.329  -0.928  25.886  0.00  0.00     0.117 H 
ATOM     45  C11 XKA d   1     -39.631  -1.797  22.729  0.00  0.00     0.032 A 
ATOM     46  H16 XKA d   1     -39.410  -2.676  22.134  0.00  0.00     0.118 H 
ENDBRANCH  35  38
BRANCH  37  47
ATOM     47  C12 XKA d   1     -39.309  -1.850  17.450  0.00  0.00    -0.034 C 
ATOM     48  H17 XKA d   1     -39.593  -2.841  17.832  0.00  0.00     0.035 H 
ATOM     49  H18 XKA d   1     -38.325  -1.914  16.962  0.00  0.00     0.035 H 
ATOM     50  H19 XKA d   1     -40.059  -1.509  16.721  0.00  0.00     0.035 H 
ENDBRANCH  37  47
ENDBRANCH  31  33
ENDBRANCH   4  31
TORSDOF 11
