REMARK  13 active torsions:
REMARK  status: ('A' for Active; 'I' for Inactive)
REMARK    1  A    between atoms: PG_1  and  O2G_3 
REMARK    2  A    between atoms: PG_1  and  O3G_4 
REMARK    3  A    between atoms: O3B_8  and  PG_1 
REMARK    4  A    between atoms: PB_5  and  O3B_8 
REMARK    5  A    between atoms: O3A_12  and  PB_5 
REMARK    6  A    between atoms: PA_9  and  O3A_12 
REMARK    7  A    between atoms: PA_9  and  O5'_13 
REMARK    8  A    between atoms: O5'_13  and  C5'_14 
REMARK    9  A    between atoms: C5'_14  and  C4'_15 
REMARK   10  A    between atoms: C3'_17  and  O3'_18 
REMARK   11  A    between atoms: C2'_19  and  O2'_20 
REMARK   12  A    between atoms: C1'_21  and  N9_22 
REMARK   13  A    between atoms: C6_26  and  N6_27 
ROOT
ATOM      1  C4' AGS d   1      60.911 154.542  61.925  0.00  0.00     0.089 C 
ATOM      2  O4' AGS d   1      60.927 153.871  60.647  0.00  0.00    -0.353 OA
ATOM      3  C3' AGS d   1      62.272 154.290  62.579  0.00  0.00     0.091 C 
ATOM      4  C2' AGS d   1      63.133 153.711  61.448  0.00  0.00     0.105 C 
ATOM      5  C1' AGS d   1      62.093 153.087  60.522  0.00  0.00     0.139 C 
ATOM      6  H5  AGS d   1      60.131 154.101  62.563  0.00  0.00     0.090 H 
ATOM      7  H6  AGS d   1      62.705 155.237  62.934  0.00  0.00     0.091 H 
ATOM      8  H8  AGS d   1      63.700 154.503  60.937  0.00  0.00     0.093 H 
ATOM      9  H10 AGS d   1      61.895 152.054  60.846  0.00  0.00     0.122 H 
ENDROOT
BRANCH   1  10
ATOM     10  C5' AGS d   1      60.574 155.993  61.713  0.00  0.00     0.058 C 
ATOM     11  H3  AGS d   1      59.779 156.092  60.959  0.00  0.00     0.079 H 
ATOM     12  H4  AGS d   1      60.242 156.447  62.658  0.00  0.00     0.079 H 
BRANCH  10  13
ATOM     13  O5' AGS d   1      61.767 156.626  61.255  0.00  0.00    -0.287 OA
BRANCH  13  14
ATOM     14  PA  AGS d   1      61.844 158.083  60.677  0.00  0.00     0.417 P 
ATOM     15  O1A AGS d   1      62.832 158.075  59.507  0.00  0.00    -0.624 OA
ATOM     16  O2A AGS d   1      62.210 158.944  61.815  0.00  0.00    -0.624 OA
BRANCH  14  17
ATOM     17  O3A AGS d   1      60.418 158.500  60.093  0.00  0.00    -0.180 OA
BRANCH  17  18
ATOM     18  PB  AGS d   1      59.888 160.010  60.198  0.00  0.00     0.425 P 
ATOM     19  O1B AGS d   1      59.053 160.338  59.019  0.00  0.00    -0.624 OA
ATOM     20  O2B AGS d   1      59.120 160.055  61.522  0.00  0.00    -0.624 OA
BRANCH  18  21
ATOM     21  O3B AGS d   1      61.055 161.096  60.340  0.00  0.00    -0.205 OA
BRANCH  21  22
ATOM     22  PG  AGS d   1      60.892 162.386  61.222  0.00  0.00     0.333 P 
ATOM     23  S1G AGS d   1      62.156 162.334  62.698  0.00  0.00    -0.007 SA
BRANCH  22  24
ATOM     24  O2G AGS d   1      61.252 163.694  60.449  0.00  0.00    -0.324 OA
ATOM     25  H1  AGS d   1      62.151 163.644  60.146  0.00  0.00     0.220 HD
ENDBRANCH  22  24
BRANCH  22  26
ATOM     26  O3G AGS d   1      59.428 162.456  61.757  0.00  0.00    -0.324 OA
ATOM     27  H2  AGS d   1      59.250 161.690  62.289  0.00  0.00     0.220 HD
ENDBRANCH  22  26
ENDBRANCH  21  22
ENDBRANCH  18  21
ENDBRANCH  17  18
ENDBRANCH  14  17
ENDBRANCH  13  14
ENDBRANCH  10  13
ENDBRANCH   1  10
BRANCH   3  28
ATOM     28  O3' AGS d   1      62.155 153.402  63.683  0.00  0.00    -0.390 OA
ATOM     29  H7  AGS d   1      63.012 153.264  64.069  0.00  0.00     0.210 HD
ENDBRANCH   3  28
BRANCH   5  30
ATOM     30  N9  AGS d   1      62.485 153.072  59.113  0.00  0.00    -0.294 N 
ATOM     31  C8  AGS d   1      62.957 154.126  58.377  0.00  0.00     0.071 A 
ATOM     32  N7  AGS d   1      63.222 153.827  57.127  0.00  0.00    -0.236 NA
ATOM     33  H11 AGS d   1      63.100 155.123  58.792  0.00  0.00     0.144 H 
ATOM     34  C5  AGS d   1      62.893 152.485  57.034  0.00  0.00     0.149 A 
ATOM     35  C6  AGS d   1      62.944 151.567  55.966  0.00  0.00     0.155 A 
ATOM     36  C4  AGS d   1      62.434 152.004  58.250  0.00  0.00     0.167 A 
ATOM     37  N1  AGS d   1      62.542 150.299  56.207  0.00  0.00    -0.222 NA
ATOM     38  C2  AGS d   1      62.120 149.981  57.435  0.00  0.00     0.091 A 
ATOM     39  N3  AGS d   1      62.030 150.758  58.518  0.00  0.00    -0.222 NA
ATOM     40  H14 AGS d   1      61.808 148.952  57.571  0.00  0.00     0.146 H 
BRANCH  35  41
ATOM     41  N6  AGS d   1      63.360 151.883  54.736  0.00  0.00    -0.382 N 
ATOM     42  H12 AGS d   1      63.374 151.166  53.997  0.00  0.00     0.157 HD
ATOM     43  H13 AGS d   1      63.667 152.844  54.527  0.00  0.00     0.157 HD
ENDBRANCH  35  41
ENDBRANCH   5  30
BRANCH   4  44
ATOM     44  O2' AGS d   1      64.031 152.717  61.932  0.00  0.00    -0.388 OA
ATOM     45  H9  AGS d   1      63.535 152.009  62.326  0.00  0.00     0.210 HD
ENDBRANCH   4  44
TORSDOF 13
