REMARK WARNING: 32 MAX_TORS EXCEEDED!!!
REMARK  55 active torsions:
REMARK  status: ('A' for Active; 'I' for Inactive)
REMARK    1  A    between atoms: N_1  and  CA_2 
REMARK    2  A    between atoms: CA_2  and  C_3 
REMARK    3  A    between atoms: CA_2  and  CB_5 
REMARK       I    between atoms: C_3  and  N_10 
REMARK    4  A    between atoms: CB_5  and  CG_6 
REMARK    5  A    between atoms: CG_6  and  CD_7 
REMARK    6  A    between atoms: N_10  and  CA_11 
REMARK    7  A    between atoms: CA_11  and  C_12 
REMARK    8  A    between atoms: CA_11  and  CB_14 
REMARK       I    between atoms: C_12  and  N_17 
REMARK    9  A    between atoms: CB_14  and  CG1_15 
REMARK   10  A    between atoms: CB_14  and  CG2_16 
REMARK   11  A    between atoms: CA_18  and  C_19 
REMARK       I    between atoms: C_19  and  N_24 
REMARK   12  A    between atoms: N_24  and  CA_25 
REMARK   13  A    between atoms: CA_25  and  C_26 
REMARK   14  A    between atoms: CA_25  and  CB_28 
REMARK       I    between atoms: C_26  and  N_31 
REMARK   15  A    between atoms: CB_28  and  OG1_29 
REMARK   16  A    between atoms: CB_28  and  CG2_30 
REMARK   17  A    between atoms: N_31  and  CA_32 
REMARK   18  A    between atoms: CA_32  and  C_33 
REMARK   19  A    between atoms: CA_32  and  CB_35 
REMARK       I    between atoms: C_33  and  N_45 
REMARK   20  A    between atoms: CB_35  and  CG_36 
REMARK   21  A    between atoms: N_45  and  CA_46 
REMARK   22  A    between atoms: CA_46  and  C_47 
REMARK   23  A    between atoms: CA_46  and  CB_49 
REMARK       I    between atoms: C_47  and  N_55 
REMARK   24  A    between atoms: CB_49  and  CG_50 
REMARK   25  A    between atoms: N_55  and  CA_56 
REMARK   26  A    between atoms: CA_56  and  C_57 
REMARK   27  A    between atoms: CA_56  and  CB_59 
REMARK       I    between atoms: C_57  and  N_66 
REMARK   28  A    between atoms: CB_59  and  CG_60 
REMARK   29  A    between atoms: CG_60  and  CD_61 
REMARK   30  A    between atoms: CD_61  and  NE_62 
REMARK       I    between atoms: NE_62  and  CZ_63 
REMARK       I    between atoms: CZ_63  and  NH1_64 
REMARK       I    between atoms: CZ_63  and  NH2_65 
REMARK   31  A    between atoms: N_66  and  CA_67 
REMARK   32  A    between atoms: CA_67  and  C_68 
REMARK   33  A    between atoms: CA_67  and  CB_70 
REMARK       I    between atoms: C_68  and  N_74 
REMARK   34  A    between atoms: CB_70  and  CG_71 
REMARK   35  A    between atoms: CG_71  and  CD1_72 
REMARK   36  A    between atoms: CG_71  and  CD2_73 
REMARK   37  A    between atoms: N_74  and  CA_75 
REMARK   38  A    between atoms: CA_75  and  C_76 
REMARK   39  A    between atoms: CA_75  and  CB_78 
REMARK       I    between atoms: C_76  and  N_80 
REMARK   40  A    between atoms: CB_78  and  OG_79 
REMARK   41  A    between atoms: N_80  and  CA_81 
REMARK   42  A    between atoms: CA_81  and  C_82 
REMARK   43  A    between atoms: CA_81  and  CB_84 
REMARK       I    between atoms: C_82  and  N_86 
REMARK   44  A    between atoms: CB_84  and  OG_85 
REMARK   45  A    between atoms: N_86  and  CA_87 
REMARK   46  A    between atoms: CA_87  and  C_88 
REMARK   47  A    between atoms: CA_87  and  CB_90 
REMARK       I    between atoms: C_88  and  N_98 
REMARK   48  A    between atoms: CB_90  and  CG_91 
REMARK   49  A    between atoms: CZ_96  and  OH_97 
REMARK   50  A    between atoms: N_98  and  CA_99 
REMARK   51  A    between atoms: CA_99  and  C_100 
REMARK   52  A    between atoms: CA_99  and  CB_102 
REMARK   53  A    between atoms: CB_102  and  CG_103 
REMARK   54  A    between atoms: CG_103  and  CD_104 
REMARK   55  A    between atoms: CD_104  and  NE_105 
REMARK       I    between atoms: NE_105  and  CZ_106 
REMARK       I    between atoms: CZ_106  and  NH1_107 
ROOT
ATOM      1  CA  GLU d   1      12.953 112.836 188.005  0.00  0.00     0.089 C 
ATOM      2  H50 GLU d   1      12.332 113.249 188.814  0.00  0.00     0.087 H 
ENDROOT
BRANCH   1   3
ATOM      3  N   GLU d   1      12.105 112.152 187.036  0.00  0.00    -0.346 N 
ATOM      4  C   GLU d   1      10.874 112.577 186.755  0.00  0.00     0.241 C 
ATOM      5  O   GLU d   1      10.314 113.445 187.407  0.00  0.00    -0.271 OA
ATOM      6  H49 GLU d   1      12.457 111.341 186.569  0.00  0.00     0.163 HD
BRANCH   4   7
ATOM      7  CA  GLU d   1      10.133 111.853 185.628  0.00  0.00     0.094 C 
ATOM      8  H43 GLU d   1      10.712 110.979 185.296  0.00  0.00     0.088 H 
BRANCH   7   9
ATOM      9  N   GLU d   1       8.894 111.424 186.228  0.00  0.00    -0.346 N 
ATOM     10  C   GLU d   1       8.531 110.159 186.188  0.00  0.00     0.241 C 
ATOM     11  O   GLU d   1       9.102 109.334 185.514  0.00  0.00    -0.271 OA
ATOM     12  H42 GLU d   1       8.304 112.094 186.679  0.00  0.00     0.163 HD
BRANCH  10  13
ATOM     13  CA  GLU d   1       7.278 109.785 186.922  0.00  0.00     0.093 C 
ATOM     14  H33 GLU d   1       6.491 110.527 186.722  0.00  0.00     0.088 H 
BRANCH  13  15
ATOM     15  N   GLU d   1       6.877 108.478 186.394  0.00  0.00    -0.346 N 
ATOM     16  C   GLU d   1       5.602 108.150 186.362  0.00  0.00     0.243 C 
ATOM     17  O   GLU d   1       4.736 108.890 186.820  0.00  0.00    -0.271 OA
ATOM     18  H32 GLU d   1       7.569 107.838 186.059  0.00  0.00     0.163 HD
BRANCH  16  19
ATOM     19  CA  GLU d   1       5.228 106.829 185.693  0.00  0.00     0.113 C 
ATOM     20  H26 GLU d   1       5.874 106.003 186.027  0.00  0.00     0.091 H 
BRANCH  19  21
ATOM     21  N   GLU d   1       3.823 106.571 186.045  0.00  0.00    -0.344 N 
ATOM     22  C   GLU d   1       3.420 106.070 187.208  0.00  0.00     0.241 C 
ATOM     23  O   GLU d   1       4.189 105.726 188.104  0.00  0.00    -0.271 OA
ATOM     24  H25 GLU d   1       3.124 106.787 185.363  0.00  0.00     0.163 HD
BRANCH  22  25
ATOM     25  CA  GLU d   1       1.854 105.949 187.375  0.00  0.00     0.091 C 
ATOM     26  N   GLU d   1       1.307 104.840 186.601  0.00  0.00    -0.337 N 
ATOM     27  C   GLU d   1       1.134 105.012 185.280  0.00  0.00     0.243 C 
ATOM     28  CD  GLU d   1       1.247 103.610 187.407  0.00  0.00    -0.001 C 
ATOM     29  O   GLU d   1       1.385 106.066 184.740  0.00  0.00    -0.271 OA
ATOM     30  CG  GLU d   1       1.448 104.100 188.817  0.00  0.00    -0.048 C 
ATOM     31  H23 GLU d   1       2.045 102.911 187.117  0.00  0.00     0.064 H 
ATOM     32  H24 GLU d   1       0.270 103.117 187.298  0.00  0.00     0.064 H 
ATOM     33  CB  GLU d   1       1.431 105.610 188.783  0.00  0.00    -0.036 C 
ATOM     34  H21 GLU d   1       0.637 103.730 189.462  0.00  0.00     0.035 H 
ATOM     35  H22 GLU d   1       2.415 103.744 189.203  0.00  0.00     0.035 H 
ATOM     36  H19 GLU d   1       0.421 105.994 188.991  0.00  0.00     0.036 H 
ATOM     37  H20 GLU d   1       2.139 106.025 189.515  0.00  0.00     0.036 H 
ATOM     38  H18 GLU d   1       1.397 106.899 187.060  0.00  0.00     0.087 H 
BRANCH  27  39
ATOM     39  CA  GLU d   1       0.534 103.848 184.437  0.00  0.00     0.092 C 
ATOM     40  H10 GLU d   1       0.140 103.077 185.115  0.00  0.00     0.088 H 
BRANCH  39  41
ATOM     41  N   GLU d   1      -0.561 104.402 183.626  0.00  0.00    -0.346 N 
ATOM     42  C   GLU d   1      -1.805 104.489 184.079  0.00  0.00     0.249 C 
ATOM     43  O   GLU d   1      -2.139 104.076 185.186  0.00  0.00    -0.271 OA
ATOM     44  H9  GLU d   1      -0.361 104.724 182.701  0.00  0.00     0.163 HD
BRANCH  42  45
ATOM     45  CA  GLU d   1      -2.819 105.155 183.141  0.00  0.00     0.176 C 
ATOM     46  H4  GLU d   1      -2.370 106.087 182.768  0.00  0.00     0.099 H 
BRANCH  45  47
ATOM     47  N   GLU d   1      -3.117 104.292 181.971  0.00  0.00    -0.066 N 
ATOM     48  H1  GLU d   1      -3.784 104.754 181.374  0.00  0.00     0.275 HD
ATOM     49  H2  GLU d   1      -3.501 103.416 182.289  0.00  0.00     0.275 HD
ATOM     50  H3  GLU d   1      -2.268 104.120 181.456  0.00  0.00     0.275 HD
ENDBRANCH  45  47
BRANCH  45  51
ATOM     51  CB  GLU d   1      -4.120 105.522 183.894  0.00  0.00    -0.021 C 
ATOM     52  H5  GLU d   1      -4.422 104.656 184.501  0.00  0.00     0.037 H 
ATOM     53  H6  GLU d   1      -4.900 105.737 183.148  0.00  0.00     0.037 H 
BRANCH  51  54
ATOM     54  CG  GLU d   1      -3.998 106.725 184.812  0.00  0.00     0.018 C 
ATOM     55  H7  GLU d   1      -3.590 106.393 185.778  0.00  0.00     0.049 H 
ATOM     56  H8  GLU d   1      -4.998 107.156 184.965  0.00  0.00     0.049 H 
BRANCH  54  57
ATOM     57  CD  GLU d   1      -3.086 107.798 184.240  0.00  0.00     0.172 C 
ATOM     58  OE1 GLU d   1      -1.851 107.733 184.451  0.00  0.00    -0.648 OA
ATOM     59  OE2 GLU d   1      -3.603 108.713 183.570  0.00  0.00    -0.648 OA
ENDBRANCH  54  57
ENDBRANCH  51  54
ENDBRANCH  45  51
ENDBRANCH  42  45
ENDBRANCH  39  41
BRANCH  39  60
ATOM     60  CB  GLU d   1       1.589 103.200 183.504  0.00  0.00    -0.033 C 
ATOM     61  H11 GLU d   1       1.981 103.978 182.833  0.00  0.00     0.042 H 
BRANCH  60  62
ATOM     62  CG1 GLU d   1       2.765 102.621 184.296  0.00  0.00    -0.071 C 
ATOM     63  H12 GLU d   1       3.490 102.172 183.601  0.00  0.00     0.028 H 
ATOM     64  H13 GLU d   1       2.396 101.851 184.989  0.00  0.00     0.028 H 
ATOM     65  H14 GLU d   1       3.254 103.424 184.866  0.00  0.00     0.028 H 
ENDBRANCH  60  62
BRANCH  60  66
ATOM     66  CG2 GLU d   1       0.926 102.123 182.658  0.00  0.00    -0.071 C 
ATOM     67  H15 GLU d   1       0.086 102.561 182.099  0.00  0.00     0.028 H 
ATOM     68  H16 GLU d   1       0.553 101.321 183.312  0.00  0.00     0.028 H 
ATOM     69  H17 GLU d   1       1.660 101.708 181.951  0.00  0.00     0.028 H 
ENDBRANCH  60  66
ENDBRANCH  39  60
ENDBRANCH  27  39
ENDBRANCH  22  25
ENDBRANCH  19  21
BRANCH  19  70
ATOM     70  CB  GLU d   1       5.377 107.068 184.171  0.00  0.00     0.060 C 
ATOM     71  H27 GLU d   1       6.401 107.410 183.961  0.00  0.00     0.086 H 
BRANCH  70  72
ATOM     72  OG1 GLU d   1       4.450 108.079 183.791  0.00  0.00    -0.393 OA
ATOM     73  H28 GLU d   1       4.641 108.878 184.269  0.00  0.00     0.210 HD
ENDBRANCH  70  72
BRANCH  70  74
ATOM     74  CG2 GLU d   1       5.106 105.802 183.359  0.00  0.00    -0.050 C 
ATOM     75  H29 GLU d   1       5.224 106.021 182.288  0.00  0.00     0.031 H 
ATOM     76  H30 GLU d   1       4.080 105.455 183.552  0.00  0.00     0.031 H 
ATOM     77  H31 GLU d   1       5.819 105.018 183.653  0.00  0.00     0.031 H 
ENDBRANCH  70  74
ENDBRANCH  19  70
ENDBRANCH  16  19
ENDBRANCH  13  15
BRANCH  13  78
ATOM     78  CB  GLU d   1       7.520 109.717 188.420  0.00  0.00    -0.012 C 
ATOM     79  H34 GLU d   1       6.598 109.365 188.906  0.00  0.00     0.044 H 
ATOM     80  H35 GLU d   1       7.761 110.728 188.780  0.00  0.00     0.044 H 
BRANCH  78  81
ATOM     81  CG  GLU d   1       8.649 108.790 188.809  0.00  0.00    -0.028 A 
ATOM     82  CD1 GLU d   1       9.990 109.130 188.999  0.00  0.00    -0.015 A 
ATOM     83  NE1 GLU d   1      10.703 108.013 189.324  0.00  0.00    -0.365 N 
ATOM     84  H36 GLU d   1      10.403 110.133 188.903  0.00  0.00     0.112 H 
ATOM     85  CE2 GLU d   1       9.875 106.924 189.348  0.00  0.00     0.042 A 
ATOM     86  H37 GLU d   1      11.714 107.993 189.522  0.00  0.00     0.165 HD
ATOM     87  CD2 GLU d   1       8.573 107.370 189.010  0.00  0.00    -0.002 A 
ATOM     88  CZ2 GLU d   1      10.146 105.611 189.644  0.00  0.00    -0.056 A 
ATOM     89  CE3 GLU d   1       7.541 106.438 188.951  0.00  0.00    -0.070 A 
ATOM     90  CZ3 GLU d   1       7.818 105.146 189.276  0.00  0.00    -0.082 A 
ATOM     91  H38 GLU d   1       6.542 106.734 188.654  0.00  0.00     0.084 H 
ATOM     92  CH2 GLU d   1       9.099 104.737 189.602  0.00  0.00    -0.081 A 
ATOM     93  H40 GLU d   1       7.014 104.418 189.280  0.00  0.00     0.083 H 
ATOM     94  H41 GLU d   1       9.276 103.692 189.831  0.00  0.00     0.083 H 
ATOM     95  H39 GLU d   1      11.147 105.283 189.900  0.00  0.00     0.086 H 
ENDBRANCH  78  81
ENDBRANCH  13  78
ENDBRANCH  10  13
ENDBRANCH   7   9
BRANCH   7  96
ATOM     96  CB  GLU d   1       9.904 112.768 184.430  0.00  0.00     0.004 C 
ATOM     97  H44 GLU d   1       9.605 112.148 183.572  0.00  0.00     0.046 H 
ATOM     98  H45 GLU d   1      10.849 113.282 184.200  0.00  0.00     0.046 H 
BRANCH  96  99
ATOM     99  CG  GLU d   1       8.854 113.796 184.655  0.00  0.00     0.053 A 
ATOM    100  ND1 GLU d   1       7.515 113.551 184.443  0.00  0.00    -0.247 NA
ATOM    101  CE1 GLU d   1       6.822 114.644 184.712  0.00  0.00     0.064 A 
ATOM    102  NE2 GLU d   1       7.665 115.586 185.099  0.00  0.00    -0.359 N 
ATOM    103  H47 GLU d   1       5.741 114.750 184.629  0.00  0.00     0.143 H 
ATOM    104  CD2 GLU d   1       8.940 115.079 185.075  0.00  0.00     0.002 A 
ATOM    105  H48 GLU d   1       7.407 116.544 185.374  0.00  0.00     0.166 HD
ATOM    106  H46 GLU d   1       9.851 115.611 185.344  0.00  0.00     0.114 H 
ENDBRANCH  96  99
ENDBRANCH   7  96
ENDBRANCH   4   7
ENDBRANCH   1   3
BRANCH   1 107
ATOM    107  C   GLU d   1      13.667 114.017 187.268  0.00  0.00     0.241 C 
ATOM    108  O   GLU d   1      14.254 113.839 186.212  0.00  0.00    -0.271 OA
ATOM    109  N   GLU d   1      13.621 115.230 187.788  0.00  0.00    -0.346 N 
ATOM    110  H62 GLU d   1      13.121 115.402 188.637  0.00  0.00     0.163 HD
BRANCH 109 111
ATOM    111  CA  GLU d   1      14.324 116.329 187.091  0.00  0.00     0.089 C 
ATOM    112  H63 GLU d   1      14.244 116.148 186.009  0.00  0.00     0.087 H 
BRANCH 111 113
ATOM    113  C   GLU d   1      15.796 116.310 187.465  0.00  0.00     0.241 C 
ATOM    114  O   GLU d   1      16.119 115.943 188.567  0.00  0.00    -0.271 OA
ATOM    115  N   GLU d   1      16.667 116.658 186.530  0.00  0.00    -0.344 N 
ATOM    116  H73 GLU d   1      16.333 116.872 185.612  0.00  0.00     0.163 HD
BRANCH 115 117
ATOM    117  CA  GLU d   1      18.104 116.739 186.800  0.00  0.00     0.109 C 
ATOM    118  H74 GLU d   1      18.242 116.811 187.889  0.00  0.00     0.090 H 
BRANCH 117 119
ATOM    119  C   GLU d   1      18.692 117.976 186.156  0.00  0.00     0.243 C 
ATOM    120  O   GLU d   1      18.296 118.350 185.060  0.00  0.00    -0.271 OA
ATOM    121  N   GLU d   1      19.629 118.627 186.844  0.00  0.00    -0.344 N 
ATOM    122  H78 GLU d   1      19.776 118.406 187.808  0.00  0.00     0.163 HD
BRANCH 121 123
ATOM    123  CA  GLU d   1      20.451 119.667 186.205  0.00  0.00     0.109 C 
ATOM    124  H79 GLU d   1      19.794 120.180 185.488  0.00  0.00     0.090 H 
BRANCH 123 125
ATOM    125  C   GLU d   1      21.644 119.158 185.444  0.00  0.00     0.243 C 
ATOM    126  O   GLU d   1      22.377 119.984 184.916  0.00  0.00    -0.271 OA
ATOM    127  N   GLU d   1      21.860 117.839 185.412  0.00  0.00    -0.346 N 
ATOM    128  H83 GLU d   1      21.183 117.239 185.837  0.00  0.00     0.163 HD
BRANCH 127 129
ATOM    129  CA  GLU d   1      23.024 117.231 184.794  0.00  0.00     0.093 C 
ATOM    130  H84 GLU d   1      23.768 118.023 184.625  0.00  0.00     0.088 H 
BRANCH 129 131
ATOM    131  C   GLU d   1      22.680 116.564 183.413  0.00  0.00     0.241 C 
ATOM    132  O   GLU d   1      21.625 116.040 183.233  0.00  0.00    -0.271 OA
ATOM    133  N   GLU d   1      23.602 116.602 182.475  0.00  0.00    -0.345 N 
ATOM    134  H92 GLU d   1      24.446 117.109 182.650  0.00  0.00     0.163 HD
BRANCH 133 135
ATOM    135  CA  GLU d   1      23.440 115.937 181.198  0.00  0.00     0.096 C 
ATOM    136  H93 GLU d   1      22.398 115.605 181.075  0.00  0.00     0.089 H 
BRANCH 135 137
ATOM    137  C   GLU d   1      24.365 114.747 181.248  0.00  0.00     0.196 C 
ATOM    138  O   GLU d   1      25.331 114.732 181.997  0.00  0.00    -0.646 OA
ATOM    139  OXT GLU d   1      24.171 113.769 180.541  0.00  0.00    -0.646 OA
ENDBRANCH 135 137
BRANCH 135 140
ATOM    140  CB  GLU d   1      23.815 116.863 180.022  0.00  0.00    -0.035 C 
ATOM    141  H94 GLU d   1      23.871 116.243 179.115  0.00  0.00     0.036 H 
ATOM    142  H95 GLU d   1      24.806 117.289 180.237  0.00  0.00     0.036 H 
BRANCH 140 143
ATOM    143  CG  GLU d   1      22.864 118.029 179.727  0.00  0.00    -0.047 C 
ATOM    144  H96 GLU d   1      23.439 118.966 179.737  0.00  0.00     0.035 H 
ATOM    145  H97 GLU d   1      22.093 118.064 180.511  0.00  0.00     0.035 H 
BRANCH 143 146
ATOM    146  CD  GLU d   1      22.176 117.886 178.363  0.00  0.00     0.009 C 
ATOM    147  H98 GLU d   1      21.125 117.615 178.540  0.00  0.00     0.064 H 
ATOM    148  H99 GLU d   1      22.676 117.074 177.814  0.00  0.00     0.064 H 
BRANCH 146 149
ATOM    149  NE  GLU d   1      22.198 119.090 177.513  0.00  0.00    -0.227 N 
ATOM    150  CZ  GLU d   1      21.310 119.340 176.547  0.00  0.00     0.665 C 
ATOM    151  NH1 GLU d   1      20.332 118.499 176.299  0.00  0.00    -0.235 N 
ATOM    152  NH2 GLU d   1      21.383 120.434 175.833  0.00  0.00    -0.235 N 
ATOM    153 1H10 GLU d   1      19.654 118.704 175.551  0.00  0.00     0.174 HD
ATOM    154 2H10 GLU d   1      20.243 117.635 176.852  0.00  0.00     0.174 HD
ATOM    155 3H10 GLU d   1      22.139 121.112 176.005  0.00  0.00     0.174 HD
ATOM    156 4H10 GLU d   1      20.684 120.617 175.099  0.00  0.00     0.174 HD
ATOM    157 0H10 GLU d   1      22.944 119.781 177.674  0.00  0.00     0.177 HD
ENDBRANCH 146 149
ENDBRANCH 143 146
ENDBRANCH 140 143
ENDBRANCH 135 140
ENDBRANCH 133 135
ENDBRANCH 129 131
BRANCH 129 158
ATOM    158  CB  GLU d   1      23.655 116.141 185.706  0.00  0.00    -0.014 C 
ATOM    159  H85 GLU d   1      24.489 115.674 185.162  0.00  0.00     0.043 H 
ATOM    160  H86 GLU d   1      22.888 115.383 185.922  0.00  0.00     0.043 H 
BRANCH 158 161
ATOM    161  CG  GLU d   1      24.179 116.675 187.015  0.00  0.00    -0.056 A 
ATOM    162  CD1 GLU d   1      23.307 117.023 188.048  0.00  0.00    -0.074 A 
ATOM    163  CE1 GLU d   1      23.789 117.546 189.235  0.00  0.00    -0.051 A 
ATOM    164  H87 GLU d   1      22.240 116.882 187.919  0.00  0.00     0.084 H 
ATOM    165  CZ  GLU d   1      25.182 117.724 189.407  0.00  0.00     0.065 A 
ATOM    166  H89 GLU d   1      23.103 117.818 190.029  0.00  0.00     0.087 H 
ATOM    167  CE2 GLU d   1      26.038 117.438 188.375  0.00  0.00    -0.051 A 
ATOM    168  CD2 GLU d   1      25.547 116.892 187.198  0.00  0.00    -0.074 A 
ATOM    169  H90 GLU d   1      27.098 117.638 188.479  0.00  0.00     0.087 H 
ATOM    170  H88 GLU d   1      26.238 116.629 186.405  0.00  0.00     0.084 H 
BRANCH 165 171
ATOM    171  OH  GLU d   1      25.713 118.312 190.523  0.00  0.00    -0.361 OA
ATOM    172  H91 GLU d   1      25.024 118.458 191.161  0.00  0.00     0.217 HD
ENDBRANCH 165 171
ENDBRANCH 158 161
ENDBRANCH 129 158
ENDBRANCH 127 129
ENDBRANCH 123 125
BRANCH 123 173
ATOM    173  CB  GLU d   1      20.983 120.716 187.191  0.00  0.00     0.044 C 
ATOM    174  H80 GLU d   1      21.350 121.588 186.629  0.00  0.00     0.077 H 
ATOM    175  H81 GLU d   1      21.809 120.281 187.773  0.00  0.00     0.077 H 
BRANCH 173 176
ATOM    176  OG  GLU d   1      19.989 121.116 188.048  0.00  0.00    -0.398 OA
ATOM    177  H82 GLU d   1      20.334 121.764 188.651  0.00  0.00     0.209 HD
ENDBRANCH 173 176
ENDBRANCH 123 173
ENDBRANCH 121 123
ENDBRANCH 117 119
BRANCH 117 178
ATOM    178  CB  GLU d   1      18.852 115.512 186.307  0.00  0.00     0.044 C 
ATOM    179  H75 GLU d   1      18.805 115.472 185.209  0.00  0.00     0.077 H 
ATOM    180  H76 GLU d   1      18.387 114.608 186.727  0.00  0.00     0.077 H 
BRANCH 178 181
ATOM    181  OG  GLU d   1      20.216 115.579 186.721  0.00  0.00    -0.398 OA
ATOM    182  H77 GLU d   1      20.257 115.612 187.669  0.00  0.00     0.209 HD
ENDBRANCH 178 181
ENDBRANCH 117 178
ENDBRANCH 115 117
ENDBRANCH 111 113
BRANCH 111 183
ATOM    183  CB  GLU d   1      13.700 117.694 187.377  0.00  0.00    -0.035 C 
ATOM    184  H64 GLU d   1      14.472 118.374 187.766  0.00  0.00     0.037 H 
ATOM    185  H65 GLU d   1      12.901 117.581 188.124  0.00  0.00     0.037 H 
BRANCH 183 186
ATOM    186  CG  GLU d   1      13.110 118.279 186.083  0.00  0.00    -0.059 C 
ATOM    187  H66 GLU d   1      12.606 117.461 185.547  0.00  0.00     0.038 H 
BRANCH 186 188
ATOM    188  CD1 GLU d   1      12.071 119.342 186.385  0.00  0.00    -0.073 C 
ATOM    189  H67 GLU d   1      11.669 119.740 185.442  0.00  0.00     0.028 H 
ATOM    190  H68 GLU d   1      12.537 120.157 186.958  0.00  0.00     0.028 H 
ATOM    191  H69 GLU d   1      11.254 118.900 186.974  0.00  0.00     0.028 H 
ENDBRANCH 186 188
BRANCH 186 192
ATOM    192  CD2 GLU d   1      14.208 118.833 185.162  0.00  0.00    -0.073 C 
ATOM    193  H70 GLU d   1      14.948 118.045 184.958  0.00  0.00     0.028 H 
ATOM    194  H71 GLU d   1      14.704 119.683 185.653  0.00  0.00     0.028 H 
ATOM    195  H72 GLU d   1      13.758 119.167 184.215  0.00  0.00     0.028 H 
ENDBRANCH 186 192
ENDBRANCH 183 186
ENDBRANCH 111 183
ENDBRANCH 109 111
ENDBRANCH   1 107
BRANCH   1 196
ATOM    196  CB  GLU d   1      13.938 111.805 188.616  0.00  0.00    -0.036 C 
ATOM    197  H51 GLU d   1      14.528 111.362 187.800  0.00  0.00     0.036 H 
ATOM    198  H52 GLU d   1      13.353 111.019 189.115  0.00  0.00     0.036 H 
BRANCH 196 199
ATOM    199  CG  GLU d   1      14.880 112.397 189.612  0.00  0.00    -0.048 C 
ATOM    200  H53 GLU d   1      14.286 112.846 190.421  0.00  0.00     0.035 H 
ATOM    201  H54 GLU d   1      15.464 113.181 189.108  0.00  0.00     0.035 H 
BRANCH 199 202
ATOM    202  CD  GLU d   1      15.834 111.425 190.220  0.00  0.00     0.009 C 
ATOM    203  H55 GLU d   1      16.267 111.899 191.113  0.00  0.00     0.064 H 
ATOM    204  H56 GLU d   1      16.629 111.235 189.484  0.00  0.00     0.064 H 
BRANCH 202 205
ATOM    205  NE  GLU d   1      15.276 110.098 190.637  0.00  0.00    -0.227 N 
ATOM    206  CZ  GLU d   1      15.080 109.716 191.902  0.00  0.00     0.665 C 
ATOM    207  NH1 GLU d   1      15.279 110.527 192.949  0.00  0.00    -0.235 N 
ATOM    208  NH2 GLU d   1      14.646 108.546 192.124  0.00  0.00    -0.235 N 
ATOM    209  H58 GLU d   1      15.113 110.183 193.906  0.00  0.00     0.174 HD
ATOM    210  H59 GLU d   1      15.598 111.495 192.798  0.00  0.00     0.174 HD
ATOM    211  H60 GLU d   1      14.483 107.900 191.339  0.00  0.00     0.174 HD
ATOM    212  H61 GLU d   1      14.456 108.242 193.089  0.00  0.00     0.174 HD
ATOM    213  H57 GLU d   1      15.025 109.431 189.893  0.00  0.00     0.177 HD
ENDBRANCH 202 205
ENDBRANCH 199 202
ENDBRANCH 196 199
ENDBRANCH   1 196
TORSDOF 55
