REMARK  8 active torsions:
REMARK  status: ('A' for Active; 'I' for Inactive)
REMARK    1  A    between atoms: NAC_6  and  CBG_7 
REMARK    2  A    between atoms: CBG_7  and  CBH_8 
REMARK    3  A    between atoms: CBH_8  and  NAA_9 
REMARK       I    between atoms: NAA_9  and  CAX_10 
REMARK    4  A    between atoms: CAX_10  and  CBE_12 
REMARK    5  A    between atoms: CAV_27  and  NAB_28 
REMARK    6  A    between atoms: NAB_28  and  CAN_29 
REMARK    7  A    between atoms: CAI_35  and  NAD_36 
REMARK       I    between atoms: NAD_36  and  CAM_37 
REMARK    8  A    between atoms: CAM_37  and  CBK_39 
ROOT
ATOM      1  CBE FJI d   1      20.142   5.855 -26.439  0.00  0.00     0.033 A 
ATOM      2  CAE FJI d   1      20.245   4.440 -26.461  0.00  0.00    -0.053 A 
ATOM      3  CBC FJI d   1      19.388   3.632 -25.689  0.00  0.00     0.024 A 
ATOM      4  CAP FJI d   1      19.577   2.230 -25.732  0.00  0.00     0.195 C 
ATOM      5  OBQ FJI d   1      19.883   1.749 -26.825  0.00  0.00    -0.287 OA
ATOM      6  CAG FJI d   1      19.181   6.453 -25.622  0.00  0.00    -0.067 A 
ATOM      7  CAW FJI d   1      18.320   5.630 -24.853  0.00  0.00    -0.073 A 
ATOM      8  CAO FJI d   1      18.418   4.235 -24.908  0.00  0.00    -0.020 A 
ATOM      9  CBD FJI d   1      17.554   3.491 -24.066  0.00  0.00     0.051 C 
ATOM     10  OBO FJI d   1      18.427   2.986 -22.965  0.00  0.00    -0.346 OA
ATOM     11  CAF FJI d   1      19.214   1.897 -23.268  0.00  0.00     0.085 A 
ATOM     12  CAL FJI d   1      19.490   1.174 -22.130  0.00  0.00    -0.024 A 
ATOM     13  CAK FJI d   1      19.696   1.499 -24.526  0.00  0.00     0.048 A 
ATOM     14  CAJ FJI d   1      20.378   0.259 -24.535  0.00  0.00    -0.064 A 
ATOM     15  CAQ FJI d   1      20.663  -0.487 -23.392  0.00  0.00    -0.056 A 
ATOM     16  CAV FJI d   1      20.240  -0.023 -22.155  0.00  0.00     0.035 A 
ATOM     17  H15 FJI d   1      20.998   3.972 -27.084  0.00  0.00     0.086 H 
ATOM     18  H16 FJI d   1      19.094   7.532 -25.576  0.00  0.00     0.085 H 
ATOM     19  H17 FJI d   1      17.575   6.088 -24.213  0.00  0.00     0.084 H 
ATOM     20  H18 FJI d   1      17.104   2.653 -24.618  0.00  0.00     0.082 H 
ATOM     21  H19 FJI d   1      16.758   4.135 -23.664  0.00  0.00     0.082 H 
ATOM     22  H20 FJI d   1      19.118   1.537 -21.179  0.00  0.00     0.091 H 
ATOM     23  H21 FJI d   1      20.699  -0.136 -25.492  0.00  0.00     0.085 H 
ATOM     24  H22 FJI d   1      21.209  -1.420 -23.469  0.00  0.00     0.086 H 
ENDROOT
BRANCH  16  25
ATOM     25  NAB FJI d   1      20.436  -0.661 -20.939  0.00  0.00    -0.356 N 
ATOM     26  H23 FJI d   1      19.999  -0.213 -20.121  0.00  0.00     0.166 HD
BRANCH  25  27
ATOM     27  CAN FJI d   1      21.144  -1.823 -20.686  0.00  0.00     0.034 A 
ATOM     28  CBF FJI d   1      20.561  -2.763 -19.784  0.00  0.00    -0.028 A 
ATOM     29  CAI FJI d   1      21.215  -3.897 -19.416  0.00  0.00     0.076 A 
ATOM     30  H24 FJI d   1      19.573  -2.568 -19.383  0.00  0.00     0.090 H 
ATOM     31  CBL FJI d   1      22.505  -4.159 -19.970  0.00  0.00     0.143 A 
ATOM     32  CAU FJI d   1      23.080  -3.305 -20.864  0.00  0.00    -0.041 A 
ATOM     33  FBR FJI d   1      23.127  -5.245 -19.653  0.00  0.00    -0.204 F 
ATOM     34  CAS FJI d   1      22.421  -2.127 -21.226  0.00  0.00    -0.054 A 
ATOM     35  H26 FJI d   1      24.047  -3.540 -21.294  0.00  0.00     0.088 H 
ATOM     36  H25 FJI d   1      22.888  -1.441 -21.924  0.00  0.00     0.087 H 
BRANCH  29  37
ATOM     37  NAD FJI d   1      20.752  -4.764 -18.497  0.00  0.00    -0.320 N 
ATOM     38  CAM FJI d   1      19.450  -5.203 -18.494  0.00  0.00     0.256 C 
ATOM     39  OBM FJI d   1      18.610  -4.873 -19.321  0.00  0.00    -0.267 OA
ATOM     40  H27 FJI d   1      21.377  -5.100 -17.792  0.00  0.00     0.169 HD
BRANCH  38  41
ATOM     41  CBK FJI d   1      19.038  -6.063 -17.467  0.00  0.00     0.032 A 
ATOM     42  CAR FJI d   1      19.303  -5.784 -16.143  0.00  0.00    -0.068 A 
ATOM     43  CAY FJI d   1      18.876  -6.602 -15.094  0.00  0.00    -0.082 A 
ATOM     44  H28 FJI d   1      19.868  -4.890 -15.905  0.00  0.00     0.085 H 
ATOM     45  CAZ FJI d   1      18.151  -7.753 -15.383  0.00  0.00    -0.083 A 
ATOM     46  H29 FJI d   1      19.107  -6.343 -14.067  0.00  0.00     0.083 H 
ATOM     47  CAT FJI d   1      17.886  -8.075 -16.738  0.00  0.00    -0.082 A 
ATOM     48  H30 FJI d   1      17.794  -8.394 -14.585  0.00  0.00     0.083 H 
ATOM     49  CBJ FJI d   1      18.304  -7.217 -17.791  0.00  0.00    -0.068 A 
ATOM     50  H31 FJI d   1      17.356  -8.991 -16.975  0.00  0.00     0.083 H 
ATOM     51  H32 FJI d   1      18.062  -7.448 -18.822  0.00  0.00     0.085 H 
ENDBRANCH  38  41
ENDBRANCH  29  37
ENDBRANCH  25  27
ENDBRANCH  16  25
BRANCH   1  52
ATOM     52  CAX FJI d   1      21.060   6.646 -27.244  0.00  0.00     0.251 C 
ATOM     53  NAA FJI d   1      21.290   7.890 -26.879  0.00  0.00    -0.355 N 
ATOM     54  H14 FJI d   1      20.831   8.254 -26.068  0.00  0.00     0.162 HD
ATOM     55  OBP FJI d   1      21.669   6.181 -28.210  0.00  0.00    -0.268 OA
BRANCH  53  56
ATOM     56  CBH FJI d   1      22.221   8.771 -27.649  0.00  0.00     0.018 C 
ATOM     57  H12 FJI d   1      23.255   8.592 -27.319  0.00  0.00     0.066 H 
ATOM     58  H13 FJI d   1      22.135   8.548 -28.723  0.00  0.00     0.066 H 
BRANCH  56  59
ATOM     59  CBG FJI d   1      21.850  10.233 -27.398  0.00  0.00     0.098 C 
ATOM     60  H10 FJI d   1      22.113  10.476 -26.358  0.00  0.00     0.078 H 
ATOM     61  H11 FJI d   1      22.445  10.856 -28.082  0.00  0.00     0.078 H 
BRANCH  59  62
ATOM     62  NAC FJI d   1      20.417  10.570 -27.599  0.00  0.00    -0.066 N 
ATOM     63  CAH FJI d   1      20.318  12.019 -27.263  0.00  0.00     0.103 C 
ATOM     64  CBA FJI d   1      19.543  12.865 -28.183  0.00  0.00     0.042 C 
ATOM     65  H1  FJI d   1      19.854  12.098 -26.269  0.00  0.00     0.079 H 
ATOM     66  H2  FJI d   1      21.341  12.421 -27.224  0.00  0.00     0.079 H 
ATOM     67  OBN FJI d   1      19.375  12.294 -29.543  0.00  0.00    -0.388 OA
ATOM     68  H3  FJI d   1      20.057  13.833 -28.277  0.00  0.00     0.076 H 
ATOM     69  H4  FJI d   1      18.544  13.021 -27.749  0.00  0.00     0.076 H 
ATOM     70  CBI FJI d   1      20.038  11.090 -29.979  0.00  0.00     0.042 C 
ATOM     71  CBB FJI d   1      19.779  10.081 -28.868  0.00  0.00     0.103 C 
ATOM     72  H5  FJI d   1      21.117  11.264 -30.101  0.00  0.00     0.076 H 
ATOM     73  H6  FJI d   1      19.614  10.736 -30.930  0.00  0.00     0.076 H 
ATOM     74  H7  FJI d   1      20.211   9.108 -29.146  0.00  0.00     0.079 H 
ATOM     75  H8  FJI d   1      18.695   9.971 -28.716  0.00  0.00     0.079 H 
ATOM     76  H9  FJI d   1      19.909  10.084 -26.876  0.00  0.00     0.280 HD
ENDBRANCH  59  62
ENDBRANCH  56  59
ENDBRANCH  53  56
ENDBRANCH   1  52
TORSDOF 8
