REMARK  8 active torsions:
REMARK  status: ('A' for Active; 'I' for Inactive)
REMARK    1  A    between atoms: CAS_5  and  CAR_6 
REMARK       I    between atoms: CAR_6  and  NAQ_8 
REMARK    2  A    between atoms: NAQ_8  and  CAK_9 
REMARK    3  A    between atoms: CAI_16  and  NAH_17 
REMARK    4  A    between atoms: NAH_17  and  CAW_18 
REMARK    5  A    between atoms: CAY_33  and  CAB_34 
REMARK       I    between atoms: CAB_34  and  NAC_36 
REMARK    6  A    between atoms: NAC_36  and  CAE_37 
REMARK    7  A    between atoms: CAE_37  and  CAF_38 
REMARK    8  A    between atoms: CAF_38  and  OAG_39 
ROOT
ATOM      1  CAW HB9 d   1      20.248   0.063 -21.939  0.00  0.00     0.033 A 
ATOM      2  CAX HB9 d   1      19.541   1.277 -21.907  0.00  0.00    -0.050 A 
ATOM      3  CAV HB9 d   1      20.738  -0.389 -23.187  0.00  0.00    -0.056 A 
ATOM      4  CAA HB9 d   1      20.513   0.361 -24.330  0.00  0.00    -0.067 A 
ATOM      5  CBG HB9 d   1      19.796   1.554 -24.298  0.00  0.00     0.021 A 
ATOM      6  CBF HB9 d   1      19.662   2.233 -25.529  0.00  0.00     0.193 C 
ATOM      7  OBE HB9 d   1      19.666   1.647 -26.600  0.00  0.00    -0.287 OA
ATOM      8  CBI HB9 d   1      19.295   2.020 -23.072  0.00  0.00    -0.042 A 
ATOM      9  CBJ HB9 d   1      18.519   3.210 -22.819  0.00  0.00    -0.036 C 
ATOM     10  CBK HB9 d   1      17.594   3.633 -24.007  0.00  0.00    -0.036 C 
ATOM     11  CBL HB9 d   1      18.469   4.277 -24.866  0.00  0.00    -0.044 A 
ATOM     12  CAT HB9 d   1      18.372   5.675 -24.925  0.00  0.00    -0.075 A 
ATOM     13  CAU HB9 d   1      19.254   6.379 -25.726  0.00  0.00    -0.067 A 
ATOM     14  CBM HB9 d   1      19.463   3.608 -25.561  0.00  0.00     0.022 A 
ATOM     15  CAZ HB9 d   1      20.364   4.312 -26.328  0.00  0.00    -0.053 A 
ATOM     16  CAY HB9 d   1      20.252   5.695 -26.425  0.00  0.00     0.033 A 
ATOM     17  H8  HB9 d   1      19.176   1.650 -20.957  0.00  0.00     0.087 H 
ATOM     18  H9  HB9 d   1      21.289  -1.321 -23.249  0.00  0.00     0.086 H 
ATOM     19  H10 HB9 d   1      20.907   0.009 -25.277  0.00  0.00     0.085 H 
ATOM     20  H11 HB9 d   1      19.213   4.037 -22.610  0.00  0.00     0.040 H 
ATOM     21  H12 HB9 d   1      17.887   3.030 -21.937  0.00  0.00     0.040 H 
ATOM     22  H13 HB9 d   1      16.800   4.314 -23.667  0.00  0.00     0.040 H 
ATOM     23  H14 HB9 d   1      17.142   2.754 -24.489  0.00  0.00     0.040 H 
ATOM     24  H15 HB9 d   1      17.616   6.197 -24.350  0.00  0.00     0.084 H 
ATOM     25  H16 HB9 d   1      19.171   7.457 -25.811  0.00  0.00     0.085 H 
ATOM     26  H17 HB9 d   1      21.156   3.791 -26.853  0.00  0.00     0.086 H 
ENDROOT
BRANCH   1  27
ATOM     27  NAH HB9 d   1      20.401  -0.562 -20.743  0.00  0.00    -0.354 N 
ATOM     28  H7  HB9 d   1      19.954  -0.118 -19.928  0.00  0.00     0.166 HD
BRANCH  27  29
ATOM     29  CAI HB9 d   1      21.078  -1.704 -20.513  0.00  0.00     0.074 A 
ATOM     30  CAJ HB9 d   1      20.488  -2.668 -19.720  0.00  0.00    -0.025 A 
ATOM     31  CAK HB9 d   1      21.136  -3.857 -19.402  0.00  0.00     0.076 A 
ATOM     32  H5  HB9 d   1      19.490  -2.493 -19.334  0.00  0.00     0.090 H 
ATOM     33  CAL HB9 d   1      22.423  -4.035 -19.888  0.00  0.00     0.146 A 
ATOM     34  FAP HB9 d   1      23.003  -5.079 -19.606  0.00  0.00    -0.204 F 
ATOM     35  CAM HB9 d   1      23.055  -3.072 -20.675  0.00  0.00    -0.004 A 
ATOM     36  CAN HB9 d   1      22.393  -1.894 -20.981  0.00  0.00     0.146 A 
ATOM     37  H6  HB9 d   1      24.059  -3.244 -21.045  0.00  0.00     0.093 H 
ATOM     38  FAO HB9 d   1      22.992  -0.997 -21.745  0.00  0.00    -0.204 F 
BRANCH  31  39
ATOM     39  NAQ HB9 d   1      20.660  -4.881 -18.649  0.00  0.00    -0.320 N 
ATOM     40  CAR HB9 d   1      19.330  -5.193 -18.644  0.00  0.00     0.263 C 
ATOM     41  OBA HB9 d   1      18.493  -4.588 -19.288  0.00  0.00    -0.267 OA
ATOM     42  H4  HB9 d   1      21.293  -5.416 -18.089  0.00  0.00     0.169 HD
BRANCH  40  43
ATOM     43  CAS HB9 d   1      18.931  -6.223 -17.890  0.00  0.00     0.072 A 
ATOM     44  CBB HB9 d   1      19.416  -6.577 -16.716  0.00  0.00    -0.060 A 
ATOM     45  CBC HB9 d   1      18.814  -7.667 -16.193  0.00  0.00    -0.075 A 
ATOM     46  H1  HB9 d   1      20.223  -6.043 -16.217  0.00  0.00     0.085 H 
ATOM     47  CBD HB9 d   1      17.850  -8.169 -16.948  0.00  0.00    -0.044 A 
ATOM     48  H2  HB9 d   1      19.097  -8.096 -15.233  0.00  0.00     0.084 H 
ATOM     49  SBH HB9 d   1      17.789  -7.221 -18.210  0.00  0.00    -0.097 SA
ATOM     50  H3  HB9 d   1      17.234  -9.044 -16.744  0.00  0.00     0.095 H 
ENDBRANCH  40  43
ENDBRANCH  31  39
ENDBRANCH  27  29
ENDBRANCH   1  27
BRANCH  16  51
ATOM     51  CAB HB9 d   1      21.171   6.388 -27.203  0.00  0.00     0.251 C 
ATOM     52  OAD HB9 d   1      21.621   5.927 -28.246  0.00  0.00    -0.268 OA
ATOM     53  NAC HB9 d   1      21.645   7.528 -26.672  0.00  0.00    -0.355 N 
ATOM     54  H18 HB9 d   1      21.289   7.859 -25.798  0.00  0.00     0.162 HD
BRANCH  53  55
ATOM     55  CAE HB9 d   1      22.677   8.281 -27.369  0.00  0.00     0.015 C 
ATOM     56  H19 HB9 d   1      22.596   8.106 -28.452  0.00  0.00     0.067 H 
ATOM     57  H20 HB9 d   1      23.669   7.961 -27.019  0.00  0.00     0.067 H 
BRANCH  55  58
ATOM     58  CAF HB9 d   1      22.483   9.755 -27.074  0.00  0.00     0.031 C 
ATOM     59  H21 HB9 d   1      23.394  10.314 -27.334  0.00  0.00     0.076 H 
ATOM     60  H22 HB9 d   1      22.256   9.899 -26.007  0.00  0.00     0.076 H 
BRANCH  58  61
ATOM     61  OAG HB9 d   1      21.379  10.209 -27.878  0.00  0.00    -0.399 OA
ATOM     62  H23 HB9 d   1      21.230  11.133 -27.716  0.00  0.00     0.209 HD
ENDBRANCH  58  61
ENDBRANCH  55  58
ENDBRANCH  53  55
ENDBRANCH  16  51
TORSDOF 8
