REMARK  5 active torsions:
REMARK  status: ('A' for Active; 'I' for Inactive)
REMARK    1  A    between atoms: C3_8  and  O3_1 
REMARK    2  A    between atoms: C4_2  and  O4_4 
REMARK    3  A    between atoms: C5_3  and  C6_5 
REMARK    4  A    between atoms: C6_5  and  O6_7 
REMARK    5  A    between atoms: C2_9  and  O2_10 
ROOT
ATOM      1  C4  AH2 d   1     -20.885  -6.497 -11.528  0.00  0.00     0.089 C 
ATOM      2  C5  AH2 d   1     -21.284  -5.328 -12.422  0.00  0.00     0.086 C 
ATOM      3  O5  AH2 d   1     -20.144  -4.472 -12.516  0.00  0.00    -0.378 OA
ATOM      4  C3  AH2 d   1     -19.723  -7.252 -12.157  0.00  0.00     0.089 C 
ATOM      5  C2  AH2 d   1     -18.559  -6.317 -12.448  0.00  0.00     0.083 C 
ATOM      6  C1  AH2 d   1     -19.059  -5.103 -13.207  0.00  0.00     0.046 C 
ATOM      7  H2  AH2 d   1     -20.574  -6.112 -10.546  0.00  0.00     0.091 H 
ATOM      8  H3  AH2 d   1     -21.562  -5.709 -13.416  0.00  0.00     0.090 H 
ATOM      9  H8  AH2 d   1     -20.064  -7.695 -13.104  0.00  0.00     0.091 H 
ATOM     10  H9  AH2 d   1     -17.813  -6.846 -13.059  0.00  0.00     0.090 H 
ATOM     11  H11 AH2 d   1     -18.235  -4.383 -13.315  0.00  0.00     0.078 H 
ATOM     12  H12 AH2 d   1     -19.403  -5.419 -14.203  0.00  0.00     0.078 H 
ENDROOT
BRANCH   2  13
ATOM     13  C6  AH2 d   1     -22.426  -4.511 -11.868  0.00  0.00     0.043 C 
ATOM     14  H5  AH2 d   1     -23.327  -5.141 -11.823  0.00  0.00     0.078 H 
ATOM     15  H6  AH2 d   1     -22.610  -3.655 -12.534  0.00  0.00     0.078 H 
BRANCH  13  16
ATOM     16  O6  AH2 d   1     -22.136  -4.027 -10.565  0.00  0.00    -0.398 OA
ATOM     17  H7  AH2 d   1     -22.872  -3.518 -10.246  0.00  0.00     0.209 HD
ENDBRANCH  13  16
ENDBRANCH   2  13
BRANCH   1  18
ATOM     18  O4  AH2 d   1     -22.000  -7.365 -11.358  0.00  0.00    -0.390 OA
ATOM     19  H4  AH2 d   1     -22.714  -6.886 -10.954  0.00  0.00     0.210 HD
ENDBRANCH   1  18
BRANCH   4  20
ATOM     20  O3  AH2 d   1     -19.295  -8.295 -11.288  0.00  0.00    -0.390 OA
ATOM     21  H1  AH2 d   1     -18.570  -8.761 -11.688  0.00  0.00     0.210 HD
ENDBRANCH   4  20
BRANCH   5  22
ATOM     22  O2  AH2 d   1     -17.953  -5.899 -11.224  0.00  0.00    -0.391 OA
ATOM     23  H10 AH2 d   1     -17.634  -6.660 -10.754  0.00  0.00     0.210 HD
ENDBRANCH   5  22
TORSDOF 5
