REMARK  10 active torsions:
REMARK  status: ('A' for Active; 'I' for Inactive)
REMARK    1  A    between atoms: C5_2  and  C4_1 
REMARK       I    between atoms: C4_1  and  N2_13 
REMARK    2  A    between atoms: O6_15  and  C5_2 
REMARK    3  A    between atoms: N9_17  and  C8_3 
REMARK    4  A    between atoms: N19_23  and  C22_8 
REMARK    5  A    between atoms: C24_9  and  N20_24 
REMARK    6  A    between atoms: N2_13  and  C1_12 
REMARK    7  A    between atoms: C11_18  and  O6_15 
REMARK    8  A    between atoms: C18_22  and  N19_23 
REMARK    9  A    between atoms: C29_29  and  C33_33 
REMARK   10  A    between atoms: C31_31  and  C34_34 
ROOT
ATOM      1  N19 U52 d   1      13.529  20.028  15.385  0.00  0.00    -0.339 N 
ATOM      2  H17 U52 d   1      12.856  20.668  15.830  0.00  0.00     0.167 HD
ENDROOT
BRANCH   1   3
ATOM      3  C22 U52 d   1      14.776  20.010  15.941  0.00  0.00     0.170 A 
ATOM      4  N23 U52 d   1      15.786  19.427  15.272  0.00  0.00    -0.043 NA
ATOM      5  C24 U52 d   1      17.000  19.422  15.868  0.00  0.00     0.726 A 
ATOM      6  N25 U52 d   1      17.286  19.913  17.092  0.00  0.00    -0.073 NA
ATOM      7  C26 U52 d   1      16.255  20.463  17.749  0.00  0.00     0.046 A 
ATOM      8  C27 U52 d   1      14.979  20.526  17.221  0.00  0.00     0.098 A 
ATOM      9  H8  U52 d   1      16.429  20.876  18.736  0.00  0.00     0.118 H 
ATOM     10 CL1  U52 d   1      13.698  21.257  18.135  0.00  0.00    -0.079 Cl
BRANCH   5  11
ATOM     11  N20 U52 d   1      18.028  18.854  15.170  0.00  0.00    -0.213 N 
ATOM     12  C28 U52 d   1      17.836  18.305  13.824  0.00  0.00     0.015 C 
ATOM     13  C29 U52 d   1      18.546  16.976  13.547  0.00  0.00    -0.041 C 
ATOM     14  H9  U52 d   1      18.207  19.045  13.100  0.00  0.00     0.065 H 
ATOM     15  H10 U52 d   1      16.758  18.151  13.671  0.00  0.00     0.065 H 
ATOM     16  C30 U52 d   1      20.017  17.084  13.963  0.00  0.00    -0.056 C 
ATOM     17  H18 U52 d   1      18.070  16.192  14.154  0.00  0.00     0.042 H 
ATOM     18  C31 U52 d   1      20.138  17.450  15.445  0.00  0.00    -0.041 C 
ATOM     19  H19 U52 d   1      20.506  17.862  13.358  0.00  0.00     0.034 H 
ATOM     20  H20 U52 d   1      20.513  16.118  13.789  0.00  0.00     0.034 H 
ATOM     21  C32 U52 d   1      19.387  18.758  15.710  0.00  0.00     0.015 C 
ATOM     22  H21 U52 d   1      19.667  16.652  16.039  0.00  0.00     0.042 H 
ATOM     23  H22 U52 d   1      19.323  18.892  16.800  0.00  0.00     0.065 H 
ATOM     24  H23 U52 d   1      19.978  19.577  15.274  0.00  0.00     0.065 H 
BRANCH  13  25
ATOM     25  C33 U52 d   1      18.414  16.587  12.078  0.00  0.00    -0.071 C 
ATOM     26  H24 U52 d   1      17.349  16.518  11.811  0.00  0.00     0.028 H 
ATOM     27  H25 U52 d   1      18.898  15.613  11.912  0.00  0.00     0.028 H 
ATOM     28  H26 U52 d   1      18.900  17.349  11.452  0.00  0.00     0.028 H 
ENDBRANCH  13  25
BRANCH  18  29
ATOM     29  C34 U52 d   1      21.597  17.558  15.873  0.00  0.00    -0.071 C 
ATOM     30  H27 U52 d   1      22.110  16.606  15.671  0.00  0.00     0.028 H 
ATOM     31  H28 U52 d   1      21.648  17.781  16.949  0.00  0.00     0.028 H 
ATOM     32  H29 U52 d   1      22.086  18.365  15.308  0.00  0.00     0.028 H 
ENDBRANCH  18  29
ENDBRANCH   5  11
ENDBRANCH   1   3
BRANCH   1  33
ATOM     33  C18 U52 d   1      13.032  19.295  14.289  0.00  0.00     0.034 A 
ATOM     34  C13 U52 d   1      13.538  19.508  13.009  0.00  0.00    -0.055 A 
ATOM     35  C14 U52 d   1      13.108  18.731  11.946  0.00  0.00    -0.054 A 
ATOM     36  H6  U52 d   1      14.273  20.287  12.844  0.00  0.00     0.087 H 
ATOM     37  C15 U52 d   1      12.126  17.760  12.142  0.00  0.00     0.047 A 
ATOM     38  H16 U52 d   1      13.535  18.878  10.961  0.00  0.00     0.087 H 
ATOM     39  N9  U52 d   1      11.641  16.975  11.063  0.00  0.00    -0.316 N 
ATOM     40  C16 U52 d   1      11.606  17.535  13.431  0.00  0.00    -0.004 A 
ATOM     41  C10 U52 d   1      10.687  15.980  11.225  0.00  0.00     0.281 A 
ATOM     42  O7  U52 d   1      10.285  15.325  10.268  0.00  0.00    -0.265 OA
ATOM     43  C11 U52 d   1      10.159  15.785  12.596  0.00  0.00     0.138 A 
ATOM     44  C12 U52 d   1      10.608  16.517  13.619  0.00  0.00    -0.033 A 
ATOM     45  H15 U52 d   1      10.210  16.339  14.617  0.00  0.00     0.089 H 
ATOM     46  C17 U52 d   1      12.076  18.306  14.500  0.00  0.00    -0.045 A 
ATOM     47  H7  U52 d   1      11.693  18.132  15.499  0.00  0.00     0.088 H 
BRANCH  39  48
ATOM     48  C8  U52 d   1      12.169  17.195   9.715  0.00  0.00    -0.011 C 
ATOM     49  H3  U52 d   1      11.682  16.503   9.013  0.00  0.00     0.057 H 
ATOM     50  H4  U52 d   1      13.254  17.016   9.713  0.00  0.00     0.057 H 
ATOM     51  H5  U52 d   1      11.967  18.232   9.407  0.00  0.00     0.057 H 
ENDBRANCH  39  48
BRANCH  43  52
ATOM     52  O6  U52 d   1       9.221  14.795  12.657  0.00  0.00    -0.336 OA
BRANCH  52  53
ATOM     53  C5  U52 d   1       8.655  14.478  13.948  0.00  0.00     0.099 C 
ATOM     54  H1  U52 d   1       9.435  14.094  14.622  0.00  0.00     0.089 H 
ATOM     55  H2  U52 d   1       8.195  15.373  14.392  0.00  0.00     0.089 H 
BRANCH  53  56
ATOM     56  C4  U52 d   1       7.607  13.418  13.702  0.00  0.00     0.241 C 
ATOM     57  N2  U52 d   1       7.369  12.577  14.702  0.00  0.00    -0.364 N 
ATOM     58  H14 U52 d   1       7.876  12.694  15.556  0.00  0.00     0.161 HD
ATOM     59  O3  U52 d   1       7.015  13.366  12.626  0.00  0.00    -0.271 OA
BRANCH  57  60
ATOM     60  C1  U52 d   1       6.405  11.496  14.610  0.00  0.00    -0.018 C 
ATOM     61  H11 U52 d   1       6.386  10.940  15.559  0.00  0.00     0.056 H 
ATOM     62  H12 U52 d   1       6.692  10.817  13.793  0.00  0.00     0.056 H 
ATOM     63  H13 U52 d   1       5.407  11.911  14.408  0.00  0.00     0.056 H 
ENDBRANCH  57  60
ENDBRANCH  53  56
ENDBRANCH  52  53
ENDBRANCH  43  52
ENDBRANCH   1  33
TORSDOF 10
