REMARK  2 active torsions:
REMARK  status: ('A' for Active; 'I' for Inactive)
REMARK    1  A    between atoms: C4_2  and  N10_6 
REMARK    2  A    between atoms: C14_10  and  N16_16 
ROOT
ATOM      1  N10 MOL d   1      34.998   0.498  19.143  0.00  0.00    -0.363 N 
ATOM      2  C11 MOL d   1      33.635  -0.051  19.076  0.00  0.00    -0.003 C 
ATOM      3  C12 MOL d   1      33.263  -0.423  20.548  0.00  0.00    -0.048 C 
ATOM      4  C13 MOL d   1      34.273  -1.482  21.098  0.00  0.00    -0.036 C 
ATOM      5  C14 MOL d   1      35.768  -1.038  20.933  0.00  0.00     0.115 C 
ATOM      6  C15 MOL d   1      36.044  -0.469  19.509  0.00  0.00     0.023 C 
ATOM      7  H3  MOL d   1      33.611  -0.945  18.436  0.00  0.00     0.064 H 
ATOM      8  H4  MOL d   1      32.936   0.701  18.681  0.00  0.00     0.064 H 
ATOM      9  H5  MOL d   1      32.246  -0.841  20.573  0.00  0.00     0.035 H 
ATOM     10  H6  MOL d   1      33.304   0.480  21.174  0.00  0.00     0.035 H 
ATOM     11  H7  MOL d   1      34.124  -2.426  20.553  0.00  0.00     0.036 H 
ATOM     12  H8  MOL d   1      34.069  -1.640  22.167  0.00  0.00     0.036 H 
ATOM     13  H9  MOL d   1      35.967  -0.244  21.668  0.00  0.00     0.086 H 
ATOM     14  H12 MOL d   1      37.023   0.033  19.500  0.00  0.00     0.067 H 
ATOM     15  H13 MOL d   1      36.048  -1.294  18.782  0.00  0.00     0.067 H 
ENDROOT
BRANCH   1  16
ATOM     16  C4  MOL d   1      35.317   1.820  18.978  0.00  0.00     0.141 A 
ATOM     17  C5  MOL d   1      34.430   2.917  19.160  0.00  0.00     0.057 A 
ATOM     18  C6  MOL d   1      34.893   4.218  18.979  0.00  0.00     0.142 A 
ATOM     19  C9  MOL d   1      32.982   3.142  19.539  0.00  0.00    -0.051 A 
ATOM     20  N3  MOL d   1      36.181   4.454  18.616  0.00  0.00    -0.223 NA
ATOM     21  N7  MOL d   1      33.895   5.083  19.241  0.00  0.00    -0.350 N 
ATOM     22  C2  MOL d   1      37.026   3.414  18.420  0.00  0.00     0.091 A 
ATOM     23  N1  MOL d   1      36.602   2.139  18.642  0.00  0.00    -0.224 NA
ATOM     24  H1  MOL d   1      38.041   3.597  18.086  0.00  0.00     0.146 H 
ATOM     25  C8  MOL d   1      32.782   4.468  19.556  0.00  0.00    -0.020 A 
ATOM     26  H10 MOL d   1      33.995   6.107  19.199  0.00  0.00     0.166 HD
ATOM     27  H2  MOL d   1      31.839   4.958  19.795  0.00  0.00     0.111 H 
ATOM     28  H11 MOL d   1      32.242   2.373  19.757  0.00  0.00     0.087 H 
ENDBRANCH   1  16
BRANCH   5  29
ATOM     29  N16 MOL d   1      36.703  -2.161  21.193  0.00  0.00    -0.073 N 
ATOM     30  H14 MOL d   1      36.531  -2.535  22.113  0.00  0.00     0.274 HD
ATOM     31  H15 MOL d   1      37.653  -1.827  21.138  0.00  0.00     0.274 HD
ATOM     32  H16 MOL d   1      36.560  -2.883  20.505  0.00  0.00     0.274 HD
ENDBRANCH   5  29
TORSDOF 2
