REMARK  12 active torsions:
REMARK  status: ('A' for Active; 'I' for Inactive)
REMARK    1  A    between atoms: C1_1  and  C45_5 
REMARK    2  A    between atoms: C40_43  and  C41_3 
REMARK    3  A    between atoms: C41_3  and  N44_45 
REMARK    4  A    between atoms: N35_38  and  C43_4 
REMARK    5  A    between atoms: C12_7  and  C6_21 
REMARK    6  A    between atoms: N17_28  and  C16_9 
REMARK       I    between atoms: C18_10  and  N17_28 
REMARK       I    between atoms: N44_45  and  C18_10 
REMARK    7  A    between atoms: N29_33  and  C25_14 
REMARK    8  A    between atoms: N35_38  and  C33_36 
REMARK    9  A    between atoms: C36_39  and  N35_38 
REMARK   10  A    between atoms: C37_40  and  C36_39 
REMARK   11  A    between atoms: C38_41  and  C37_40 
REMARK   12  A    between atoms: N39_42  and  C38_41 
REMARK       I    between atoms: N39_42  and  C40_43 
ROOT
ATOM      1  C38 5JU d   1      36.247  -5.060  16.336  0.00  0.00    -0.003 C 
ATOM      2  H34 5JU d   1      35.297  -4.614  16.006  0.00  0.00     0.064 H 
ATOM      3  H35 5JU d   1      36.048  -6.026  16.824  0.00  0.00     0.064 H 
ENDROOT
BRANCH   1   4
ATOM      4  C37 5JU d   1      36.932  -4.105  17.356  0.00  0.00    -0.028 C 
ATOM      5  H32 5JU d   1      37.807  -4.608  17.793  0.00  0.00     0.037 H 
ATOM      6  H33 5JU d   1      37.256  -3.191  16.837  0.00  0.00     0.037 H 
BRANCH   4   7
ATOM      7  C36 5JU d   1      35.947  -3.731  18.478  0.00  0.00     0.085 C 
ATOM      8  H30 5JU d   1      35.086  -3.221  18.021  0.00  0.00     0.076 H 
ATOM      9  H31 5JU d   1      35.609  -4.660  18.960  0.00  0.00     0.076 H 
BRANCH   7  10
ATOM     10  N35 5JU d   1      36.508  -2.837  19.536  0.00  0.00    -0.069 N 
ATOM     11  H29 5JU d   1      37.278  -2.384  19.069  0.00  0.00     0.280 HD
BRANCH  10  12
ATOM     12  C43 5JU d   1      37.181  -3.574  20.644  0.00  0.00     0.067 C 
ATOM     13  H4  5JU d   1      37.786  -4.392  20.226  0.00  0.00     0.068 H 
ATOM     14  H5  5JU d   1      36.421  -3.990  21.322  0.00  0.00     0.068 H 
ATOM     15  H6  5JU d   1      37.832  -2.884  21.201  0.00  0.00     0.068 H 
ENDBRANCH  10  12
BRANCH  10  16
ATOM     16  C33 5JU d   1      35.632  -1.678  19.921  0.00  0.00     0.119 C 
ATOM     17  C32 5JU d   1      34.215  -2.098  20.462  0.00  0.00    -0.035 C 
ATOM     18  C31 5JU d   1      33.367  -0.869  20.878  0.00  0.00    -0.048 C 
ATOM     19  H24 5JU d   1      33.681  -2.647  19.672  0.00  0.00     0.036 H 
ATOM     20  H25 5JU d   1      34.348  -2.751  21.337  0.00  0.00     0.036 H 
ATOM     21  C30 5JU d   1      33.228   0.074  19.653  0.00  0.00    -0.003 C 
ATOM     22  H22 5JU d   1      32.371  -1.200  21.206  0.00  0.00     0.035 H 
ATOM     23  H23 5JU d   1      33.866  -0.336  21.701  0.00  0.00     0.035 H 
ATOM     24  N29 5JU d   1      34.559   0.471  19.143  0.00  0.00    -0.363 N 
ATOM     25  H14 5JU d   1      32.677  -0.448  18.857  0.00  0.00     0.064 H 
ATOM     26  H15 5JU d   1      32.673   0.975  19.953  0.00  0.00     0.064 H 
ATOM     27  C34 5JU d   1      35.494  -0.619  18.776  0.00  0.00     0.023 C 
ATOM     28  H27 5JU d   1      36.484  -0.185  18.572  0.00  0.00     0.067 H 
ATOM     29  H28 5JU d   1      35.119  -1.120  17.871  0.00  0.00     0.067 H 
ATOM     30  H26 5JU d   1      36.145  -1.175  20.754  0.00  0.00     0.087 H 
BRANCH  24  31
ATOM     31  C25 5JU d   1      34.910   1.793  18.962  0.00  0.00     0.141 A 
ATOM     32  C20 5JU d   1      34.056   2.908  19.140  0.00  0.00     0.057 A 
ATOM     33  C21 5JU d   1      34.519   4.195  18.851  0.00  0.00     0.142 A 
ATOM     34  C26 5JU d   1      32.662   3.177  19.665  0.00  0.00    -0.051 A 
ATOM     35  N22 5JU d   1      35.773   4.405  18.383  0.00  0.00    -0.223 NA
ATOM     36  N28 5JU d   1      33.560   5.092  19.161  0.00  0.00    -0.350 N 
ATOM     37  C23 5JU d   1      36.572   3.341  18.168  0.00  0.00     0.091 A 
ATOM     38  N24 5JU d   1      36.150   2.087  18.477  0.00  0.00    -0.224 NA
ATOM     39  H11 5JU d   1      37.559   3.487  17.745  0.00  0.00     0.146 H 
ATOM     40  C27 5JU d   1      32.482   4.508  19.619  0.00  0.00    -0.020 A 
ATOM     41  H21 5JU d   1      33.663   6.111  19.051  0.00  0.00     0.166 HD
ATOM     42  H13 5JU d   1      31.572   5.025  19.919  0.00  0.00     0.111 H 
ATOM     43  H12 5JU d   1      31.944   2.436  20.013  0.00  0.00     0.087 H 
ENDBRANCH  24  31
ENDBRANCH  10  16
ENDBRANCH   7  10
ENDBRANCH   4   7
ENDBRANCH   1   4
BRANCH   1  44
ATOM     44  N39 5JU d   1      37.102  -5.278  15.175  0.00  0.00    -0.360 N 
ATOM     45  C40 5JU d   1      38.219  -6.055  15.218  0.00  0.00     0.235 C 
ATOM     46  O42 5JU d   1      38.626  -6.624  16.226  0.00  0.00    -0.272 OA
ATOM     47  H36 5JU d   1      36.858  -4.838  14.311  0.00  0.00     0.162 HD
BRANCH  45  48
ATOM     48  C41 5JU d   1      39.029  -6.207  13.958  0.00  0.00     0.070 C 
ATOM     49  H2  5JU d   1      39.136  -7.282  13.749  0.00  0.00     0.078 H 
ATOM     50  H3  5JU d   1      40.021  -5.767  14.135  0.00  0.00     0.078 H 
BRANCH  48  51
ATOM     51  N44 5JU d   1      38.453  -5.567  12.768  0.00  0.00    -0.334 N 
ATOM     52  C18 5JU d   1      37.425  -6.149  12.099  0.00  0.00     0.321 C 
ATOM     53  N17 5JU d   1      36.984  -5.554  10.959  0.00  0.00    -0.309 N 
ATOM     54  O19 5JU d   1      36.923  -7.178  12.523  0.00  0.00    -0.247 OA
ATOM     55  H20 5JU d   1      37.491  -4.748  10.652  0.00  0.00     0.170 HD
ATOM     56  H37 5JU d   1      38.822  -4.694  12.448  0.00  0.00     0.164 HD
BRANCH  53  57
ATOM     57  C16 5JU d   1      35.872  -5.956  10.150  0.00  0.00     0.037 A 
ATOM     58  C11 5JU d   1      35.321  -7.257  10.246  0.00  0.00    -0.045 A 
ATOM     59  C7  5JU d   1      34.227  -7.578   9.443  0.00  0.00    -0.004 A 
ATOM     60  H10 5JU d   1      35.740  -7.987  10.929  0.00  0.00     0.088 H 
ATOM     61  C12 5JU d   1      33.440  -8.870   9.333  0.00  0.00     0.017 A 
ATOM     62  C8  5JU d   1      33.744  -6.679   8.507  0.00  0.00     0.017 A 
ATOM     63  C13 5JU d   1      32.499  -8.794   8.383  0.00  0.00     0.087 A 
ATOM     64  S14 5JU d   1      32.389  -7.275   7.570  0.00  0.00    -0.076 SA
ATOM     65 CL   5JU d   1      31.274 -10.001   8.049  0.00  0.00    -0.075 Cl
ATOM     66  C9  5JU d   1      34.286  -5.387   8.368  0.00  0.00    -0.063 A 
ATOM     67  C10 5JU d   1      35.355  -5.030   9.211  0.00  0.00    -0.056 A 
ATOM     68  H18 5JU d   1      33.893  -4.691   7.636  0.00  0.00     0.085 H 
ATOM     69  H19 5JU d   1      35.786  -4.038   9.141  0.00  0.00     0.087 H 
BRANCH  61  70
ATOM     70  C6  5JU d   1      33.733 -10.082  10.200  0.00  0.00     0.002 A 
ATOM     71  C1  5JU d   1      34.918 -10.855  10.105  0.00  0.00     0.041 A 
ATOM     72  N2  5JU d   1      35.098 -11.889  10.965  0.00  0.00    -0.265 NA
ATOM     73  C3  5JU d   1      34.224 -12.195  11.944  0.00  0.00     0.003 A 
ATOM     74  C4  5JU d   1      33.034 -11.461  12.069  0.00  0.00    -0.065 A 
ATOM     75  H1  5JU d   1      34.439 -13.005  12.632  0.00  0.00     0.114 H 
ATOM     76  C5  5JU d   1      32.802 -10.382  11.204  0.00  0.00    -0.069 A 
ATOM     77  H16 5JU d   1      32.303 -11.725  12.825  0.00  0.00     0.085 H 
ATOM     78  H17 5JU d   1      31.906  -9.782  11.311  0.00  0.00     0.085 H 
BRANCH  71  79
ATOM     79  C45 5JU d   1      36.048 -10.616   9.075  0.00  0.00    -0.035 C 
ATOM     80  H7  5JU d   1      35.788  -9.757   8.439  0.00  0.00     0.035 H 
ATOM     81  H8  5JU d   1      36.169 -11.512   8.449  0.00  0.00     0.035 H 
ATOM     82  H9  5JU d   1      36.989 -10.409   9.605  0.00  0.00     0.035 H 
ENDBRANCH  71  79
ENDBRANCH  61  70
ENDBRANCH  53  57
ENDBRANCH  48  51
ENDBRANCH  45  48
ENDBRANCH   1  44
TORSDOF 12
