REMARK  5 active torsions:
REMARK  status: ('A' for Active; 'I' for Inactive)
REMARK    1  A    between atoms: C2_13  and  N1_1 
REMARK    2  A    between atoms: N11_17  and  C5_3 
REMARK    3  A    between atoms: C6_4  and  C17_9 
REMARK    4  A    between atoms: C10_6  and  C22_12 
REMARK    5  A    between atoms: C13_7  and  N11_17 
ROOT
ATOM      1  N3  RC0 d   1      19.151  19.220  11.577  0.00  0.00    -0.041 NA
ATOM      2  C5  RC0 d   1      19.632  18.193  12.263  0.00  0.00     0.170 A 
ATOM      3  C2  RC0 d   1      19.411  19.363  10.288  0.00  0.00     0.751 A 
ATOM      4  N8  RC0 d   1      20.097  18.435   9.610  0.00  0.00    -0.071 NA
ATOM      5  C9  RC0 d   1      20.363  17.207  11.578  0.00  0.00     0.098 A 
ATOM      6  C12 RC0 d   1      20.586  17.356  10.218  0.00  0.00     0.046 A 
ATOM      7 CL4  RC0 d   1      21.011  15.815  12.387  0.00  0.00    -0.079 Cl
ATOM      8  H11 RC0 d   1      21.145  16.612   9.663  0.00  0.00     0.118 H 
ENDROOT
BRANCH   3   9
ATOM      9  N1  RC0 d   1      18.839  20.431   9.612  0.00  0.00    -0.064 N 
ATOM     10  C6  RC0 d   1      17.788  21.216  10.012  0.00  0.00     0.052 A 
ATOM     11  C7  RC0 d   1      17.545  22.092   9.018  0.00  0.00    -0.034 A 
ATOM     12  C10 RC0 d   1      18.467  21.835   7.998  0.00  0.00     0.054 A 
ATOM     13  H1  RC0 d   1      16.773  22.860   9.010  0.00  0.00     0.089 H 
ATOM     14  N4  RC0 d   1      19.243  20.855   8.349  0.00  0.00    -0.158 NA
BRANCH  10  15
ATOM     15  C17 RC0 d   1      17.015  21.164  11.312  0.00  0.00    -0.035 C 
ATOM     16  H2  RC0 d   1      16.233  21.938  11.305  0.00  0.00     0.035 H 
ATOM     17  H3  RC0 d   1      17.700  21.343  12.154  0.00  0.00     0.035 H 
ATOM     18  H4  RC0 d   1      16.549  20.174  11.422  0.00  0.00     0.035 H 
ENDBRANCH  10  15
BRANCH  12  19
ATOM     19  C22 RC0 d   1      18.540  22.536   6.687  0.00  0.00    -0.034 C 
ATOM     20  H7  RC0 d   1      19.366  22.118   6.093  0.00  0.00     0.035 H 
ATOM     21  H8  RC0 d   1      18.715  23.609   6.854  0.00  0.00     0.035 H 
ATOM     22  H9  RC0 d   1      17.593  22.399   6.145  0.00  0.00     0.035 H 
ENDBRANCH  12  19
ENDBRANCH   3   9
BRANCH   2  23
ATOM     23  N11 RC0 d   1      19.378  18.070  13.618  0.00  0.00    -0.339 N 
ATOM     24  H10 RC0 d   1      19.607  17.191  14.104  0.00  0.00     0.167 HD
BRANCH  23  25
ATOM     25  C13 RC0 d   1      18.809  19.138  14.335  0.00  0.00     0.033 A 
ATOM     26  C18 RC0 d   1      19.356  20.425  14.327  0.00  0.00    -0.056 A 
ATOM     27  C21 RC0 d   1      18.763  21.433  15.075  0.00  0.00    -0.060 A 
ATOM     28  H12 RC0 d   1      20.241  20.635  13.738  0.00  0.00     0.087 H 
ATOM     29  C15 RC0 d   1      17.648  21.166  15.861  0.00  0.00     0.034 A 
ATOM     30  H6  RC0 d   1      19.173  22.436  15.046  0.00  0.00     0.086 H 
ATOM     31  C20 RC0 d   1      17.130  19.876  15.910  0.00  0.00    -0.060 A 
ATOM     32 CL6  RC0 d   1      16.951  22.427  16.838  0.00  0.00    -0.084 Cl
ATOM     33  C19 RC0 d   1      17.706  18.869  15.147  0.00  0.00    -0.056 A 
ATOM     34  H5  RC0 d   1      16.278  19.657  16.543  0.00  0.00     0.086 H 
ATOM     35  H13 RC0 d   1      17.296  17.866  15.182  0.00  0.00     0.087 H 
ENDBRANCH  23  25
ENDBRANCH   2  23
TORSDOF 5
