REMARK  4 active torsions:
REMARK  status: ('A' for Active; 'I' for Inactive)
REMARK    1  A    between atoms: C04_4  and  C07_7 
REMARK    2  A    between atoms: C09_12  and  C06_6 
REMARK    3  A    between atoms: C20_25  and  C08_10 
REMARK    4  A    between atoms: C10_14  and  C14_18 
ROOT
ATOM      1  C08 MOL d   1      -7.945  -9.777  18.054  0.00  0.00     0.117 A 
ATOM      2  O03 MOL d   1      -8.457  -8.912  18.923  0.00  0.00    -0.288 OA
ATOM      3  C09 MOL d   1      -9.762  -8.841  18.643  0.00  0.00     0.181 A 
ATOM      4  N01 MOL d   1     -10.066  -9.593  17.591  0.00  0.00    -0.220 NA
ATOM      5  C10 MOL d   1      -8.932 -10.184  17.186  0.00  0.00     0.104 A 
ENDROOT
BRANCH   3   6
ATOM      6  C06 MOL d   1     -10.687  -7.994  19.447  0.00  0.00     0.018 A 
ATOM      7  C01 MOL d   1     -10.229  -7.562  20.685  0.00  0.00    -0.069 A 
ATOM      8  C02 MOL d   1     -11.059  -6.780  21.482  0.00  0.00    -0.081 A 
ATOM      9  H1  MOL d   1      -9.236  -7.831  21.026  0.00  0.00     0.085 H 
ATOM     10  C03 MOL d   1     -12.326  -6.459  21.034  0.00  0.00    -0.066 A 
ATOM     11  H2  MOL d   1     -10.714  -6.425  22.447  0.00  0.00     0.083 H 
ATOM     12  C04 MOL d   1     -12.771  -6.938  19.811  0.00  0.00     0.041 A 
ATOM     13  H3  MOL d   1     -12.972  -5.833  21.639  0.00  0.00     0.085 H 
ATOM     14  C05 MOL d   1     -11.963  -7.710  18.997  0.00  0.00    -0.052 A 
ATOM     15  H4  MOL d   1     -12.317  -8.079  18.041  0.00  0.00     0.086 H 
BRANCH  12  16
ATOM     16  C07 MOL d   1     -14.179  -6.545  19.380  0.00  0.00     0.209 C 
ATOM     17  O01 MOL d   1     -14.928  -7.407  18.848  0.00  0.00    -0.644 OA
ATOM     18  O02 MOL d   1     -14.527  -5.342  19.572  0.00  0.00    -0.644 OA
ENDBRANCH  12  16
ENDBRANCH   3   6
BRANCH   1  19
ATOM     19  C20 MOL d   1      -6.481 -10.091  18.147  0.00  0.00     0.000 A 
ATOM     20  C19 MOL d   1      -5.971  -9.968  19.435  0.00  0.00    -0.070 A 
ATOM     21  C18 MOL d   1      -4.624 -10.252  19.624  0.00  0.00    -0.082 A 
ATOM     22  H10 MOL d   1      -6.602  -9.662  20.262  0.00  0.00     0.084 H 
ATOM     23  C17 MOL d   1      -3.840 -10.621  18.528  0.00  0.00    -0.083 A 
ATOM     24  H9  MOL d   1      -4.185 -10.188  20.613  0.00  0.00     0.083 H 
ATOM     25  C22 MOL d   1      -4.367 -10.722  17.242  0.00  0.00    -0.082 A 
ATOM     26  H8  MOL d   1      -2.789 -10.835  18.683  0.00  0.00     0.083 H 
ATOM     27  C21 MOL d   1      -5.716 -10.447  17.052  0.00  0.00    -0.070 A 
ATOM     28  H12 MOL d   1      -3.738 -11.009  16.407  0.00  0.00     0.083 H 
ATOM     29  H11 MOL d   1      -6.159 -10.510  16.065  0.00  0.00     0.084 H 
ENDBRANCH   1  19
BRANCH   5  30
ATOM     30  C14 MOL d   1      -8.967 -11.233  16.088  0.00  0.00    -0.003 A 
ATOM     31  C13 MOL d   1      -9.754 -11.160  14.943  0.00  0.00    -0.069 A 
ATOM     32  C12 MOL d   1      -9.779 -12.238  14.065  0.00  0.00    -0.059 A 
ATOM     33  H6  MOL d   1     -10.341 -10.272  14.738  0.00  0.00     0.085 H 
ATOM     34  C11 MOL d   1      -9.093 -13.370  14.382  0.00  0.00     0.055 A 
ATOM     35  H5  MOL d   1     -10.338 -12.178  13.139  0.00  0.00     0.086 H 
ATOM     36  C16 MOL d   1      -8.366 -13.477  15.532  0.00  0.00     0.056 A 
ATOM     37 CL02 MOL d   1      -9.184 -14.738  13.255  0.00  0.00    -0.083 Cl
ATOM     38  C15 MOL d   1      -8.303 -12.408  16.391  0.00  0.00    -0.048 A 
ATOM     39 CL01 MOL d   1      -7.482 -14.962  15.922  0.00  0.00    -0.083 Cl
ATOM     40  H7  MOL d   1      -7.731 -12.485  17.309  0.00  0.00     0.087 H 
ENDBRANCH   5  30
TORSDOF 4
