REMARK  5 active torsions:
REMARK  status: ('A' for Active; 'I' for Inactive)
REMARK    1  A    between atoms: C5_2  and  N11_23 
REMARK    2  A    between atoms: N8_13  and  C7_3 
REMARK    3  A    between atoms: N11_23  and  C13_6 
REMARK    4  A    between atoms: C24_10  and  C25_16 
REMARK    5  A    between atoms: C9_17  and  C23_25 
ROOT
ATOM      1  C4  TJ3 d   1      14.388  19.863  17.672  0.00  0.00     0.098 A 
ATOM      2  C5  TJ3 d   1      14.233  19.171  16.452  0.00  0.00     0.170 A 
ATOM      3  C7  TJ3 d   1      16.509  18.684  16.472  0.00  0.00     0.751 A 
ATOM      4  N2  TJ3 d   1      16.668  19.343  17.614  0.00  0.00    -0.071 NA
ATOM      5  N6  TJ3 d   1      15.310  18.589  15.900  0.00  0.00    -0.041 NA
ATOM      6 CL1  TJ3 d   1      13.085  20.704  18.458  0.00  0.00    -0.079 Cl
ATOM      7  C3  TJ3 d   1      15.652  19.936  18.225  0.00  0.00     0.046 A 
ATOM      8  H12 TJ3 d   1      15.812  20.474  19.152  0.00  0.00     0.118 H 
ENDROOT
BRANCH   2   9
ATOM      9  N11 TJ3 d   1      12.989  19.132  15.837  0.00  0.00    -0.339 N 
ATOM     10  H11 TJ3 d   1      12.205  19.616  16.297  0.00  0.00     0.167 HD
BRANCH   9  11
ATOM     11  C13 TJ3 d   1      12.737  18.471  14.623  0.00  0.00     0.034 A 
ATOM     12  C16 TJ3 d   1      11.705  17.533  14.560  0.00  0.00    -0.049 A 
ATOM     13  C17 TJ3 d   1      11.429  16.897  13.365  0.00  0.00    -0.021 A 
ATOM     14  H6  TJ3 d   1      11.123  17.305  15.445  0.00  0.00     0.087 H 
ATOM     15  C20 TJ3 d   1      10.421  15.838  12.982  0.00  0.00     0.035 A 
ATOM     16  C18 TJ3 d   1      12.170  17.171  12.214  0.00  0.00     0.041 A 
ATOM     17  C19 TJ3 d   1      10.713  15.573  11.521  0.00  0.00     0.226 A 
ATOM     18  H4  TJ3 d   1       9.394  16.208  13.115  0.00  0.00     0.054 H 
ATOM     19  H5  TJ3 d   1      10.563  14.927  13.582  0.00  0.00     0.054 H 
ATOM     20  N12 TJ3 d   1      11.701  16.403  11.145  0.00  0.00    -0.326 N 
ATOM     21  O21 TJ3 d   1      10.116  14.800  10.805  0.00  0.00    -0.273 OA
ATOM     22  H2  TJ3 d   1      12.057  16.464  10.213  0.00  0.00     0.169 HD
ATOM     23  C15 TJ3 d   1      13.184  18.136  12.266  0.00  0.00    -0.054 A 
ATOM     24  C14 TJ3 d   1      13.453  18.785  13.460  0.00  0.00    -0.055 A 
ATOM     25  H3  TJ3 d   1      13.755  18.374  11.376  0.00  0.00     0.087 H 
ATOM     26  H10 TJ3 d   1      14.226  19.544  13.495  0.00  0.00     0.087 H 
ENDBRANCH   9  11
ENDBRANCH   2   9
BRANCH   3  27
ATOM     27  N8  TJ3 d   1      17.644  18.098  15.905  0.00  0.00    -0.064 N 
ATOM     28  C24 TJ3 d   1      17.965  17.971  14.579  0.00  0.00     0.052 A 
ATOM     29  C10 TJ3 d   1      19.194  17.404  14.508  0.00  0.00    -0.034 A 
ATOM     30  C9  TJ3 d   1      19.635  17.162  15.817  0.00  0.00     0.054 A 
ATOM     31  H1  TJ3 d   1      19.742  17.176  13.595  0.00  0.00     0.089 H 
ATOM     32  N22 TJ3 d   1      18.711  17.577  16.639  0.00  0.00    -0.158 NA
BRANCH  28  33
ATOM     33  C25 TJ3 d   1      17.138  18.401  13.387  0.00  0.00    -0.035 C 
ATOM     34  H7  TJ3 d   1      17.678  18.158  12.460  0.00  0.00     0.035 H 
ATOM     35  H8  TJ3 d   1      16.961  19.486  13.435  0.00  0.00     0.035 H 
ATOM     36  H9  TJ3 d   1      16.174  17.872  13.399  0.00  0.00     0.035 H 
ENDBRANCH  28  33
BRANCH  30  37
ATOM     37  C23 TJ3 d   1      20.949  16.551  16.230  0.00  0.00    -0.034 C 
ATOM     38  H13 TJ3 d   1      20.998  16.494  17.327  0.00  0.00     0.035 H 
ATOM     39  H14 TJ3 d   1      21.776  17.174  15.858  0.00  0.00     0.035 H 
ATOM     40  H15 TJ3 d   1      21.032  15.539  15.806  0.00  0.00     0.035 H 
ENDBRANCH  30  37
ENDBRANCH   3  27
TORSDOF 5
