REMARK  6 active torsions:
REMARK  status: ('A' for Active; 'I' for Inactive)
REMARK    1  A    between atoms: NBF_28  and  CAA_1 
REMARK    2  A    between atoms: NBG_29  and  CAB_2 
REMARK    3  A    between atoms: NAU_26  and  CAX_19 
REMARK    4  A    between atoms: SBH_34  and  CAY_20 
REMARK    5  A    between atoms: CAZ_21  and  NBE_27 
REMARK    6  A    between atoms: NAU_26  and  SBH_34 
ROOT
ATOM      1  CAJ WGX d   1      -1.159   0.843  29.456  0.00  0.00    -0.026 A 
ATOM      2  CAK WGX d   1      -2.872  -0.811  28.075  0.00  0.00    -0.027 A 
ATOM      3  CAX WGX d   1      -2.367   0.439  30.057  0.00  0.00     0.071 A 
ATOM      4  CAZ WGX d   1      -3.240  -0.393  29.347  0.00  0.00     0.060 A 
ATOM      5  CBA WGX d   1       0.628   0.328  26.330  0.00  0.00     0.316 A 
ATOM      6  CBB WGX d   1      -0.261  -0.503  25.658  0.00  0.00     0.316 A 
ATOM      7  CBC WGX d   1      -0.804   0.409  28.166  0.00  0.00     0.066 A 
ATOM      8  CBD WGX d   1      -1.678  -0.422  27.481  0.00  0.00     0.066 A 
ATOM      9  NBF WGX d   1       0.351   0.771  27.561  0.00  0.00    -0.312 N 
ATOM     10  NBG WGX d   1      -1.396  -0.868  26.242  0.00  0.00    -0.312 N 
ATOM     11  OAC WGX d   1       1.681   0.672  25.786  0.00  0.00    -0.262 OA
ATOM     12  OAD WGX d   1      -0.010  -0.915  24.524  0.00  0.00    -0.262 OA
ATOM     13  H10 WGX d   1      -0.490   1.501  29.998  0.00  0.00     0.090 H 
ATOM     14  H11 WGX d   1      -3.540  -1.464  27.526  0.00  0.00     0.090 H 
ENDROOT
BRANCH   3  15
ATOM     15  NAU WGX d   1      -2.753   0.847  31.285  0.00  0.00    -0.278 N 
ATOM     16  H30 WGX d   1      -3.676   1.207  31.421  0.00  0.00     0.179 HD
BRANCH  15  17
ATOM     17  SBH WGX d   1      -1.704   0.756  32.574  0.00  0.00     0.263 S 
ATOM     18  OAE WGX d   1      -2.335   1.455  33.776  0.00  0.00    -0.200 OA
ATOM     19  OAF WGX d   1      -0.357   1.394  32.266  0.00  0.00    -0.200 OA
BRANCH  17  20
ATOM     20  CAY WGX d   1      -1.461  -0.909  32.930  0.00  0.00     0.080 A 
ATOM     21  CAH WGX d   1      -2.554  -1.753  33.034  0.00  0.00    -0.060 A 
ATOM     22  CAG WGX d   1      -2.340  -3.095  33.319  0.00  0.00    -0.075 A 
ATOM     23  H8  WGX d   1      -3.559  -1.372  32.895  0.00  0.00     0.085 H 
ATOM     24  CAV WGX d   1      -1.057  -3.605  33.504  0.00  0.00    -0.052 A 
ATOM     25  H7  WGX d   1      -3.191  -3.761  33.399  0.00  0.00     0.084 H 
ATOM     26  CAQ WGX d   1      -0.923  -4.973  33.765  0.00  0.00    -0.040 C 
ATOM     27  CAW WGX d   1       0.046  -2.753  33.382  0.00  0.00    -0.050 A 
ATOM     28  CAM WGX d   1       0.437  -5.301  34.329  0.00  0.00    -0.061 C 
ATOM     29  H22 WGX d   1      -1.692  -5.275  34.491  0.00  0.00     0.040 H 
ATOM     30  H23 WGX d   1      -1.064  -5.531  32.827  0.00  0.00     0.040 H 
ATOM     31  CAN WGX d   1       1.485  -4.698  33.417  0.00  0.00    -0.061 C 
ATOM     32  H14 WGX d   1       0.533  -4.876  35.339  0.00  0.00     0.033 H 
ATOM     33  H15 WGX d   1       0.567  -6.392  34.376  0.00  0.00     0.033 H 
ATOM     34  CAR WGX d   1       1.367  -3.195  33.553  0.00  0.00    -0.040 C 
ATOM     35  H16 WGX d   1       1.300  -5.000  32.376  0.00  0.00     0.033 H 
ATOM     36  H17 WGX d   1       2.489  -5.029  33.722  0.00  0.00     0.033 H 
ATOM     37  H24 WGX d   1       2.002  -2.719  32.791  0.00  0.00     0.040 H 
ATOM     38  H25 WGX d   1       1.713  -2.901  34.555  0.00  0.00     0.040 H 
ATOM     39  CAI WGX d   1      -0.172  -1.403  33.098  0.00  0.00    -0.054 A 
ATOM     40  H9  WGX d   1       0.674  -0.732  33.007  0.00  0.00     0.086 H 
ENDBRANCH  17  20
ENDBRANCH  15  17
ENDBRANCH   3  15
BRANCH   4  41
ATOM     41  NBE WGX d   1      -4.437  -0.857  29.775  0.00  0.00    -0.379 N 
ATOM     42  CAS WGX d   1      -4.573  -2.284  30.128  0.00  0.00    -0.005 C 
ATOM     43  CAO WGX d   1      -5.774  -2.577  31.036  0.00  0.00    -0.050 C 
ATOM     44  H26 WGX d   1      -4.689  -2.863  29.200  0.00  0.00     0.064 H 
ATOM     45  H27 WGX d   1      -3.657  -2.603  30.648  0.00  0.00     0.064 H 
ATOM     46  CAL WGX d   1      -7.014  -1.961  30.440  0.00  0.00    -0.062 C 
ATOM     47  H18 WGX d   1      -5.911  -3.665  31.124  0.00  0.00     0.035 H 
ATOM     48  H19 WGX d   1      -5.594  -2.148  32.033  0.00  0.00     0.035 H 
ATOM     49  CAP WGX d   1      -6.829  -0.446  30.441  0.00  0.00    -0.050 C 
ATOM     50  H12 WGX d   1      -7.893  -2.231  31.044  0.00  0.00     0.033 H 
ATOM     51  H13 WGX d   1      -7.152  -2.320  29.410  0.00  0.00     0.033 H 
ATOM     52  CAT WGX d   1      -5.644  -0.039  29.561  0.00  0.00    -0.005 C 
ATOM     53  H20 WGX d   1      -6.646  -0.106  31.471  0.00  0.00     0.035 H 
ATOM     54  H21 WGX d   1      -7.743   0.029  30.055  0.00  0.00     0.035 H 
ATOM     55  H28 WGX d   1      -5.395   1.010  29.778  0.00  0.00     0.064 H 
ATOM     56  H29 WGX d   1      -5.945  -0.134  28.507  0.00  0.00     0.064 H 
ENDBRANCH   4  41
BRANCH   9  57
ATOM     57  CAA WGX d   1       1.331   1.654  28.233  0.00  0.00    -0.011 C 
ATOM     58  H1  WGX d   1       2.192   1.820  27.568  0.00  0.00     0.057 H 
ATOM     59  H2  WGX d   1       1.673   1.180  29.165  0.00  0.00     0.057 H 
ATOM     60  H3  WGX d   1       0.856   2.619  28.466  0.00  0.00     0.057 H 
ENDBRANCH   9  57
BRANCH  10  61
ATOM     61  CAB WGX d   1      -2.345  -1.754  25.531  0.00  0.00    -0.011 C 
ATOM     62  H4  WGX d   1      -1.938  -2.008  24.541  0.00  0.00     0.057 H 
ATOM     63  H5  WGX d   1      -3.309  -1.238  25.410  0.00  0.00     0.057 H 
ATOM     64  H6  WGX d   1      -2.493  -2.675  26.113  0.00  0.00     0.057 H 
ENDBRANCH  10  61
TORSDOF 6
