REMARK  14 active torsions:
REMARK  status: ('A' for Active; 'I' for Inactive)
REMARK       I    between atoms: N1_1  and  C1_6 
REMARK    1  A    between atoms: C2_16  and  N1_1 
REMARK    2  A    between atoms: C7_41  and  N3_3 
REMARK       I    between atoms: N3_3  and  C8_42 
REMARK       I    between atoms: C8_42  and  N4_4 
REMARK    3  A    between atoms: C1_6  and  C_7 
REMARK    4  A    between atoms: C_7  and  C39_8 
REMARK    5  A    between atoms: C_7  and  N_15 
REMARK    6  A    between atoms: C39_8  and  C40_9 
REMARK    7  A    between atoms: C13_31  and  C14_46 
REMARK    8  A    between atoms: C5_39  and  C4_38 
REMARK    9  A    between atoms: C6_40  and  C5_39 
REMARK   10  A    between atoms: C6_40  and  C7_41 
REMARK       I    between atoms: C8_42  and  N5_43 
REMARK       I    between atoms: C14_46  and  N7_48 
REMARK   11  A    between atoms: N7_48  and  C15_49 
REMARK   12  A    between atoms: C15_49  and  C16_50 
REMARK   13  A    between atoms: C15_49  and  C17_53 
REMARK   14  A    between atoms: C17_53  and  C18_54 
ROOT
ATOM      1  N2  EBU d   1      55.188 -14.458  55.883  0.00  0.00    -0.346 N 
ATOM      2  C2  EBU d   1      53.747 -13.859  57.765  0.00  0.00     0.093 C 
ATOM      3  C26 EBU d   1      52.792 -12.654  57.756  0.00  0.00    -0.012 C 
ATOM      4  C27 EBU d   1      52.546 -12.095  56.387  0.00  0.00    -0.028 A 
ATOM      5  C34 EBU d   1      53.232 -11.002  55.752  0.00  0.00    -0.002 A 
ATOM      6  C35 EBU d   1      54.208 -10.094  56.167  0.00  0.00    -0.070 A 
ATOM      7  C36 EBU d   1      54.734  -9.176  55.261  0.00  0.00    -0.082 A 
ATOM      8  C37 EBU d   1      54.289  -9.149  53.953  0.00  0.00    -0.081 A 
ATOM      9  C38 EBU d   1      53.308 -10.034  53.521  0.00  0.00    -0.056 A 
ATOM     10  C33 EBU d   1      52.785 -10.957  54.429  0.00  0.00     0.045 A 
ATOM     11  N9  EBU d   1      51.844 -11.963  54.268  0.00  0.00    -0.356 N 
ATOM     12  C28 EBU d   1      51.714 -12.630  55.453  0.00  0.00    -0.013 A 
ATOM     13  C29 EBU d   1      51.048 -12.255  53.073  0.00  0.00    -0.000 C 
ATOM     14  C30 EBU d   1      51.862 -12.854  51.939  0.00  0.00    -0.050 C 
ATOM     15  C31 EBU d   1      53.046 -13.720  52.346  0.00  0.00    -0.061 C 
ATOM     16  C32 EBU d   1      54.022 -13.947  51.188  0.00  0.00    -0.033 C 
ATOM     17  C13 EBU d   1      55.532 -13.429  51.515  0.00  0.00     0.116 C 
ATOM     18  C12 EBU d   1      55.412 -11.902  51.341  0.00  0.00    -0.031 C 
ATOM     19  C11 EBU d   1      56.631 -11.379  52.073  0.00  0.00    -0.047 C 
ATOM     20  C10 EBU d   1      56.751 -12.273  53.291  0.00  0.00    -0.001 C 
ATOM     21  N6  EBU d   1      56.140 -13.543  52.855  0.00  0.00    -0.332 N 
ATOM     22  C9  EBU d   1      56.071 -14.641  53.663  0.00  0.00     0.243 C 
ATOM     23  O3  EBU d   1      55.646 -15.708  53.268  0.00  0.00    -0.271 OA
ATOM     24  C4  EBU d   1      56.441 -14.524  55.140  0.00  0.00     0.089 C 
ATOM     25  C3  EBU d   1      55.008 -13.640  56.924  0.00  0.00     0.241 C 
ATOM     26  O4  EBU d   1      55.826 -12.786  57.251  0.00  0.00    -0.271 OA
ATOM     27  H2  EBU d   1      54.432 -15.049  55.602  0.00  0.00     0.163 HD
ATOM     28  H17 EBU d   1      53.203 -14.708  57.326  0.00  0.00     0.088 H 
ATOM     29  H18 EBU d   1      53.226 -11.861  58.383  0.00  0.00     0.044 H 
ATOM     30  H19 EBU d   1      51.828 -12.971  58.181  0.00  0.00     0.044 H 
ATOM     31  H20 EBU d   1      54.556 -10.103  57.194  0.00  0.00     0.084 H 
ATOM     32  H21 EBU d   1      55.498  -8.478  55.584  0.00  0.00     0.083 H 
ATOM     33  H22 EBU d   1      54.709  -8.431  53.258  0.00  0.00     0.083 H 
ATOM     34  H23 EBU d   1      52.955 -10.008  52.496  0.00  0.00     0.087 H 
ATOM     35  H24 EBU d   1      51.041 -13.469  55.625  0.00  0.00     0.112 H 
ATOM     36  H25 EBU d   1      50.593 -11.318  52.719  0.00  0.00     0.064 H 
ATOM     37  H26 EBU d   1      50.255 -12.967  53.347  0.00  0.00     0.064 H 
ATOM     38  H27 EBU d   1      52.247 -12.024  51.328  0.00  0.00     0.035 H 
ATOM     39  H28 EBU d   1      51.186 -13.474  51.332  0.00  0.00     0.035 H 
ATOM     40  H29 EBU d   1      52.670 -14.695  52.689  0.00  0.00     0.033 H 
ATOM     41  H30 EBU d   1      53.582 -13.224  53.169  0.00  0.00     0.033 H 
ATOM     42  H31 EBU d   1      53.650 -13.406  50.305  0.00  0.00     0.037 H 
ATOM     43  H32 EBU d   1      54.061 -15.024  50.969  0.00  0.00     0.037 H 
ATOM     44  H33 EBU d   1      54.485 -11.524  51.796  0.00  0.00     0.037 H 
ATOM     45  H34 EBU d   1      55.439 -11.622  50.278  0.00  0.00     0.037 H 
ATOM     46  H35 EBU d   1      56.485 -10.331  52.372  0.00  0.00     0.035 H 
ATOM     47  H36 EBU d   1      57.528 -11.459  51.442  0.00  0.00     0.035 H 
ATOM     48  H37 EBU d   1      56.204 -11.848  54.145  0.00  0.00     0.064 H 
ATOM     49  H38 EBU d   1      57.806 -12.420  53.567  0.00  0.00     0.064 H 
ATOM     50  H39 EBU d   1      57.041 -13.621  55.328  0.00  0.00     0.087 H 
ENDROOT
BRANCH  17  51
ATOM     51  C14 EBU d   1      56.398 -14.215  50.414  0.00  0.00     0.247 C 
ATOM     52  O2  EBU d   1      56.061 -14.193  49.234  0.00  0.00    -0.271 OA
ATOM     53  N7  EBU d   1      57.535 -14.790  50.814  0.00  0.00    -0.344 N 
ATOM     54  H48 EBU d   1      57.660 -15.017  51.780  0.00  0.00     0.163 HD
BRANCH  53  55
ATOM     55  C15 EBU d   1      58.594 -15.091  49.862  0.00  0.00     0.100 C 
ATOM     56  H49 EBU d   1      58.429 -14.441  48.990  0.00  0.00     0.090 H 
BRANCH  55  57
ATOM     57  C16 EBU d   1      58.554 -16.521  49.338  0.00  0.00     0.197 C 
ATOM     58  O1  EBU d   1      58.235 -17.477  50.020  0.00  0.00    -0.646 OA
ATOM     59  O   EBU d   1      58.918 -16.601  48.081  0.00  0.00    -0.646 OA
ENDBRANCH  55  57
BRANCH  55  60
ATOM     60  C17 EBU d   1      59.952 -14.709  50.447  0.00  0.00    -0.011 C 
ATOM     61  H50 EBU d   1      59.921 -13.638  50.695  0.00  0.00     0.044 H 
ATOM     62  H51 EBU d   1      60.713 -14.884  49.672  0.00  0.00     0.044 H 
BRANCH  60  63
ATOM     63  C18 EBU d   1      60.375 -15.452  51.680  0.00  0.00    -0.028 A 
ATOM     64  C21 EBU d   1      60.447 -14.927  53.016  0.00  0.00    -0.002 A 
ATOM     65  C22 EBU d   1      60.047 -13.735  53.617  0.00  0.00    -0.070 A 
ATOM     66  C20 EBU d   1      61.097 -15.896  53.806  0.00  0.00     0.042 A 
ATOM     67  C23 EBU d   1      60.300 -13.522  54.967  0.00  0.00    -0.082 A 
ATOM     68  H52 EBU d   1      59.540 -12.976  53.033  0.00  0.00     0.084 H 
ATOM     69  C24 EBU d   1      60.948 -14.487  55.731  0.00  0.00    -0.081 A 
ATOM     70  H53 EBU d   1      59.989 -12.593  55.430  0.00  0.00     0.083 H 
ATOM     71  C25 EBU d   1      61.359 -15.687  55.158  0.00  0.00    -0.056 A 
ATOM     72  H54 EBU d   1      61.135 -14.303  56.783  0.00  0.00     0.083 H 
ATOM     73  H55 EBU d   1      61.870 -16.439  55.748  0.00  0.00     0.086 H 
ATOM     74  N8  EBU d   1      61.382 -16.967  52.993  0.00  0.00    -0.365 N 
ATOM     75  C19 EBU d   1      60.939 -16.693  51.725  0.00  0.00    -0.015 A 
ATOM     76  H56 EBU d   1      61.852 -17.834  53.288  0.00  0.00     0.165 HD
ATOM     77  H57 EBU d   1      61.025 -17.369  50.876  0.00  0.00     0.112 H 
ENDBRANCH  60  63
ENDBRANCH  55  60
ENDBRANCH  53  55
ENDBRANCH  17  51
BRANCH  24  78
ATOM     78  C5  EBU d   1      57.250 -15.779  55.501  0.00  0.00    -0.036 C 
ATOM     79  H40 EBU d   1      58.131 -15.816  54.843  0.00  0.00     0.036 H 
ATOM     80  H41 EBU d   1      56.615 -16.657  55.313  0.00  0.00     0.036 H 
BRANCH  78  81
ATOM     81  C6  EBU d   1      57.740 -15.852  56.949  0.00  0.00    -0.048 C 
ATOM     82  H42 EBU d   1      56.872 -15.776  57.621  0.00  0.00     0.035 H 
ATOM     83  H43 EBU d   1      58.423 -15.010  57.135  0.00  0.00     0.035 H 
BRANCH  81  84
ATOM     84  C7  EBU d   1      58.474 -17.152  57.242  0.00  0.00     0.009 C 
ATOM     85  H44 EBU d   1      57.772 -17.993  57.143  0.00  0.00     0.064 H 
ATOM     86  H45 EBU d   1      59.295 -17.273  56.520  0.00  0.00     0.064 H 
BRANCH  84  87
ATOM     87  N3  EBU d   1      59.023 -17.146  58.592  0.00  0.00    -0.227 N 
ATOM     88  C8  EBU d   1      59.616 -18.276  59.255  0.00  0.00     0.665 C 
ATOM     89  N4  EBU d   1      59.693 -19.491  58.512  0.00  0.00    -0.235 N 
ATOM     90  N5  EBU d   1      60.047 -18.112  60.475  0.00  0.00    -0.235 N 
ATOM     91  H4  EBU d   1      60.109 -20.331  58.940  0.00  0.00     0.174 HD
ATOM     92  H5  EBU d   1      59.333 -19.529  57.548  0.00  0.00     0.174 HD
ATOM     93  H46 EBU d   1      59.950 -17.196  60.937  0.00  0.00     0.174 HD
ATOM     94  H47 EBU d   1      60.484 -18.898  60.977  0.00  0.00     0.174 HD
ATOM     95  H3  EBU d   1      58.983 -16.259  59.114  0.00  0.00     0.177 HD
ENDBRANCH  84  87
ENDBRANCH  81  84
ENDBRANCH  78  81
ENDBRANCH  24  78
BRANCH   2  96
ATOM     96  N1  EBU d   1      54.115 -14.221  59.128  0.00  0.00    -0.346 N 
ATOM     97  C1  EBU d   1      54.532 -15.456  59.436  0.00  0.00     0.249 C 
ATOM     98  O5  EBU d   1      54.605 -16.373  58.613  0.00  0.00    -0.271 OA
ATOM     99  H1  EBU d   1      54.055 -13.531  59.850  0.00  0.00     0.163 HD
BRANCH  97 100
ATOM    100  C   EBU d   1      54.897 -15.693  60.921  0.00  0.00     0.179 C 
ATOM    101  H6  EBU d   1      54.104 -15.267  61.553  0.00  0.00     0.099 H 
BRANCH 100 102
ATOM    102  C39 EBU d   1      56.217 -15.032  61.274  0.00  0.00    -0.006 C 
ATOM    103  H7  EBU d   1      56.149 -13.964  61.020  0.00  0.00     0.043 H 
ATOM    104  H8  EBU d   1      57.011 -15.502  60.675  0.00  0.00     0.043 H 
BRANCH 102 105
ATOM    105  C40 EBU d   1      56.589 -15.150  62.730  0.00  0.00    -0.056 A 
ATOM    106  C45 EBU d   1      57.454 -16.149  63.164  0.00  0.00    -0.077 A 
ATOM    107  C44 EBU d   1      57.888 -16.189  64.483  0.00  0.00    -0.082 A 
ATOM    108  H9  EBU d   1      57.793 -16.905  62.465  0.00  0.00     0.084 H 
ATOM    109  C43 EBU d   1      57.467 -15.227  65.383  0.00  0.00    -0.083 A 
ATOM    110  H10 EBU d   1      58.559 -16.976  64.808  0.00  0.00     0.083 H 
ATOM    111  C42 EBU d   1      56.586 -14.243  64.970  0.00  0.00    -0.082 A 
ATOM    112  H11 EBU d   1      57.825 -15.244  66.406  0.00  0.00     0.083 H 
ATOM    113  C41 EBU d   1      56.141 -14.213  63.655  0.00  0.00    -0.077 A 
ATOM    114  H12 EBU d   1      56.243 -13.494  65.674  0.00  0.00     0.083 H 
ATOM    115  H13 EBU d   1      55.436 -13.450  63.346  0.00  0.00     0.084 H 
ENDBRANCH 102 105
ENDBRANCH 100 102
BRANCH 100 116
ATOM    116  N   EBU d   1      55.004 -17.143  61.184  0.00  0.00    -0.066 N 
ATOM    117  H14 EBU d   1      54.132 -17.592  60.953  0.00  0.00     0.275 HD
ATOM    118  H15 EBU d   1      55.211 -17.293  62.159  0.00  0.00     0.275 HD
ATOM    119  H16 EBU d   1      55.743 -17.533  60.620  0.00  0.00     0.275 HD
ENDBRANCH 100 116
ENDBRANCH  97 100
ENDBRANCH   2  96
TORSDOF 14
