REMARK  3 active torsions:
REMARK  status: ('A' for Active; 'I' for Inactive)
REMARK    1  A    between atoms: C09_10  and  C10_1 
REMARK    2  A    between atoms: C10_1  and  O11_11 
REMARK    3  A    between atoms: C05_6  and  C07_8 
ROOT
ATOM      1  C01 J6W d   1       9.503  27.844   4.969  0.00  0.00    -0.065 A 
ATOM      2  C02 J6W d   1       8.274  27.359   4.509  0.00  0.00     0.015 A 
ATOM      3  C03 J6W d   1       8.093  26.995   3.184  0.00  0.00    -0.018 A 
ATOM      4  C04 J6W d   1       9.159  27.112   2.308  0.00  0.00    -0.066 A 
ATOM      5  C05 J6W d   1      10.363  27.598   2.756  0.00  0.00    -0.061 A 
ATOM      6  C06 J6W d   1      10.570  27.977   4.089  0.00  0.00    -0.076 A 
ATOM      7  C08 J6W d   1       6.720  26.487   2.812  0.00  0.00    -0.057 A 
ATOM      8  C09 J6W d   1       5.907  26.515   3.982  0.00  0.00     0.007 A 
ATOM      9  S12 J6W d   1       6.820  27.081   5.253  0.00  0.00    -0.092 SA
ATOM     10  H3  J6W d   1       9.623  28.116   6.011  0.00  0.00     0.085 H 
ATOM     11  H4  J6W d   1       9.043  26.820   1.270  0.00  0.00     0.085 H 
ATOM     12  H5  J6W d   1      11.528  28.360   4.422  0.00  0.00     0.084 H 
ATOM     13  H9  J6W d   1       6.406  26.157   1.823  0.00  0.00     0.086 H 
ENDROOT
BRANCH   8  14
ATOM     14  C10 J6W d   1       4.449  26.082   4.063  0.00  0.00     0.046 C 
ATOM     15  H1  J6W d   1       4.317  25.391   4.909  0.00  0.00     0.082 H 
ATOM     16  H2  J6W d   1       4.163  25.577   3.129  0.00  0.00     0.082 H 
BRANCH  14  17
ATOM     17  O11 J6W d   1       3.639  27.215   4.251  0.00  0.00    -0.396 OA
ATOM     18  H10 J6W d   1       3.755  27.811   3.520  0.00  0.00     0.209 HD
ENDBRANCH  14  17
ENDBRANCH   8  14
BRANCH   5  19
ATOM     19  C07 J6W d   1      11.454  27.687   1.725  0.00  0.00    -0.051 C 
ATOM     20  H6  J6W d   1      11.070  27.340   0.754  0.00  0.00     0.033 H 
ATOM     21  H7  J6W d   1      12.301  27.055   2.032  0.00  0.00     0.033 H 
ATOM     22  H8  J6W d   1      11.789  28.731   1.635  0.00  0.00     0.033 H 
ENDBRANCH   5  19
TORSDOF 3
