REMARK  9 active torsions:
REMARK  status: ('A' for Active; 'I' for Inactive)
REMARK    1  A    between atoms: CA_2  and  N_1 
REMARK    2  A    between atoms: C_3  and  CA_2 
REMARK       I    between atoms: NAU_27  and  C_3 
REMARK    3  A    between atoms: CAL_13  and  CAA_5 
REMARK    4  A    between atoms: CAM_14  and  CAB_6 
REMARK    5  A    between atoms: NBC_28  and  CAC_7 
REMARK    6  A    between atoms: NBF_30  and  CAL_13 
REMARK    7  A    between atoms: NBG_31  and  CAM_14 
REMARK    8  A    between atoms: CAW_21  and  NAU_27 
REMARK    9  A    between atoms: CAX_22  and  NBE_29 
ROOT
ATOM      1  CAG KGU d   1      -6.815  10.701   5.794  0.00  0.00    -0.027 A 
ATOM      2  CAH KGU d   1      -9.381  11.686   5.546  0.00  0.00    -0.027 A 
ATOM      3  CAW KGU d   1      -7.759  10.416   6.794  0.00  0.00     0.064 A 
ATOM      4  CAX KGU d   1      -9.065  10.903   6.655  0.00  0.00     0.059 A 
ATOM      5  CAY KGU d   1      -6.559  12.494   2.641  0.00  0.00     0.316 A 
ATOM      6  CAZ KGU d   1      -7.865  12.988   2.514  0.00  0.00     0.316 A 
ATOM      7  CBA KGU d   1      -7.144  11.476   4.674  0.00  0.00     0.067 A 
ATOM      8  CBB KGU d   1      -8.440  11.974   4.555  0.00  0.00     0.067 A 
ATOM      9  NBF KGU d   1      -6.218  11.750   3.718  0.00  0.00    -0.308 N 
ATOM     10  NBG KGU d   1      -8.770  12.727   3.483  0.00  0.00    -0.308 N 
ATOM     11  OAE KGU d   1      -5.711  12.735   1.770  0.00  0.00    -0.262 OA
ATOM     12  OAF KGU d   1      -8.189  13.642   1.520  0.00  0.00    -0.262 OA
ATOM     13  H13 KGU d   1      -5.808  10.312   5.891  0.00  0.00     0.090 H 
ATOM     14  H14 KGU d   1     -10.385  12.082   5.450  0.00  0.00     0.090 H 
ENDROOT
BRANCH   3  15
ATOM     15  NAU KGU d   1      -7.542   9.654   7.890  0.00  0.00    -0.324 N 
ATOM     16  C   KGU d   1      -6.379   9.057   8.223  0.00  0.00     0.248 C 
ATOM     17  O   KGU d   1      -5.303   9.167   7.639  0.00  0.00    -0.271 OA
ATOM     18  H37 KGU d   1      -8.315   9.521   8.511  0.00  0.00     0.169 HD
BRANCH  16  19
ATOM     19  CA  KGU d   1      -6.477   8.209   9.500  0.00  0.00     0.156 C 
ATOM     20  H2  KGU d   1      -5.742   7.392   9.455  0.00  0.00     0.090 H 
ATOM     21  H3  KGU d   1      -6.270   8.841  10.376  0.00  0.00     0.090 H 
BRANCH  19  22
ATOM     22  N   KGU d   1      -7.833   7.644   9.611  0.00  0.00    -0.060 N 
ATOM     23  CAR KGU d   1      -8.014   6.507   8.695  0.00  0.00     0.106 C 
ATOM     24  CAP KGU d   1      -9.442   5.983   8.780  0.00  0.00     0.105 C 
ATOM     25  H33 KGU d   1      -7.315   5.704   8.971  0.00  0.00     0.078 H 
ATOM     26  H34 KGU d   1      -7.808   6.834   7.665  0.00  0.00     0.078 H 
ATOM     27  NBC KGU d   1      -9.762   5.560  10.153  0.00  0.00    -0.072 N 
ATOM     28  H29 KGU d   1      -9.552   5.123   8.103  0.00  0.00     0.078 H 
ATOM     29  H30 KGU d   1     -10.137   6.780   8.477  0.00  0.00     0.078 H 
ATOM     30  CAQ KGU d   1      -9.546   6.680  11.083  0.00  0.00     0.105 C 
ATOM     31  H38 KGU d   1      -9.165   4.791  10.413  0.00  0.00     0.279 HD
ATOM     32  CAS KGU d   1      -8.117   7.200  10.985  0.00  0.00     0.106 C 
ATOM     33  H31 KGU d   1     -10.243   7.494  10.835  0.00  0.00     0.078 H 
ATOM     34  H32 KGU d   1      -9.735   6.336  12.111  0.00  0.00     0.078 H 
ATOM     35  H35 KGU d   1      -7.990   8.047  11.675  0.00  0.00     0.078 H 
ATOM     36  H36 KGU d   1      -7.418   6.396  11.259  0.00  0.00     0.078 H 
ATOM     37  H1  KGU d   1      -8.494   8.364   9.364  0.00  0.00     0.280 HD
BRANCH  27  38
ATOM     38  CAC KGU d   1     -11.168   5.130  10.218  0.00  0.00     0.066 C 
ATOM     39  H10 KGU d   1     -11.328   4.293   9.523  0.00  0.00     0.068 H 
ATOM     40  H11 KGU d   1     -11.822   5.969   9.938  0.00  0.00     0.068 H 
ATOM     41  H12 KGU d   1     -11.405   4.806  11.242  0.00  0.00     0.068 H 
ENDBRANCH  27  38
ENDBRANCH  19  22
ENDBRANCH  16  19
ENDBRANCH   3  15
BRANCH   4  42
ATOM     42  NBE KGU d   1     -10.043  10.700   7.572  0.00  0.00    -0.379 N 
ATOM     43  CAN KGU d   1      -9.871  11.201   8.964  0.00  0.00    -0.005 C 
ATOM     44  CAJ KGU d   1     -10.779  10.512   9.972  0.00  0.00    -0.050 C 
ATOM     45  H25 KGU d   1      -8.826  11.037   9.267  0.00  0.00     0.064 H 
ATOM     46  H26 KGU d   1     -10.091  12.279   8.976  0.00  0.00     0.064 H 
ATOM     47  CAI KGU d   1     -12.199  10.515   9.450  0.00  0.00    -0.062 C 
ATOM     48  H17 KGU d   1     -10.444   9.475  10.119  0.00  0.00     0.035 H 
ATOM     49  H18 KGU d   1     -10.739  11.050  10.931  0.00  0.00     0.035 H 
ATOM     50  CAK KGU d   1     -12.240   9.657   8.205  0.00  0.00    -0.050 C 
ATOM     51  H15 KGU d   1     -12.505  11.543   9.205  0.00  0.00     0.033 H 
ATOM     52  H16 KGU d   1     -12.877  10.102  10.211  0.00  0.00     0.033 H 
ATOM     53  CAO KGU d   1     -11.397  10.297   7.110  0.00  0.00    -0.005 C 
ATOM     54  H19 KGU d   1     -13.280   9.565   7.859  0.00  0.00     0.035 H 
ATOM     55  H20 KGU d   1     -11.841   8.658   8.436  0.00  0.00     0.035 H 
ATOM     56  H27 KGU d   1     -11.921  11.192   6.743  0.00  0.00     0.064 H 
ATOM     57  H28 KGU d   1     -11.285   9.575   6.288  0.00  0.00     0.064 H 
ENDBRANCH   4  42
BRANCH   9  58
ATOM     58  CAL KGU d   1      -4.830  11.217   3.843  0.00  0.00     0.000 C 
ATOM     59  H21 KGU d   1      -4.151  11.852   3.256  0.00  0.00     0.064 H 
ATOM     60  H22 KGU d   1      -4.533  11.243   4.902  0.00  0.00     0.064 H 
BRANCH  58  61
ATOM     61  CAA KGU d   1      -4.725   9.775   3.333  0.00  0.00    -0.061 C 
ATOM     62  H4  KGU d   1      -3.689   9.422   3.443  0.00  0.00     0.029 H 
ATOM     63  H5  KGU d   1      -5.014   9.739   2.272  0.00  0.00     0.029 H 
ATOM     64  H6  KGU d   1      -5.396   9.129   3.918  0.00  0.00     0.029 H 
ENDBRANCH  58  61
ENDBRANCH   9  58
BRANCH  10  65
ATOM     65  CAM KGU d   1     -10.138  13.258   3.327  0.00  0.00     0.000 C 
ATOM     66  H23 KGU d   1     -10.570  13.438   4.323  0.00  0.00     0.064 H 
ATOM     67  H24 KGU d   1     -10.095  14.205   2.770  0.00  0.00     0.064 H 
BRANCH  65  68
ATOM     68  CAB KGU d   1     -11.024  12.273   2.569  0.00  0.00    -0.061 C 
ATOM     69  H7  KGU d   1     -12.036  12.693   2.467  0.00  0.00     0.029 H 
ATOM     70  H8  KGU d   1     -11.075  11.324   3.123  0.00  0.00     0.029 H 
ATOM     71  H9  KGU d   1     -10.600  12.092   1.570  0.00  0.00     0.029 H 
ENDBRANCH  65  68
ENDBRANCH  10  65
TORSDOF 9
