REMARK  2 active torsions:
REMARK  status: ('A' for Active; 'I' for Inactive)
REMARK    1  A    between atoms: C05_6  and  N07_8 
REMARK       I    between atoms: N07_8  and  C08_9 
REMARK    2  A    between atoms: C08_9  and  C09_10 
ROOT
ATOM      1  C13 ZHA d   1     127.561  26.535   5.006  0.00  0.00    -0.005 C 
ATOM      2  C01 ZHA d   1     130.252  26.720   2.181  0.00  0.00    -0.067 A 
ATOM      3  C02 ZHA d   1     129.640  26.826   3.444  0.00  0.00     0.016 A 
ATOM      4  C03 ZHA d   1     130.420  27.251   4.532  0.00  0.00    -0.042 A 
ATOM      5  C04 ZHA d   1     131.781  27.562   4.379  0.00  0.00    -0.050 A 
ATOM      6  C05 ZHA d   1     132.397  27.443   3.123  0.00  0.00     0.035 A 
ATOM      7  C06 ZHA d   1     131.614  27.028   2.020  0.00  0.00    -0.056 A 
ATOM      8  C11 ZHA d   1     129.734  27.360   5.951  0.00  0.00    -0.040 C 
ATOM      9  C12 ZHA d   1     128.579  26.355   6.093  0.00  0.00    -0.055 C 
ATOM     10  C14 ZHA d   1     128.155  26.504   3.656  0.00  0.00     0.160 C 
ATOM     11  O15 ZHA d   1     127.449  26.246   2.744  0.00  0.00    -0.292 OA
ATOM     12  H1  ZHA d   1     127.062  27.505   5.148  0.00  0.00     0.044 H 
ATOM     13  H2  ZHA d   1     126.819  25.727   5.082  0.00  0.00     0.044 H 
ATOM     14  H3  ZHA d   1     129.668  26.398   1.326  0.00  0.00     0.085 H 
ATOM     15  H4  ZHA d   1     132.358  27.895   5.234  0.00  0.00     0.087 H 
ATOM     16  H5  ZHA d   1     132.070  26.947   1.040  0.00  0.00     0.086 H 
ATOM     17  H10 ZHA d   1     129.340  28.379   6.081  0.00  0.00     0.040 H 
ATOM     18  H11 ZHA d   1     130.485  27.155   6.728  0.00  0.00     0.040 H 
ATOM     19  H12 ZHA d   1     128.984  25.334   6.038  0.00  0.00     0.034 H 
ATOM     20  H13 ZHA d   1     128.092  26.505   7.068  0.00  0.00     0.034 H 
ENDROOT
BRANCH   6  21
ATOM     21  N07 ZHA d   1     133.809  27.807   3.018  0.00  0.00    -0.328 N 
ATOM     22  C08 ZHA d   1     134.653  27.843   1.829  0.00  0.00     0.218 C 
ATOM     23  O10 ZHA d   1     134.266  27.525   0.748  0.00  0.00    -0.274 OA
ATOM     24  H6  ZHA d   1     134.255  28.066   3.875  0.00  0.00     0.169 HD
BRANCH  22  25
ATOM     25  C09 ZHA d   1     136.096  28.303   2.011  0.00  0.00    -0.003 C 
ATOM     26  H7  ZHA d   1     136.613  28.281   1.040  0.00  0.00     0.040 H 
ATOM     27  H8  ZHA d   1     136.609  27.631   2.715  0.00  0.00     0.040 H 
ATOM     28  H9  ZHA d   1     136.107  29.328   2.409  0.00  0.00     0.040 H 
ENDBRANCH  22  25
ENDBRANCH   6  21
TORSDOF 2
