REMARK  17 active torsions:
REMARK  status: ('A' for Active; 'I' for Inactive)
REMARK    1  A    between atoms: N_1  and  CA_2 
REMARK    2  A    between atoms: CA_2  and  C_3 
REMARK    3  A    between atoms: CA_2  and  CB_5 
REMARK       I    between atoms: C_3  and  N_12 
REMARK    4  A    between atoms: CB_5  and  CG_6 
REMARK    5  A    between atoms: N_12  and  CA_13 
REMARK    6  A    between atoms: CA_13  and  C_14 
REMARK    7  A    between atoms: CA_13  and  CB_16 
REMARK       I    between atoms: C_14  and  N_21 
REMARK    8  A    between atoms: CB_16  and  CG_17 
REMARK    9  A    between atoms: CG_17  and  CD_18 
REMARK   10  A    between atoms: CD_18  and  CE_19 
REMARK   11  A    between atoms: CE_19  and  NZ_20 
REMARK   12  A    between atoms: N_21  and  CA_22 
REMARK   13  A    between atoms: CA_22  and  CB_23 
REMARK   14  A    between atoms: CA_22  and  C_30 
REMARK   15  A    between atoms: CB_23  and  CG2_24 
REMARK   16  A    between atoms: CB_23  and  OG1_25 
REMARK   17  A    between atoms: OG1_25  and  P_26 
ROOT
ATOM      1  CA  PHE d   1     -13.061 -13.589  10.857  0.00  0.00     0.089 C 
ATOM      2  H13 PHE d   1     -13.308 -12.711  10.243  0.00  0.00     0.087 H 
ENDROOT
BRANCH   1   3
ATOM      3  N   PHE d   1     -12.897 -13.185  12.262  0.00  0.00    -0.346 N 
ATOM      4  C   PHE d   1     -13.814 -12.483  12.938  0.00  0.00     0.249 C 
ATOM      5  O   PHE d   1     -14.964 -12.239  12.522  0.00  0.00    -0.271 OA
ATOM      6  H12 PHE d   1     -12.057 -13.448  12.736  0.00  0.00     0.163 HD
BRANCH   4   7
ATOM      7  CA  PHE d   1     -13.355 -11.971  14.285  0.00  0.00     0.179 C 
ATOM      8  H4  PHE d   1     -12.323 -11.604  14.183  0.00  0.00     0.099 H 
BRANCH   7   9
ATOM      9  N   PHE d   1     -14.202 -10.863  14.730  0.00  0.00    -0.066 N 
ATOM     10  H1  PHE d   1     -13.882 -10.535  15.628  0.00  0.00     0.275 HD
ATOM     11  H2  PHE d   1     -15.156 -11.180  14.809  0.00  0.00     0.275 HD
ATOM     12  H3  PHE d   1     -14.152 -10.111  14.060  0.00  0.00     0.275 HD
ENDBRANCH   7   9
BRANCH   7  13
ATOM     13  CB  PHE d   1     -13.371 -13.081  15.316  0.00  0.00    -0.006 C 
ATOM     14  H5  PHE d   1     -12.770 -13.921  14.937  0.00  0.00     0.043 H 
ATOM     15  H6  PHE d   1     -14.411 -13.410  15.462  0.00  0.00     0.043 H 
BRANCH  13  16
ATOM     16  CG  PHE d   1     -12.819 -12.657  16.629  0.00  0.00    -0.056 A 
ATOM     17  CD1 PHE d   1     -11.463 -12.372  16.749  0.00  0.00    -0.077 A 
ATOM     18  CE1 PHE d   1     -10.923 -11.927  17.952  0.00  0.00    -0.082 A 
ATOM     19  H7  PHE d   1     -10.815 -12.499  15.889  0.00  0.00     0.084 H 
ATOM     20  CZ  PHE d   1     -11.744 -11.782  19.055  0.00  0.00    -0.083 A 
ATOM     21  H9  PHE d   1      -9.866 -11.696  18.024  0.00  0.00     0.083 H 
ATOM     22  CE2 PHE d   1     -13.117 -12.050  18.945  0.00  0.00    -0.082 A 
ATOM     23  H11 PHE d   1     -11.328 -11.462  20.003  0.00  0.00     0.083 H 
ATOM     24  CD2 PHE d   1     -13.644 -12.488  17.726  0.00  0.00    -0.077 A 
ATOM     25  H10 PHE d   1     -13.767 -11.918  19.802  0.00  0.00     0.083 H 
ATOM     26  H8  PHE d   1     -14.704 -12.696  17.640  0.00  0.00     0.084 H 
ENDBRANCH  13  16
ENDBRANCH   7  13
ENDBRANCH   4   7
ENDBRANCH   1   3
BRANCH   1  27
ATOM     27  C   PHE d   1     -14.151 -14.643  10.751  0.00  0.00     0.241 C 
ATOM     28  O   PHE d   1     -14.078 -15.604  11.459  0.00  0.00    -0.271 OA
ATOM     29  N   PHE d   1     -15.142 -14.465   9.869  0.00  0.00    -0.343 N 
ATOM     30  H25 PHE d   1     -15.225 -13.581   9.409  0.00  0.00     0.163 HD
BRANCH  29  31
ATOM     31  CA  PHE d   1     -16.147 -15.559   9.541  0.00  0.00     0.121 C 
ATOM     32  H26 PHE d   1     -15.773 -16.515   9.937  0.00  0.00     0.093 H 
BRANCH  31  33
ATOM     33  CB  PHE d   1     -17.527 -15.267  10.193  0.00  0.00     0.077 C 
ATOM     34  H27 PHE d   1     -18.255 -16.007   9.829  0.00  0.00     0.087 H 
BRANCH  33  35
ATOM     35  CG2 PHE d   1     -17.512 -15.330  11.717  0.00  0.00    -0.049 C 
ATOM     36  H28 PHE d   1     -18.519 -15.113  12.103  0.00  0.00     0.031 H 
ATOM     37  H29 PHE d   1     -16.802 -14.586  12.108  0.00  0.00     0.031 H 
ATOM     38  H30 PHE d   1     -17.204 -16.336  12.039  0.00  0.00     0.031 H 
ENDBRANCH  33  35
BRANCH  33  39
ATOM     39  OG1 PHE d   1     -17.918 -13.949   9.751  0.00  0.00    -0.275 OA
BRANCH  39  40
ATOM     40  P   PHE d   1     -19.431 -13.405  10.008  0.00  0.00     0.422 P 
ATOM     41  O1P PHE d   1     -19.601 -12.190   9.096  0.00  0.00    -0.617 OA
ATOM     42  O2P PHE d   1     -19.530 -12.950  11.543  0.00  0.00    -0.617 OA
ATOM     43  O3P PHE d   1     -20.463 -14.544   9.649  0.00  0.00    -0.617 OA
ENDBRANCH  39  40
ENDBRANCH  33  39
ENDBRANCH  31  33
BRANCH  31  44
ATOM     44  C   PHE d   1     -16.271 -15.671   8.004  0.00  0.00     0.199 C 
ATOM     45  O   PHE d   1     -15.528 -14.935   7.343  0.00  0.00    -0.646 OA
ATOM     46  OXT PHE d   1     -17.101 -16.486   7.583  0.00  0.00    -0.646 OA
ENDBRANCH  31  44
ENDBRANCH  29  31
ENDBRANCH   1  27
BRANCH   1  47
ATOM     47  CB  PHE d   1     -11.784 -14.261  10.348  0.00  0.00    -0.038 C 
ATOM     48  H14 PHE d   1     -11.899 -14.444   9.269  0.00  0.00     0.036 H 
ATOM     49  H15 PHE d   1     -11.668 -15.221  10.873  0.00  0.00     0.036 H 
BRANCH  47  50
ATOM     50  CG  PHE d   1     -10.524 -13.454  10.558  0.00  0.00    -0.061 A 
ATOM     51  H16 PHE d   1      -9.653 -14.124  10.501  0.00  0.00     0.033 H 
ATOM     52  H17 PHE d   1     -10.559 -12.983  11.551  0.00  0.00     0.033 H 
BRANCH  50  53
ATOM     53  CD  PHE d   1     -10.392 -12.385   9.511  0.00  0.00    -0.043 C 
ATOM     54  H18 PHE d   1     -10.922 -11.479   9.841  0.00  0.00     0.035 H 
ATOM     55  H19 PHE d   1     -10.827 -12.741   8.565  0.00  0.00     0.035 H 
BRANCH  53  56
ATOM     56  CE  PHE d   1      -8.932 -12.069   9.308  0.00  0.00     0.080 C 
ATOM     57  H20 PHE d   1      -8.352 -13.001   9.374  0.00  0.00     0.075 H 
ATOM     58  H21 PHE d   1      -8.603 -11.376  10.096  0.00  0.00     0.075 H 
BRANCH  56  59
ATOM     59  NZ  PHE d   1      -8.689 -11.440   7.977  0.00  0.00    -0.079 N 
ATOM     60  H22 PHE d   1      -7.706 -11.242   7.873  0.00  0.00     0.274 HD
ATOM     61  H23 PHE d   1      -9.213 -10.582   7.910  0.00  0.00     0.274 HD
ATOM     62  H24 PHE d   1      -8.983 -12.071   7.248  0.00  0.00     0.274 HD
ENDBRANCH  56  59
ENDBRANCH  53  56
ENDBRANCH  50  53
ENDBRANCH  47  50
ENDBRANCH   1  47
TORSDOF 17
