REMARK  4 active torsions:
REMARK  status: ('A' for Active; 'I' for Inactive)
REMARK    1  A    between atoms: C1_1  and  C7_5 
REMARK    2  A    between atoms: C2_2  and  N10_7 
REMARK    3  A    between atoms: N10_7  and  S11_12 
REMARK    4  A    between atoms: S11_12  and  C14_8 
ROOT
ATOM      1  N10 U8K d   1     -29.032 -23.263  -4.905  0.00  0.00    -0.278 N 
ATOM      2  H3  U8K d   1     -28.284 -23.762  -4.467  0.00  0.00     0.179 HD
ENDROOT
BRANCH   1   3
ATOM      3  C2  U8K d   1     -28.833 -22.558  -6.024  0.00  0.00     0.078 A 
ATOM      4  C1  U8K d   1     -27.501 -22.368  -6.449  0.00  0.00     0.160 A 
ATOM      5  N6  U8K d   1     -27.361 -21.598  -7.526  0.00  0.00    -0.252 NA
ATOM      6  C5  U8K d   1     -28.375 -21.053  -8.269  0.00  0.00     0.003 A 
ATOM      7  C4  U8K d   1     -29.682 -21.252  -7.894  0.00  0.00    -0.064 A 
ATOM      8  H2  U8K d   1     -28.147 -20.466  -9.151  0.00  0.00     0.114 H 
ATOM      9  C3  U8K d   1     -29.885 -21.988  -6.782  0.00  0.00    -0.053 A 
ATOM     10  H4  U8K d   1     -30.507 -20.839  -8.463  0.00  0.00     0.085 H 
ATOM     11  H1  U8K d   1     -30.904 -22.151  -6.452  0.00  0.00     0.087 H 
BRANCH   4  12
ATOM     12  C7  U8K d   1     -26.337 -22.920  -5.865  0.00  0.00     0.231 C 
ATOM     13  O9  U8K d   1     -26.369 -23.711  -4.889  0.00  0.00    -0.643 OA
ATOM     14  O8  U8K d   1     -25.226 -22.764  -6.438  0.00  0.00    -0.643 OA
ENDBRANCH   4  12
ENDBRANCH   1   3
BRANCH   1  15
ATOM     15  S11 U8K d   1     -30.639 -23.281  -4.238  0.00  0.00     0.263 S 
ATOM     16  O13 U8K d   1     -31.755 -23.406  -5.246  0.00  0.00    -0.200 OA
ATOM     17  O12 U8K d   1     -30.638 -24.526  -3.396  0.00  0.00    -0.200 OA
BRANCH  15  18
ATOM     18  C14 U8K d   1     -30.846 -22.005  -3.135  0.00  0.00     0.079 A 
ATOM     19  C19 U8K d   1     -31.957 -21.143  -3.176  0.00  0.00    -0.060 A 
ATOM     20  C18 U8K d   1     -32.106 -20.131  -2.215  0.00  0.00    -0.082 A 
ATOM     21  H5  U8K d   1     -32.702 -21.261  -3.954  0.00  0.00     0.085 H 
ATOM     22  C17 U8K d   1     -31.108 -19.995  -1.245  0.00  0.00    -0.083 A 
ATOM     23  H6  U8K d   1     -32.969 -19.475  -2.224  0.00  0.00     0.083 H 
ATOM     24  C16 U8K d   1     -30.014 -20.858  -1.197  0.00  0.00    -0.082 A 
ATOM     25  H7  U8K d   1     -31.187 -19.200  -0.513  0.00  0.00     0.083 H 
ATOM     26  C15 U8K d   1     -29.882 -21.867  -2.148  0.00  0.00    -0.060 A 
ATOM     27  H8  U8K d   1     -29.267 -20.744  -0.420  0.00  0.00     0.083 H 
ATOM     28  H9  U8K d   1     -29.032 -22.539  -2.117  0.00  0.00     0.085 H 
ENDBRANCH  15  18
ENDBRANCH   1  15
TORSDOF 4
