REMARK  4 active torsions:
REMARK  status: ('A' for Active; 'I' for Inactive)
REMARK    1  A    between atoms: N9_12  and  C2_1 
REMARK    2  A    between atoms: C3_2  and  C6_5 
REMARK    3  A    between atoms: S10_13  and  C13_7 
REMARK    4  A    between atoms: N9_12  and  S10_13 
ROOT
ATOM      1  O11 JTY d   1      -2.905 -17.399  -3.706  0.00  0.00    -0.200 OA
ATOM      2  S10 JTY d   1      -3.286 -15.967  -4.146  0.00  0.00     0.263 S 
ATOM      3  O12 JTY d   1      -3.375 -15.044  -2.942  0.00  0.00    -0.200 OA
ENDROOT
BRANCH   2   4
ATOM      4  C13 JTY d   1      -1.966 -15.141  -5.229  0.00  0.00     0.079 A 
ATOM      5  C14 JTY d   1      -1.935 -15.172  -6.633  0.00  0.00    -0.060 A 
ATOM      6  C15 JTY d   1      -0.927 -14.507  -7.349  0.00  0.00    -0.082 A 
ATOM      7  H2  JTY d   1      -2.701 -15.718  -7.172  0.00  0.00     0.085 H 
ATOM      8  C16 JTY d   1       0.085 -13.818  -6.670  0.00  0.00    -0.083 A 
ATOM      9  H7  JTY d   1      -0.932 -14.527  -8.433  0.00  0.00     0.083 H 
ATOM     10  C17 JTY d   1       0.067 -13.779  -5.268  0.00  0.00    -0.082 A 
ATOM     11  H6  JTY d   1       0.874 -13.320  -7.222  0.00  0.00     0.083 H 
ATOM     12  C18 JTY d   1      -0.947 -14.430  -4.561  0.00  0.00    -0.060 A 
ATOM     13  H5  JTY d   1       0.842 -13.243  -4.732  0.00  0.00     0.083 H 
ATOM     14  H4  JTY d   1      -0.951 -14.388  -3.478  0.00  0.00     0.085 H 
ENDBRANCH   2   4
BRANCH   2  15
ATOM     15  N9  JTY d   1      -4.829 -16.051  -4.739  0.00  0.00    -0.272 N 
ATOM     16  H3  JTY d   1      -5.553 -15.549  -4.267  0.00  0.00     0.179 HD
BRANCH  15  17
ATOM     17  C2  JTY d   1      -5.143 -16.763  -5.822  0.00  0.00     0.121 A 
ATOM     18  C3  JTY d   1      -6.365 -16.811  -6.413  0.00  0.00     0.167 A 
ATOM     19  N4  JTY d   1      -6.354 -17.640  -7.467  0.00  0.00    -0.244 NA
ATOM     20  C5  JTY d   1      -5.208 -18.218  -7.845  0.00  0.00     0.043 A 
ATOM     21  S1  JTY d   1      -4.048 -17.766  -6.767  0.00  0.00    -0.062 SA
ATOM     22  H1  JTY d   1      -5.068 -18.868  -8.707  0.00  0.00     0.126 H 
BRANCH  18  23
ATOM     23  C6  JTY d   1      -7.523 -16.205  -5.994  0.00  0.00     0.231 C 
ATOM     24  O8  JTY d   1      -7.577 -15.463  -4.974  0.00  0.00    -0.643 OA
ATOM     25  O7  JTY d   1      -8.620 -16.415  -6.595  0.00  0.00    -0.643 OA
ENDBRANCH  18  23
ENDBRANCH  15  17
ENDBRANCH   2  15
TORSDOF 4
