REMARK  2 active torsions:
REMARK  status: ('A' for Active; 'I' for Inactive)
REMARK    1  A    between atoms: C05_7  and  C06_8 
REMARK       I    between atoms: C06_8  and  N07_9 
REMARK    2  A    between atoms: N07_9  and  C08_10 
ROOT
ATOM      1  C06 K3T d   1     -12.655 -27.747   2.169  0.00  0.00     0.262 C 
ATOM      2  N07 K3T d   1     -13.809 -28.387   2.859  0.00  0.00    -0.320 N 
ATOM      3  O13 K3T d   1     -12.629 -27.625   1.026  0.00  0.00    -0.267 OA
ATOM      4  H3  K3T d   1     -13.763 -28.451   3.856  0.00  0.00     0.165 HD
ENDROOT
BRANCH   1   5
ATOM      5  C05 K3T d   1     -11.296 -27.298   2.692  0.00  0.00     0.096 A 
ATOM      6  C04 K3T d   1     -10.612 -27.554   3.852  0.00  0.00     0.068 A 
ATOM      7  C03 K3T d   1      -9.302 -27.095   3.933  0.00  0.00     0.004 A 
ATOM      8 CL1  K3T d   1     -11.305 -28.378   5.243  0.00  0.00    -0.082 Cl
ATOM      9  C15 K3T d   1      -8.799 -26.506   2.838  0.00  0.00     0.020 A 
ATOM     10  C02 K3T d   1      -8.519 -27.202   5.070  0.00  0.00    -0.067 A 
ATOM     11  S14 K3T d   1     -10.064 -26.590   1.723  0.00  0.00    -0.082 SA
ATOM     12  C16 K3T d   1      -7.528 -26.011   2.816  0.00  0.00    -0.028 A 
ATOM     13  C17 K3T d   1      -6.753 -26.139   3.929  0.00  0.00     0.117 A 
ATOM     14  H8  K3T d   1      -7.141 -25.524   1.928  0.00  0.00     0.090 H 
ATOM     15  C01 K3T d   1      -7.249 -26.724   5.069  0.00  0.00    -0.045 A 
ATOM     16  F18 K3T d   1      -5.516 -25.645   3.875  0.00  0.00    -0.206 F 
ATOM     17  H1  K3T d   1      -6.633 -26.803   5.957  0.00  0.00     0.088 H 
ATOM     18  H2  K3T d   1      -8.921 -27.668   5.962  0.00  0.00     0.085 H 
ENDBRANCH   1   5
BRANCH   2  19
ATOM     19  C08 K3T d   1     -15.019 -28.938   2.205  0.00  0.00     0.214 C 
ATOM     20  N09 K3T d   1     -15.160 -28.847   0.716  0.00  0.00    -0.044 N 
ATOM     21  C10 K3T d   1     -16.581 -29.540   0.150  0.00  0.00     0.097 C 
ATOM     22  H5  K3T d   1     -14.379 -29.321   0.289  0.00  0.00     0.280 HD
ATOM     23  H6  K3T d   1     -15.149 -27.875   0.451  0.00  0.00     0.280 HD
ATOM     24  C11 K3T d   1     -17.074 -30.410   1.354  0.00  0.00     0.031 C 
ATOM     25  H9  K3T d   1     -16.387 -30.166  -0.733  0.00  0.00     0.077 H 
ATOM     26  H10 K3T d   1     -17.321 -28.767  -0.104  0.00  0.00     0.077 H 
ATOM     27  S12 K3T d   1     -16.435 -29.693   2.585  0.00  0.00    -0.108 SA
ATOM     28  H7  K3T d   1     -17.706 -31.296   1.337  0.00  0.00     0.061 H 
ATOM     29  H4  K3T d   1     -14.498 -29.907   2.193  0.00  0.00     0.136 H 
ENDBRANCH   2  19
TORSDOF 2
