REMARK  9 active torsions:
REMARK  status: ('A' for Active; 'I' for Inactive)
REMARK    1  A    between atoms: N1_8  and  C1'_9 
REMARK    2  A    between atoms: C3'_11  and  O3'_12 
REMARK    3  A    between atoms: C4'_14  and  C5'_15 
REMARK    4  A    between atoms: C5'_15  and  O5'_16 
REMARK    5  A    between atoms: O5'_16  and  PA_17 
REMARK    6  A    between atoms: PA_17  and  N3A_20 
REMARK    7  A    between atoms: N3A_20  and  PB_21 
REMARK    8  A    between atoms: PB_21  and  O3B_24 
REMARK    9  A    between atoms: O3B_24  and  PG_25 
ROOT
ATOM      1  C1' DUP d   1      -2.245  70.127  40.743  0.00  0.00     0.116 C 
ATOM      2  C2' DUP d   1      -1.442  69.414  39.655  0.00  0.00     0.002 C 
ATOM      3  C3' DUP d   1      -0.690  68.293  40.341  0.00  0.00     0.066 C 
ATOM      4  O4' DUP d   1      -1.724  69.656  41.996  0.00  0.00    -0.356 OA
ATOM      5  C4' DUP d   1      -0.705  68.659  41.816  0.00  0.00     0.087 C 
ATOM      6  H4  DUP d   1      -3.303  69.835  40.670  0.00  0.00     0.118 H 
ATOM      7  H5  DUP d   1      -0.735  70.113  39.184  0.00  0.00     0.043 H 
ATOM      8  H6  DUP d   1      -2.118  69.005  38.890  0.00  0.00     0.043 H 
ATOM      9  H7  DUP d   1       0.343  68.236  39.969  0.00  0.00     0.087 H 
ATOM     10  H9  DUP d   1      -0.945  67.767  42.413  0.00  0.00     0.090 H 
ENDROOT
BRANCH   5  11
ATOM     11  C5' DUP d   1       0.640  69.210  42.268  0.00  0.00     0.057 C 
ATOM     12  H10 DUP d   1       1.018  69.917  41.515  0.00  0.00     0.079 H 
ATOM     13  H11 DUP d   1       1.355  68.382  42.385  0.00  0.00     0.079 H 
BRANCH  11  14
ATOM     14  O5' DUP d   1       0.483  69.882  43.515  0.00  0.00    -0.293 OA
BRANCH  14  15
ATOM     15  PA  DUP d   1       1.513  69.654  44.725  0.00  0.00     0.368 P 
ATOM     16  O1A DUP d   1       3.015  69.826  44.164  0.00  0.00    -0.629 OA
ATOM     17  O2A DUP d   1       1.257  70.698  45.744  0.00  0.00    -0.629 OA
BRANCH  15  18
ATOM     18  N3A DUP d   1       1.232  68.079  45.448  0.00  0.00    -0.225 N 
ATOM     19  H12 DUP d   1       0.465  67.982  46.082  0.00  0.00     0.178 HD
BRANCH  18  20
ATOM     20  PB  DUP d   1       2.220  66.664  45.122  0.00  0.00     0.379 P 
ATOM     21  O1B DUP d   1       3.008  66.853  43.879  0.00  0.00    -0.629 OA
ATOM     22  O2B DUP d   1       1.198  65.427  44.920  0.00  0.00    -0.629 OA
BRANCH  20  23
ATOM     23  O3B DUP d   1       3.198  66.315  46.379  0.00  0.00    -0.178 OA
BRANCH  23  24
ATOM     24  PG  DUP d   1       4.617  67.017  46.781  0.00  0.00     0.431 P 
ATOM     25  O2G DUP d   1       5.631  66.629  45.728  0.00  0.00    -0.616 OA
ATOM     26  O1G DUP d   1       4.313  68.488  46.814  0.00  0.00    -0.616 OA
ATOM     27  O3G DUP d   1       4.911  66.427  48.133  0.00  0.00    -0.616 OA
ENDBRANCH  23  24
ENDBRANCH  20  23
ENDBRANCH  18  20
ENDBRANCH  15  18
ENDBRANCH  14  15
ENDBRANCH  11  14
ENDBRANCH   5  11
BRANCH   3  28
ATOM     28  O3' DUP d   1      -1.346  67.038  40.119  0.00  0.00    -0.393 OA
ATOM     29  H8  DUP d   1      -0.862  66.347  40.556  0.00  0.00     0.210 HD
ENDBRANCH   3  28
BRANCH   1  30
ATOM     30  N1  DUP d   1      -2.165  71.590  40.560  0.00  0.00    -0.282 N 
ATOM     31  C6  DUP d   1      -1.563  72.405  41.447  0.00  0.00    -0.008 A 
ATOM     32  C5  DUP d   1      -1.520  73.778  41.209  0.00  0.00    -0.002 A 
ATOM     33  H2  DUP d   1      -1.111  71.993  42.348  0.00  0.00     0.112 H 
ATOM     34  C4  DUP d   1      -2.089  74.319  40.061  0.00  0.00     0.250 A 
ATOM     35  H1  DUP d   1      -1.035  74.434  41.930  0.00  0.00     0.094 H 
ATOM     36  O4  DUP d   1      -2.033  75.555  39.856  0.00  0.00    -0.268 OA
ATOM     37  N3  DUP d   1      -2.691  73.504  39.184  0.00  0.00    -0.275 N 
ATOM     38  C2  DUP d   1      -2.746  72.175  39.397  0.00  0.00     0.331 A 
ATOM     39  H3  DUP d   1      -3.106  73.888  38.359  0.00  0.00     0.173 HD
ATOM     40  O2  DUP d   1      -3.318  71.454  38.552  0.00  0.00    -0.246 OA
ENDBRANCH   1  30
TORSDOF 9
