REMARK  7 active torsions:
REMARK  status: ('A' for Active; 'I' for Inactive)
REMARK    1  A    between atoms: N1_27  and  C11_8 
REMARK    2  A    between atoms: S_17  and  C6_9 
REMARK    3  A    between atoms: C1_10  and  O_15 
REMARK    4  A    between atoms: C13_13  and  C17_25 
REMARK    5  A    between atoms: O_15  and  C_16 
REMARK    6  A    between atoms: N_20  and  S_17 
REMARK    7  A    between atoms: C7_21  and  N_20 
ROOT
ATOM      1  C2  LS8 d   1      -7.762  -1.595 -17.160  0.00  0.00    -0.029 A 
ATOM      2  C3  LS8 d   1      -7.696  -2.057 -15.847  0.00  0.00     0.047 A 
ATOM      3  C4  LS8 d   1      -8.862  -2.384 -15.153  0.00  0.00    -0.061 A 
ATOM      4  C5  LS8 d   1     -10.093  -2.256 -15.771  0.00  0.00    -0.056 A 
ATOM      5  C6  LS8 d   1     -10.168  -1.795 -17.081  0.00  0.00     0.113 A 
ATOM      6  C1  LS8 d   1      -8.992  -1.460 -17.779  0.00  0.00     0.092 A 
ATOM      7  C18 LS8 d   1      -6.408  -2.200 -15.216  0.00  0.00     0.099 C 
ATOM      8  N2  LS8 d   1      -5.371  -2.301 -14.750  0.00  0.00    -0.191 NA
ATOM      9  H1  LS8 d   1      -6.853  -1.342 -17.694  0.00  0.00     0.090 H 
ATOM     10  H3  LS8 d   1      -8.803  -2.738 -14.130  0.00  0.00     0.085 H 
ATOM     11  H4  LS8 d   1     -10.999  -2.515 -15.235  0.00  0.00     0.086 H 
ENDROOT
BRANCH   6  12
ATOM     12  O   LS8 d   1      -9.158  -1.014 -19.063  0.00  0.00    -0.354 OA
BRANCH  12  13
ATOM     13  C   LS8 d   1      -7.990  -0.717 -19.817  0.00  0.00     0.010 C 
ATOM     14  H8  LS8 d   1      -8.279  -0.373 -20.821  0.00  0.00     0.066 H 
ATOM     15  H9  LS8 d   1      -7.370  -1.621 -19.904  0.00  0.00     0.066 H 
ATOM     16  H10 LS8 d   1      -7.417   0.073 -19.309  0.00  0.00     0.066 H 
ENDBRANCH  12  13
ENDBRANCH   6  12
BRANCH   5  17
ATOM     17  S   LS8 d   1     -11.774  -1.680 -17.828  0.00  0.00     0.266 S 
ATOM     18  O1  LS8 d   1     -11.641  -1.256 -19.189  0.00  0.00    -0.200 OA
ATOM     19  O2  LS8 d   1     -12.459  -2.901 -17.532  0.00  0.00    -0.200 OA
BRANCH  17  20
ATOM     20  N   LS8 d   1     -12.587  -0.484 -17.075  0.00  0.00    -0.281 N 
ATOM     21  H11 LS8 d   1     -13.481  -0.781 -16.740  0.00  0.00     0.179 HD
BRANCH  20  22
ATOM     22  C7  LS8 d   1     -12.321   0.890 -16.781  0.00  0.00     0.043 A 
ATOM     23  C16 LS8 d   1     -11.169   1.567 -17.182  0.00  0.00    -0.044 A 
ATOM     24  C15 LS8 d   1     -10.903   2.852 -16.686  0.00  0.00    -0.006 A 
ATOM     25  H12 LS8 d   1     -10.480   1.100 -17.877  0.00  0.00     0.088 H 
ATOM     26  C14 LS8 d   1      -9.718   3.591 -17.050  0.00  0.00    -0.060 A 
ATOM     27  C10 LS8 d   1     -11.810   3.441 -15.793  0.00  0.00     0.047 A 
ATOM     28  C13 LS8 d   1      -9.471   4.829 -16.555  0.00  0.00     0.007 A 
ATOM     29  H2  LS8 d   1      -9.004   3.143 -17.740  0.00  0.00     0.086 H 
ATOM     30  C12 LS8 d   1     -10.401   5.421 -15.596  0.00  0.00     0.253 A 
ATOM     31  O3  LS8 d   1     -10.186   6.518 -15.089  0.00  0.00    -0.267 OA
ATOM     32  N1  LS8 d   1     -11.523   4.706 -15.257  0.00  0.00    -0.318 N 
ATOM     33  C9  LS8 d   1     -12.971   2.775 -15.438  0.00  0.00    -0.054 A 
ATOM     34  C8  LS8 d   1     -13.226   1.512 -15.934  0.00  0.00    -0.054 A 
ATOM     35  H13 LS8 d   1     -13.682   3.247 -14.769  0.00  0.00     0.087 H 
ATOM     36  H14 LS8 d   1     -14.142   1.002 -15.659  0.00  0.00     0.087 H 
BRANCH  28  37
ATOM     37  C17 LS8 d   1      -8.308   5.660 -16.979  0.00  0.00    -0.046 C 
ATOM     38  H15 LS8 d   1      -7.696   5.095 -17.697  0.00  0.00     0.033 H 
ATOM     39  H16 LS8 d   1      -7.699   5.915 -16.099  0.00  0.00     0.033 H 
ATOM     40  H17 LS8 d   1      -8.671   6.583 -17.454  0.00  0.00     0.033 H 
ENDBRANCH  28  37
BRANCH  32  41
ATOM     41  C11 LS8 d   1     -12.418   5.286 -14.261  0.00  0.00    -0.011 C 
ATOM     42  H5  LS8 d   1     -12.038   6.273 -13.957  0.00  0.00     0.057 H 
ATOM     43  H6  LS8 d   1     -12.467   4.625 -13.383  0.00  0.00     0.057 H 
ATOM     44  H7  LS8 d   1     -13.424   5.397 -14.692  0.00  0.00     0.057 H 
ENDBRANCH  32  41
ENDBRANCH  20  22
ENDBRANCH  17  20
ENDBRANCH   5  17
TORSDOF 7
