REMARK  19 active torsions:
REMARK  status: ('A' for Active; 'I' for Inactive)
REMARK    1  A    between atoms: CA_2  and  C_7 
REMARK       I    between atoms: C_7  and  N_9 
REMARK    2  A    between atoms: N_9  and  CA_10 
REMARK    3  A    between atoms: CA_10  and  C_11 
REMARK    4  A    between atoms: CA_10  and  CB_13 
REMARK       I    between atoms: C_11  and  N_20 
REMARK    5  A    between atoms: CB_13  and  CG_14 
REMARK    6  A    between atoms: N_20  and  CA_21 
REMARK    7  A    between atoms: CA_21  and  C_22 
REMARK       I    between atoms: C_22  and  N_24 
REMARK    8  A    between atoms: N_24  and  CA_25 
REMARK    9  A    between atoms: CA_25  and  C_26 
REMARK   10  A    between atoms: CA_25  and  CB_28 
REMARK       I    between atoms: C_26  and  N_34 
REMARK   11  A    between atoms: CB_28  and  CG_29 
REMARK   12  A    between atoms: N_34  and  CA_35 
REMARK   13  A    between atoms: CA_35  and  C_36 
REMARK   14  A    between atoms: CA_35  and  CB_38 
REMARK       I    between atoms: C_36  and  N_42 
REMARK   15  A    between atoms: CB_38  and  CG_39 
REMARK   16  A    between atoms: N_42  and  CA_43 
REMARK   17  A    between atoms: CA_43  and  C_44 
REMARK   18  A    between atoms: CA_43  and  CB_46 
REMARK   19  A    between atoms: CB_46  and  OG_47 
ROOT
ATOM      1  C   GLY d   1     -19.922  11.163  -3.432  0.00  0.00     0.236 C 
ATOM      2  O   GLY d   1     -19.880  11.496  -2.249  0.00  0.00    -0.272 OA
ATOM      3  N   HIS d   1     -19.373  11.883  -4.402  0.00  0.00    -0.346 N 
ATOM      4  H19 HIS d   1     -19.379  11.521  -5.334  0.00  0.00     0.163 HD
ENDROOT
BRANCH   1   5
ATOM      5  CA  GLY d   1     -20.616   9.886  -3.880  0.00  0.00     0.069 C 
ATOM      6  H17 GLY d   1     -21.703  10.051  -3.864  0.00  0.00     0.078 H 
ATOM      7  H18 GLY d   1     -20.296   9.652  -4.906  0.00  0.00     0.078 H 
BRANCH   5   8
ATOM      8  N   GLY d   1     -20.304   8.754  -3.025  0.00  0.00    -0.351 N 
ATOM      9  C   PHE d   1     -19.141   8.110  -3.134  0.00  0.00     0.241 C 
ATOM     10  O   PHE d   1     -18.244   8.461  -3.902  0.00  0.00    -0.271 OA
ATOM     11  H16 GLY d   1     -20.971   8.453  -2.344  0.00  0.00     0.163 HD
BRANCH   9  12
ATOM     12  CA  PHE d   1     -18.956   6.906  -2.210  0.00  0.00     0.093 C 
ATOM     13  H8  PHE d   1     -19.922   6.385  -2.142  0.00  0.00     0.088 H 
BRANCH  12  14
ATOM     14  N   PHE d   1     -17.966   5.945  -2.691  0.00  0.00    -0.346 N 
ATOM     15  C   PCA d   1     -18.321   4.858  -3.368  0.00  0.00     0.241 C 
ATOM     16  O   PCA d   1     -19.465   4.674  -3.783  0.00  0.00    -0.271 OA
ATOM     17  H7  PHE d   1     -16.997   6.109  -2.506  0.00  0.00     0.163 HD
BRANCH  15  18
ATOM     18  CA  PCA d   1     -17.232   3.829  -3.645  0.00  0.00     0.089 C 
ATOM     19  N   PCA d   1     -15.921   4.227  -3.142  0.00  0.00    -0.348 N 
ATOM     20  CD  PCA d   1     -15.631   3.267  -2.077  0.00  0.00     0.218 C 
ATOM     21  H1  PCA d   1     -15.349   4.986  -3.455  0.00  0.00     0.163 HD
ATOM     22  CG  PCA d   1     -16.707   2.236  -1.861  0.00  0.00     0.011 C 
ATOM     23  OE  PCA d   1     -14.600   3.275  -1.400  0.00  0.00    -0.274 OA
ATOM     24  CB  PCA d   1     -17.646   2.490  -3.028  0.00  0.00    -0.030 C 
ATOM     25  H5  PCA d   1     -16.294   1.217  -1.898  0.00  0.00     0.047 H 
ATOM     26  H6  PCA d   1     -17.218   2.390  -0.899  0.00  0.00     0.047 H 
ATOM     27  H3  PCA d   1     -17.552   1.685  -3.772  0.00  0.00     0.037 H 
ATOM     28  H4  PCA d   1     -18.686   2.542  -2.673  0.00  0.00     0.037 H 
ATOM     29  H2  PCA d   1     -17.151   3.705  -4.735  0.00  0.00     0.087 H 
ENDBRANCH  15  18
ENDBRANCH  12  14
BRANCH  12  30
ATOM     30  CB  PHE d   1     -18.568   7.389  -0.817  0.00  0.00    -0.014 C 
ATOM     31  H9  PHE d   1     -19.409   7.963  -0.402  0.00  0.00     0.043 H 
ATOM     32  H10 PHE d   1     -17.688   8.043  -0.909  0.00  0.00     0.043 H 
BRANCH  30  33
ATOM     33  CG  PHE d   1     -18.237   6.282   0.133  0.00  0.00    -0.056 A 
ATOM     34  CD1 PHE d   1     -19.248   5.571   0.767  0.00  0.00    -0.077 A 
ATOM     35  CE1 PHE d   1     -18.947   4.534   1.650  0.00  0.00    -0.082 A 
ATOM     36  H11 PHE d   1     -20.284   5.825   0.573  0.00  0.00     0.084 H 
ATOM     37  CZ  PHE d   1     -17.625   4.211   1.911  0.00  0.00    -0.083 A 
ATOM     38  H13 PHE d   1     -19.746   3.982   2.131  0.00  0.00     0.083 H 
ATOM     39  CE2 PHE d   1     -16.606   4.923   1.281  0.00  0.00    -0.082 A 
ATOM     40  H15 PHE d   1     -17.385   3.410   2.601  0.00  0.00     0.083 H 
ATOM     41  CD2 PHE d   1     -16.916   5.948   0.401  0.00  0.00    -0.077 A 
ATOM     42  H14 PHE d   1     -15.570   4.675   1.480  0.00  0.00     0.083 H 
ATOM     43  H12 PHE d   1     -16.117   6.496  -0.085  0.00  0.00     0.084 H 
ENDBRANCH  30  33
ENDBRANCH  12  30
ENDBRANCH   9  12
ENDBRANCH   5   8
ENDBRANCH   1   5
BRANCH   3  44
ATOM     44  CA  HIS d   1     -18.762  13.181  -4.156  0.00  0.00     0.094 C 
ATOM     45  H20 HIS d   1     -18.324  13.181  -3.147  0.00  0.00     0.088 H 
BRANCH  44  46
ATOM     46  C   HIS d   1     -19.814  14.283  -4.238  0.00  0.00     0.241 C 
ATOM     47  O   HIS d   1     -20.785  14.180  -4.989  0.00  0.00    -0.271 OA
ATOM     48  N   ASP d   1     -19.610  15.349  -3.464  0.00  0.00    -0.345 N 
ATOM     49  H26 ASP d   1     -18.786  15.386  -2.899  0.00  0.00     0.163 HD
BRANCH  48  50
ATOM     50  CA  ASP d   1     -20.552  16.464  -3.415  0.00  0.00     0.098 C 
ATOM     51  H27 ASP d   1     -21.528  16.113  -3.782  0.00  0.00     0.088 H 
BRANCH  50  52
ATOM     52  C   ASP d   1     -20.063  17.589  -4.321  0.00  0.00     0.241 C 
ATOM     53  O   ASP d   1     -19.013  18.186  -4.062  0.00  0.00    -0.271 OA
ATOM     54  N   SER d   1     -20.843  17.901  -5.349  0.00  0.00    -0.343 N 
ATOM     55  H30 SER d   1     -21.711  17.418  -5.466  0.00  0.00     0.163 HD
BRANCH  54  56
ATOM     56  CA  SER d   1     -20.467  18.929  -6.312  0.00  0.00     0.116 C 
ATOM     57  H31 SER d   1     -19.374  18.901  -6.435  0.00  0.00     0.093 H 
BRANCH  56  58
ATOM     58  C   SER d   1     -20.856  20.325  -5.831  0.00  0.00     0.198 C 
ATOM     59  O   SER d   1     -21.761  20.482  -5.008  0.00  0.00    -0.646 OA
ATOM     60  OXT SER d   1     -20.274  21.326  -6.255  0.00  0.00    -0.646 OA
ENDBRANCH  56  58
BRANCH  56  61
ATOM     61  CB  SER d   1     -21.115  18.639  -7.663  0.00  0.00     0.045 C 
ATOM     62  H32 SER d   1     -20.735  17.682  -8.050  0.00  0.00     0.077 H 
ATOM     63  H33 SER d   1     -20.863  19.446  -8.367  0.00  0.00     0.077 H 
BRANCH  61  64
ATOM     64  OG  SER d   1     -22.523  18.561  -7.526  0.00  0.00    -0.398 OA
ATOM     65  H34 SER d   1     -22.913  18.380  -8.373  0.00  0.00     0.209 HD
ENDBRANCH  61  64
ENDBRANCH  56  61
ENDBRANCH  54  56
ENDBRANCH  50  52
BRANCH  50  66
ATOM     66  CB  ASP d   1     -20.729  16.979  -1.986  0.00  0.00     0.043 C 
ATOM     67  H28 ASP d   1     -21.420  17.834  -2.003  0.00  0.00     0.052 H 
ATOM     68  H29 ASP d   1     -19.750  17.306  -1.606  0.00  0.00     0.052 H 
BRANCH  66  69
ATOM     69  CG  ASP d   1     -21.285  15.924  -1.051  0.00  0.00     0.175 C 
ATOM     70  OD1 ASP d   1     -21.015  16.017   0.164  0.00  0.00    -0.648 OA
ATOM     71  OD2 ASP d   1     -22.018  15.026  -1.527  0.00  0.00    -0.648 OA
ENDBRANCH  66  69
ENDBRANCH  50  66
ENDBRANCH  48  50
ENDBRANCH  44  46
BRANCH  44  72
ATOM     72  CB  HIS d   1     -17.654  13.447  -5.178  0.00  0.00     0.004 C 
ATOM     73  H21 HIS d   1     -18.123  13.738  -6.129  0.00  0.00     0.046 H 
ATOM     74  H22 HIS d   1     -17.083  12.517  -5.319  0.00  0.00     0.046 H 
BRANCH  72  75
ATOM     75  CG  HIS d   1     -16.703  14.525  -4.775  0.00  0.00     0.053 A 
ATOM     76  ND1 HIS d   1     -15.617  14.289  -3.960  0.00  0.00    -0.247 NA
ATOM     77  CE1 HIS d   1     -14.954  15.417  -3.781  0.00  0.00     0.064 A 
ATOM     78  NE2 HIS d   1     -15.566  16.376  -4.455  0.00  0.00    -0.359 N 
ATOM     79  H24 HIS d   1     -14.054  15.537  -3.179  0.00  0.00     0.143 H 
ATOM     80  CD2 HIS d   1     -16.669  15.845  -5.080  0.00  0.00     0.002 A 
ATOM     81  H25 HIS d   1     -15.265  17.360  -4.504  0.00  0.00     0.166 HD
ATOM     82  H23 HIS d   1     -17.381  16.384  -5.703  0.00  0.00     0.114 H 
ENDBRANCH  72  75
ENDBRANCH  44  72
ENDBRANCH   3  44
TORSDOF 19
