REMARK  4 active torsions:
REMARK  status: ('A' for Active; 'I' for Inactive)
REMARK    1  A    between atoms: C10_1  and  N12_2 
REMARK       I    between atoms: N12_2  and  C13_3 
REMARK    2  A    between atoms: C13_3  and  C14_17 
REMARK    3  A    between atoms: C14_17  and  C15_4 
REMARK    4  A    between atoms: C07_13  and  C05_11 
ROOT
ATOM      1  N12 Q2N d   1      11.840  27.895   3.518  0.00  0.00    -0.305 N 
ATOM      2  C13 Q2N d   1      13.061  27.765   2.722  0.00  0.00     0.227 C 
ATOM      3  O22 Q2N d   1      13.123  27.070   1.761  0.00  0.00    -0.273 OA
ATOM      4  H1  Q2N d   1      11.871  28.463   4.340  0.00  0.00     0.171 HD
ENDROOT
BRANCH   1   5
ATOM      5  C10 Q2N d   1      10.584  27.245   3.182  0.00  0.00     0.173 A 
ATOM      6  S09 Q2N d   1      10.224  26.534   1.655  0.00  0.00    -0.061 SA
ATOM      7  C08 Q2N d   1       8.632  26.046   2.071  0.00  0.00    -0.011 A 
ATOM      8  C07 Q2N d   1       8.473  26.478   3.374  0.00  0.00     0.095 A 
ATOM      9  H8  Q2N d   1       7.911  25.517   1.450  0.00  0.00     0.098 H 
ATOM     10  N11 Q2N d   1       9.500  27.099   3.938  0.00  0.00    -0.222 NA
BRANCH   8  11
ATOM     11  C05 Q2N d   1       7.266  26.216   3.991  0.00  0.00     0.085 A 
ATOM     12  N04 Q2N d   1       6.157  26.289   3.271  0.00  0.00    -0.259 NA
ATOM     13  C03 Q2N d   1       4.961  26.037   3.776  0.00  0.00     0.003 A 
ATOM     14  C02 Q2N d   1       4.840  25.675   5.105  0.00  0.00    -0.066 A 
ATOM     15  H6  Q2N d   1       4.079  26.114   3.151  0.00  0.00     0.114 H 
ATOM     16  C01 Q2N d   1       5.981  25.574   5.890  0.00  0.00    -0.079 A 
ATOM     17  H5  Q2N d   1       3.864  25.472   5.530  0.00  0.00     0.085 H 
ATOM     18  C06 Q2N d   1       7.214  25.850   5.322  0.00  0.00    -0.053 A 
ATOM     19  H4  Q2N d   1       5.908  25.284   6.932  0.00  0.00     0.083 H 
ATOM     20  H7  Q2N d   1       8.121  25.780   5.911  0.00  0.00     0.087 H 
ENDBRANCH   8  11
ENDBRANCH   1   5
BRANCH   2  21
ATOM     21  C14 Q2N d   1      14.292  28.527   3.216  0.00  0.00     0.033 C 
ATOM     22  H9  Q2N d   1      14.915  27.820   3.784  0.00  0.00     0.054 H 
ATOM     23  H10 Q2N d   1      13.942  29.327   3.885  0.00  0.00     0.054 H 
BRANCH  21  24
ATOM     24  C15 Q2N d   1      15.170  29.164   2.161  0.00  0.00    -0.049 A 
ATOM     25  C20 Q2N d   1      16.273  29.851   2.612  0.00  0.00    -0.073 A 
ATOM     26  C19 Q2N d   1      17.117  30.463   1.718  0.00  0.00    -0.045 A 
ATOM     27  H3  Q2N d   1      16.477  29.910   3.675  0.00  0.00     0.084 H 
ATOM     28  C18 Q2N d   1      16.828  30.376   0.375  0.00  0.00     0.116 A 
ATOM     29  H12 Q2N d   1      17.992  31.003   2.062  0.00  0.00     0.088 H 
ATOM     30  C17 Q2N d   1      15.723  29.695  -0.084  0.00  0.00    -0.045 A 
ATOM     31  F21 Q2N d   1      17.641  30.973  -0.521  0.00  0.00    -0.206 F 
ATOM     32  C16 Q2N d   1      14.883  29.085   0.815  0.00  0.00    -0.073 A 
ATOM     33  H2  Q2N d   1      15.518  29.641  -1.147  0.00  0.00     0.088 H 
ATOM     34  H11 Q2N d   1      14.006  28.549   0.471  0.00  0.00     0.084 H 
ENDBRANCH  21  24
ENDBRANCH   2  21
TORSDOF 4
