REMARK  5 active torsions:
REMARK  status: ('A' for Active; 'I' for Inactive)
REMARK    1  A    between atoms: C12_19  and  C13_2 
REMARK    2  A    between atoms: N16_21  and  C17_4 
REMARK    3  A    between atoms: C20_5  and  N21_24 
REMARK    4  A    between atoms: C07_15  and  C04_12 
REMARK    5  A    between atoms: C08_16  and  C07_15 
REMARK       I    between atoms: N11_18  and  C12_19 
ROOT
ATOM      1  C10 HYV d   1      31.772 -12.246  26.326  0.00  0.00    -0.002 C 
ATOM      2  C08 HYV d   1      32.274 -10.362  27.930  0.00  0.00    -0.047 C 
ATOM      3  C09 HYV d   1      31.941 -11.793  27.766  0.00  0.00    -0.046 C 
ATOM      4  N11 HYV d   1      30.472 -11.659  25.881  0.00  0.00    -0.352 N 
ATOM      5  C12 HYV d   1      29.581 -12.265  24.916  0.00  0.00     0.224 C 
ATOM      6  O29 HYV d   1      29.927 -13.267  24.420  0.00  0.00    -0.273 OA
ATOM      7  C30 HYV d   1      30.121 -10.371  26.599  0.00  0.00    -0.002 C 
ATOM      8  C31 HYV d   1      31.212  -9.561  27.310  0.00  0.00    -0.046 C 
ATOM      9  H1  HYV d   1      31.739 -13.344  26.268  0.00  0.00     0.064 H 
ATOM     10  H2  HYV d   1      32.598 -11.870  25.704  0.00  0.00     0.064 H 
ATOM     11  H17 HYV d   1      32.359 -10.113  28.998  0.00  0.00     0.040 H 
ATOM     12  H18 HYV d   1      32.749 -12.386  28.219  0.00  0.00     0.035 H 
ATOM     13  H19 HYV d   1      30.999 -11.989  28.299  0.00  0.00     0.035 H 
ATOM     14  H26 HYV d   1      29.370 -10.628  27.361  0.00  0.00     0.064 H 
ATOM     15  H27 HYV d   1      29.669  -9.704  25.850  0.00  0.00     0.064 H 
ATOM     16  H28 HYV d   1      31.677  -8.892  26.571  0.00  0.00     0.035 H 
ATOM     17  H29 HYV d   1      30.733  -8.961  28.098  0.00  0.00     0.035 H 
ENDROOT
BRANCH   5  18
ATOM     18  C13 HYV d   1      28.261 -11.582  24.502  0.00  0.00     0.026 C 
ATOM     19  C28 HYV d   1      28.047 -11.758  23.076  0.00  0.00    -0.039 C 
ATOM     20  C27 HYV d   1      26.587 -11.691  22.650  0.00  0.00    -0.002 C 
ATOM     21  H8  HYV d   1      28.446 -12.741  22.786  0.00  0.00     0.036 H 
ATOM     22  H9  HYV d   1      28.598 -10.968  22.545  0.00  0.00     0.036 H 
ATOM     23  N16 HYV d   1      25.873 -12.820  23.330  0.00  0.00    -0.358 N 
ATOM     24  H24 HYV d   1      26.508 -11.799  21.558  0.00  0.00     0.064 H 
ATOM     25  H25 HYV d   1      26.149 -10.730  22.956  0.00  0.00     0.064 H 
ATOM     26  C15 HYV d   1      25.813 -12.469  24.792  0.00  0.00    -0.002 C 
ATOM     27  C14 HYV d   1      27.137 -11.928  25.365  0.00  0.00    -0.039 C 
ATOM     28  H4  HYV d   1      25.037 -11.701  24.931  0.00  0.00     0.064 H 
ATOM     29  H5  HYV d   1      25.538 -13.374  25.353  0.00  0.00     0.064 H 
ATOM     30  H20 HYV d   1      26.882 -11.015  25.923  0.00  0.00     0.036 H 
ATOM     31  H21 HYV d   1      27.507 -12.693  26.064  0.00  0.00     0.036 H 
ATOM     32  H3  HYV d   1      28.413 -10.503  24.650  0.00  0.00     0.054 H 
BRANCH  23  33
ATOM     33  C17 HYV d   1      25.495 -14.055  22.673  0.00  0.00     0.193 A 
ATOM     34  N18 HYV d   1      24.634 -15.048  23.028  0.00  0.00    -0.122 NA
ATOM     35  N19 HYV d   1      24.635 -16.148  22.007  0.00  0.00    -0.121 NA
ATOM     36  C20 HYV d   1      25.503 -15.873  20.989  0.00  0.00     0.201 A 
ATOM     37  S26 HYV d   1      26.204 -14.449  21.278  0.00  0.00    -0.010 SA
BRANCH  36  38
ATOM     38  N21 HYV d   1      25.847 -16.620  19.791  0.00  0.00    -0.310 N 
ATOM     39  C22 HYV d   1      26.371 -16.051  18.695  0.00  0.00    -0.013 A 
ATOM     40  C23 HYV d   1      26.597 -17.037  17.756  0.00  0.00    -0.066 A 
ATOM     41  H6  HYV d   1      26.582 -14.990  18.568  0.00  0.00     0.112 H 
ATOM     42  C24 HYV d   1      26.200 -18.213  18.324  0.00  0.00    -0.066 A 
ATOM     43  H22 HYV d   1      27.011 -16.903  16.758  0.00  0.00     0.085 H 
ATOM     44  C25 HYV d   1      25.737 -17.937  19.604  0.00  0.00    -0.013 A 
ATOM     45  H7  HYV d   1      26.239 -19.195  17.856  0.00  0.00     0.085 H 
ATOM     46  H23 HYV d   1      25.355 -18.661  20.322  0.00  0.00     0.112 H 
ENDBRANCH  36  38
ENDBRANCH  23  33
ENDBRANCH   5  18
BRANCH   2  47
ATOM     47  C07 HYV d   1      33.612 -10.079  27.215  0.00  0.00    -0.037 C 
ATOM     48  H15 HYV d   1      34.135 -11.042  27.121  0.00  0.00     0.040 H 
ATOM     49  H16 HYV d   1      33.366  -9.696  26.214  0.00  0.00     0.040 H 
BRANCH  47  50
ATOM     50  C04 HYV d   1      34.614  -9.080  27.847  0.00  0.00    -0.058 A 
ATOM     51  C03 HYV d   1      35.965  -9.389  27.822  0.00  0.00    -0.077 A 
ATOM     52  C02 HYV d   1      36.905  -8.537  28.372  0.00  0.00    -0.082 A 
ATOM     53  H12 HYV d   1      36.291 -10.316  27.363  0.00  0.00     0.084 H 
ATOM     54  C01 HYV d   1      36.524  -7.346  28.933  0.00  0.00    -0.083 A 
ATOM     55  H11 HYV d   1      37.953  -8.814  28.359  0.00  0.00     0.083 H 
ATOM     56  C06 HYV d   1      35.181  -7.015  28.945  0.00  0.00    -0.082 A 
ATOM     57  H10 HYV d   1      37.261  -6.676  29.360  0.00  0.00     0.083 H 
ATOM     58  C05 HYV d   1      34.225  -7.872  28.403  0.00  0.00    -0.077 A 
ATOM     59  H14 HYV d   1      34.867  -6.074  29.383  0.00  0.00     0.083 H 
ATOM     60  H13 HYV d   1      33.177  -7.594  28.416  0.00  0.00     0.084 H 
ENDBRANCH  47  50
ENDBRANCH   2  47
TORSDOF 5
