REMARK  3 active torsions:
REMARK  status: ('A' for Active; 'I' for Inactive)
REMARK    1  A    between atoms: C10_1  and  N12_2 
REMARK    2  A    between atoms: N12_2  and  C13_3 
REMARK    3  A    between atoms: C07_12  and  C05_10 
ROOT
ATOM      1  C10 ZUF d   1     -27.948  12.228  -5.397  0.00  0.00     0.172 A 
ATOM      2  C07 ZUF d   1     -27.491  10.029  -5.238  0.00  0.00     0.095 A 
ATOM      3  C08 ZUF d   1     -27.461  10.060  -6.619  0.00  0.00    -0.011 A 
ATOM      4  S09 ZUF d   1     -27.801  11.701  -7.044  0.00  0.00    -0.061 SA
ATOM      5  N11 ZUF d   1     -27.741  11.172  -4.629  0.00  0.00    -0.222 NA
ATOM      6  H8  ZUF d   1     -27.265   9.229  -7.295  0.00  0.00     0.098 H 
ENDROOT
BRANCH   1   7
ATOM      7  N12 ZUF d   1     -28.235  13.569  -4.926  0.00  0.00    -0.320 N 
ATOM      8  H1  ZUF d   1     -27.974  13.831  -3.965  0.00  0.00     0.169 HD
BRANCH   7   9
ATOM      9  C13 ZUF d   1     -28.880  14.548  -5.777  0.00  0.00     0.129 A 
ATOM     10  C14 ZUF d   1     -29.550  15.603  -5.189  0.00  0.00    -0.037 A 
ATOM     11  C15 ZUF d   1     -30.177  16.556  -5.963  0.00  0.00    -0.057 A 
ATOM     12  H9  ZUF d   1     -29.583  15.682  -4.108  0.00  0.00     0.089 H 
ATOM     13  C16 ZUF d   1     -30.103  16.387  -7.329  0.00  0.00     0.051 A 
ATOM     14  H2  ZUF d   1     -30.701  17.395  -5.520  0.00  0.00     0.086 H 
ATOM     15  C17 ZUF d   1     -29.423  15.320  -7.878  0.00  0.00     0.025 A 
ATOM     16 CL1  ZUF d   1     -30.892  17.555  -8.392  0.00  0.00    -0.083 Cl
ATOM     17  N18 ZUF d   1     -28.833  14.445  -7.093  0.00  0.00    -0.242 NA
ATOM     18  H3  ZUF d   1     -29.375  15.203  -8.955  0.00  0.00     0.117 H 
ENDBRANCH   7   9
ENDBRANCH   1   7
BRANCH   2  19
ATOM     19  C05 ZUF d   1     -27.229   8.850  -4.559  0.00  0.00     0.085 A 
ATOM     20  N04 ZUF d   1     -26.981   8.844  -3.261  0.00  0.00    -0.259 NA
ATOM     21  C03 ZUF d   1     -26.700   7.711  -2.629  0.00  0.00     0.003 A 
ATOM     22  C02 ZUF d   1     -26.646   6.494  -3.297  0.00  0.00    -0.066 A 
ATOM     23  H6  ZUF d   1     -26.507   7.736  -1.562  0.00  0.00     0.114 H 
ATOM     24  C01 ZUF d   1     -26.879   6.463  -4.662  0.00  0.00    -0.079 A 
ATOM     25  H5  ZUF d   1     -26.424   5.581  -2.757  0.00  0.00     0.085 H 
ATOM     26  C06 ZUF d   1     -27.163   7.668  -5.281  0.00  0.00    -0.053 A 
ATOM     27  H4  ZUF d   1     -26.841   5.535  -5.221  0.00  0.00     0.083 H 
ATOM     28  H7  ZUF d   1     -27.337   7.688  -6.351  0.00  0.00     0.087 H 
ENDBRANCH   2  19
TORSDOF 3
