REMARK WARNING: 32 MAX_TORS EXCEEDED!!!
REMARK  40 active torsions:
REMARK  status: ('A' for Active; 'I' for Inactive)
REMARK    1  A    between atoms: CA_2  and  C_7 
REMARK       I    between atoms: C_7  and  N_9 
REMARK    2  A    between atoms: N_9  and  CA_10 
REMARK    3  A    between atoms: CA_10  and  C_11 
REMARK    4  A    between atoms: CA_10  and  CB_13 
REMARK       I    between atoms: C_11  and  N_20 
REMARK    5  A    between atoms: CB_13  and  CG_14 
REMARK    6  A    between atoms: N_20  and  CA_21 
REMARK    7  A    between atoms: CA_21  and  C_22 
REMARK    8  A    between atoms: CA_21  and  CB_24 
REMARK       I    between atoms: C_22  and  N_31 
REMARK    9  A    between atoms: CB_24  and  CG_25 
REMARK   10  A    between atoms: CG_25  and  CD_26 
REMARK   11  A    between atoms: CD_26  and  NE_27 
REMARK       I    between atoms: NE_27  and  CZ_28 
REMARK       I    between atoms: CZ_28  and  NH1_29 
REMARK   12  A    between atoms: N_31  and  CA_32 
REMARK   13  A    between atoms: CA_32  and  C_33 
REMARK   14  A    between atoms: CA_32  and  CB_35 
REMARK       I    between atoms: C_33  and  N_41 
REMARK   15  A    between atoms: CB_35  and  CG_36 
REMARK   16  A    between atoms: N_41  and  CA_42 
REMARK   17  A    between atoms: CA_42  and  C_43 
REMARK   18  A    between atoms: CA_42  and  CB_45 
REMARK       I    between atoms: C_43  and  N_49 
REMARK   19  A    between atoms: CB_45  and  CG_46 
REMARK   20  A    between atoms: N_49  and  CA_50 
REMARK   21  A    between atoms: CA_50  and  C_51 
REMARK   22  A    between atoms: CA_50  and  CB_53 
REMARK       I    between atoms: C_51  and  N_55 
REMARK   23  A    between atoms: CB_53  and  OG_54 
REMARK   24  A    between atoms: N_55  and  CA_56 
REMARK   25  A    between atoms: CA_56  and  C_57 
REMARK       I    between atoms: C_57  and  N_59 
REMARK   26  A    between atoms: N_59  and  CA_60 
REMARK   27  A    between atoms: CA_60  and  C_61 
REMARK   28  A    between atoms: CA_60  and  CB_63 
REMARK       I    between atoms: C_61  and  N_71 
REMARK   29  A    between atoms: CB_63  and  CG_64 
REMARK   30  A    between atoms: CZ_69  and  OH_70 
REMARK   31  A    between atoms: N_71  and  CA_72 
REMARK   32  A    between atoms: CA_72  and  C_73 
REMARK   33  A    between atoms: CA_72  and  CB_75 
REMARK       I    between atoms: C_73  and  N_80 
REMARK   34  A    between atoms: CB_75  and  CG_76 
REMARK   35  A    between atoms: CG_76  and  CD_77 
REMARK   36  A    between atoms: N_80  and  CA_81 
REMARK   37  A    between atoms: CA_81  and  C_82 
REMARK   38  A    between atoms: CA_81  and  CB_84 
REMARK   39  A    between atoms: CB_84  and  CG1_85 
REMARK   40  A    between atoms: CB_84  and  CG2_86 
ROOT
ATOM      1  CA  ASP d   1       1.461 -14.499  10.038  0.00  0.00     0.098 C 
ATOM      2  H37 ASP d   1       2.065 -13.695   9.592  0.00  0.00     0.088 H 
ENDROOT
BRANCH   1   3
ATOM      3  N   ASP d   1       0.179 -14.540   9.316  0.00  0.00    -0.345 N 
ATOM      4  C   HIS d   1      -0.745 -15.499   9.468  0.00  0.00     0.241 C 
ATOM      5  O   HIS d   1      -0.621 -16.442  10.254  0.00  0.00    -0.271 OA
ATOM      6  H36 ASP d   1      -0.016 -13.803   8.669  0.00  0.00     0.163 HD
BRANCH   4   7
ATOM      7  CA  HIS d   1      -1.967 -15.380   8.559  0.00  0.00     0.094 C 
ATOM      8  H30 HIS d   1      -1.664 -14.851   7.643  0.00  0.00     0.088 H 
BRANCH   7   9
ATOM      9  N   HIS d   1      -2.447 -16.703   8.185  0.00  0.00    -0.346 N 
ATOM     10  C   ARG d   1      -1.674 -17.487   7.436  0.00  0.00     0.241 C 
ATOM     11  O   ARG d   1      -0.548 -17.151   7.060  0.00  0.00    -0.271 OA
ATOM     12  H29 HIS d   1      -3.346 -17.019   8.487  0.00  0.00     0.163 HD
BRANCH  10  13
ATOM     13  CA  ARG d   1      -2.237 -18.838   7.024  0.00  0.00     0.089 C 
ATOM     14  H17 ARG d   1      -3.268 -18.927   7.398  0.00  0.00     0.087 H 
BRANCH  13  15
ATOM     15  N   ARG d   1      -2.254 -18.903   5.559  0.00  0.00    -0.346 N 
ATOM     16  C   PHE d   1      -3.061 -19.739   4.900  0.00  0.00     0.241 C 
ATOM     17  O   PHE d   1      -3.818 -20.536   5.467  0.00  0.00    -0.271 OA
ATOM     18  H16 ARG d   1      -1.644 -18.305   5.039  0.00  0.00     0.163 HD
BRANCH  16  19
ATOM     19  CA  PHE d   1      -3.008 -19.688   3.374  0.00  0.00     0.093 C 
ATOM     20  H8  PHE d   1      -3.843 -20.292   2.988  0.00  0.00     0.088 H 
BRANCH  19  21
ATOM     21  N   PHE d   1      -3.157 -18.335   2.848  0.00  0.00    -0.346 N 
ATOM     22  C   PCA d   1      -4.146 -18.034   2.006  0.00  0.00     0.241 C 
ATOM     23  O   PCA d   1      -5.062 -18.823   1.740  0.00  0.00    -0.271 OA
ATOM     24  H7  PHE d   1      -2.509 -17.625   3.123  0.00  0.00     0.163 HD
BRANCH  22  25
ATOM     25  CA  PCA d   1      -4.090 -16.646   1.379  0.00  0.00     0.089 C 
ATOM     26  N   PCA d   1      -2.880 -15.957   1.816  0.00  0.00    -0.348 N 
ATOM     27  CD  PCA d   1      -2.099 -15.795   0.585  0.00  0.00     0.218 C 
ATOM     28  H1  PCA d   1      -2.639 -15.663   2.741  0.00  0.00     0.163 HD
ATOM     29  CG  PCA d   1      -2.755 -16.334  -0.657  0.00  0.00     0.011 C 
ATOM     30  OE  PCA d   1      -0.992 -15.255   0.539  0.00  0.00    -0.274 OA
ATOM     31  CB  PCA d   1      -4.132 -16.740  -0.148  0.00  0.00    -0.030 C 
ATOM     32  H5  PCA d   1      -2.830 -15.560  -1.435  0.00  0.00     0.047 H 
ATOM     33  H6  PCA d   1      -2.206 -17.201  -1.053  0.00  0.00     0.047 H 
ATOM     34  H3  PCA d   1      -4.898 -16.059  -0.547  0.00  0.00     0.037 H 
ATOM     35  H4  PCA d   1      -4.360 -17.771  -0.457  0.00  0.00     0.037 H 
ATOM     36  H2  PCA d   1      -4.965 -16.071   1.718  0.00  0.00     0.087 H 
ENDBRANCH  22  25
ENDBRANCH  19  21
BRANCH  19  37
ATOM     37  CB  PHE d   1      -1.694 -20.307   2.876  0.00  0.00    -0.014 C 
ATOM     38  H9  PHE d   1      -1.708 -21.384   3.099  0.00  0.00     0.043 H 
ATOM     39  H10 PHE d   1      -0.859 -19.832   3.412  0.00  0.00     0.043 H 
BRANCH  37  40
ATOM     40  CG  PHE d   1      -1.475 -20.128   1.394  0.00  0.00    -0.056 A 
ATOM     41  CD1 PHE d   1      -2.254 -20.820   0.483  0.00  0.00    -0.077 A 
ATOM     42  CE1 PHE d   1      -2.080 -20.642  -0.882  0.00  0.00    -0.082 A 
ATOM     43  H11 PHE d   1      -3.010 -21.510   0.841  0.00  0.00     0.084 H 
ATOM     44  CZ  PHE d   1      -1.114 -19.769  -1.345  0.00  0.00    -0.083 A 
ATOM     45  H13 PHE d   1      -2.701 -21.187  -1.584  0.00  0.00     0.083 H 
ATOM     46  CE2 PHE d   1      -0.337 -19.063  -0.448  0.00  0.00    -0.082 A 
ATOM     47  H15 PHE d   1      -0.966 -19.639  -2.411  0.00  0.00     0.083 H 
ATOM     48  CD2 PHE d   1      -0.520 -19.239   0.916  0.00  0.00    -0.077 A 
ATOM     49  H14 PHE d   1       0.416 -18.372  -0.809  0.00  0.00     0.083 H 
ATOM     50  H12 PHE d   1       0.088 -18.677   1.616  0.00  0.00     0.084 H 
ENDBRANCH  37  40
ENDBRANCH  19  37
ENDBRANCH  16  19
ENDBRANCH  13  15
BRANCH  13  51
ATOM     51  CB  ARG d   1      -1.404 -19.975   7.621  0.00  0.00    -0.036 C 
ATOM     52  H18 ARG d   1      -0.403 -19.951   7.166  0.00  0.00     0.036 H 
ATOM     53  H19 ARG d   1      -1.893 -20.930   7.380  0.00  0.00     0.036 H 
BRANCH  51  54
ATOM     54  CG  ARG d   1      -1.250 -19.876   9.146  0.00  0.00    -0.048 C 
ATOM     55  H20 ARG d   1      -2.002 -20.524   9.620  0.00  0.00     0.035 H 
ATOM     56  H21 ARG d   1      -1.421 -18.833   9.451  0.00  0.00     0.035 H 
BRANCH  54  57
ATOM     57  CD  ARG d   1       0.137 -20.305   9.621  0.00  0.00     0.009 C 
ATOM     58  H22 ARG d   1       0.224 -20.093  10.697  0.00  0.00     0.064 H 
ATOM     59  H23 ARG d   1       0.894 -19.726   9.071  0.00  0.00     0.064 H 
BRANCH  57  60
ATOM     60  NE  ARG d   1       0.383 -21.728   9.401  0.00  0.00    -0.227 N 
ATOM     61  CZ  ARG d   1       1.358 -22.421   9.977  0.00  0.00     0.665 C 
ATOM     62  NH1 ARG d   1       2.195 -21.827  10.817  0.00  0.00    -0.235 N 
ATOM     63  NH2 ARG d   1       1.496 -23.714   9.711  0.00  0.00    -0.235 N 
ATOM     64  H25 ARG d   1       2.950 -22.369  11.261  0.00  0.00     0.174 HD
ATOM     65  H26 ARG d   1       2.090 -20.824  11.025  0.00  0.00     0.174 HD
ATOM     66  H27 ARG d   1       0.847 -24.178   9.059  0.00  0.00     0.174 HD
ATOM     67  H28 ARG d   1       2.252 -24.254  10.157  0.00  0.00     0.174 HD
ATOM     68  H24 ARG d   1      -0.243 -22.228   8.754  0.00  0.00     0.177 HD
ENDBRANCH  57  60
ENDBRANCH  54  57
ENDBRANCH  51  54
ENDBRANCH  13  51
ENDBRANCH  10  13
ENDBRANCH   7   9
BRANCH   7  69
ATOM     69  CB  HIS d   1      -3.079 -14.568   9.232  0.00  0.00     0.004 C 
ATOM     70  H31 HIS d   1      -3.993 -14.670   8.629  0.00  0.00     0.046 H 
ATOM     71  H32 HIS d   1      -2.770 -13.513   9.254  0.00  0.00     0.046 H 
BRANCH  69  72
ATOM     72  CG  HIS d   1      -3.392 -14.994  10.633  0.00  0.00     0.053 A 
ATOM     73  ND1 HIS d   1      -4.316 -15.977  10.922  0.00  0.00    -0.247 NA
ATOM     74  CE1 HIS d   1      -4.397 -16.131  12.232  0.00  0.00     0.064 A 
ATOM     75  NE2 HIS d   1      -3.558 -15.285  12.803  0.00  0.00    -0.359 N 
ATOM     76  H34 HIS d   1      -5.045 -16.835  12.752  0.00  0.00     0.143 H 
ATOM     77  CD2 HIS d   1      -2.924 -14.555  11.826  0.00  0.00     0.002 A 
ATOM     78  H35 HIS d   1      -3.404 -15.188  13.817  0.00  0.00     0.166 HD
ATOM     79  H33 HIS d   1      -2.184 -13.771  11.982  0.00  0.00     0.114 H 
ENDBRANCH  69  72
ENDBRANCH   7  69
ENDBRANCH   4   7
ENDBRANCH   1   3
BRANCH   1  80
ATOM     80  C   ASP d   1       2.238 -15.804   9.876  0.00  0.00     0.241 C 
ATOM     81  O   ASP d   1       2.757 -16.379  10.838  0.00  0.00    -0.271 OA
ATOM     82  N   SER d   1       2.334 -16.263   8.631  0.00  0.00    -0.344 N 
ATOM     83  H40 SER d   1       1.924 -15.743   7.881  0.00  0.00     0.163 HD
BRANCH  82  84
ATOM     84  CA  SER d   1       3.028 -17.513   8.343  0.00  0.00     0.109 C 
ATOM     85  H41 SER d   1       2.719 -18.250   9.099  0.00  0.00     0.090 H 
BRANCH  84  86
ATOM     86  C   SER d   1       4.549 -17.389   8.408  0.00  0.00     0.242 C 
ATOM     87  O   SER d   1       5.227 -18.411   8.546  0.00  0.00    -0.271 OA
ATOM     88  N   GLY d   1       5.101 -16.178   8.307  0.00  0.00    -0.350 N 
ATOM     89  H45 GLY d   1       4.511 -15.382   8.170  0.00  0.00     0.163 HD
BRANCH  88  90
ATOM     90  CA  GLY d   1       6.543 -15.990   8.392  0.00  0.00     0.069 C 
ATOM     91  H46 GLY d   1       6.815 -15.102   7.803  0.00  0.00     0.078 H 
ATOM     92  H47 GLY d   1       7.036 -16.877   7.967  0.00  0.00     0.078 H 
BRANCH  90  93
ATOM     93  C   GLY d   1       7.041 -15.796   9.814  0.00  0.00     0.236 C 
ATOM     94  O   GLY d   1       8.008 -15.067  10.060  0.00  0.00    -0.272 OA
ATOM     95  N   TYR d   1       6.371 -16.474  10.747  0.00  0.00    -0.346 N 
ATOM     96  H48 TYR d   1       5.642 -17.088  10.445  0.00  0.00     0.163 HD
BRANCH  95  97
ATOM     97  CA  TYR d   1       6.632 -16.378  12.180  0.00  0.00     0.093 C 
ATOM     98  H49 TYR d   1       6.322 -15.383  12.533  0.00  0.00     0.088 H 
BRANCH  97  99
ATOM     99  C   TYR d   1       8.116 -16.561  12.502  0.00  0.00     0.241 C 
ATOM    100  O   TYR d   1       8.832 -17.316  11.838  0.00  0.00    -0.271 OA
ATOM    101  N   GLU d   1       8.581 -15.865  13.540  0.00  0.00    -0.346 N 
ATOM    102  H57 GLU d   1       7.962 -15.246  14.024  0.00  0.00     0.163 HD
BRANCH 101 103
ATOM    103  CA  GLU d   1       9.963 -15.977  13.993  0.00  0.00     0.090 C 
ATOM    104  H58 GLU d   1      10.565 -16.377  13.164  0.00  0.00     0.087 H 
BRANCH 103 105
ATOM    105  C   GLU d   1      10.069 -16.943  15.174  0.00  0.00     0.241 C 
ATOM    106  O   GLU d   1       9.072 -17.441  15.702  0.00  0.00    -0.271 OA
ATOM    107  N   VAL d   1      11.307 -17.210  15.585  0.00  0.00    -0.344 N 
ATOM    108  H63 VAL d   1      12.080 -16.789  15.111  0.00  0.00     0.163 HD
BRANCH 107 109
ATOM    109  CA  VAL d   1      11.562 -18.103  16.711  0.00  0.00     0.099 C 
ATOM    110  H64 VAL d   1      10.604 -18.320  17.206  0.00  0.00     0.090 H 
BRANCH 109 111
ATOM    111  C   VAL d   1      12.475 -17.399  17.703  0.00  0.00     0.197 C 
ATOM    112  O   VAL d   1      12.337 -16.198  17.928  0.00  0.00    -0.646 OA
ATOM    113  OXT VAL d   1      13.357 -18.026  18.287  0.00  0.00    -0.646 OA
ENDBRANCH 109 111
BRANCH 109 114
ATOM    114  CB  VAL d   1      12.180 -19.438  16.260  0.00  0.00    -0.032 C 
ATOM    115  H65 VAL d   1      12.413 -20.032  17.156  0.00  0.00     0.042 H 
BRANCH 114 116
ATOM    116  CG1 VAL d   1      11.189 -20.237  15.405  0.00  0.00    -0.071 C 
ATOM    117  H66 VAL d   1      11.653 -21.185  15.095  0.00  0.00     0.028 H 
ATOM    118  H67 VAL d   1      10.920 -19.652  14.513  0.00  0.00     0.028 H 
ATOM    119  H68 VAL d   1      10.283 -20.447  15.993  0.00  0.00     0.028 H 
ENDBRANCH 114 116
BRANCH 114 120
ATOM    120  CG2 VAL d   1      13.475 -19.182  15.510  0.00  0.00    -0.071 C 
ATOM    121  H69 VAL d   1      14.162 -18.608  16.150  0.00  0.00     0.028 H 
ATOM    122  H70 VAL d   1      13.262 -18.610  14.595  0.00  0.00     0.028 H 
ATOM    123  H71 VAL d   1      13.940 -20.142  15.242  0.00  0.00     0.028 H 
ENDBRANCH 114 120
ENDBRANCH 109 114
ENDBRANCH 107 109
ENDBRANCH 103 105
BRANCH 103 124
ATOM    124  CB  GLU d   1      10.525 -14.604  14.376  0.00  0.00    -0.029 C 
ATOM    125  H59 GLU d   1      10.248 -13.886  13.590  0.00  0.00     0.037 H 
ATOM    126  H60 GLU d   1      11.621 -14.683  14.430  0.00  0.00     0.037 H 
BRANCH 124 127
ATOM    127  CG  GLU d   1      10.017 -14.070  15.712  0.00  0.00     0.018 C 
ATOM    128  H61 GLU d   1      10.756 -14.309  16.491  0.00  0.00     0.049 H 
ATOM    129  H62 GLU d   1       9.062 -14.563  15.948  0.00  0.00     0.049 H 
BRANCH 127 130
ATOM    130  CD  GLU d   1       9.797 -12.569  15.697  0.00  0.00     0.172 C 
ATOM    131  OE1 GLU d   1      10.160 -11.895  16.689  0.00  0.00    -0.648 OA
ATOM    132  OE2 GLU d   1       9.253 -12.065  14.692  0.00  0.00    -0.648 OA
ENDBRANCH 127 130
ENDBRANCH 124 127
ENDBRANCH 103 124
ENDBRANCH 101 103
ENDBRANCH  97  99
BRANCH  97 133
ATOM    133  CB  TYR d   1       5.788 -17.447  12.885  0.00  0.00    -0.014 C 
ATOM    134  H50 TYR d   1       6.305 -18.410  12.764  0.00  0.00     0.043 H 
ATOM    135  H51 TYR d   1       4.813 -17.488  12.377  0.00  0.00     0.043 H 
BRANCH 133 136
ATOM    136  CG  TYR d   1       5.525 -17.254  14.359  0.00  0.00    -0.056 A 
ATOM    137  CD1 TYR d   1       4.530 -16.391  14.806  0.00  0.00    -0.074 A 
ATOM    138  CE1 TYR d   1       4.278 -16.236  16.158  0.00  0.00    -0.051 A 
ATOM    139  H52 TYR d   1       3.944 -15.832  14.085  0.00  0.00     0.084 H 
ATOM    140  CZ  TYR d   1       5.012 -16.961  17.074  0.00  0.00     0.065 A 
ATOM    141  H54 TYR d   1       3.509 -15.550  16.495  0.00  0.00     0.087 H 
ATOM    142  CE2 TYR d   1       5.990 -17.834  16.653  0.00  0.00    -0.051 A 
ATOM    143  CD2 TYR d   1       6.231 -17.986  15.303  0.00  0.00    -0.074 A 
ATOM    144  H55 TYR d   1       6.567 -18.398  17.377  0.00  0.00     0.087 H 
ATOM    145  H53 TYR d   1       6.986 -18.691  14.974  0.00  0.00     0.084 H 
BRANCH 140 146
ATOM    146  OH  TYR d   1       4.769 -16.813  18.415  0.00  0.00    -0.361 OA
ATOM    147  H56 TYR d   1       4.071 -16.181  18.541  0.00  0.00     0.217 HD
ENDBRANCH 140 146
ENDBRANCH 133 136
ENDBRANCH  97 133
ENDBRANCH  95  97
ENDBRANCH  90  93
ENDBRANCH  88  90
ENDBRANCH  84  86
BRANCH  84 148
ATOM    148  CB  SER d   1       2.612 -18.028   6.966  0.00  0.00     0.044 C 
ATOM    149  H42 SER d   1       1.539 -18.270   6.979  0.00  0.00     0.077 H 
ATOM    150  H43 SER d   1       3.189 -18.934   6.729  0.00  0.00     0.077 H 
BRANCH 148 151
ATOM    151  OG  SER d   1       2.857 -17.044   5.973  0.00  0.00    -0.398 OA
ATOM    152  H44 SER d   1       2.593 -17.380   5.124  0.00  0.00     0.209 HD
ENDBRANCH 148 151
ENDBRANCH  84 148
ENDBRANCH  82  84
ENDBRANCH   1  80
BRANCH   1 153
ATOM    153  CB  ASP d   1       1.263 -14.162  11.520  0.00  0.00     0.043 C 
ATOM    154  H38 ASP d   1       0.835 -15.039  12.027  0.00  0.00     0.052 H 
ATOM    155  H39 ASP d   1       0.565 -13.316  11.599  0.00  0.00     0.052 H 
BRANCH 153 156
ATOM    156  CG  ASP d   1       2.573 -13.784  12.217  0.00  0.00     0.175 C 
ATOM    157  OD1 ASP d   1       3.460 -13.190  11.560  0.00  0.00    -0.648 OA
ATOM    158  OD2 ASP d   1       2.721 -14.091  13.421  0.00  0.00    -0.648 OA
ENDBRANCH 153 156
ENDBRANCH   1 153
TORSDOF 40
