REMARK  3 active torsions:
REMARK  status: ('A' for Active; 'I' for Inactive)
REMARK    1  A    between atoms: C10_1  and  N12_2 
REMARK    2  A    between atoms: N12_2  and  C13_3 
REMARK    3  A    between atoms: C07_13  and  C05_11 
ROOT
ATOM      1  C10 UDY d   1     -14.211 -28.396   2.644  0.00  0.00     0.173 A 
ATOM      2  C07 UDY d   1     -15.781 -29.660   1.733  0.00  0.00     0.095 A 
ATOM      3  C08 UDY d   1     -15.991 -30.196   2.976  0.00  0.00    -0.011 A 
ATOM      4  S09 UDY d   1     -14.863 -29.342   3.927  0.00  0.00    -0.061 SA
ATOM      5  N11 UDY d   1     -14.874 -28.725   1.556  0.00  0.00    -0.222 NA
ATOM      6  H7  UDY d   1     -16.697 -30.968   3.279  0.00  0.00     0.098 H 
ENDROOT
BRANCH   1   7
ATOM      7  N12 UDY d   1     -13.205 -27.360   2.732  0.00  0.00    -0.314 N 
ATOM      8  H1  UDY d   1     -13.610 -26.429   2.560  0.00  0.00     0.170 HD
BRANCH   7   9
ATOM      9  C13 UDY d   1     -11.777 -27.275   2.997  0.00  0.00     0.173 A 
ATOM     10  N14 UDY d   1     -11.084 -27.240   4.128  0.00  0.00    -0.223 NA
ATOM     11  C15 UDY d   1      -9.731 -27.068   4.025  0.00  0.00     0.077 A 
ATOM     12  C20 UDY d   1      -9.232 -26.918   2.762  0.00  0.00     0.040 A 
ATOM     13  C16 UDY d   1      -8.826 -27.022   5.116  0.00  0.00    -0.051 A 
ATOM     14  C19 UDY d   1      -7.861 -26.732   2.554  0.00  0.00    -0.027 A 
ATOM     15  S21 UDY d   1     -10.633 -27.028   1.730  0.00  0.00    -0.050 SA
ATOM     16  C18 UDY d   1      -6.968 -26.697   3.627  0.00  0.00     0.117 A 
ATOM     17  H9  UDY d   1      -7.486 -26.613   1.544  0.00  0.00     0.090 H 
ATOM     18  C17 UDY d   1      -7.470 -26.840   4.918  0.00  0.00    -0.043 A 
ATOM     19  F22 UDY d   1      -5.628 -26.517   3.403  0.00  0.00    -0.206 F 
ATOM     20  H2  UDY d   1      -6.798 -26.809   5.768  0.00  0.00     0.088 H 
ATOM     21  H8  UDY d   1      -9.205 -27.132   6.125  0.00  0.00     0.087 H 
ENDBRANCH   7   9
ENDBRANCH   1   7
BRANCH   2  22
ATOM     22  C05 UDY d   1     -16.542 -30.155   0.744  0.00  0.00     0.085 A 
ATOM     23  N04 UDY d   1     -16.022 -30.356  -0.437  0.00  0.00    -0.259 NA
ATOM     24  C03 UDY d   1     -16.768 -30.866  -1.379  0.00  0.00     0.003 A 
ATOM     25  C02 UDY d   1     -18.075 -31.156  -1.112  0.00  0.00    -0.066 A 
ATOM     26  H5  UDY d   1     -16.354 -31.057  -2.362  0.00  0.00     0.114 H 
ATOM     27  C01 UDY d   1     -18.652 -30.983   0.126  0.00  0.00    -0.079 A 
ATOM     28  H4  UDY d   1     -18.690 -31.543  -1.916  0.00  0.00     0.085 H 
ATOM     29  C06 UDY d   1     -17.837 -30.456   1.084  0.00  0.00    -0.053 A 
ATOM     30  H3  UDY d   1     -19.684 -31.248   0.326  0.00  0.00     0.083 H 
ATOM     31  H6  UDY d   1     -18.203 -30.279   2.089  0.00  0.00     0.087 H 
ENDBRANCH   2  22
TORSDOF 3
