REMARK  5 active torsions:
REMARK  status: ('A' for Active; 'I' for Inactive)
REMARK    1  A    between atoms: C10_1  and  C09_13 
REMARK       I    between atoms: N11_14  and  C10_1 
REMARK    2  A    between atoms: C14_17  and  C15_2 
REMARK    3  A    between atoms: O08_12  and  C03_7 
REMARK    4  A    between atoms: C09_13  and  O08_12 
REMARK    5  A    between atoms: C12_15  and  N11_14 
ROOT
ATOM      1  C10 YP6 d   1     -28.037 -13.298  -1.496  0.00  0.00     0.247 C 
ATOM      2  N11 YP6 d   1     -27.401 -11.990  -1.637  0.00  0.00    -0.304 N 
ATOM      3  O23 YP6 d   1     -27.845 -13.892  -0.493  0.00  0.00    -0.271 OA
ATOM      4  H9  YP6 d   1     -26.843 -11.709  -0.857  0.00  0.00     0.171 HD
ENDROOT
BRANCH   2   5
ATOM      5  C12 YP6 d   1     -27.450 -11.029  -2.733  0.00  0.00     0.173 A 
ATOM      6  N13 YP6 d   1     -27.081  -9.761  -2.627  0.00  0.00    -0.222 NA
ATOM      7  C14 YP6 d   1     -27.166  -8.988  -3.698  0.00  0.00     0.095 A 
ATOM      8  C21 YP6 d   1     -27.645  -9.594  -4.843  0.00  0.00    -0.011 A 
ATOM      9  S22 YP6 d   1     -27.954 -11.226  -4.377  0.00  0.00    -0.061 SA
ATOM     10  H2  YP6 d   1     -27.794  -9.142  -5.822  0.00  0.00     0.098 H 
BRANCH   7  11
ATOM     11  C15 YP6 d   1     -26.809  -7.647  -3.688  0.00  0.00     0.085 A 
ATOM     12  C16 YP6 d   1     -26.739  -6.967  -4.890  0.00  0.00    -0.053 A 
ATOM     13  C17 YP6 d   1     -26.391  -5.624  -4.889  0.00  0.00    -0.079 A 
ATOM     14  H10 YP6 d   1     -26.953  -7.477  -5.822  0.00  0.00     0.087 H 
ATOM     15  C18 YP6 d   1     -26.116  -5.013  -3.679  0.00  0.00    -0.066 A 
ATOM     16  H1  YP6 d   1     -26.336  -5.066  -5.816  0.00  0.00     0.083 H 
ATOM     17  C19 YP6 d   1     -26.200  -5.757  -2.517  0.00  0.00     0.003 A 
ATOM     18  H11 YP6 d   1     -25.839  -3.966  -3.642  0.00  0.00     0.085 H 
ATOM     19  N20 YP6 d   1     -26.539  -7.038  -2.549  0.00  0.00    -0.259 NA
ATOM     20  H12 YP6 d   1     -25.985  -5.285  -1.565  0.00  0.00     0.114 H 
ENDBRANCH   7  11
ENDBRANCH   2   5
BRANCH   1  21
ATOM     21  C09 YP6 d   1     -28.925 -13.979  -2.529  0.00  0.00     0.100 C 
ATOM     22  H7  YP6 d   1     -28.685 -13.614  -3.539  0.00  0.00     0.089 H 
ATOM     23  H8  YP6 d   1     -29.985 -13.783  -2.310  0.00  0.00     0.089 H 
BRANCH  21  24
ATOM     24  O08 YP6 d   1     -28.654 -15.348  -2.430  0.00  0.00    -0.342 OA
BRANCH  24  25
ATOM     25  C03 YP6 d   1     -29.633 -16.138  -1.819  0.00  0.00     0.072 A 
ATOM     26  C02 YP6 d   1     -30.590 -16.712  -2.623  0.00  0.00    -0.051 A 
ATOM     27  C01 YP6 d   1     -31.569 -17.502  -2.064  0.00  0.00    -0.077 A 
ATOM     28  H4  YP6 d   1     -30.573 -16.543  -3.694  0.00  0.00     0.087 H 
ATOM     29  C06 YP6 d   1     -31.601 -17.734  -0.704  0.00  0.00    -0.045 A 
ATOM     30  H3  YP6 d   1     -32.325 -17.948  -2.700  0.00  0.00     0.083 H 
ATOM     31  C05 YP6 d   1     -30.643 -17.163   0.104  0.00  0.00     0.119 A 
ATOM     32  H6  YP6 d   1     -32.374 -18.361  -0.275  0.00  0.00     0.088 H 
ATOM     33  C04 YP6 d   1     -29.654 -16.365  -0.450  0.00  0.00    -0.014 A 
ATOM     34  F07 YP6 d   1     -30.694 -17.403   1.444  0.00  0.00    -0.206 F 
ATOM     35  H5  YP6 d   1     -28.898 -15.919   0.185  0.00  0.00     0.092 H 
ENDBRANCH  24  25
ENDBRANCH  21  24
ENDBRANCH   1  21
TORSDOF 5
