REMARK WARNING: 32 MAX_TORS EXCEEDED!!!
REMARK  48 active torsions:
REMARK  status: ('A' for Active; 'I' for Inactive)
REMARK    1  A    between atoms: CA_2  and  C_7 
REMARK       I    between atoms: C_7  and  N_9 
REMARK    2  A    between atoms: N_9  and  CA_10 
REMARK    3  A    between atoms: CA_10  and  C_11 
REMARK    4  A    between atoms: CA_10  and  CB_13 
REMARK       I    between atoms: C_11  and  N_20 
REMARK    5  A    between atoms: CB_13  and  CG_14 
REMARK    6  A    between atoms: N_20  and  CA_21 
REMARK    7  A    between atoms: CA_21  and  C_22 
REMARK    8  A    between atoms: CA_21  and  CB_24 
REMARK       I    between atoms: C_22  and  N_31 
REMARK    9  A    between atoms: CB_24  and  CG_25 
REMARK   10  A    between atoms: CG_25  and  CD_26 
REMARK   11  A    between atoms: CD_26  and  NE_27 
REMARK       I    between atoms: NE_27  and  CZ_28 
REMARK       I    between atoms: CZ_28  and  NH1_29 
REMARK   12  A    between atoms: N_31  and  CA_32 
REMARK   13  A    between atoms: CA_32  and  C_33 
REMARK   14  A    between atoms: CA_32  and  CB_35 
REMARK       I    between atoms: C_33  and  N_41 
REMARK   15  A    between atoms: CB_35  and  CG_36 
REMARK   16  A    between atoms: N_41  and  CA_42 
REMARK   17  A    between atoms: CA_42  and  C_43 
REMARK   18  A    between atoms: CA_42  and  CB_45 
REMARK       I    between atoms: C_43  and  N_49 
REMARK   19  A    between atoms: CB_45  and  CG_46 
REMARK   20  A    between atoms: N_49  and  CA_50 
REMARK   21  A    between atoms: CA_50  and  C_51 
REMARK   22  A    between atoms: CA_50  and  CB_53 
REMARK       I    between atoms: C_51  and  N_55 
REMARK   23  A    between atoms: CB_53  and  OG_54 
REMARK   24  A    between atoms: N_55  and  CA_56 
REMARK   25  A    between atoms: CA_56  and  C_57 
REMARK       I    between atoms: C_57  and  N_59 
REMARK   26  A    between atoms: N_59  and  CA_60 
REMARK   27  A    between atoms: CA_60  and  C_61 
REMARK   28  A    between atoms: CA_60  and  CB_63 
REMARK       I    between atoms: C_61  and  N_71 
REMARK   29  A    between atoms: CB_63  and  CG_64 
REMARK   30  A    between atoms: CZ_69  and  OH_70 
REMARK   31  A    between atoms: N_71  and  CA_72 
REMARK   32  A    between atoms: CA_72  and  C_73 
REMARK   33  A    between atoms: CA_72  and  CB_75 
REMARK       I    between atoms: C_73  and  N_80 
REMARK   34  A    between atoms: CB_75  and  CG_76 
REMARK   35  A    between atoms: CG_76  and  CD_77 
REMARK   36  A    between atoms: N_80  and  CA_81 
REMARK   37  A    between atoms: CA_81  and  C_82 
REMARK   38  A    between atoms: CA_81  and  CB_84 
REMARK       I    between atoms: C_82  and  N_87 
REMARK   39  A    between atoms: CB_84  and  CG1_85 
REMARK   40  A    between atoms: CB_84  and  CG2_86 
REMARK   41  A    between atoms: N_87  and  CA_88 
REMARK   42  A    between atoms: CA_88  and  C_89 
REMARK   43  A    between atoms: CA_88  and  CB_91 
REMARK       I    between atoms: C_89  and  N_97 
REMARK   44  A    between atoms: CB_91  and  CG_92 
REMARK   45  A    between atoms: N_97  and  CA_98 
REMARK   46  A    between atoms: CA_98  and  C_99 
REMARK   47  A    between atoms: CA_98  and  CB_101 
REMARK   48  A    between atoms: CB_101  and  CG_102 
ROOT
ATOM      1  CA  SER d   1       7.434   8.735  29.813  0.00  0.00     0.109 C 
ATOM      2  H41 SER d   1       8.214   7.991  29.596  0.00  0.00     0.090 H 
ENDROOT
BRANCH   1   3
ATOM      3  N   SER d   1       6.421   8.631  28.771  0.00  0.00    -0.344 N 
ATOM      4  C   ASP d   1       6.209   7.509  28.087  0.00  0.00     0.241 C 
ATOM      5  O   ASP d   1       6.772   6.454  28.376  0.00  0.00    -0.271 OA
ATOM      6  H40 SER d   1       5.863   9.434  28.561  0.00  0.00     0.163 HD
BRANCH   4   7
ATOM      7  CA  ASP d   1       5.213   7.564  26.929  0.00  0.00     0.098 C 
ATOM      8  H37 ASP d   1       4.208   7.422  27.353  0.00  0.00     0.088 H 
BRANCH   7   9
ATOM      9  N   ASP d   1       5.219   8.852  26.239  0.00  0.00    -0.345 N 
ATOM     10  C   HIS d   1       4.221   9.724  26.379  0.00  0.00     0.241 C 
ATOM     11  O   HIS d   1       3.299   9.537  27.179  0.00  0.00    -0.271 OA
ATOM     12  H36 ASP d   1       5.991   9.085  25.647  0.00  0.00     0.163 HD
BRANCH  10  13
ATOM     13  CA  HIS d   1       4.231  10.987  25.524  0.00  0.00     0.094 C 
ATOM     14  H30 HIS d   1       3.769  11.788  26.120  0.00  0.00     0.088 H 
BRANCH  13  15
ATOM     15  N   HIS d   1       5.579  11.426  25.177  0.00  0.00    -0.346 N 
ATOM     16  C   ARG d   1       6.404  11.842  26.135  0.00  0.00     0.241 C 
ATOM     17  O   ARG d   1       6.226  11.606  27.335  0.00  0.00    -0.271 OA
ATOM     18  H29 HIS d   1       5.881  11.414  24.224  0.00  0.00     0.163 HD
BRANCH  16  19
ATOM     19  CA  ARG d   1       7.661  12.578  25.686  0.00  0.00     0.089 C 
ATOM     20  H17 ARG d   1       7.961  12.263  24.676  0.00  0.00     0.087 H 
BRANCH  19  21
ATOM     21  N   ARG d   1       7.332  14.013  25.697  0.00  0.00    -0.346 N 
ATOM     22  C   PHE d   1       7.683  14.880  24.738  0.00  0.00     0.241 C 
ATOM     23  O   PHE d   1       8.301  14.546  23.710  0.00  0.00    -0.271 OA
ATOM     24  H16 ARG d   1       6.810  14.365  26.474  0.00  0.00     0.163 HD
BRANCH  22  25
ATOM     25  CA  PHE d   1       7.307  16.341  24.971  0.00  0.00     0.093 C 
ATOM     26  H8  PHE d   1       7.505  16.889  24.038  0.00  0.00     0.088 H 
BRANCH  25  27
ATOM     27  N   PHE d   1       5.895  16.552  25.317  0.00  0.00    -0.346 N 
ATOM     28  C   PCA d   1       5.080  17.284  24.544  0.00  0.00     0.241 C 
ATOM     29  O   PCA d   1       5.410  17.714  23.435  0.00  0.00    -0.271 OA
ATOM     30  H7  PHE d   1       5.532  16.138  26.152  0.00  0.00     0.163 HD
BRANCH  28  31
ATOM     31  CA  PCA d   1       3.672  17.582  25.065  0.00  0.00     0.089 C 
ATOM     32  N   PCA d   1       3.419  16.831  26.281  0.00  0.00    -0.348 N 
ATOM     33  CD  PCA d   1       3.293  17.846  27.310  0.00  0.00     0.218 C 
ATOM     34  H1  PCA d   1       3.348  15.839  26.386  0.00  0.00     0.163 HD
ATOM     35  CG  PCA d   1       3.388  19.267  26.818  0.00  0.00     0.011 C 
ATOM     36  OE  PCA d   1       3.079  17.573  28.488  0.00  0.00    -0.274 OA
ATOM     37  CB  PCA d   1       3.531  19.083  25.318  0.00  0.00    -0.030 C 
ATOM     38  H5  PCA d   1       2.479  19.835  27.064  0.00  0.00     0.047 H 
ATOM     39  H6  PCA d   1       4.266  19.777  27.242  0.00  0.00     0.047 H 
ATOM     40  H3  PCA d   1       2.640  19.471  24.803  0.00  0.00     0.037 H 
ATOM     41  H4  PCA d   1       4.424  19.613  24.956  0.00  0.00     0.037 H 
ATOM     42  H2  PCA d   1       2.938  17.279  24.304  0.00  0.00     0.087 H 
ENDBRANCH  28  31
ENDBRANCH  25  27
BRANCH  25  43
ATOM     43  CB  PHE d   1       8.200  16.918  26.076  0.00  0.00    -0.014 C 
ATOM     44  H9  PHE d   1       9.248  16.853  25.747  0.00  0.00     0.043 H 
ATOM     45  H10 PHE d   1       8.063  16.314  26.985  0.00  0.00     0.043 H 
BRANCH  43  46
ATOM     46  CG  PHE d   1       7.896  18.345  26.406  0.00  0.00    -0.056 A 
ATOM     47  CD1 PHE d   1       8.399  19.365  25.631  0.00  0.00    -0.077 A 
ATOM     48  CE1 PHE d   1       8.125  20.684  25.946  0.00  0.00    -0.082 A 
ATOM     49  H11 PHE d   1       9.014  19.134  24.769  0.00  0.00     0.084 H 
ATOM     50  CZ  PHE d   1       7.341  20.992  27.027  0.00  0.00    -0.083 A 
ATOM     51  H13 PHE d   1       8.533  21.480  25.333  0.00  0.00     0.083 H 
ATOM     52  CE2 PHE d   1       6.840  19.981  27.816  0.00  0.00    -0.082 A 
ATOM     53  H15 PHE d   1       7.116  22.027  27.260  0.00  0.00     0.083 H 
ATOM     54  CD2 PHE d   1       7.120  18.669  27.508  0.00  0.00    -0.077 A 
ATOM     55  H14 PHE d   1       6.226  20.218  28.678  0.00  0.00     0.083 H 
ATOM     56  H12 PHE d   1       6.728  17.878  28.136  0.00  0.00     0.084 H 
ENDBRANCH  43  46
ENDBRANCH  25  43
ENDBRANCH  22  25
ENDBRANCH  19  21
BRANCH  19  57
ATOM     57  CB  ARG d   1       8.769  12.267  26.677  0.00  0.00    -0.036 C 
ATOM     58  H18 ARG d   1       8.734  11.187  26.881  0.00  0.00     0.036 H 
ATOM     59  H19 ARG d   1       8.549  12.822  27.601  0.00  0.00     0.036 H 
BRANCH  57  60
ATOM     60  CG  ARG d   1      10.142  12.594  26.287  0.00  0.00    -0.048 C 
ATOM     61  H20 ARG d   1      10.306  13.678  26.380  0.00  0.00     0.035 H 
ATOM     62  H21 ARG d   1      10.316  12.285  25.246  0.00  0.00     0.035 H 
BRANCH  60  63
ATOM     63  CD  ARG d   1      11.100  11.846  27.213  0.00  0.00     0.009 C 
ATOM     64  H22 ARG d   1      11.026  10.768  27.008  0.00  0.00     0.064 H 
ATOM     65  H23 ARG d   1      10.814  12.041  28.257  0.00  0.00     0.064 H 
BRANCH  63  66
ATOM     66  NE  ARG d   1      12.474  12.272  27.012  0.00  0.00    -0.227 N 
ATOM     67  CZ  ARG d   1      13.513  11.764  27.658  0.00  0.00     0.665 C 
ATOM     68  NH1 ARG d   1      13.334  10.805  28.561  0.00  0.00    -0.235 N 
ATOM     69  NH2 ARG d   1      14.727  12.222  27.404  0.00  0.00    -0.235 N 
ATOM     70  H25 ARG d   1      14.143  10.412  29.062  0.00  0.00     0.174 HD
ATOM     71  H26 ARG d   1      12.386  10.455  28.760  0.00  0.00     0.174 HD
ATOM     72  H27 ARG d   1      14.861  12.965  26.703  0.00  0.00     0.174 HD
ATOM     73  H28 ARG d   1      15.539  11.836  27.907  0.00  0.00     0.174 HD
ATOM     74  H24 ARG d   1      12.652  13.017  26.323  0.00  0.00     0.177 HD
ENDBRANCH  63  66
ENDBRANCH  60  63
ENDBRANCH  57  60
ENDBRANCH  19  57
ENDBRANCH  16  19
ENDBRANCH  13  15
BRANCH  13  75
ATOM     75  CB  HIS d   1       3.386  10.799  24.264  0.00  0.00     0.004 C 
ATOM     76  H31 HIS d   1       3.444  11.720  23.666  0.00  0.00     0.046 H 
ATOM     77  H32 HIS d   1       2.343  10.624  24.567  0.00  0.00     0.046 H 
BRANCH  75  78
ATOM     78  CG  HIS d   1       3.829   9.655  23.414  0.00  0.00     0.053 A 
ATOM     79  ND1 HIS d   1       4.938   9.718  22.601  0.00  0.00    -0.247 NA
ATOM     80  CE1 HIS d   1       5.088   8.559  21.981  0.00  0.00     0.064 A 
ATOM     81  NE2 HIS d   1       4.119   7.749  22.368  0.00  0.00    -0.359 N 
ATOM     82  H34 HIS d   1       5.877   8.314  21.271  0.00  0.00     0.143 H 
ATOM     83  CD2 HIS d   1       3.321   8.410  23.269  0.00  0.00     0.002 A 
ATOM     84  H35 HIS d   1       3.984   6.780  22.046  0.00  0.00     0.166 HD
ATOM     85  H33 HIS d   1       2.443   8.007  23.773  0.00  0.00     0.114 H 
ENDBRANCH  75  78
ENDBRANCH  13  75
ENDBRANCH  10  13
ENDBRANCH   7   9
BRANCH   7  86
ATOM     86  CB  ASP d   1       5.467   6.431  25.939  0.00  0.00     0.043 C 
ATOM     87  H38 ASP d   1       4.707   6.477  25.145  0.00  0.00     0.052 H 
ATOM     88  H39 ASP d   1       5.385   5.471  26.470  0.00  0.00     0.052 H 
BRANCH  86  89
ATOM     89  CG  ASP d   1       6.825   6.520  25.312  0.00  0.00     0.175 C 
ATOM     90  OD1 ASP d   1       7.450   7.602  25.369  0.00  0.00    -0.648 OA
ATOM     91  OD2 ASP d   1       7.285   5.492  24.771  0.00  0.00    -0.648 OA
ENDBRANCH  86  89
ENDBRANCH   7  86
ENDBRANCH   4   7
ENDBRANCH   1   3
BRANCH   1  92
ATOM     92  C   SER d   1       6.901   8.451  31.216  0.00  0.00     0.242 C 
ATOM     93  O   SER d   1       7.692   8.411  32.167  0.00  0.00    -0.271 OA
ATOM     94  N   GLY d   1       5.602   8.252  31.367  0.00  0.00    -0.350 N 
ATOM     95  H45 GLY d   1       5.019   8.278  30.555  0.00  0.00     0.163 HD
BRANCH  94  96
ATOM     96  CA  GLY d   1       4.984   7.998  32.651  0.00  0.00     0.069 C 
ATOM     97  H46 GLY d   1       3.997   8.483  32.672  0.00  0.00     0.078 H 
ATOM     98  H47 GLY d   1       5.619   8.425  33.441  0.00  0.00     0.078 H 
BRANCH  96  99
ATOM     99  C   GLY d   1       4.807   6.519  32.913  0.00  0.00     0.236 C 
ATOM    100  O   GLY d   1       5.546   5.680  32.384  0.00  0.00    -0.272 OA
ATOM    101  N   TYR d   1       3.804   6.193  33.731  0.00  0.00    -0.346 N 
ATOM    102  H48 TYR d   1       3.201   6.907  34.088  0.00  0.00     0.163 HD
BRANCH 101 103
ATOM    103  CA  TYR d   1       3.582   4.801  34.107  0.00  0.00     0.093 C 
ATOM    104  H49 TYR d   1       4.519   4.404  34.525  0.00  0.00     0.088 H 
BRANCH 103 105
ATOM    105  C   TYR d   1       3.203   3.951  32.900  0.00  0.00     0.241 C 
ATOM    106  O   TYR d   1       3.716   2.839  32.730  0.00  0.00    -0.271 OA
ATOM    107  N   GLU d   1       2.315   4.449  32.050  0.00  0.00    -0.346 N 
ATOM    108  H57 GLU d   1       2.029   5.403  32.143  0.00  0.00     0.163 HD
BRANCH 107 109
ATOM    109  CA  GLU d   1       1.747   3.635  30.983  0.00  0.00     0.090 C 
ATOM    110  H58 GLU d   1       1.884   2.581  31.267  0.00  0.00     0.087 H 
BRANCH 109 111
ATOM    111  C   GLU d   1       2.493   3.851  29.669  0.00  0.00     0.241 C 
ATOM    112  O   GLU d   1       2.603   4.982  29.179  0.00  0.00    -0.271 OA
ATOM    113  N   VAL d   1       3.022   2.759  29.122  0.00  0.00    -0.346 N 
ATOM    114  H63 VAL d   1       3.047   1.925  29.673  0.00  0.00     0.163 HD
BRANCH 113 115
ATOM    115  CA  VAL d   1       3.567   2.700  27.773  0.00  0.00     0.092 C 
ATOM    116  H64 VAL d   1       3.433   3.672  27.275  0.00  0.00     0.088 H 
BRANCH 115 117
ATOM    117  C   VAL d   1       2.784   1.625  27.036  0.00  0.00     0.241 C 
ATOM    118  O   VAL d   1       2.634   0.507  27.542  0.00  0.00    -0.271 OA
ATOM    119  N   HIS d   1       2.281   1.958  25.853  0.00  0.00    -0.346 N 
ATOM    120  H72 HIS d   1       2.449   2.869  25.476  0.00  0.00     0.163 HD
BRANCH 119 121
ATOM    121  CA  HIS d   1       1.485   0.994  25.107  0.00  0.00     0.094 C 
ATOM    122  H73 HIS d   1       0.713   0.593  25.781  0.00  0.00     0.088 H 
BRANCH 121 123
ATOM    123  C   HIS d   1       2.354  -0.173  24.649  0.00  0.00     0.241 C 
ATOM    124  O   HIS d   1       3.518   0.001  24.274  0.00  0.00    -0.271 OA
ATOM    125  N   HIS d   1       1.793  -1.376  24.727  0.00  0.00    -0.344 N 
ATOM    126  H79 HIS d   1       0.827  -1.444  24.976  0.00  0.00     0.163 HD
BRANCH 125 127
ATOM    127  CA  HIS d   1       2.542  -2.600  24.461  0.00  0.00     0.101 C 
ATOM    128  H80 HIS d   1       3.244  -2.412  23.636  0.00  0.00     0.090 H 
BRANCH 127 129
ATOM    129  C   HIS d   1       1.602  -3.728  24.059  0.00  0.00     0.197 C 
ATOM    130  O   HIS d   1       0.396  -3.648  24.292  0.00  0.00    -0.646 OA
ATOM    131  OXT HIS d   1       2.038  -4.732  23.497  0.00  0.00    -0.646 OA
ENDBRANCH 127 129
BRANCH 127 132
ATOM    132  CB  HIS d   1       3.334  -3.011  25.703  0.00  0.00     0.005 C 
ATOM    133  H81 HIS d   1       4.113  -2.255  25.884  0.00  0.00     0.046 H 
ATOM    134  H82 HIS d   1       3.807  -3.985  25.507  0.00  0.00     0.046 H 
BRANCH 132 135
ATOM    135  CG  HIS d   1       2.496  -3.132  26.938  0.00  0.00     0.053 A 
ATOM    136  ND1 HIS d   1       2.185  -2.051  27.736  0.00  0.00    -0.247 NA
ATOM    137  CE1 HIS d   1       1.440  -2.455  28.751  0.00  0.00     0.064 A 
ATOM    138  NE2 HIS d   1       1.254  -3.758  28.639  0.00  0.00    -0.359 N 
ATOM    139  H84 HIS d   1       1.047  -1.821  29.544  0.00  0.00     0.143 H 
ATOM    140  CD2 HIS d   1       1.905  -4.206  27.514  0.00  0.00     0.002 A 
ATOM    141  H85 HIS d   1       0.710  -4.343  29.289  0.00  0.00     0.166 HD
ATOM    142  H83 HIS d   1       1.939  -5.233  27.153  0.00  0.00     0.114 H 
ENDBRANCH 132 135
ENDBRANCH 127 132
ENDBRANCH 125 127
ENDBRANCH 121 123
BRANCH 121 143
ATOM    143  CB  HIS d   1       0.773   1.682  23.939  0.00  0.00     0.004 C 
ATOM    144  H74 HIS d   1       0.349   0.907  23.284  0.00  0.00     0.046 H 
ATOM    145  H75 HIS d   1       1.513   2.272  23.378  0.00  0.00     0.046 H 
BRANCH 143 146
ATOM    146  CG  HIS d   1      -0.334   2.596  24.373  0.00  0.00     0.053 A 
ATOM    147  ND1 HIS d   1      -0.976   3.458  23.510  0.00  0.00    -0.247 NA
ATOM    148  CE1 HIS d   1      -1.903   4.131  24.170  0.00  0.00     0.064 A 
ATOM    149  NE2 HIS d   1      -1.886   3.736  25.430  0.00  0.00    -0.359 N 
ATOM    150  H77 HIS d   1      -2.567   4.883  23.747  0.00  0.00     0.143 H 
ATOM    151  CD2 HIS d   1      -0.915   2.777  25.584  0.00  0.00     0.002 A 
ATOM    152  H78 HIS d   1      -2.501   4.090  26.176  0.00  0.00     0.166 HD
ATOM    153  H76 HIS d   1      -0.659   2.259  26.507  0.00  0.00     0.114 H 
ENDBRANCH 143 146
ENDBRANCH 121 143
ENDBRANCH 119 121
ENDBRANCH 115 117
BRANCH 115 154
ATOM    154  CB  VAL d   1       5.065   2.344  27.786  0.00  0.00    -0.033 C 
ATOM    155  H65 VAL d   1       5.170   1.329  28.196  0.00  0.00     0.042 H 
BRANCH 154 156
ATOM    156  CG1 VAL d   1       5.636   2.340  26.369  0.00  0.00    -0.071 C 
ATOM    157  H66 VAL d   1       6.705   2.083  26.405  0.00  0.00     0.028 H 
ATOM    158  H67 VAL d   1       5.513   3.337  25.921  0.00  0.00     0.028 H 
ATOM    159  H68 VAL d   1       5.101   1.596  25.760  0.00  0.00     0.028 H 
ENDBRANCH 154 156
BRANCH 154 160
ATOM    160  CG2 VAL d   1       5.837   3.293  28.685  0.00  0.00    -0.071 C 
ATOM    161  H69 VAL d   1       5.404   3.274  29.696  0.00  0.00     0.028 H 
ATOM    162  H70 VAL d   1       5.776   4.314  28.279  0.00  0.00     0.028 H 
ATOM    163  H71 VAL d   1       6.890   2.979  28.732  0.00  0.00     0.028 H 
ENDBRANCH 154 160
ENDBRANCH 115 154
ENDBRANCH 113 115
ENDBRANCH 109 111
BRANCH 109 164
ATOM    164  CB  GLU d   1       0.243   3.870  30.834  0.00  0.00    -0.029 C 
ATOM    165  H59 GLU d   1      -0.089   3.409  29.892  0.00  0.00     0.037 H 
ATOM    166  H60 GLU d   1       0.063   4.954  30.795  0.00  0.00     0.037 H 
BRANCH 164 167
ATOM    167  CG  GLU d   1      -0.587   3.282  31.981  0.00  0.00     0.018 C 
ATOM    168  H61 GLU d   1      -1.640   3.563  31.831  0.00  0.00     0.049 H 
ATOM    169  H62 GLU d   1      -0.226   3.708  32.928  0.00  0.00     0.049 H 
BRANCH 167 170
ATOM    170  CD  GLU d   1      -0.498   1.762  32.068  0.00  0.00     0.172 C 
ATOM    171  OE1 GLU d   1      -0.166   1.118  31.052  0.00  0.00    -0.648 OA
ATOM    172  OE2 GLU d   1      -0.762   1.209  33.156  0.00  0.00    -0.648 OA
ENDBRANCH 167 170
ENDBRANCH 164 167
ENDBRANCH 109 164
ENDBRANCH 107 109
ENDBRANCH 103 105
BRANCH 103 173
ATOM    173  CB  TYR d   1       2.500   4.718  35.183  0.00  0.00    -0.014 C 
ATOM    174  H50 TYR d   1       1.565   5.118  34.764  0.00  0.00     0.043 H 
ATOM    175  H51 TYR d   1       2.814   5.337  36.036  0.00  0.00     0.043 H 
BRANCH 173 176
ATOM    176  CG  TYR d   1       2.234   3.321  35.684  0.00  0.00    -0.056 A 
ATOM    177  CD1 TYR d   1       3.176   2.651  36.452  0.00  0.00    -0.074 A 
ATOM    178  CE1 TYR d   1       2.938   1.369  36.923  0.00  0.00    -0.051 A 
ATOM    179  H52 TYR d   1       4.115   3.139  36.688  0.00  0.00     0.084 H 
ATOM    180  CZ  TYR d   1       1.745   0.746  36.630  0.00  0.00     0.065 A 
ATOM    181  H54 TYR d   1       3.687   0.860  37.519  0.00  0.00     0.087 H 
ATOM    182  CE2 TYR d   1       0.790   1.390  35.870  0.00  0.00    -0.051 A 
ATOM    183  CD2 TYR d   1       1.038   2.679  35.402  0.00  0.00    -0.074 A 
ATOM    184  H55 TYR d   1      -0.147   0.896  35.639  0.00  0.00     0.087 H 
ATOM    185  H53 TYR d   1       0.285   3.187  34.809  0.00  0.00     0.084 H 
BRANCH 180 186
ATOM    186  OH  TYR d   1       1.505  -0.529  37.096  0.00  0.00    -0.361 OA
ATOM    187  H56 TYR d   1       2.254  -0.828  37.598  0.00  0.00     0.217 HD
ENDBRANCH 180 186
ENDBRANCH 173 176
ENDBRANCH 103 173
ENDBRANCH 101 103
ENDBRANCH  96  99
ENDBRANCH  94  96
ENDBRANCH   1  92
BRANCH   1 188
ATOM    188  CB  SER d   1       8.066  10.124  29.775  0.00  0.00     0.044 C 
ATOM    189  H42 SER d   1       8.611  10.250  28.828  0.00  0.00     0.077 H 
ATOM    190  H43 SER d   1       8.765  10.229  30.618  0.00  0.00     0.077 H 
BRANCH 188 191
ATOM    191  OG  SER d   1       7.060  11.118  29.873  0.00  0.00    -0.398 OA
ATOM    192  H44 SER d   1       6.456  11.029  29.145  0.00  0.00     0.209 HD
ENDBRANCH 188 191
ENDBRANCH   1 188
TORSDOF 48
