REMARK  4 active torsions:
REMARK  status: ('A' for Active; 'I' for Inactive)
REMARK    1  A    between atoms: C02_4  and  N01_3 
REMARK    2  A    between atoms: C04_6  and  C05_7 
REMARK    3  A    between atoms: N15_16  and  C14_15 
REMARK    4  A    between atoms: N15_16  and  C16_17 
ROOT
ATOM      1  C13 2GE d   1     -19.766  -6.112 -22.195  0.00  0.00    -0.009 A 
ATOM      2  C02 2GE d   1     -20.991  -4.296 -23.729  0.00  0.00     0.722 A 
ATOM      3  N03 2GE d   1     -19.694  -4.171 -23.539  0.00  0.00    -0.062 NA
ATOM      4  C04 2GE d   1     -19.044  -5.061 -22.802  0.00  0.00     0.091 A 
ATOM      5  C14 2GE d   1     -21.143  -6.199 -22.483  0.00  0.00     0.145 A 
ATOM      6  N19 2GE d   1     -21.765  -5.248 -23.210  0.00  0.00    -0.046 NA
ATOM      7  H1  2GE d   1     -19.281  -6.822 -21.535  0.00  0.00     0.093 H 
ENDROOT
BRANCH   4   8
ATOM      8  C05 2GE d   1     -17.573  -4.846 -22.520  0.00  0.00     0.017 A 
ATOM      9  C06 2GE d   1     -17.189  -3.580 -22.064  0.00  0.00    -0.069 A 
ATOM     10  C07 2GE d   1     -15.842  -3.311 -21.785  0.00  0.00    -0.080 A 
ATOM     11  H6  2GE d   1     -17.935  -2.806 -21.926  0.00  0.00     0.085 H 
ATOM     12  C08 2GE d   1     -14.894  -4.300 -21.959  0.00  0.00    -0.060 A 
ATOM     13  H7  2GE d   1     -15.545  -2.329 -21.434  0.00  0.00     0.083 H 
ATOM     14  C09 2GE d   1     -15.290  -5.563 -22.390  0.00  0.00     0.056 A 
ATOM     15  H8  2GE d   1     -13.848  -4.094 -21.761  0.00  0.00     0.086 H 
ATOM     16 CL1  2GE d   1     -14.118  -6.852 -22.600  0.00  0.00    -0.083 Cl
ATOM     17  C11 2GE d   1     -16.617  -5.813 -22.672  0.00  0.00     0.068 A 
ATOM     18 CL2  2GE d   1     -17.098  -7.359 -23.249  0.00  0.00    -0.082 Cl
ENDBRANCH   4   8
BRANCH   5  19
ATOM     19  N15 2GE d   1     -21.906  -7.232 -21.957  0.00  0.00    -0.370 N 
ATOM     20  H9  2GE d   1     -22.901  -7.317 -22.208  0.00  0.00     0.161 HD
BRANCH  19  21
ATOM     21  C16 2GE d   1     -21.308  -8.180 -21.064  0.00  0.00     0.011 A 
ATOM     22  C17 2GE d   1     -21.786  -9.590 -21.230  0.00  0.00    -0.044 A 
ATOM     23  C18 2GE d   1     -20.370  -9.219 -21.653  0.00  0.00    -0.044 A 
ATOM     24  H2  2GE d   1     -22.543  -9.827 -21.993  0.00  0.00     0.036 H 
ATOM     25  H3  2GE d   1     -21.947 -10.223 -20.345  0.00  0.00     0.036 H 
ATOM     26  H11 2GE d   1     -20.104  -9.182 -22.720  0.00  0.00     0.036 H 
ATOM     27  H12 2GE d   1     -19.508  -9.578 -21.072  0.00  0.00     0.036 H 
ATOM     28  H10 2GE d   1     -21.119  -7.740 -20.074  0.00  0.00     0.072 H 
ENDBRANCH  19  21
ENDBRANCH   5  19
BRANCH   2  29
ATOM     29  N01 2GE d   1     -21.586  -3.324 -24.543  0.00  0.00    -0.231 N 
ATOM     30  H4  2GE d   1     -21.011  -2.577 -24.957  0.00  0.00     0.174 HD
ATOM     31  H5  2GE d   1     -22.599  -3.357 -24.728  0.00  0.00     0.174 HD
ENDBRANCH   2  29
TORSDOF 4
