REMARK  3 active torsions:
REMARK  status: ('A' for Active; 'I' for Inactive)
REMARK    1  A    between atoms: N1_3  and  C20_28 
REMARK    2  A    between atoms: C14_18  and  C11_22 
REMARK    3  A    between atoms: C16_20  and  C15_19 
ROOT
ATOM      1  O1  8FN d   1     -12.159  23.905  12.739  0.00  0.00    -0.267 OA
ATOM      2  N1  8FN d   1     -13.793  24.963  11.659  0.00  0.00    -0.308 N 
ATOM      3  C1  8FN d   1      -9.489  27.070  12.324  0.00  0.00    -0.082 A 
ATOM      4  C2  8FN d   1      -9.951  28.286  12.796  0.00  0.00    -0.082 A 
ATOM      5  C3  8FN d   1     -11.302  28.445  13.111  0.00  0.00    -0.065 A 
ATOM      6  C4  8FN d   1     -12.182  27.377  12.954  0.00  0.00     0.021 A 
ATOM      7  C5  8FN d   1     -11.719  26.162  12.467  0.00  0.00     0.049 A 
ATOM      8  C6  8FN d   1     -10.371  26.005  12.165  0.00  0.00    -0.066 A 
ATOM      9  C7  8FN d   1     -12.606  24.957  12.289  0.00  0.00     0.260 C 
ATOM     10  C8  8FN d   1     -14.321  26.116  11.055  0.00  0.00     0.055 A 
ATOM     11  C9  8FN d   1     -14.776  26.002   9.740  0.00  0.00    -0.055 A 
ATOM     12  C12 8FN d   1     -14.928  28.439  11.045  0.00  0.00    -0.050 A 
ATOM     13  C13 8FN d   1     -14.411  27.348  11.714  0.00  0.00     0.033 A 
ATOM     14  C10 8FN d   1     -15.324  27.096   9.080  0.00  0.00    -0.067 A 
ATOM     15  C11 8FN d   1     -15.391  28.300   9.744  0.00  0.00     0.015 A 
ATOM     16  S1  8FN d   1     -13.826  27.558  13.294  0.00  0.00    -0.087 SA
ATOM     17  H1  8FN d   1      -8.440  26.947  12.078  0.00  0.00     0.083 H 
ATOM     18  H2  8FN d   1      -9.264  29.115  12.921  0.00  0.00     0.083 H 
ATOM     19  H3  8FN d   1     -11.665  29.398  13.477  0.00  0.00     0.085 H 
ATOM     20  H4  8FN d   1     -10.006  25.050  11.805  0.00  0.00     0.085 H 
ATOM     21  H5  8FN d   1     -14.701  25.050   9.228  0.00  0.00     0.087 H 
ATOM     22  H6  8FN d   1     -14.972  29.404  11.536  0.00  0.00     0.087 H 
ATOM     23  H7  8FN d   1     -15.691  27.003   8.064  0.00  0.00     0.085 H 
ENDROOT
BRANCH  15  24
ATOM     24  C14 8FN d   1     -15.941  29.497   9.061  0.00  0.00     0.189 A 
ATOM     25  N3  8FN d   1     -16.419  29.532   7.797  0.00  0.00    -0.105 NA
ATOM     26  O2  8FN d   1     -16.775  30.804   7.617  0.00  0.00    -0.189 OA
ATOM     27  C15 8FN d   1     -16.537  31.573   8.705  0.00  0.00     0.227 A 
ATOM     28  N2  8FN d   1     -15.987  30.743   9.613  0.00  0.00    -0.198 NA
BRANCH  27  29
ATOM     29  C16 8FN d   1     -16.795  33.021   8.834  0.00  0.00     0.129 A 
ATOM     30  N5  8FN d   1     -17.329  33.683   7.783  0.00  0.00    -0.254 NA
ATOM     31  C19 8FN d   1     -17.540  34.997   7.884  0.00  0.00     0.020 A 
ATOM     32  C18 8FN d   1     -17.218  35.658   9.061  0.00  0.00     0.019 A 
ATOM     33  H8  8FN d   1     -17.961  35.546   7.050  0.00  0.00     0.117 H 
ATOM     34  N4  8FN d   1     -16.684  35.001  10.091  0.00  0.00    -0.269 NA
ATOM     35  H9  8FN d   1     -17.403  36.723   9.144  0.00  0.00     0.117 H 
ATOM     36  C17 8FN d   1     -16.460  33.688  10.002  0.00  0.00     0.034 A 
ATOM     37  H10 8FN d   1     -16.021  33.149  10.834  0.00  0.00     0.118 H 
ENDBRANCH  27  29
ENDBRANCH  15  24
BRANCH   2  38
ATOM     38  C20 8FN d   1     -14.473  23.656  11.496  0.00  0.00     0.020 A 
ATOM     39  C22 8FN d   1     -15.103  23.253  12.833  0.00  0.00    -0.044 A 
ATOM     40  C21 8FN d   1     -15.982  23.789  11.716  0.00  0.00    -0.044 A 
ATOM     41  H12 8FN d   1     -14.923  23.862  13.731  0.00  0.00     0.036 H 
ATOM     42  H13 8FN d   1     -15.160  22.192  13.116  0.00  0.00     0.036 H 
ATOM     43  H14 8FN d   1     -16.675  23.115  11.191  0.00  0.00     0.036 H 
ATOM     44  H15 8FN d   1     -16.438  24.786  11.806  0.00  0.00     0.036 H 
ATOM     45  H11 8FN d   1     -14.005  22.965  10.780  0.00  0.00     0.073 H 
ENDBRANCH   2  38
TORSDOF 3
