REMARK  2 active torsions:
REMARK  status: ('A' for Active; 'I' for Inactive)
REMARK    1  A    between atoms: C1_1  and  C2_2 
REMARK       I    between atoms: C1_1  and  N13_13 
REMARK    2  A    between atoms: N13_13  and  O14_14 
ROOT
ATOM      1  C2  8GK d   1     -35.511  13.161  49.936  0.00  0.00     0.045 A 
ATOM      2  C3  8GK d   1     -36.842  13.469  49.695  0.00  0.00    -0.010 A 
ATOM      3  C4  8GK d   1     -37.502  12.879  48.623  0.00  0.00    -0.025 A 
ATOM      4  C5  8GK d   1     -36.829  11.990  47.784  0.00  0.00    -0.072 A 
ATOM      5  C6  8GK d   1     -35.494  11.686  48.026  0.00  0.00    -0.081 A 
ATOM      6  C7  8GK d   1     -34.835  12.278  49.102  0.00  0.00    -0.067 A 
ATOM      7  C8  8GK d   1     -38.836  13.191  48.399  0.00  0.00    -0.072 A 
ATOM      8  C9  8GK d   1     -39.513  14.077  49.233  0.00  0.00    -0.082 A 
ATOM      9  C10 8GK d   1     -38.851  14.663  50.306  0.00  0.00    -0.082 A 
ATOM     10  C11 8GK d   1     -37.515  14.357  50.530  0.00  0.00    -0.071 A 
ATOM     11  H1  8GK d   1     -37.346  11.537  46.946  0.00  0.00     0.084 H 
ATOM     12  H2  8GK d   1     -34.968  10.992  47.381  0.00  0.00     0.083 H 
ATOM     13  H3  8GK d   1     -33.792  12.049  49.289  0.00  0.00     0.085 H 
ATOM     14  H4  8GK d   1     -39.358  12.739  47.563  0.00  0.00     0.084 H 
ATOM     15  H5  8GK d   1     -40.555  14.310  49.046  0.00  0.00     0.083 H 
ATOM     16  H6  8GK d   1     -39.372  15.352  50.961  0.00  0.00     0.083 H 
ATOM     17  H7  8GK d   1     -36.992  14.813  51.362  0.00  0.00     0.084 H 
ENDROOT
BRANCH   1  18
ATOM     18  C1  8GK d   1     -34.827  13.829  51.083  0.00  0.00     0.275 C 
ATOM     19  O12 8GK d   1     -34.645  15.026  50.987  0.00  0.00    -0.265 OA
ATOM     20  N13 8GK d   1     -34.466  13.157  52.175  0.00  0.00    -0.233 N 
ATOM     21  H8  8GK d   1     -34.171  12.203  52.128  0.00  0.00     0.197 HD
BRANCH  20  22
ATOM     22  O14 8GK d   1     -34.518  13.844  53.387  0.00  0.00    -0.287 OA
ATOM     23  H9  8GK d   1     -35.408  14.134  53.547  0.00  0.00     0.244 HD
ENDBRANCH  20  22
ENDBRANCH   1  18
TORSDOF 2
