REMARK  2 active torsions:
REMARK  status: ('A' for Active; 'I' for Inactive)
REMARK    1  A    between atoms: C15_13  and  C24_19 
REMARK    2  A    between atoms: C24_19  and  O3_28 
ROOT
ATOM      1  C1  8GQ d   1     -70.285  21.117  -1.009  0.00  0.00     0.036 A 
ATOM      2  C2  8GQ d   1     -69.103  20.818  -1.685  0.00  0.00    -0.023 A 
ATOM      3  C3  8GQ d   1     -69.072  20.847  -3.069  0.00  0.00     0.098 A 
ATOM      4  N6  8GQ d   1     -70.285  21.047   0.400  0.00  0.00    -0.341 N 
ATOM      5  C7  8GQ d   1     -72.215  22.587  -5.248  0.00  0.00     0.013 C 
ATOM      6  C8  8GQ d   1     -71.102  21.875  -5.967  0.00  0.00     0.222 C 
ATOM      7  C9  8GQ d   1     -67.421  19.284  -3.884  0.00  0.00     0.026 C 
ATOM      8  C10 8GQ d   1     -66.473  18.993  -2.781  0.00  0.00    -0.043 C 
ATOM      9  C11 8GQ d   1     -65.625  17.980  -2.708  0.00  0.00    -0.043 C 
ATOM     10  C12 8GQ d   1     -65.929  16.546  -2.481  0.00  0.00     0.020 C 
ATOM     11  C13 8GQ d   1     -66.803  15.499  -0.524  0.00  0.00     0.056 C 
ATOM     12  C14 8GQ d   1     -66.493  14.971   0.867  0.00  0.00    -0.018 C 
ATOM     13  C15 8GQ d   1     -66.715  16.177   1.791  0.00  0.00     0.036 C 
ATOM     14  C16 8GQ d   1     -67.985  16.438  -0.295  0.00  0.00     0.021 C 
ATOM     15  C19 8GQ d   1     -69.578  20.141   1.196  0.00  0.00     0.135 A 
ATOM     16  C20 8GQ d   1     -68.713  19.519   3.335  0.00  0.00     0.177 A 
ATOM     17  C21 8GQ d   1     -68.763  20.059   4.634  0.00  0.00     0.111 A 
ATOM     18  C22 8GQ d   1     -69.486  21.255   4.501  0.00  0.00     0.046 A 
ATOM     19  N5  8GQ d   1     -67.720  19.126   6.790  0.00  0.00    -0.191 NA
ATOM     20  C23 8GQ d   1     -68.173  19.525   5.822  0.00  0.00     0.105 C 
ATOM     21  N4  8GQ d   1     -69.867  21.509   3.227  0.00  0.00    -0.175 NA
ATOM     22  N2  8GQ d   1     -69.398  20.414   2.520  0.00  0.00    -0.198 N 
ATOM     23  C18 8GQ d   1     -69.024  18.962   0.704  0.00  0.00     0.006 A 
ATOM     24  N3  8GQ d   1     -68.170  18.374   2.883  0.00  0.00    -0.210 NA
ATOM     25  C17 8GQ d   1     -68.279  18.132   1.550  0.00  0.00     0.132 A 
ATOM     26  N1  8GQ d   1     -67.730  16.957   1.063  0.00  0.00    -0.356 N 
ATOM     27  O2  8GQ d   1     -65.669  16.140  -1.121  0.00  0.00    -0.384 OA
ATOM     28  O1  8GQ d   1     -67.942  20.624  -3.817  0.00  0.00    -0.349 OA
ATOM     29  C4  8GQ d   1     -70.201  21.255  -3.799  0.00  0.00     0.075 A 
ATOM     30  N   8GQ d   1     -70.166  21.287  -5.190  0.00  0.00    -0.324 N 
ATOM     31  O   8GQ d   1     -71.024  21.855  -7.194  0.00  0.00    -0.273 OA
ATOM     32  C6  8GQ d   1     -72.604  21.956  -3.914  0.00  0.00    -0.031 C 
ATOM     33  C5  8GQ d   1     -71.389  21.544  -3.117  0.00  0.00    -0.026 A 
ATOM     34  C   8GQ d   1     -71.421  21.489  -1.725  0.00  0.00    -0.049 A 
ATOM     35  H1  8GQ d   1     -68.209  20.563  -1.128  0.00  0.00     0.091 H 
ATOM     36  H2  8GQ d   1     -70.868  21.737   0.895  0.00  0.00     0.167 HD
ATOM     37  H3  8GQ d   1     -73.101  22.589  -5.900  0.00  0.00     0.047 H 
ATOM     38  H4  8GQ d   1     -71.897  23.623  -5.059  0.00  0.00     0.047 H 
ATOM     39  H5  8GQ d   1     -68.260  18.575  -3.826  0.00  0.00     0.075 H 
ATOM     40  H6  8GQ d   1     -66.898  19.155  -4.843  0.00  0.00     0.075 H 
ATOM     41  H7  8GQ d   1     -67.102  18.902  -1.883  0.00  0.00     0.036 H 
ATOM     42  H8  8GQ d   1     -65.847  19.894  -2.700  0.00  0.00     0.036 H 
ATOM     43  H9  8GQ d   1     -64.938  18.251  -1.893  0.00  0.00     0.036 H 
ATOM     44  H10 8GQ d   1     -65.084  18.001  -3.666  0.00  0.00     0.036 H 
ATOM     45  H11 8GQ d   1     -65.306  15.941  -3.156  0.00  0.00     0.074 H 
ATOM     46  H12 8GQ d   1     -66.991  16.370  -2.706  0.00  0.00     0.074 H 
ATOM     47  H13 8GQ d   1     -67.110  14.671  -1.180  0.00  0.00     0.086 H 
ATOM     48  H14 8GQ d   1     -65.452  14.621   0.927  0.00  0.00     0.040 H 
ATOM     49  H15 8GQ d   1     -67.173  14.148   1.131  0.00  0.00     0.040 H 
ATOM     50  H16 8GQ d   1     -67.174  15.825   2.727  0.00  0.00     0.076 H 
ATOM     51  H17 8GQ d   1     -68.939  15.892  -0.338  0.00  0.00     0.068 H 
ATOM     52  H18 8GQ d   1     -67.994  17.252  -1.035  0.00  0.00     0.068 H 
ATOM     53  H19 8GQ d   1     -69.717  21.912   5.338  0.00  0.00     0.120 H 
ATOM     54  H22 8GQ d   1     -69.170  18.686  -0.339  0.00  0.00     0.095 H 
ATOM     55  H24 8GQ d   1     -69.394  20.844  -5.646  0.00  0.00     0.169 HD
ATOM     56  H25 8GQ d   1     -73.222  21.067  -4.107  0.00  0.00     0.040 H 
ATOM     57  H26 8GQ d   1     -73.183  22.686  -3.329  0.00  0.00     0.040 H 
ATOM     58  H27 8GQ d   1     -72.334  21.737  -1.196  0.00  0.00     0.087 H 
ENDROOT
BRANCH  13  59
ATOM     59  C24 8GQ d   1     -65.423  16.864   2.202  0.00  0.00     0.036 C 
ATOM     60  H20 8GQ d   1     -65.658  17.807   2.717  0.00  0.00     0.077 H 
ATOM     61  H21 8GQ d   1     -64.820  17.075   1.307  0.00  0.00     0.077 H 
BRANCH  59  62
ATOM     62  O3  8GQ d   1     -64.688  16.015   3.079  0.00  0.00    -0.399 OA
ATOM     63  H23 8GQ d   1     -63.881  16.447   3.334  0.00  0.00     0.209 HD
ENDBRANCH  59  62
ENDBRANCH  13  59
TORSDOF 2
