REMARK  4 active torsions:
REMARK  status: ('A' for Active; 'I' for Inactive)
REMARK    1  A    between atoms: C1_1  and  C_10 
REMARK    2  A    between atoms: N_11  and  C1_1 
REMARK    3  A    between atoms: C2_2  and  N_11 
REMARK    4  A    between atoms: C4_17  and  C8_5 
ROOT
ATOM      1  C2  8HH d   1     -10.243  17.400   0.253  0.00  0.00     0.129 A 
ATOM      2  C3  8HH d   1     -10.046  18.645   0.942  0.00  0.00    -0.010 A 
ATOM      3  C7  8HH d   1      -7.978  17.807  -2.410  0.00  0.00    -0.018 A 
ATOM      4  N2  8HH d   1      -9.474  17.258  -0.881  0.00  0.00    -0.200 N 
ATOM      5  N3  8HH d   1      -9.483  16.201  -1.736  0.00  0.00    -0.177 NA
ATOM      6  C6  8HH d   1      -8.548  16.568  -2.676  0.00  0.00     0.026 A 
ATOM      7  C5  8HH d   1      -8.586  18.257  -1.254  0.00  0.00     0.155 A 
ATOM      8  N1  8HH d   1      -8.415  19.404  -0.612  0.00  0.00    -0.228 NA
ATOM      9  C4  8HH d   1      -9.145  19.606   0.481  0.00  0.00     0.074 A 
ATOM     10  H3  8HH d   1     -10.615  18.844   1.849  0.00  0.00     0.093 H 
ATOM     11  H4  8HH d   1      -7.212  18.317  -2.992  0.00  0.00     0.091 H 
ATOM     12  H13 8HH d   1      -8.283  15.954  -3.535  0.00  0.00     0.117 H 
ENDROOT
BRANCH   9  13
ATOM     13  C8  8HH d   1      -8.960  20.908   1.175  0.00  0.00     0.010 A 
ATOM     14  C9  8HH d   1      -9.673  21.233   2.326  0.00  0.00    -0.068 A 
ATOM     15  C10 8HH d   1      -9.473  22.458   2.941  0.00  0.00    -0.065 A 
ATOM     16  H5  8HH d   1     -10.384  20.528   2.741  0.00  0.00     0.085 H 
ATOM     17  C11 8HH d   1      -8.552  23.332   2.386  0.00  0.00     0.002 A 
ATOM     18  H6  8HH d   1     -10.024  22.727   3.835  0.00  0.00     0.085 H 
ATOM     19  N4  8HH d   1      -7.844  23.053   1.283  0.00  0.00    -0.272 NA
ATOM     20  H7  8HH d   1      -8.396  24.290   2.869  0.00  0.00     0.114 H 
ATOM     21  C12 8HH d   1      -8.055  21.862   0.701  0.00  0.00     0.014 A 
ATOM     22  H8  8HH d   1      -7.488  21.625  -0.192  0.00  0.00     0.116 H 
ENDBRANCH   9  13
BRANCH   1  23
ATOM     23  N   8HH d   1     -11.069  16.335   0.540  0.00  0.00    -0.375 N 
ATOM     24  H12 8HH d   1     -11.049  15.539  -0.114  0.00  0.00     0.161 HD
BRANCH  23  25
ATOM     25  C1  8HH d   1     -11.982  16.227   1.698  0.00  0.00    -0.009 C 
ATOM     26  H1  8HH d   1     -11.800  15.271   2.210  0.00  0.00     0.063 H 
ATOM     27  H2  8HH d   1     -11.782  17.058   2.391  0.00  0.00     0.063 H 
BRANCH  25  28
ATOM     28  C   8HH d   1     -13.404  16.285   1.269  0.00  0.00    -0.061 C 
ATOM     29  H9  8HH d   1     -14.057  16.202   2.151  0.00  0.00     0.029 H 
ATOM     30  H10 8HH d   1     -13.613  15.454   0.579  0.00  0.00     0.029 H 
ATOM     31  H11 8HH d   1     -13.595  17.241   0.760  0.00  0.00     0.029 H 
ENDBRANCH  25  28
ENDBRANCH  23  25
ENDBRANCH   1  23
TORSDOF 4
