REMARK WARNING: 32 MAX_TORS EXCEEDED!!!
REMARK  39 active torsions:
REMARK  status: ('A' for Active; 'I' for Inactive)
REMARK    1  A    between atoms: N_1  and  CA_2 
REMARK    2  A    between atoms: CA_2  and  C_3 
REMARK    3  A    between atoms: CA_2  and  CB_5 
REMARK       I    between atoms: C_3  and  N_9 
REMARK    4  A    between atoms: CB_5  and  CG_6 
REMARK    5  A    between atoms: CG_6  and  SD_7 
REMARK    6  A    between atoms: SD_7  and  CE_8 
REMARK    7  A    between atoms: N_9  and  CA_10 
REMARK    8  A    between atoms: CA_10  and  C_11 
REMARK    9  A    between atoms: CA_10  and  CB_13 
REMARK       I    between atoms: C_11  and  N_16 
REMARK   10  A    between atoms: CB_13  and  CG1_14 
REMARK   11  A    between atoms: CB_13  and  CG2_15 
REMARK   12  A    between atoms: N_16  and  CA_17 
REMARK   13  A    between atoms: CA_17  and  C_18 
REMARK   14  A    between atoms: CA_17  and  CB_20 
REMARK       I    between atoms: C_18  and  N_30 
REMARK   15  A    between atoms: CB_20  and  CG_21 
REMARK   16  A    between atoms: N_30  and  CA_31 
REMARK   17  A    between atoms: CA_31  and  C_32 
REMARK       I    between atoms: C_32  and  N_34 
REMARK   18  A    between atoms: CA_35  and  C_36 
REMARK       I    between atoms: C_36  and  N_41 
REMARK   19  A    between atoms: N_41  and  CA_42 
REMARK   20  A    between atoms: CA_42  and  C_43 
REMARK   21  A    between atoms: CA_42  and  CB_45 
REMARK       I    between atoms: C_43  and  N_49 
REMARK   22  A    between atoms: CB_45  and  CG_46 
REMARK   23  A    between atoms: CA_50  and  C_51 
REMARK       I    between atoms: C_51  and  N_56 
REMARK   24  A    between atoms: N_56  and  CA_57 
REMARK   25  A    between atoms: CA_57  and  C_58 
REMARK   26  A    between atoms: CA_57  and  CB_60 
REMARK       I    between atoms: C_58  and  N_64 
REMARK   27  A    between atoms: CB_60  and  CG_61 
REMARK   28  A    between atoms: CG_61  and  CD1_62 
REMARK   29  A    between atoms: CG_61  and  CD2_63 
REMARK   30  A    between atoms: N_64  and  CA_65 
REMARK   31  A    between atoms: CA_65  and  C_66 
REMARK   32  A    between atoms: CA_65  and  CB_68 
REMARK       I    between atoms: C_66  and  N_76 
REMARK   33  A    between atoms: CB_68  and  CG_69 
REMARK   34  A    between atoms: CZ_74  and  OH_75 
REMARK   35  A    between atoms: N_76  and  CA_77 
REMARK   36  A    between atoms: CA_77  and  C_78 
REMARK   37  A    between atoms: CA_77  and  CB_80 
REMARK   38  A    between atoms: CB_80  and  CG1_81 
REMARK   39  A    between atoms: CB_80  and  CG2_82 
ROOT
ATOM      1  C   PRO d   1       8.400  14.953  67.688  0.00  0.00     0.241 C 
ATOM      2  O   PRO d   1       7.983  15.205  68.853  0.00  0.00    -0.271 OA
ATOM      3  N   ASP d   1       7.859  15.453  66.563  0.00  0.00    -0.345 N 
ATOM      4  H41 ASP d   1       8.106  15.071  65.672  0.00  0.00     0.163 HD
ENDROOT
BRANCH   3   5
ATOM      5  CA  ASP d   1       6.880  16.590  66.654  0.00  0.00     0.099 C 
ATOM      6  H42 ASP d   1       6.135  16.376  67.434  0.00  0.00     0.088 H 
BRANCH   5   7
ATOM      7  C   ASP d   1       6.170  16.711  65.297  0.00  0.00     0.243 C 
ATOM      8  O   ASP d   1       6.710  17.228  64.318  0.00  0.00    -0.271 OA
ATOM      9  N   PRO d   1       4.909  16.307  65.264  0.00  0.00    -0.337 N 
ATOM     10  CA  PRO d   1       4.176  16.349  63.984  0.00  0.00     0.091 C 
ATOM     11  CD  PRO d   1       4.053  15.752  66.324  0.00  0.00    -0.001 C 
ATOM     12  CB  PRO d   1       2.790  15.841  64.354  0.00  0.00    -0.036 C 
ATOM     13  H45 PRO d   1       4.663  15.707  63.236  0.00  0.00     0.087 H 
ATOM     14  CG  PRO d   1       3.015  15.040  65.531  0.00  0.00    -0.048 C 
ATOM     15  H46 PRO d   1       2.367  15.232  63.542  0.00  0.00     0.036 H 
ATOM     16  H47 PRO d   1       2.112  16.679  64.575  0.00  0.00     0.036 H 
ATOM     17  H48 PRO d   1       3.371  14.038  65.249  0.00  0.00     0.035 H 
ATOM     18  H49 PRO d   1       2.086  14.948  66.113  0.00  0.00     0.035 H 
ATOM     19  H50 PRO d   1       3.611  16.548  66.940  0.00  0.00     0.064 H 
ATOM     20  H51 PRO d   1       4.612  15.057  66.968  0.00  0.00     0.064 H 
BRANCH  10  21
ATOM     21  C   PRO d   1       4.008  17.754  63.431  0.00  0.00     0.241 C 
ATOM     22  O   PRO d   1       3.735  18.714  64.204  0.00  0.00    -0.271 OA
ATOM     23  N   LEU d   1       4.277  17.916  62.114  0.00  0.00    -0.346 N 
ATOM     24  H52 LEU d   1       4.574  17.141  61.556  0.00  0.00     0.163 HD
BRANCH  23  25
ATOM     25  CA  LEU d   1       4.124  19.257  61.517  0.00  0.00     0.089 C 
ATOM     26  H53 LEU d   1       4.693  19.971  62.131  0.00  0.00     0.087 H 
BRANCH  25  27
ATOM     27  C   LEU d   1       2.650  19.697  61.525  0.00  0.00     0.241 C 
ATOM     28  O   LEU d   1       1.735  18.937  61.266  0.00  0.00    -0.271 OA
ATOM     29  N   TYR d   1       2.488  20.952  61.814  0.00  0.00    -0.346 N 
ATOM     30  H63 TYR d   1       3.276  21.487  62.117  0.00  0.00     0.163 HD
BRANCH  29  31
ATOM     31  CA  TYR d   1       1.171  21.610  61.708  0.00  0.00     0.093 C 
ATOM     32  H64 TYR d   1       0.448  20.980  62.246  0.00  0.00     0.088 H 
BRANCH  31  33
ATOM     33  C   TYR d   1       0.661  21.728  60.266  0.00  0.00     0.241 C 
ATOM     34  O   TYR d   1       1.396  21.727  59.274  0.00  0.00    -0.271 OA
ATOM     35  N   VAL d   1      -0.662  21.808  60.152  0.00  0.00    -0.344 N 
ATOM     36  H72 VAL d   1      -1.220  21.741  60.980  0.00  0.00     0.163 HD
BRANCH  35  37
ATOM     37  CA  VAL d   1      -1.347  21.993  58.842  0.00  0.00     0.099 C 
ATOM     38  H73 VAL d   1      -0.832  21.310  58.151  0.00  0.00     0.090 H 
BRANCH  37  39
ATOM     39  C   VAL d   1      -1.270  23.375  58.198  0.00  0.00     0.197 C 
ATOM     40  O   VAL d   1      -0.866  24.343  58.915  0.00  0.00    -0.646 OA
ATOM     41  OXT VAL d   1      -1.570  23.530  56.960  0.00  0.00    -0.646 OA
ENDBRANCH  37  39
BRANCH  37  42
ATOM     42  CB  VAL d   1      -2.836  21.554  58.881  0.00  0.00    -0.032 C 
ATOM     43  H74 VAL d   1      -3.219  21.603  57.851  0.00  0.00     0.042 H 
BRANCH  42  44
ATOM     44  CG1 VAL d   1      -2.991  20.164  59.296  0.00  0.00    -0.071 C 
ATOM     45  H75 VAL d   1      -4.059  19.902  59.308  0.00  0.00     0.028 H 
ATOM     46  H76 VAL d   1      -2.570  20.033  60.304  0.00  0.00     0.028 H 
ATOM     47  H77 VAL d   1      -2.461  19.509  58.589  0.00  0.00     0.028 H 
ENDBRANCH  42  44
BRANCH  42  48
ATOM     48  CG2 VAL d   1      -3.621  22.594  59.687  0.00  0.00    -0.071 C 
ATOM     49  H78 VAL d   1      -3.424  23.597  59.282  0.00  0.00     0.028 H 
ATOM     50  H79 VAL d   1      -3.306  22.556  60.740  0.00  0.00     0.028 H 
ATOM     51  H80 VAL d   1      -4.697  22.376  59.618  0.00  0.00     0.028 H 
ENDBRANCH  42  48
ENDBRANCH  37  42
ENDBRANCH  35  37
ENDBRANCH  31  33
BRANCH  31  52
ATOM     52  CB  TYR d   1       1.224  22.969  62.428  0.00  0.00    -0.014 C 
ATOM     53  H65 TYR d   1       1.351  22.788  63.506  0.00  0.00     0.043 H 
ATOM     54  H66 TYR d   1       0.273  23.494  62.253  0.00  0.00     0.043 H 
BRANCH  52  55
ATOM     55  CG  TYR d   1       2.355  23.855  61.954  0.00  0.00    -0.056 A 
ATOM     56  CD1 TYR d   1       2.269  24.548  60.756  0.00  0.00    -0.074 A 
ATOM     57  CE1 TYR d   1       3.330  25.393  60.304  0.00  0.00    -0.051 A 
ATOM     58  H67 TYR d   1       1.377  24.447  60.148  0.00  0.00     0.084 H 
ATOM     59  CZ  TYR d   1       4.501  25.378  60.986  0.00  0.00     0.065 A 
ATOM     60  H69 TYR d   1       3.201  26.030  59.437  0.00  0.00     0.087 H 
ATOM     61  CE2 TYR d   1       4.653  24.646  62.141  0.00  0.00    -0.051 A 
ATOM     62  CD2 TYR d   1       3.565  23.860  62.609  0.00  0.00    -0.074 A 
ATOM     63  H70 TYR d   1       5.590  24.668  62.687  0.00  0.00     0.087 H 
ATOM     64  H68 TYR d   1       3.691  23.253  63.498  0.00  0.00     0.084 H 
BRANCH  59  65
ATOM     65  OH  TYR d   1       5.574  26.189  60.488  0.00  0.00    -0.361 OA
ATOM     66  H71 TYR d   1       5.298  26.621  59.688  0.00  0.00     0.217 HD
ENDBRANCH  59  65
ENDBRANCH  52  55
ENDBRANCH  31  52
ENDBRANCH  29  31
ENDBRANCH  25  27
BRANCH  25  67
ATOM     67  CB  LEU d   1       4.706  19.284  60.101  0.00  0.00    -0.035 C 
ATOM     68  H54 LEU d   1       4.052  18.676  59.459  0.00  0.00     0.037 H 
ATOM     69  H55 LEU d   1       5.706  18.828  60.141  0.00  0.00     0.037 H 
BRANCH  67  70
ATOM     70  CG  LEU d   1       4.850  20.680  59.442  0.00  0.00    -0.059 C 
ATOM     71  H56 LEU d   1       3.839  21.106  59.365  0.00  0.00     0.038 H 
BRANCH  70  72
ATOM     72  CD1 LEU d   1       5.692  21.639  60.245  0.00  0.00    -0.073 C 
ATOM     73  H57 LEU d   1       5.750  22.604  59.720  0.00  0.00     0.028 H 
ATOM     74  H58 LEU d   1       6.704  21.226  60.366  0.00  0.00     0.028 H 
ATOM     75  H59 LEU d   1       5.236  21.787  61.235  0.00  0.00     0.028 H 
ENDBRANCH  70  72
BRANCH  70  76
ATOM     76  CD2 LEU d   1       5.436  20.585  58.021  0.00  0.00    -0.073 C 
ATOM     77  H60 LEU d   1       4.832  19.888  57.421  0.00  0.00     0.028 H 
ATOM     78  H61 LEU d   1       6.472  20.219  58.075  0.00  0.00     0.028 H 
ATOM     79  H62 LEU d   1       5.422  21.580  57.551  0.00  0.00     0.028 H 
ENDBRANCH  70  76
ENDBRANCH  67  70
ENDBRANCH  25  67
ENDBRANCH  23  25
ENDBRANCH  10  21
ENDBRANCH   5   7
BRANCH   5  80
ATOM     80  CB  ASP d   1       7.620  17.862  67.018  0.00  0.00     0.043 C 
ATOM     81  H43 ASP d   1       8.288  18.123  66.184  0.00  0.00     0.052 H 
ATOM     82  H44 ASP d   1       8.219  17.667  67.920  0.00  0.00     0.052 H 
BRANCH  80  83
ATOM     83  CG  ASP d   1       6.732  19.030  67.290  0.00  0.00     0.175 C 
ATOM     84  OD1 ASP d   1       5.520  18.878  67.313  0.00  0.00    -0.648 OA
ATOM     85  OD2 ASP d   1       7.279  20.156  67.389  0.00  0.00    -0.648 OA
ENDBRANCH  80  83
ENDBRANCH   5  80
ENDBRANCH   3   5
BRANCH   1  86
ATOM     86  CA  PRO d   1       9.624  14.071  67.535  0.00  0.00     0.091 C 
ATOM     87  N   PRO d   1       9.733  13.397  66.231  0.00  0.00    -0.337 N 
ATOM     88  C   GLY d   1       9.149  12.276  65.917  0.00  0.00     0.238 C 
ATOM     89  CD  PRO d   1      10.934  13.878  65.489  0.00  0.00    -0.001 C 
ATOM     90  O   GLY d   1       9.393  11.606  64.861  0.00  0.00    -0.272 OA
ATOM     91  CG  PRO d   1      11.218  15.181  66.165  0.00  0.00    -0.048 C 
ATOM     92  H39 PRO d   1      10.713  14.022  64.421  0.00  0.00     0.064 H 
ATOM     93  H40 PRO d   1      11.777  13.180  65.598  0.00  0.00     0.064 H 
ATOM     94  CB  PRO d   1      10.885  14.921  67.597  0.00  0.00    -0.036 C 
ATOM     95  H37 PRO d   1      12.277  15.458  66.053  0.00  0.00     0.035 H 
ATOM     96  H38 PRO d   1      10.585  15.981  65.755  0.00  0.00     0.035 H 
ATOM     97  H35 PRO d   1      11.700  14.375  68.095  0.00  0.00     0.036 H 
ATOM     98  H36 PRO d   1      10.695  15.864  68.131  0.00  0.00     0.036 H 
ATOM     99  H34 PRO d   1       9.618  13.323  68.341  0.00  0.00     0.087 H 
BRANCH  88 100
ATOM    100  CA  GLY d   1       8.195  11.725  66.968  0.00  0.00     0.069 C 
ATOM    101  H32 GLY d   1       8.761  11.487  67.881  0.00  0.00     0.078 H 
ATOM    102  H33 GLY d   1       7.432  12.483  67.197  0.00  0.00     0.078 H 
BRANCH 100 103
ATOM    103  N   GLY d   1       7.548  10.532  66.488  0.00  0.00    -0.351 N 
ATOM    104  C   TRP d   1       6.282  10.282  66.708  0.00  0.00     0.241 C 
ATOM    105  O   TRP d   1       5.592  11.043  67.406  0.00  0.00    -0.271 OA
ATOM    106  H31 GLY d   1       8.086   9.869  65.967  0.00  0.00     0.163 HD
BRANCH 104 107
ATOM    107  CA  TRP d   1       5.670   9.054  66.083  0.00  0.00     0.093 C 
ATOM    108  H22 TRP d   1       6.485   8.384  65.773  0.00  0.00     0.088 H 
BRANCH 107 109
ATOM    109  N   TRP d   1       4.788   8.337  66.984  0.00  0.00    -0.346 N 
ATOM    110  C   VAL d   1       5.269   7.697  68.025  0.00  0.00     0.241 C 
ATOM    111  O   VAL d   1       6.492   7.608  68.249  0.00  0.00    -0.271 OA
ATOM    112  H21 TRP d   1       3.803   8.330  66.811  0.00  0.00     0.163 HD
BRANCH 110 113
ATOM    113  CA  VAL d   1       4.267   7.038  68.924  0.00  0.00     0.092 C 
ATOM    114  H13 VAL d   1       3.526   6.564  68.264  0.00  0.00     0.088 H 
BRANCH 113 115
ATOM    115  N   VAL d   1       4.770   6.003  69.751  0.00  0.00    -0.346 N 
ATOM    116  C   MET d   1       5.105   4.791  69.265  0.00  0.00     0.249 C 
ATOM    117  O   MET d   1       5.033   4.496  68.087  0.00  0.00    -0.271 OA
ATOM    118  H12 VAL d   1       4.880   6.178  70.729  0.00  0.00     0.163 HD
BRANCH 116 119
ATOM    119  CA  MET d   1       5.709   3.758  70.216  0.00  0.00     0.176 C 
ATOM    120  H4  MET d   1       5.649   4.117  71.254  0.00  0.00     0.099 H 
BRANCH 119 121
ATOM    121  N   MET d   1       5.010   2.469  70.062  0.00  0.00    -0.066 N 
ATOM    122  H1  MET d   1       5.412   1.792  70.691  0.00  0.00     0.275 HD
ATOM    123  H2  MET d   1       5.108   2.145  69.112  0.00  0.00     0.275 HD
ATOM    124  H3  MET d   1       4.033   2.589  70.277  0.00  0.00     0.275 HD
ENDBRANCH 119 121
BRANCH 119 125
ATOM    125  CB  MET d   1       7.169   3.479  69.811  0.00  0.00    -0.022 C 
ATOM    126  H5  MET d   1       7.200   3.101  68.778  0.00  0.00     0.037 H 
ATOM    127  H6  MET d   1       7.604   2.730  70.489  0.00  0.00     0.037 H 
BRANCH 125 128
ATOM    128  CG  MET d   1       7.917   4.701  69.900  0.00  0.00    -0.021 C 
ATOM    129  H7  MET d   1       7.536   5.258  70.769  0.00  0.00     0.049 H 
ATOM    130  H8  MET d   1       7.721   5.274  68.982  0.00  0.00     0.049 H 
BRANCH 128 131
ATOM    131  SD  MET d   1       9.665   4.576  70.080  0.00  0.00    -0.173 SA
BRANCH 131 132
ATOM    132  CE  MET d   1       9.818   3.871  71.653  0.00  0.00    -0.035 C 
ATOM    133  H9  MET d   1      10.883   3.737  71.893  0.00  0.00     0.041 H 
ATOM    134  H10 MET d   1       9.313   2.894  71.668  0.00  0.00     0.041 H 
ATOM    135  H11 MET d   1       9.355   4.534  72.399  0.00  0.00     0.041 H 
ENDBRANCH 131 132
ENDBRANCH 128 131
ENDBRANCH 125 128
ENDBRANCH 119 125
ENDBRANCH 116 119
ENDBRANCH 113 115
BRANCH 113 136
ATOM    136  CB  VAL d   1       3.532   8.097  69.735  0.00  0.00    -0.033 C 
ATOM    137  H14 VAL d   1       3.091   8.786  68.999  0.00  0.00     0.042 H 
BRANCH 136 138
ATOM    138  CG1 VAL d   1       2.379   7.576  70.595  0.00  0.00    -0.071 C 
ATOM    139  H15 VAL d   1       1.918   8.415  71.137  0.00  0.00     0.028 H 
ATOM    140  H16 VAL d   1       2.763   6.840  71.317  0.00  0.00     0.028 H 
ATOM    141  H17 VAL d   1       1.627   7.098  69.950  0.00  0.00     0.028 H 
ENDBRANCH 136 138
BRANCH 136 142
ATOM    142  CG2 VAL d   1       4.387   8.857  70.554  0.00  0.00    -0.071 C 
ATOM    143  H18 VAL d   1       5.224   9.241  69.953  0.00  0.00     0.028 H 
ATOM    144  H19 VAL d   1       4.778   8.223  71.364  0.00  0.00     0.028 H 
ATOM    145  H20 VAL d   1       3.828   9.700  70.985  0.00  0.00     0.028 H 
ENDBRANCH 136 142
ENDBRANCH 113 136
ENDBRANCH 110 113
ENDBRANCH 107 109
BRANCH 107 146
ATOM    146  CB  TRP d   1       4.833   9.435  64.865  0.00  0.00    -0.012 C 
ATOM    147  H23 TRP d   1       3.949   9.968  65.246  0.00  0.00     0.044 H 
ATOM    148  H24 TRP d   1       4.518   8.492  64.394  0.00  0.00     0.044 H 
BRANCH 146 149
ATOM    149  CG  TRP d   1       5.400  10.275  63.789  0.00  0.00    -0.028 A 
ATOM    150  CD1 TRP d   1       6.599  10.185  63.288  0.00  0.00    -0.015 A 
ATOM    151  NE1 TRP d   1       6.784  11.124  62.247  0.00  0.00    -0.365 N 
ATOM    152  H25 TRP d   1       7.358   9.481  63.626  0.00  0.00     0.112 H 
ATOM    153  CE2 TRP d   1       5.580  11.753  62.044  0.00  0.00     0.042 A 
ATOM    154  H26 TRP d   1       7.660  11.303  61.736  0.00  0.00     0.165 HD
ATOM    155  CD2 TRP d   1       4.668  11.222  62.976  0.00  0.00    -0.002 A 
ATOM    156  CZ2 TRP d   1       5.239  12.769  61.114  0.00  0.00    -0.056 A 
ATOM    157  CE3 TRP d   1       3.354  11.694  62.983  0.00  0.00    -0.070 A 
ATOM    158  CZ3 TRP d   1       2.985  12.705  62.013  0.00  0.00    -0.082 A 
ATOM    159  H27 TRP d   1       2.630  11.314  63.695  0.00  0.00     0.084 H 
ATOM    160  CH2 TRP d   1       3.941  13.228  61.141  0.00  0.00    -0.081 A 
ATOM    161  H29 TRP d   1       1.961  13.057  61.964  0.00  0.00     0.083 H 
ATOM    162  H30 TRP d   1       3.652  14.022  60.462  0.00  0.00     0.083 H 
ATOM    163  H28 TRP d   1       5.966  13.165  60.415  0.00  0.00     0.086 H 
ENDBRANCH 146 149
ENDBRANCH 107 146
ENDBRANCH 104 107
ENDBRANCH 100 103
ENDBRANCH  88 100
ENDBRANCH   1  86
TORSDOF 39
