REMARK  10 active torsions:
REMARK  status: ('A' for Active; 'I' for Inactive)
REMARK       I    between atoms: N_30  and  C1_1 
REMARK    1  A    between atoms: C1_1  and  C_32 
REMARK    2  A    between atoms: C2_2  and  N_30 
REMARK    3  A    between atoms: C7_5  and  N1_33 
REMARK    4  A    between atoms: C10_8  and  N2_34 
REMARK    5  A    between atoms: N2_34  and  C12_10 
REMARK    6  A    between atoms: N2_34  and  C13_11 
REMARK    7  A    between atoms: N3_26  and  C14_12 
REMARK    8  A    between atoms: C16_14  and  N8_22 
REMARK    9  A    between atoms: N8_22  and  C21_17 
REMARK   10  A    between atoms: N3_26  and  C4_27 
ROOT
ATOM      1  N6  8GN d   1      14.446  -0.667  17.849  0.00  0.00    -0.175 NA
ATOM      2  C14 8GN d   1      16.773  -1.624  14.702  0.00  0.00     0.134 A 
ATOM      3  C15 8GN d   1      15.410  -1.888  14.544  0.00  0.00     0.005 A 
ATOM      4  C16 8GN d   1      14.525  -1.596  15.581  0.00  0.00     0.131 A 
ATOM      5  C19 8GN d   1      15.414  -0.135  18.582  0.00  0.00     0.046 A 
ATOM      6  C20 8GN d   1      17.896   0.426  18.347  0.00  0.00     0.105 C 
ATOM      7  N7  8GN d   1      18.923   0.850  18.609  0.00  0.00    -0.191 NA
ATOM      8  C18 8GN d   1      16.653  -0.137  17.928  0.00  0.00     0.111 A 
ATOM      9  N4  8GN d   1      15.055  -1.024  16.707  0.00  0.00    -0.198 N 
ATOM     10  C17 8GN d   1      16.407  -0.739  16.726  0.00  0.00     0.177 A 
ATOM     11  N5  8GN d   1      17.275  -1.029  15.767  0.00  0.00    -0.210 NA
ATOM     12  H15 8GN d   1      15.041  -2.320  13.615  0.00  0.00     0.095 H 
ATOM     13  H16 8GN d   1      15.262   0.261  19.585  0.00  0.00     0.120 H 
ENDROOT
BRANCH   4  14
ATOM     14  N8  8GN d   1      13.205  -1.792  15.483  0.00  0.00    -0.364 N 
ATOM     15  H19 8GN d   1      12.621  -1.618  16.314  0.00  0.00     0.162 HD
BRANCH  14  16
ATOM     16  C21 8GN d   1      12.548  -2.242  14.253  0.00  0.00     0.044 A 
ATOM     17  C22 8GN d   1      11.269  -3.002  14.366  0.00  0.00    -0.079 A 
ATOM     18  C23 8GN d   1      12.415  -3.711  14.025  0.00  0.00    -0.079 A 
ATOM     19  H18 8GN d   1      10.199  -3.002  14.570  0.00  0.00     0.080 H 
ATOM     20  H20 8GN d   1      12.883  -4.661  13.772  0.00  0.00     0.080 H 
ATOM     21  H17 8GN d   1      12.734  -1.539  13.428  0.00  0.00     0.085 H 
ENDBRANCH  14  16
ENDBRANCH   4  14
BRANCH   2  22
ATOM     22  N3  8GN d   1      17.615  -2.041  13.699  0.00  0.00    -0.341 N 
ATOM     23  H21 8GN d   1      18.598  -2.124  13.996  0.00  0.00     0.167 HD
BRANCH  22  24
ATOM     24  C4  8GN d   1      17.408  -2.377  12.352  0.00  0.00     0.035 A 
ATOM     25  C3  8GN d   1      16.567  -1.665  11.501  0.00  0.00    -0.029 A 
ATOM     26  C2  8GN d   1      16.174  -2.199  10.273  0.00  0.00     0.063 A 
ATOM     27  H1  8GN d   1      16.213  -0.684  11.796  0.00  0.00     0.090 H 
ATOM     28  C7  8GN d   1      16.604  -3.488   9.909  0.00  0.00     0.057 A 
ATOM     29  C6  8GN d   1      17.417  -4.206  10.786  0.00  0.00    -0.053 A 
ATOM     30  C5  8GN d   1      17.836  -3.646  11.982  0.00  0.00    -0.055 A 
ATOM     31  H23 8GN d   1      17.724  -5.213  10.529  0.00  0.00     0.087 H 
ATOM     32  H22 8GN d   1      18.502  -4.201  12.633  0.00  0.00     0.087 H 
BRANCH  26  33
ATOM     33  N   8GN d   1      15.428  -1.457   9.317  0.00  0.00    -0.325 N 
ATOM     34  C1  8GN d   1      14.991  -0.169   9.294  0.00  0.00     0.218 C 
ATOM     35  O   8GN d   1      15.096   0.596  10.246  0.00  0.00    -0.274 OA
ATOM     36  H24 8GN d   1      15.176  -1.983   8.505  0.00  0.00     0.169 HD
BRANCH  34  37
ATOM     37  C   8GN d   1      14.398   0.268   7.988  0.00  0.00    -0.003 C 
ATOM     38  H25 8GN d   1      14.075   1.317   8.065  0.00  0.00     0.040 H 
ATOM     39  H26 8GN d   1      13.532  -0.366   7.748  0.00  0.00     0.040 H 
ATOM     40  H27 8GN d   1      15.152   0.174   7.193  0.00  0.00     0.040 H 
ENDBRANCH  34  37
ENDBRANCH  26  33
BRANCH  28  41
ATOM     41  N1  8GN d   1      16.273  -4.013   8.620  0.00  0.00    -0.377 N 
ATOM     42  C8  8GN d   1      16.829  -3.505   7.360  0.00  0.00    -0.003 C 
ATOM     43  C9  8GN d   1      16.641  -4.665   6.393  0.00  0.00    -0.022 C 
ATOM     44  H2  8GN d   1      16.279  -2.616   7.018  0.00  0.00     0.064 H 
ATOM     45  H3  8GN d   1      17.895  -3.256   7.473  0.00  0.00     0.064 H 
ATOM     46  C10 8GN d   1      15.347  -5.307   6.903  0.00  0.00     0.119 C 
ATOM     47  H4  8GN d   1      17.484  -5.370   6.447  0.00  0.00     0.038 H 
ATOM     48  H5  8GN d   1      16.528  -4.308   5.359  0.00  0.00     0.038 H 
ATOM     49  C11 8GN d   1      15.547  -5.269   8.414  0.00  0.00     0.022 C 
ATOM     50  H6  8GN d   1      14.522  -4.622   6.655  0.00  0.00     0.087 H 
ATOM     51  H7  8GN d   1      16.141  -6.129   8.756  0.00  0.00     0.067 H 
ATOM     52  H8  8GN d   1      14.581  -5.258   8.940  0.00  0.00     0.067 H 
BRANCH  46  53
ATOM     53  N2  8GN d   1      14.920  -6.659   6.315  0.00  0.00    -0.073 N 
ATOM     54  H28 8GN d   1      14.263  -7.043   6.976  0.00  0.00     0.279 HD
BRANCH  53  55
ATOM     55  C12 8GN d   1      14.197  -6.533   5.049  0.00  0.00     0.066 C 
ATOM     56  H9  8GN d   1      13.921  -7.533   4.683  0.00  0.00     0.068 H 
ATOM     57  H10 8GN d   1      14.840  -6.036   4.308  0.00  0.00     0.068 H 
ATOM     58  H11 8GN d   1      13.287  -5.936   5.205  0.00  0.00     0.068 H 
ENDBRANCH  53  55
BRANCH  53  59
ATOM     59  C13 8GN d   1      16.001  -7.647   6.202  0.00  0.00     0.066 C 
ATOM     60  H12 8GN d   1      16.529  -7.724   7.164  0.00  0.00     0.068 H 
ATOM     61  H13 8GN d   1      16.707  -7.330   5.420  0.00  0.00     0.068 H 
ATOM     62  H14 8GN d   1      15.576  -8.627   5.937  0.00  0.00     0.068 H 
ENDBRANCH  53  59
ENDBRANCH  46  53
ENDBRANCH  28  41
ENDBRANCH  22  24
ENDBRANCH   2  22
TORSDOF 10
