REMARK  5 active torsions:
REMARK  status: ('A' for Active; 'I' for Inactive)
REMARK    1  A    between atoms: C8_6  and  N5_28 
REMARK    2  A    between atoms: C16_14  and  C17_29 
REMARK    3  A    between atoms: N_22  and  C5_20 
REMARK    4  A    between atoms: N_22  and  C6_23 
REMARK    5  A    between atoms: C17_29  and  C18_30 
ROOT
ATOM      1  C7  8HN d   1      14.105   2.565  -0.513  0.00  0.00     0.006 A 
ATOM      2  C8  8HN d   1      15.376   2.311  -1.049  0.00  0.00     0.132 A 
ATOM      3  C9  8HN d   1      14.463   0.807  -2.535  0.00  0.00     0.177 A 
ATOM      4  C10 8HN d   1      12.939  -0.371  -3.650  0.00  0.00     0.046 A 
ATOM      5  C11 8HN d   1      14.323  -0.172  -3.537  0.00  0.00     0.111 A 
ATOM      6  C12 8HN d   1      15.360  -0.905  -4.182  0.00  0.00     0.105 C 
ATOM      7  C6  8HN d   1      12.980   1.925  -1.025  0.00  0.00     0.135 A 
ATOM      8  N2  8HN d   1      13.183   1.076  -2.093  0.00  0.00    -0.198 N 
ATOM      9  N3  8HN d   1      12.224   0.381  -2.780  0.00  0.00    -0.175 NA
ATOM     10  N4  8HN d   1      16.151  -1.523  -4.704  0.00  0.00    -0.191 NA
ATOM     11  N1  8HN d   1      15.562   1.394  -2.026  0.00  0.00    -0.210 NA
ATOM     12  H3  8HN d   1      13.997   3.269   0.311  0.00  0.00     0.095 H 
ATOM     13  H4  8HN d   1      12.487  -1.059  -4.363  0.00  0.00     0.120 H 
ENDROOT
BRANCH   7  14
ATOM     14  N   8HN d   1      11.725   1.910  -0.517  0.00  0.00    -0.341 N 
ATOM     15  H18 8HN d   1      11.003   1.414  -1.059  0.00  0.00     0.167 HD
BRANCH  14  16
ATOM     16  C5  8HN d   1      11.324   2.512   0.685  0.00  0.00     0.034 A 
ATOM     17  C4  8HN d   1      10.265   3.413   0.677  0.00  0.00    -0.049 A 
ATOM     18  C3  8HN d   1       9.855   4.036   1.855  0.00  0.00    -0.029 A 
ATOM     19  H16 8HN d   1       9.754   3.633  -0.253  0.00  0.00     0.087 H 
ATOM     20  C2  8HN d   1      10.536   3.754   3.050  0.00  0.00     0.041 A 
ATOM     21  C19 8HN d   1       8.667   4.966   1.887  0.00  0.00    -0.031 C 
ATOM     22  C1  8HN d   1      11.568   2.814   3.062  0.00  0.00    -0.054 A 
ATOM     23  N6  8HN d   1      10.139   4.395   4.236  0.00  0.00    -0.327 N 
ATOM     24  C   8HN d   1      11.968   2.208   1.883  0.00  0.00    -0.055 A 
ATOM     25  H1  8HN d   1      12.057   2.558   3.995  0.00  0.00     0.087 H 
ATOM     26  H17 8HN d   1      12.784   1.495   1.892  0.00  0.00     0.087 H 
ATOM     27  C21 8HN d   1       9.273   5.430   4.304  0.00  0.00     0.222 C 
ATOM     28  H2  8HN d   1      10.527   4.060   5.095  0.00  0.00     0.169 HD
ATOM     29  C20 8HN d   1       8.800   5.991   2.995  0.00  0.00     0.013 C 
ATOM     30  O2  8HN d   1       8.928   5.913   5.381  0.00  0.00    -0.273 OA
ATOM     31  H14 8HN d   1       7.815   6.455   3.155  0.00  0.00     0.047 H 
ATOM     32  H15 8HN d   1       9.518   6.758   2.670  0.00  0.00     0.047 H 
ATOM     33  H12 8HN d   1       7.754   4.375   2.053  0.00  0.00     0.040 H 
ATOM     34  H13 8HN d   1       8.595   5.489   0.922  0.00  0.00     0.040 H 
ENDBRANCH  14  16
ENDBRANCH   7  14
BRANCH   2  35
ATOM     35  N5  8HN d   1      16.471   3.068  -0.695  0.00  0.00    -0.360 N 
ATOM     36  C13 8HN d   1      17.825   2.771  -1.183  0.00  0.00    -0.003 C 
ATOM     37  C14 8HN d   1      18.713   3.777  -0.468  0.00  0.00    -0.048 C 
ATOM     38  H5  8HN d   1      18.115   1.742  -0.924  0.00  0.00     0.064 H 
ATOM     39  H6  8HN d   1      17.884   2.905  -2.273  0.00  0.00     0.064 H 
ATOM     40  C15 8HN d   1      17.960   4.125   0.787  0.00  0.00    -0.044 C 
ATOM     41  H7  8HN d   1      18.865   4.671  -1.090  0.00  0.00     0.035 H 
ATOM     42  H8  8HN d   1      19.688   3.330  -0.224  0.00  0.00     0.035 H 
ATOM     43  C16 8HN d   1      16.493   4.109   0.356  0.00  0.00     0.022 C 
ATOM     44  H9  8HN d   1      18.249   5.121   1.153  0.00  0.00     0.036 H 
ATOM     45  H10 8HN d   1      18.144   3.378   1.573  0.00  0.00     0.036 H 
ATOM     46  H11 8HN d   1      15.861   3.806   1.204  0.00  0.00     0.073 H 
BRANCH  43  47
ATOM     47  C17 8HN d   1      15.969   5.459  -0.167  0.00  0.00     0.035 C 
ATOM     48  H19 8HN d   1      14.893   5.362  -0.375  0.00  0.00     0.052 H 
ATOM     49  H20 8HN d   1      16.502   5.707  -1.097  0.00  0.00     0.052 H 
BRANCH  47  50
ATOM     50  C18 8HN d   1      16.172   6.589   0.826  0.00  0.00     0.174 C 
ATOM     51  O1  8HN d   1      15.786   6.327   2.055  0.00  0.00    -0.648 OA
ATOM     52  O   8HN d   1      16.641   7.663   0.498  0.00  0.00    -0.648 OA
ENDBRANCH  47  50
ENDBRANCH  43  47
ENDBRANCH   2  35
TORSDOF 5
