REMARK  15 active torsions:
REMARK  status: ('A' for Active; 'I' for Inactive)
REMARK    1  A    between atoms: C16_18  and  O1_1 
REMARK    2  A    between atoms: O1_1  and  C17_20 
REMARK    3  A    between atoms: C1_2  and  C_33 
REMARK    4  A    between atoms: C2_3  and  C3_4 
REMARK    5  A    between atoms: C13_15  and  C12_14 
REMARK    6  A    between atoms: O_32  and  C13_15 
REMARK    7  A    between atoms: C14_16  and  O_32 
REMARK    8  A    between atoms: C24_29  and  O3_19 
REMARK    9  A    between atoms: O3_19  and  C25_30 
REMARK   10  A    between atoms: C19_23  and  C18_21 
REMARK       I    between atoms: N1_22  and  C22_24 
REMARK   11  A    between atoms: C21_26  and  N1_22 
REMARK   12  A    between atoms: N_28  and  C19_23 
REMARK   13  A    between atoms: C22_24  and  C23_25 
REMARK   14  A    between atoms: C20_27  and  C21_26 
REMARK   15  A    between atoms: C20_27  and  N_28 
ROOT
ATOM      1  C14 8J8 d   1      -3.284  11.648 -23.121  0.00  0.00     0.074 A 
ATOM      2  C15 8J8 d   1      -2.502  10.510 -23.268  0.00  0.00    -0.018 A 
ATOM      3  C16 8J8 d   1      -1.315  10.596 -23.980  0.00  0.00     0.081 A 
ATOM      4  C18 8J8 d   1      -0.898  11.798 -24.574  0.00  0.00     0.034 A 
ATOM      5  C24 8J8 d   1      -1.725  12.914 -24.406  0.00  0.00     0.081 A 
ATOM      6  C26 8J8 d   1      -2.900  12.852 -23.684  0.00  0.00    -0.018 A 
ATOM      7  H11 8J8 d   1      -2.815   9.568 -22.832  0.00  0.00     0.092 H 
ATOM      8  H30 8J8 d   1      -3.514  13.736 -23.560  0.00  0.00     0.092 H 
ENDROOT
BRANCH   1   9
ATOM      9  O   8J8 d   1      -4.537  11.806 -22.574  0.00  0.00    -0.346 OA
BRANCH   9  10
ATOM     10  C13 8J8 d   1      -5.237  10.609 -22.248  0.00  0.00     0.050 C 
ATOM     11  H9  8J8 d   1      -5.450  10.099 -23.199  0.00  0.00     0.082 H 
ATOM     12  H10 8J8 d   1      -4.549   9.995 -21.648  0.00  0.00     0.082 H 
BRANCH  10  13
ATOM     13  C12 8J8 d   1      -6.540  10.669 -21.487  0.00  0.00    -0.027 A 
ATOM     14  C1  8J8 d   1      -7.755  11.142 -22.004  0.00  0.00    -0.043 A 
ATOM     15  C2  8J8 d   1      -8.959  10.755 -21.345  0.00  0.00    -0.019 A 
ATOM     16  C9  8J8 d   1      -8.899  10.016 -20.169  0.00  0.00    -0.072 A 
ATOM     17  C10 8J8 d   1      -7.684   9.632 -19.645  0.00  0.00    -0.082 A 
ATOM     18  H6  8J8 d   1      -9.816   9.740 -19.660  0.00  0.00     0.084 H 
ATOM     19  C11 8J8 d   1      -6.516   9.956 -20.297  0.00  0.00    -0.074 A 
ATOM     20  H7  8J8 d   1      -7.648   9.073 -18.717  0.00  0.00     0.083 H 
ATOM     21  H8  8J8 d   1      -5.565   9.650 -19.875  0.00  0.00     0.084 H 
BRANCH  14  22
ATOM     22  C   8J8 d   1      -7.771  12.126 -23.146  0.00  0.00    -0.050 C 
ATOM     23  H31 8J8 d   1      -8.812  12.372 -23.404  0.00  0.00     0.033 H 
ATOM     24  H32 8J8 d   1      -7.272  11.682 -24.020  0.00  0.00     0.033 H 
ATOM     25  H33 8J8 d   1      -7.241  13.043 -22.848  0.00  0.00     0.033 H 
ENDBRANCH  14  22
BRANCH  15  26
ATOM     26  C3  8J8 d   1     -10.337  11.057 -21.834  0.00  0.00    -0.025 A 
ATOM     27  C4  8J8 d   1     -11.236  11.766 -21.032  0.00  0.00    -0.072 A 
ATOM     28  C5  8J8 d   1     -12.535  12.002 -21.455  0.00  0.00    -0.082 A 
ATOM     29  H1  8J8 d   1     -10.913  12.136 -20.066  0.00  0.00     0.084 H 
ATOM     30  C6  8J8 d   1     -12.962  11.532 -22.679  0.00  0.00    -0.083 A 
ATOM     31  H2  8J8 d   1     -13.217  12.558 -20.822  0.00  0.00     0.083 H 
ATOM     32  C7  8J8 d   1     -12.090  10.817 -23.481  0.00  0.00    -0.082 A 
ATOM     33  H3  8J8 d   1     -13.976  11.722 -23.011  0.00  0.00     0.083 H 
ATOM     34  C8  8J8 d   1     -10.788  10.584 -23.066  0.00  0.00    -0.072 A 
ATOM     35  H4  8J8 d   1     -12.427  10.437 -24.439  0.00  0.00     0.083 H 
ATOM     36  H5  8J8 d   1     -10.113  10.028 -23.706  0.00  0.00     0.084 H 
ENDBRANCH  15  26
ENDBRANCH  10  13
ENDBRANCH   9  10
ENDBRANCH   1   9
BRANCH   3  37
ATOM     37  O1  8J8 d   1      -0.442   9.552 -24.126  0.00  0.00    -0.355 OA
BRANCH  37  38
ATOM     38  C17 8J8 d   1      -0.824   8.294 -23.588  0.00  0.00     0.010 C 
ATOM     39  H12 8J8 d   1      -0.030   7.557 -23.779  0.00  0.00     0.066 H 
ATOM     40  H13 8J8 d   1      -1.757   7.960 -24.064  0.00  0.00     0.066 H 
ATOM     41  H14 8J8 d   1      -0.980   8.391 -22.503  0.00  0.00     0.066 H 
ENDBRANCH  37  38
ENDBRANCH   3  37
BRANCH   5  42
ATOM     42  O3  8J8 d   1      -1.274  14.056 -25.003  0.00  0.00    -0.355 OA
BRANCH  42  43
ATOM     43  C25 8J8 d   1      -2.116  15.199 -24.950  0.00  0.00     0.010 C 
ATOM     44  H27 8J8 d   1      -1.628  16.038 -25.467  0.00  0.00     0.066 H 
ATOM     45  H28 8J8 d   1      -2.298  15.472 -23.900  0.00  0.00     0.066 H 
ATOM     46  H29 8J8 d   1      -3.074  14.972 -25.442  0.00  0.00     0.066 H 
ENDBRANCH  42  43
ENDBRANCH   5  42
BRANCH   4  47
ATOM     47  C19 8J8 d   1       0.403  11.972 -25.331  0.00  0.00     0.110 C 
ATOM     48  H16 8J8 d   1       1.212  11.719 -24.630  0.00  0.00     0.083 H 
ATOM     49  H17 8J8 d   1       0.471  13.036 -25.601  0.00  0.00     0.083 H 
BRANCH  47  50
ATOM     50  N   8J8 d   1       0.655  11.212 -26.555  0.00  0.00    -0.070 N 
ATOM     51  H25 8J8 d   1       0.453  10.241 -26.375  0.00  0.00     0.277 HD
ATOM     52  H26 8J8 d   1       1.628  11.313 -26.798  0.00  0.00     0.277 HD
BRANCH  50  53
ATOM     53  C20 8J8 d   1      -0.155  11.650 -27.694  0.00  0.00     0.096 C 
ATOM     54  H23 8J8 d   1      -1.187  11.827 -27.358  0.00  0.00     0.078 H 
ATOM     55  H24 8J8 d   1       0.264  12.583 -28.099  0.00  0.00     0.078 H 
BRANCH  53  56
ATOM     56  C21 8J8 d   1      -0.158  10.592 -28.779  0.00  0.00     0.018 C 
ATOM     57  H21 8J8 d   1      -1.193  10.268 -28.960  0.00  0.00     0.066 H 
ATOM     58  H22 8J8 d   1       0.258  11.024 -29.701  0.00  0.00     0.066 H 
BRANCH  56  59
ATOM     59  N1  8J8 d   1       0.642   9.435 -28.393  0.00  0.00    -0.360 N 
ATOM     60  C22 8J8 d   1       0.225   8.522 -27.510  0.00  0.00     0.213 C 
ATOM     61  O2  8J8 d   1      -0.932   8.504 -27.095  0.00  0.00    -0.274 OA
ATOM     62  H15 8J8 d   1       1.544   9.319 -28.808  0.00  0.00     0.162 HD
BRANCH  60  63
ATOM     63  C23 8J8 d   1       1.261   7.555 -27.018  0.00  0.00    -0.003 C 
ATOM     64  H18 8J8 d   1       2.218   7.754 -27.523  0.00  0.00     0.040 H 
ATOM     65  H19 8J8 d   1       0.937   6.527 -27.238  0.00  0.00     0.040 H 
ATOM     66  H20 8J8 d   1       1.388   7.675 -25.932  0.00  0.00     0.040 H 
ENDBRANCH  60  63
ENDBRANCH  56  59
ENDBRANCH  53  56
ENDBRANCH  50  53
ENDBRANCH  47  50
ENDBRANCH   4  47
TORSDOF 15
