REMARK  11 active torsions:
REMARK  status: ('A' for Active; 'I' for Inactive)
REMARK    1  A    between atoms: C21_4  and  C22_5 
REMARK    2  A    between atoms: C22_5  and  N_6 
REMARK    3  A    between atoms: N_6  and  C23_7 
REMARK    4  A    between atoms: C23_7  and  C24_8 
REMARK    5  A    between atoms: C24_8  and  C25_10 
REMARK    6  A    between atoms: C25_10  and  C26_11 
REMARK    7  A    between atoms: C2_14  and  O_18 
REMARK    8  A    between atoms: O_18  and  C3_19 
REMARK    9  A    between atoms: C3_19  and  C4_20 
REMARK   10  A    between atoms: C5_21  and  C6_22 
REMARK   11  A    between atoms: C7_23  and  C8_27 
ROOT
ATOM      1  C3  8HW d   1      33.167  12.206 133.585  0.00  0.00     0.050 C 
ATOM      2  H11 8HW d   1      32.128  12.143 133.940  0.00  0.00     0.082 H 
ATOM      3  H12 8HW d   1      33.285  11.586 132.684  0.00  0.00     0.082 H 
ENDROOT
BRANCH   1   4
ATOM      4  O   8HW d   1      34.060  11.807 134.585  0.00  0.00    -0.343 OA
BRANCH   4   5
ATOM      5  C2  8HW d   1      33.927  10.476 134.977  0.00  0.00     0.110 A 
ATOM      6  C19 8HW d   1      34.574  10.071 136.129  0.00  0.00     0.150 A 
ATOM      7  F1  8HW d   1      35.293  10.989 136.832  0.00  0.00    -0.203 F 
ATOM      8  C20 8HW d   1      34.493   8.758 136.556  0.00  0.00    -0.032 A 
ATOM      9  C21 8HW d   1      33.740   7.852 135.819  0.00  0.00     0.009 A 
ATOM     10  H1  8HW d   1      35.010   8.440 137.454  0.00  0.00     0.089 H 
ATOM     11  C   8HW d   1      33.094   8.263 134.663  0.00  0.00     0.127 A 
ATOM     12  C1  8HW d   1      33.182   9.577 134.234  0.00  0.00    -0.010 A 
ATOM     13  F   8HW d   1      32.372   7.354 133.951  0.00  0.00    -0.205 F 
ATOM     14  H10 8HW d   1      32.675   9.896 133.330  0.00  0.00     0.092 H 
BRANCH   9  15
ATOM     15  C22 8HW d   1      33.629   6.389 136.254  0.00  0.00     0.108 C 
ATOM     16  H2  8HW d   1      34.393   6.189 137.020  0.00  0.00     0.083 H 
ATOM     17  H3  8HW d   1      33.809   5.746 135.380  0.00  0.00     0.083 H 
BRANCH  15  18
ATOM     18  N   8HW d   1      32.327   6.072 136.803  0.00  0.00    -0.065 N 
ATOM     19  H4  8HW d   1      32.332   5.131 137.163  0.00  0.00     0.277 HD
ATOM     20  H5  8HW d   1      31.627   6.152 136.082  0.00  0.00     0.277 HD
BRANCH  18  21
ATOM     21  C23 8HW d   1      32.031   6.999 137.872  0.00  0.00     0.136 C 
ATOM     22  H6  8HW d   1      30.945   7.167 137.922  0.00  0.00     0.087 H 
ATOM     23  H7  8HW d   1      32.541   7.955 137.680  0.00  0.00     0.087 H 
BRANCH  21  24
ATOM     24  C24 8HW d   1      32.517   6.420 139.197  0.00  0.00     0.162 C 
ATOM     25  O3  8HW d   1      33.658   6.148 139.372  0.00  0.00    -0.296 OA
BRANCH  24  26
ATOM     26  C25 8HW d   1      31.478   6.193 140.288  0.00  0.00     0.072 C 
ATOM     27  H8  8HW d   1      31.645   6.906 141.108  0.00  0.00     0.060 H 
ATOM     28  H9  8HW d   1      31.567   5.166 140.671  0.00  0.00     0.060 H 
BRANCH  26  29
ATOM     29  C26 8HW d   1      30.079   6.402 139.708  0.00  0.00     0.179 C 
ATOM     30  O4  8HW d   1      29.489   5.450 139.126  0.00  0.00    -0.648 OA
ATOM     31  O5  8HW d   1      29.526   7.530 139.805  0.00  0.00    -0.648 OA
ENDBRANCH  26  29
ENDBRANCH  24  26
ENDBRANCH  21  24
ENDBRANCH  18  21
ENDBRANCH  15  18
ENDBRANCH   9  15
ENDBRANCH   4   5
ENDBRANCH   1   4
BRANCH   1  32
ATOM     32  C4  8HW d   1      33.555  13.645 133.305  0.00  0.00    -0.027 A 
ATOM     33  C5  8HW d   1      32.708  14.424 132.532  0.00  0.00    -0.043 A 
ATOM     34  C7  8HW d   1      33.038  15.737 132.272  0.00  0.00    -0.019 A 
ATOM     35  C16 8HW d   1      34.211  16.255 132.795  0.00  0.00    -0.072 A 
ATOM     36  C17 8HW d   1      35.053  15.474 133.572  0.00  0.00    -0.082 A 
ATOM     37  H16 8HW d   1      34.475  17.287 132.594  0.00  0.00     0.084 H 
ATOM     38  C18 8HW d   1      34.720  14.156 133.832  0.00  0.00    -0.074 A 
ATOM     39  H17 8HW d   1      35.968  15.894 133.974  0.00  0.00     0.083 H 
ATOM     40  H18 8HW d   1      35.367  13.535 134.441  0.00  0.00     0.084 H 
BRANCH  33  41
ATOM     41  C6  8HW d   1      31.448  13.787 131.986  0.00  0.00    -0.050 C 
ATOM     42  H13 8HW d   1      31.392  12.740 132.320  0.00  0.00     0.033 H 
ATOM     43  H14 8HW d   1      31.467  13.821 130.887  0.00  0.00     0.033 H 
ATOM     44  H15 8HW d   1      30.570  14.337 132.355  0.00  0.00     0.033 H 
ENDBRANCH  33  41
BRANCH  34  45
ATOM     45  C8  8HW d   1      32.160  16.668 131.425  0.00  0.00    -0.023 A 
ATOM     46  C9  8HW d   1      32.723  17.170 130.263  0.00  0.00    -0.037 A 
ATOM     47  C10 8HW d   1      31.976  18.043 129.455  0.00  0.00     0.102 A 
ATOM     48  H19 8HW d   1      33.732  16.891 129.980  0.00  0.00     0.089 H 
ATOM     49  C11 8HW d   1      30.712  18.401 129.828  0.00  0.00     0.102 A 
ATOM     50  O2  8HW d   1      32.587  18.532 128.280  0.00  0.00    -0.346 OA
ATOM     51  C14 8HW d   1      30.111  17.909 131.010  0.00  0.00    -0.047 A 
ATOM     52  O1  8HW d   1      29.960  19.302 129.016  0.00  0.00    -0.346 OA
ATOM     53  C15 8HW d   1      30.868  17.046 131.815  0.00  0.00    -0.069 A 
ATOM     54  H20 8HW d   1      29.100  18.189 131.284  0.00  0.00     0.087 H 
ATOM     55  H21 8HW d   1      30.452  16.670 132.743  0.00  0.00     0.085 H 
ATOM     56  C12 8HW d   1      30.727  19.992 128.033  0.00  0.00     0.046 C 
ATOM     57  C13 8HW d   1      31.722  19.077 127.344  0.00  0.00     0.046 C 
ATOM     58  H24 8HW d   1      30.044  20.408 127.277  0.00  0.00     0.078 H 
ATOM     59  H25 8HW d   1      31.276  20.811 128.521  0.00  0.00     0.078 H 
ATOM     60  H22 8HW d   1      31.180  18.267 126.833  0.00  0.00     0.078 H 
ATOM     61  H23 8HW d   1      32.299  19.654 126.607  0.00  0.00     0.078 H 
ENDBRANCH  34  45
ENDBRANCH   1  32
TORSDOF 11
