REMARK  18 active torsions:
REMARK  status: ('A' for Active; 'I' for Inactive)
REMARK    1  A    between atoms: C09_31  and  C10_1 
REMARK    2  A    between atoms: C10_1  and  N03_32 
REMARK    3  A    between atoms: C07_20  and  C11_2 
REMARK    4  A    between atoms: P01_11  and  C12_3 
REMARK    5  A    between atoms: C12_3  and  N04_25 
REMARK       I    between atoms: N04_25  and  C13_4 
REMARK    6  A    between atoms: C13_4  and  O06_26 
REMARK    7  A    between atoms: C14_5  and  C15_6 
REMARK    8  A    between atoms: O06_26  and  C14_5 
REMARK    9  A    between atoms: N01_12  and  P01_11 
REMARK   10  A    between atoms: C01_13  and  N01_12 
REMARK   11  A    between atoms: C01_13  and  C02_14 
REMARK   12  A    between atoms: C06_18  and  C01_13 
REMARK   13  A    between atoms: C02_14  and  C03_15 
REMARK   14  A    between atoms: C03_15  and  C04_16 
REMARK   15  A    between atoms: C03_15  and  C05_17 
REMARK       I    between atoms: N02_19  and  C06_18 
REMARK   16  A    between atoms: C07_20  and  N02_19 
REMARK   17  A    between atoms: C08_30  and  C07_20 
REMARK   18  A    between atoms: C08_30  and  C09_31 
ROOT
ATOM      1  C01 8KN d   1      10.096  38.642  -3.628  0.00  0.00     0.091 C 
ATOM      2  H11 8KN d   1       9.892  37.596  -3.899  0.00  0.00     0.087 H 
ENDROOT
BRANCH   1   3
ATOM      3  N01 8KN d   1      11.232  39.109  -4.414  0.00  0.00    -0.334 N 
ATOM      4  H10 8KN d   1      11.880  39.751  -4.004  0.00  0.00     0.164 HD
BRANCH   3   5
ATOM      5  P01 8KN d   1      11.475  38.591  -5.993  0.00  0.00     0.224 P 
ATOM      6  O01 8KN d   1      10.120  38.209  -6.557  0.00  0.00    -0.651 OA
ATOM      7  O05 8KN d   1      12.439  37.437  -6.123  0.00  0.00    -0.651 OA
BRANCH   5   8
ATOM      8  C12 8KN d   1      12.143  40.059  -6.856  0.00  0.00     0.086 C 
ATOM      9  H3  8KN d   1      12.873  40.571  -6.212  0.00  0.00     0.083 H 
ATOM     10  H4  8KN d   1      11.325  40.751  -7.104  0.00  0.00     0.083 H 
BRANCH   8  11
ATOM     11  N04 8KN d   1      12.781  39.614  -8.053  0.00  0.00    -0.325 N 
ATOM     12  C13 8KN d   1      12.797  40.393  -9.229  0.00  0.00     0.361 C 
ATOM     13  O07 8KN d   1      12.332  41.482  -9.330  0.00  0.00    -0.238 OA
ATOM     14  H23 8KN d   1      13.231  38.721  -8.058  0.00  0.00     0.165 HD
BRANCH  12  15
ATOM     15  O06 8KN d   1      13.466  39.690 -10.216  0.00  0.00    -0.299 OA
BRANCH  15  16
ATOM     16  C14 8KN d   1      13.789  40.344 -11.412  0.00  0.00     0.054 C 
ATOM     17  H5  8KN d   1      13.425  39.748 -12.261  0.00  0.00     0.082 H 
ATOM     18  H6  8KN d   1      13.309  41.333 -11.426  0.00  0.00     0.082 H 
BRANCH  16  19
ATOM     19  C15 8KN d   1      15.303  40.517 -11.530  0.00  0.00    -0.034 A 
ATOM     20  C16 8KN d   1      15.997  39.913 -12.576  0.00  0.00    -0.075 A 
ATOM     21  C17 8KN d   1      17.378  40.053 -12.695  0.00  0.00    -0.082 A 
ATOM     22  H7  8KN d   1      15.455  39.325 -13.308  0.00  0.00     0.084 H 
ATOM     23  C18 8KN d   1      18.077  40.816 -11.765  0.00  0.00    -0.083 A 
ATOM     24  H24 8KN d   1      17.906  39.569 -13.509  0.00  0.00     0.083 H 
ATOM     25  C19 8KN d   1      17.382  41.401 -10.710  0.00  0.00    -0.082 A 
ATOM     26  H25 8KN d   1      19.148  40.953 -11.861  0.00  0.00     0.083 H 
ATOM     27  C20 8KN d   1      16.015  41.248 -10.595  0.00  0.00    -0.075 A 
ATOM     28  H8  8KN d   1      17.920  41.983  -9.971  0.00  0.00     0.083 H 
ATOM     29  H9  8KN d   1      15.493  41.706  -9.762  0.00  0.00     0.084 H 
ENDBRANCH  16  19
ENDBRANCH  15  16
ENDBRANCH  12  15
ENDBRANCH   8  11
ENDBRANCH   5   8
ENDBRANCH   3   5
ENDBRANCH   1   3
BRANCH   1  30
ATOM     30  C02 8KN d   1      10.451  38.711  -2.142  0.00  0.00    -0.035 C 
ATOM     31  H12 8KN d   1      10.626  39.765  -1.881  0.00  0.00     0.037 H 
ATOM     32  H13 8KN d   1      11.376  38.136  -1.984  0.00  0.00     0.037 H 
BRANCH  30  33
ATOM     33  C03 8KN d   1       9.386  38.161  -1.203  0.00  0.00    -0.059 C 
ATOM     34  H14 8KN d   1       8.424  38.609  -1.493  0.00  0.00     0.038 H 
BRANCH  33  35
ATOM     35  C04 8KN d   1       9.241  36.645  -1.333  0.00  0.00    -0.073 C 
ATOM     36  H15 8KN d   1       8.464  36.290  -0.640  0.00  0.00     0.028 H 
ATOM     37  H16 8KN d   1      10.199  36.163  -1.088  0.00  0.00     0.028 H 
ATOM     38  H17 8KN d   1       8.956  36.391  -2.365  0.00  0.00     0.028 H 
ENDBRANCH  33  35
BRANCH  33  39
ATOM     39  C05 8KN d   1       9.672  38.572   0.232  0.00  0.00    -0.073 C 
ATOM     40  H18 8KN d   1       9.770  39.666   0.287  0.00  0.00     0.028 H 
ATOM     41  H19 8KN d   1      10.608  38.103   0.568  0.00  0.00     0.028 H 
ATOM     42  H20 8KN d   1       8.845  38.245   0.879  0.00  0.00     0.028 H 
ENDBRANCH  33  39
ENDBRANCH  30  33
ENDBRANCH   1  30
BRANCH   1  43
ATOM     43  C06 8KN d   1       8.845  39.455  -3.888  0.00  0.00     0.241 C 
ATOM     44  N02 8KN d   1       9.095  40.813  -4.148  0.00  0.00    -0.345 N 
ATOM     45  H21 8KN d   1      10.036  41.151  -4.153  0.00  0.00     0.163 HD
ATOM     46  O04 8KN d   1       7.734  39.003  -3.846  0.00  0.00    -0.271 OA
BRANCH  44  47
ATOM     47  C07 8KN d   1       8.006  41.728  -4.409  0.00  0.00     0.096 C 
ATOM     48  H22 8KN d   1       7.134  41.142  -4.734  0.00  0.00     0.089 H 
BRANCH  47  49
ATOM     49  C11 8KN d   1       8.396  42.661  -5.543  0.00  0.00     0.196 C 
ATOM     50  O02 8KN d   1       7.502  43.415  -6.009  0.00  0.00    -0.646 OA
ATOM     51  O03 8KN d   1       9.584  42.653  -5.980  0.00  0.00    -0.646 OA
ENDBRANCH  47  49
BRANCH  47  52
ATOM     52  C08 8KN d   1       7.607  42.494  -3.141  0.00  0.00    -0.035 C 
ATOM     53  H26 8KN d   1       7.478  41.774  -2.320  0.00  0.00     0.036 H 
ATOM     54  H27 8KN d   1       6.655  43.012  -3.327  0.00  0.00     0.036 H 
BRANCH  52  55
ATOM     55  C09 8KN d   1       8.654  43.527  -2.726  0.00  0.00    -0.041 C 
ATOM     56  H28 8KN d   1       9.572  43.005  -2.419  0.00  0.00     0.035 H 
ATOM     57  H29 8KN d   1       8.873  44.182  -3.583  0.00  0.00     0.035 H 
BRANCH  55  58
ATOM     58  C10 8KN d   1       8.147  44.385  -1.553  0.00  0.00     0.080 C 
ATOM     59  H1  8KN d   1       8.146  43.773  -0.639  0.00  0.00     0.075 H 
ATOM     60  H2  8KN d   1       7.122  44.718  -1.772  0.00  0.00     0.075 H 
BRANCH  58  61
ATOM     61  N03 8KN d   1       8.996  45.568  -1.334  0.00  0.00    -0.079 N 
ATOM     62  H30 8KN d   1       8.633  46.103  -0.560  0.00  0.00     0.274 HD
ATOM     63  H31 8KN d   1       8.999  46.138  -2.165  0.00  0.00     0.274 HD
ATOM     64  H32 8KN d   1       9.937  45.273  -1.126  0.00  0.00     0.274 HD
ENDBRANCH  58  61
ENDBRANCH  55  58
ENDBRANCH  52  55
ENDBRANCH  47  52
ENDBRANCH  44  47
ENDBRANCH   1  43
TORSDOF 18
