REMARK  7 active torsions:
REMARK  status: ('A' for Active; 'I' for Inactive)
REMARK    1  A    between atoms: CAA_1  and  OAB_2 
REMARK    2  A    between atoms: OAB_2  and  CAC_3 
REMARK    3  A    between atoms: CAL_6  and  OAQ_7 
REMARK    4  A    between atoms: CAE_9  and  CAF_10 
REMARK    5  A    between atoms: CAF_10  and  CAG_11 
REMARK    6  A    between atoms: CAG_11  and  CAH_12 
REMARK    7  A    between atoms: CAN_17  and  OAR_18 
ROOT
ATOM      1  CAF 8KW d   1      12.697  -0.205   1.404  0.00  0.00    -0.037 C 
ATOM      2  H8  8KW d   1      12.271  -1.056   1.955  0.00  0.00     0.040 H 
ATOM      3  H9  8KW d   1      12.466   0.729   1.937  0.00  0.00     0.040 H 
ENDROOT
BRANCH   1   4
ATOM      4  CAE 8KW d   1      12.081  -0.151   0.122  0.00  0.00    -0.053 A 
ATOM      5  CAD 8KW d   1      10.701  -0.293   0.108  0.00  0.00    -0.045 A 
ATOM      6  CAC 8KW d   1       9.991  -0.284  -1.085  0.00  0.00     0.071 A 
ATOM      7  H4  8KW d   1      10.168  -0.413   1.044  0.00  0.00     0.088 H 
ATOM      8  CAK 8KW d   1      10.637  -0.110  -2.302  0.00  0.00    -0.019 A 
ATOM      9  CAL 8KW d   1      11.994   0.038  -2.345  0.00  0.00     0.068 A 
ATOM     10  H5  8KW d   1      10.062  -0.092  -3.221  0.00  0.00     0.092 H 
ATOM     11  CAM 8KW d   1      12.695   0.016  -1.124  0.00  0.00    -0.045 A 
ATOM     12  H7  8KW d   1      13.772   0.135  -1.151  0.00  0.00     0.088 H 
BRANCH   6  13
ATOM     13  OAB 8KW d   1       8.646  -0.431  -1.044  0.00  0.00    -0.356 OA
BRANCH  13  14
ATOM     14  CAA 8KW d   1       8.137  -1.423  -1.923  0.00  0.00     0.010 C 
ATOM     15  H1  8KW d   1       7.043  -1.474  -1.824  0.00  0.00     0.066 H 
ATOM     16  H2  8KW d   1       8.574  -2.399  -1.667  0.00  0.00     0.066 H 
ATOM     17  H3  8KW d   1       8.400  -1.164  -2.959  0.00  0.00     0.066 H 
ENDBRANCH  13  14
ENDBRANCH   6  13
BRANCH   9  18
ATOM     18  OAQ 8KW d   1      12.523   0.211  -3.594  0.00  0.00    -0.361 OA
ATOM     19  H6  8KW d   1      12.316  -0.544  -4.132  0.00  0.00     0.217 HD
ENDBRANCH   9  18
ENDBRANCH   1   4
BRANCH   1  20
ATOM     20  CAG 8KW d   1      14.244  -0.374   1.366  0.00  0.00    -0.035 C 
ATOM     21  H10 8KW d   1      14.708   0.604   1.172  0.00  0.00     0.040 H 
ATOM     22  H11 8KW d   1      14.510  -1.073   0.559  0.00  0.00     0.040 H 
BRANCH  20  23
ATOM     23  CAH 8KW d   1      14.744  -0.897   2.635  0.00  0.00    -0.025 A 
ATOM     24  CAI 8KW d   1      14.680  -0.093   3.760  0.00  0.00    -0.074 A 
ATOM     25  CAJ 8KW d   1      15.130  -0.522   5.027  0.00  0.00    -0.082 A 
ATOM     26  H12 8KW d   1      14.268   0.905   3.664  0.00  0.00     0.084 H 
ATOM     27  CAP 8KW d   1      15.683  -1.785   5.217  0.00  0.00    -0.080 A 
ATOM     28  H13 8KW d   1      15.043   0.149   5.874  0.00  0.00     0.083 H 
ATOM     29  CAO 8KW d   1      15.786  -2.613   4.116  0.00  0.00    -0.051 A 
ATOM     30  H14 8KW d   1      16.021  -2.108   6.195  0.00  0.00     0.083 H 
ATOM     31  CAN 8KW d   1      15.326  -2.163   2.873  0.00  0.00     0.071 A 
ATOM     32  H15 8KW d   1      16.219  -3.602   4.214  0.00  0.00     0.087 H 
BRANCH  31  33
ATOM     33  OAR 8KW d   1      15.428  -3.031   1.866  0.00  0.00    -0.360 OA
ATOM     34  H16 8KW d   1      16.340  -3.265   1.742  0.00  0.00     0.217 HD
ENDBRANCH  31  33
ENDBRANCH  20  23
ENDBRANCH   1  20
TORSDOF 7
