REMARK  4 active torsions:
REMARK  status: ('A' for Active; 'I' for Inactive)
REMARK    1  A    between atoms: CAK_1  and  CAJ_2 
REMARK    2  A    between atoms: NAF_5  and  CAG_6 
REMARK    3  A    between atoms: NAB_9  and  CAC_10 
REMARK    4  A    between atoms: CAL_13  and  NAM_14 
ROOT
ATOM      1  CAJ 8LW d   1     -26.945  -7.471  26.299  0.00  0.00    -0.032 A 
ATOM      2  CAI 8LW d   1     -26.759  -6.177  25.824  0.00  0.00    -0.047 A 
ATOM      3  CAH 8LW d   1     -25.512  -5.804  25.319  0.00  0.00     0.066 A 
ATOM      4  NAF 8LW d   1     -25.074  -4.676  24.783  0.00  0.00    -0.302 N 
ATOM      5  CAD 8LW d   1     -23.795  -4.802  24.431  0.00  0.00     0.329 A 
ATOM      6  OAE 8LW d   1     -23.089  -3.940  23.899  0.00  0.00    -0.246 OA
ATOM      7  NAB 8LW d   1     -23.414  -6.077  24.735  0.00  0.00    -0.302 N 
ATOM      8  CAA 8LW d   1     -24.473  -6.727  25.264  0.00  0.00     0.067 A 
ATOM      9  CBB 8LW d   1     -24.649  -8.033  25.743  0.00  0.00    -0.028 A 
ATOM     10  CAL 8LW d   1     -25.891  -8.378  26.300  0.00  0.00     0.054 A 
ATOM     11  H4  8LW d   1     -27.575  -5.464  25.846  0.00  0.00     0.088 H 
ATOM     12  H11 8LW d   1     -23.846  -8.759  25.685  0.00  0.00     0.090 H 
ENDROOT
BRANCH  10  13
ATOM     13  NAM 8LW d   1     -26.032  -9.737  26.713  0.00  0.00    -0.243 N 
ATOM     14  CAN 8LW d   1     -26.779 -10.645  25.930  0.00  0.00     0.266 A 
ATOM     15  OAO 8LW d   1     -27.346 -10.277  24.880  0.00  0.00    -0.267 OA
ATOM     16  CAP 8LW d   1     -26.885 -12.005  26.362  0.00  0.00     0.045 A 
ATOM     17  CAY 8LW d   1     -26.148 -12.417  27.520  0.00  0.00     0.006 A 
ATOM     18  CAQ 8LW d   1     -27.626 -12.946  25.608  0.00  0.00    -0.067 A 
ATOM     19  CAT 8LW d   1     -26.191 -13.773  27.937  0.00  0.00    -0.024 A 
ATOM     20  CAX 8LW d   1     -25.401 -11.488  28.280  0.00  0.00     0.045 A 
ATOM     21  CAS 8LW d   1     -26.934 -14.693  27.174  0.00  0.00    -0.072 A 
ATOM     22  CAU 8LW d   1     -25.509 -14.175  29.135  0.00  0.00    -0.072 A 
ATOM     23  CAR 8LW d   1     -27.664 -14.298  26.030  0.00  0.00    -0.081 A 
ATOM     24  H14 8LW d   1     -26.947 -15.735  27.472  0.00  0.00     0.084 H 
ATOM     25  H13 8LW d   1     -28.249 -15.025  25.479  0.00  0.00     0.083 H 
ATOM     26  CAV 8LW d   1     -24.774 -13.238  29.858  0.00  0.00    -0.081 A 
ATOM     27  H15 8LW d   1     -25.566 -15.203  29.475  0.00  0.00     0.084 H 
ATOM     28  CAW 8LW d   1     -24.719 -11.881  29.451  0.00  0.00    -0.067 A 
ATOM     29  H16 8LW d   1     -24.236 -13.551  30.745  0.00  0.00     0.083 H 
ATOM     30  H17 8LW d   1     -24.161 -11.155  30.031  0.00  0.00     0.085 H 
ATOM     31  CAZ 8LW d   1     -25.334 -10.139  27.870  0.00  0.00     0.266 A 
ATOM     32  OBA 8LW d   1     -24.703  -9.291  28.516  0.00  0.00    -0.267 OA
ATOM     33  H12 8LW d   1     -28.159 -12.636  24.717  0.00  0.00     0.085 H 
ENDBRANCH  10  13
BRANCH   1  34
ATOM     34  CAK 8LW d   1     -28.242  -7.945  26.919  0.00  0.00    -0.049 C 
ATOM     35  H1  8LW d   1     -28.992  -7.143  26.857  0.00  0.00     0.033 H 
ATOM     36  H2  8LW d   1     -28.070  -8.206  27.974  0.00  0.00     0.033 H 
ATOM     37  H3  8LW d   1     -28.606  -8.830  26.377  0.00  0.00     0.033 H 
ENDBRANCH   1  34
BRANCH   7  38
ATOM     38  CAC 8LW d   1     -22.088  -6.654  24.475  0.00  0.00    -0.009 C 
ATOM     39  H8  8LW d   1     -21.432  -5.885  24.041  0.00  0.00     0.057 H 
ATOM     40  H9  8LW d   1     -22.185  -7.493  23.770  0.00  0.00     0.057 H 
ATOM     41  H10 8LW d   1     -21.654  -7.016  25.419  0.00  0.00     0.057 H 
ENDBRANCH   7  38
BRANCH   4  42
ATOM     42  CAG 8LW d   1     -25.904  -3.457  24.635  0.00  0.00    -0.009 C 
ATOM     43  H5  8LW d   1     -26.918  -3.656  25.013  0.00  0.00     0.057 H 
ATOM     44  H6  8LW d   1     -25.957  -3.176  23.573  0.00  0.00     0.057 H 
ATOM     45  H7  8LW d   1     -25.453  -2.634  25.210  0.00  0.00     0.057 H 
ENDBRANCH   4  42
TORSDOF 4
