REMARK  8 active torsions:
REMARK  status: ('A' for Active; 'I' for Inactive)
REMARK    1  A    between atoms: N01_1  and  C02_2 
REMARK       I    between atoms: N01_1  and  C16_16 
REMARK    2  A    between atoms: C02_2  and  C03_3 
REMARK    3  A    between atoms: C02_2  and  C06_6 
REMARK    4  A    between atoms: C06_6  and  C07_7 
REMARK    5  A    between atoms: C16_16  and  C18_18 
REMARK    6  A    between atoms: C18_18  and  C19_19 
REMARK    7  A    between atoms: C18_18  and  C21_21 
REMARK    8  A    between atoms: C19_19  and  S20_20 
ROOT
ATOM      1  C02 R38 d   1     -31.267   9.812  71.557  0.00  0.00     0.100 C 
ATOM      2  H2  R38 d   1     -30.204   9.708  71.294  0.00  0.00     0.090 H 
ENDROOT
BRANCH   1   3
ATOM      3  N01 R38 d   1     -31.741  11.174  71.279  0.00  0.00    -0.346 N 
ATOM      4  C16 R38 d   1     -30.922  12.342  71.001  0.00  0.00     0.223 C 
ATOM      5  O17 R38 d   1     -29.737  12.333  70.981  0.00  0.00    -0.273 OA
ATOM      6  H1  R38 d   1     -32.731  11.312  71.281  0.00  0.00     0.163 HD
BRANCH   4   7
ATOM      7  C18 R38 d   1     -31.675  13.653  70.801  0.00  0.00     0.028 C 
ATOM      8  H11 R38 d   1     -32.720  13.439  70.534  0.00  0.00     0.055 H 
BRANCH   7   9
ATOM      9  C19 R38 d   1     -31.618  14.415  72.135  0.00  0.00    -0.015 C 
ATOM     10  H12 R38 d   1     -32.245  15.315  72.049  0.00  0.00     0.049 H 
ATOM     11  H13 R38 d   1     -30.575  14.711  72.323  0.00  0.00     0.049 H 
BRANCH   9  12
ATOM     12  S20 R38 d   1     -32.208  13.432  73.565  0.00  0.00    -0.181 SA
ATOM     13  H14 R38 d   1     -32.144  13.989  74.403  0.00  0.00     0.101 HD
ENDBRANCH   9  12
ENDBRANCH   7   9
BRANCH   7  14
ATOM     14  C21 R38 d   1     -31.044  14.513  69.701  0.00  0.00    -0.064 C 
ATOM     15  H15 R38 d   1     -31.083  13.971  68.745  0.00  0.00     0.028 H 
ATOM     16  H16 R38 d   1     -29.996  14.727  69.959  0.00  0.00     0.028 H 
ATOM     17  H17 R38 d   1     -31.600  15.458  69.610  0.00  0.00     0.028 H 
ENDBRANCH   7  14
ENDBRANCH   4   7
ENDBRANCH   1   3
BRANCH   1  18
ATOM     18  C03 R38 d   1     -31.472   9.489  73.045  0.00  0.00     0.197 C 
ATOM     19  O04 R38 d   1     -32.452   9.962  73.682  0.00  0.00    -0.646 OA
ATOM     20  O05 R38 d   1     -30.672   8.742  73.666  0.00  0.00    -0.646 OA
ENDBRANCH   1  18
BRANCH   1  21
ATOM     21  C06 R38 d   1     -32.128   8.885  70.698  0.00  0.00    -0.011 C 
ATOM     22  H3  R38 d   1     -32.274   9.375  69.724  0.00  0.00     0.044 H 
ATOM     23  H4  R38 d   1     -33.100   8.773  71.201  0.00  0.00     0.044 H 
BRANCH  21  24
ATOM     24  C07 R38 d   1     -31.581   7.481  70.432  0.00  0.00    -0.028 A 
ATOM     25  C08 R38 d   1     -32.364   6.382  70.036  0.00  0.00    -0.002 A 
ATOM     26  C09 R38 d   1     -31.500   5.318  69.890  0.00  0.00     0.042 A 
ATOM     27  C15 R38 d   1     -33.743   6.221  69.795  0.00  0.00    -0.070 A 
ATOM     28  N10 R38 d   1     -30.252   5.732  70.179  0.00  0.00    -0.365 N 
ATOM     29  C12 R38 d   1     -32.002   4.062  69.501  0.00  0.00    -0.056 A 
ATOM     30  C11 R38 d   1     -30.270   7.020  70.502  0.00  0.00    -0.015 A 
ATOM     31  H5  R38 d   1     -29.410   5.139  70.153  0.00  0.00     0.165 HD
ATOM     32  H6  R38 d   1     -29.402   7.617  70.776  0.00  0.00     0.112 H 
ATOM     33  C13 R38 d   1     -33.364   3.902  69.262  0.00  0.00    -0.081 A 
ATOM     34  H7  R38 d   1     -31.329   3.220  69.388  0.00  0.00     0.086 H 
ATOM     35  C14 R38 d   1     -34.236   4.981  69.406  0.00  0.00    -0.082 A 
ATOM     36  H8  R38 d   1     -33.749   2.934  68.962  0.00  0.00     0.083 H 
ATOM     37  H9  R38 d   1     -35.295   4.853  69.215  0.00  0.00     0.083 H 
ATOM     38  H10 R38 d   1     -34.417   7.062  69.913  0.00  0.00     0.084 H 
ENDBRANCH  21  24
ENDBRANCH   1  21
TORSDOF 8
