REMARK  8 active torsions:
REMARK  status: ('A' for Active; 'I' for Inactive)
REMARK    1  A    between atoms: C18_14  and  C21_1 
REMARK    2  A    between atoms: C16_5  and  C18_14 
REMARK       I    between atoms: N01_16  and  C16_5 
REMARK    3  A    between atoms: C02_7  and  C03_8 
REMARK    4  A    between atoms: C06_9  and  C02_7 
REMARK    5  A    between atoms: C02_7  and  N01_16 
REMARK    6  A    between atoms: C07_10  and  C06_9 
REMARK    7  A    between atoms: C18_14  and  C19_15 
REMARK    8  A    between atoms: C19_15  and  S20_21 
ROOT
ATOM      1  C02 R59 d   1      58.400  -1.608  32.355  0.00  0.00     0.100 C 
ATOM      2  H8  R59 d   1      57.615  -2.357  32.176  0.00  0.00     0.090 H 
ENDROOT
BRANCH   1   3
ATOM      3  C03 R59 d   1      58.607  -0.823  31.059  0.00  0.00     0.197 C 
ATOM      4  O04 R59 d   1      59.747  -0.649  30.592  0.00  0.00    -0.646 OA
ATOM      5  O05 R59 d   1      57.648  -0.380  30.397  0.00  0.00    -0.646 OA
ENDBRANCH   1   3
BRANCH   1   6
ATOM      6  C06 R59 d   1      57.945  -0.782  33.559  0.00  0.00    -0.011 C 
ATOM      7  H9  R59 d   1      58.282  -1.312  34.462  0.00  0.00     0.044 H 
ATOM      8  H10 R59 d   1      56.846  -0.756  33.538  0.00  0.00     0.044 H 
BRANCH   6   9
ATOM      9  C07 R59 d   1      58.425   0.653  33.677  0.00  0.00    -0.028 A 
ATOM     10  C08 R59 d   1      57.619   1.774  33.982  0.00  0.00    -0.002 A 
ATOM     11  C15 R59 d   1      56.240   1.942  34.230  0.00  0.00    -0.070 A 
ATOM     12  C09 R59 d   1      58.476   2.861  33.993  0.00  0.00     0.042 A 
ATOM     13  C14 R59 d   1      55.728   3.214  34.494  0.00  0.00    -0.082 A 
ATOM     14  H7  R59 d   1      55.578   1.084  34.216  0.00  0.00     0.084 H 
ATOM     15  C13 R59 d   1      56.599   4.310  34.514  0.00  0.00    -0.081 A 
ATOM     16  H4  R59 d   1      54.669   3.351  34.681  0.00  0.00     0.083 H 
ATOM     17  C12 R59 d   1      57.965   4.145  34.263  0.00  0.00    -0.056 A 
ATOM     18  H5  R59 d   1      56.210   5.299  34.727  0.00  0.00     0.083 H 
ATOM     19  H6  R59 d   1      58.628   5.003  34.276  0.00  0.00     0.086 H 
ATOM     20  N10 R59 d   1      59.719   2.429  33.716  0.00  0.00    -0.365 N 
ATOM     21  C11 R59 d   1      59.717   1.118  33.530  0.00  0.00    -0.015 A 
ATOM     22  H16 R59 d   1      60.553   3.031  33.657  0.00  0.00     0.165 HD
ATOM     23  H11 R59 d   1      60.589   0.508  33.300  0.00  0.00     0.112 H 
ENDBRANCH   6   9
ENDBRANCH   1   6
BRANCH   1  24
ATOM     24  N01 R59 d   1      59.666  -2.308  32.589  0.00  0.00    -0.346 N 
ATOM     25  C16 R59 d   1      59.718  -3.638  33.097  0.00  0.00     0.223 C 
ATOM     26  O17 R59 d   1      60.783  -4.133  33.215  0.00  0.00    -0.273 OA
ATOM     27  H15 R59 d   1      60.523  -1.836  32.385  0.00  0.00     0.163 HD
BRANCH  25  28
ATOM     28  C18 R59 d   1      58.481  -4.445  33.493  0.00  0.00     0.028 C 
ATOM     29  H12 R59 d   1      57.584  -3.814  33.575  0.00  0.00     0.055 H 
BRANCH  28  30
ATOM     30  C21 R59 d   1      58.848  -5.090  34.839  0.00  0.00    -0.064 C 
ATOM     31  H1  R59 d   1      58.002  -5.695  35.198  0.00  0.00     0.028 H 
ATOM     32  H2  R59 d   1      59.074  -4.303  35.573  0.00  0.00     0.028 H 
ATOM     33  H3  R59 d   1      59.730  -5.734  34.709  0.00  0.00     0.028 H 
ENDBRANCH  28  30
BRANCH  28  34
ATOM     34  C19 R59 d   1      58.295  -5.528  32.452  0.00  0.00    -0.015 C 
ATOM     35  H13 R59 d   1      57.555  -6.254  32.821  0.00  0.00     0.049 H 
ATOM     36  H14 R59 d   1      59.257  -6.035  32.290  0.00  0.00     0.049 H 
BRANCH  34  37
ATOM     37  S20 R59 d   1      57.712  -4.846  30.865  0.00  0.00    -0.181 SA
ATOM     38  H17 R59 d   1      57.600  -5.595  30.200  0.00  0.00     0.101 HD
ENDBRANCH  34  37
ENDBRANCH  28  34
ENDBRANCH  25  28
ENDBRANCH   1  24
TORSDOF 8
