REMARK  4 active torsions:
REMARK  status: ('A' for Active; 'I' for Inactive)
REMARK    1  A    between atoms: C6_3  and  O1_11 
REMARK    2  A    between atoms: O1_11  and  C7_4 
REMARK    3  A    between atoms: C8_5  and  C9_6 
REMARK       I    between atoms: N1_7  and  C8_5 
REMARK    4  A    between atoms: N1_7  and  C3_8 
ROOT
ATOM      1  C4  8NB d   1     -27.674  14.285   5.157  0.00  0.00    -0.033 A 
ATOM      2  C5  8NB d   1     -26.701  13.843   6.036  0.00  0.00     0.069 A 
ATOM      3  C6  8NB d   1     -26.136  14.714   6.964  0.00  0.00     0.090 A 
ATOM      4  C3  8NB d   1     -28.101  15.616   5.191  0.00  0.00     0.036 A 
ATOM      5  C1  8NB d   1     -26.563  16.039   6.992  0.00  0.00    -0.047 A 
ATOM      6  C2  8NB d   1     -27.538  16.488   6.116  0.00  0.00    -0.054 A 
ATOM      7 CL1  8NB d   1     -26.194  12.170   5.963  0.00  0.00    -0.081 Cl
ATOM      8  H1  8NB d   1     -28.107  13.597   4.440  0.00  0.00     0.089 H 
ATOM      9  H9  8NB d   1     -26.128  16.727   7.707  0.00  0.00     0.087 H 
ATOM     10  H10 8NB d   1     -27.863  17.522   6.152  0.00  0.00     0.087 H 
ENDROOT
BRANCH   4  11
ATOM     11  N1  8NB d   1     -29.116  15.962   4.258  0.00  0.00    -0.327 N 
ATOM     12  C8  8NB d   1     -29.693  17.165   4.000  0.00  0.00     0.218 C 
ATOM     13  O2  8NB d   1     -29.471  18.189   4.662  0.00  0.00    -0.274 OA
ATOM     14  H8  8NB d   1     -29.459  15.202   3.706  0.00  0.00     0.169 HD
BRANCH  12  15
ATOM     15  C9  8NB d   1     -30.652  17.166   2.833  0.00  0.00    -0.003 C 
ATOM     16  H5  8NB d   1     -31.067  18.176   2.701  0.00  0.00     0.040 H 
ATOM     17  H6  8NB d   1     -31.469  16.456   3.029  0.00  0.00     0.040 H 
ATOM     18  H7  8NB d   1     -30.118  16.866   1.919  0.00  0.00     0.040 H 
ENDBRANCH  12  15
ENDBRANCH   4  11
BRANCH   3  19
ATOM     19  O1  8NB d   1     -25.189  14.169   7.773  0.00  0.00    -0.354 OA
BRANCH  19  20
ATOM     20  C7  8NB d   1     -24.994  14.702   9.083  0.00  0.00     0.010 C 
ATOM     21  H2  8NB d   1     -24.194  14.143   9.591  0.00  0.00     0.066 H 
ATOM     22  H3  8NB d   1     -25.927  14.611   9.658  0.00  0.00     0.066 H 
ATOM     23  H4  8NB d   1     -24.710  15.762   9.009  0.00  0.00     0.066 H 
ENDBRANCH  19  20
ENDBRANCH   3  19
TORSDOF 4
