REMARK  6 active torsions:
REMARK  status: ('A' for Active; 'I' for Inactive)
REMARK    1  A    between atoms: C19_2  and  C20_3 
REMARK    2  A    between atoms: C15_20  and  C19_2 
REMARK    3  A    between atoms: C15_20  and  C16_5 
REMARK    4  A    between atoms: C10_8  and  O11_6 
REMARK    5  A    between atoms: C12_7  and  C09_17 
REMARK       I    between atoms: N14_19  and  C12_7 
REMARK    6  A    between atoms: N14_19  and  C15_20 
ROOT
ATOM      1  C15 8NN d   1     -34.042 -20.264  26.001  0.00  0.00     0.100 C 
ATOM      2  H10 8NN d   1     -33.115 -19.672  26.012  0.00  0.00     0.090 H 
ENDROOT
BRANCH   1   3
ATOM      3  C19 8NN d   1     -34.855 -19.970  24.731  0.00  0.00    -0.011 C 
ATOM      4  H2  8NN d   1     -34.283 -20.315  23.857  0.00  0.00     0.044 H 
ATOM      5  H3  8NN d   1     -35.807 -20.518  24.786  0.00  0.00     0.044 H 
BRANCH   3   6
ATOM      6  C20 8NN d   1     -35.155 -18.481  24.565  0.00  0.00    -0.028 A 
ATOM      7  C24 8NN d   1     -36.360 -17.829  24.756  0.00  0.00    -0.015 A 
ATOM      8  N23 8NN d   1     -36.192 -16.528  24.526  0.00  0.00    -0.365 N 
ATOM      9  H1  8NN d   1     -37.296 -18.303  25.048  0.00  0.00     0.112 H 
ATOM     10  C22 8NN d   1     -34.922 -16.298  24.174  0.00  0.00     0.042 A 
ATOM     11  H11 8NN d   1     -36.926 -15.810  24.607  0.00  0.00     0.165 HD
ATOM     12  C21 8NN d   1     -34.231 -17.494  24.193  0.00  0.00    -0.002 A 
ATOM     13  C25 8NN d   1     -34.263 -15.113  23.836  0.00  0.00    -0.056 A 
ATOM     14  C28 8NN d   1     -32.860 -17.529  23.878  0.00  0.00    -0.070 A 
ATOM     15  C27 8NN d   1     -32.205 -16.347  23.534  0.00  0.00    -0.082 A 
ATOM     16  H15 8NN d   1     -32.318 -18.467  23.903  0.00  0.00     0.084 H 
ATOM     17  C26 8NN d   1     -32.921 -15.143  23.515  0.00  0.00    -0.081 A 
ATOM     18  H14 8NN d   1     -31.151 -16.360  23.283  0.00  0.00     0.083 H 
ATOM     19  H13 8NN d   1     -32.415 -14.223  23.245  0.00  0.00     0.083 H 
ATOM     20  H12 8NN d   1     -34.804 -14.174  23.826  0.00  0.00     0.086 H 
ENDBRANCH   3   6
ENDBRANCH   1   3
BRANCH   1  21
ATOM     21  C16 8NN d   1     -34.836 -20.066  27.256  0.00  0.00     0.197 C 
ATOM     22  O17 8NN d   1     -34.909 -18.940  27.808  0.00  0.00    -0.646 OA
ATOM     23  O18 8NN d   1     -35.404 -21.085  27.734  0.00  0.00    -0.646 OA
ENDBRANCH   1  21
BRANCH   1  24
ATOM     24  N14 8NN d   1     -33.801 -21.662  26.027  0.00  0.00    -0.341 N 
ATOM     25  C12 8NN d   1     -32.611 -22.137  25.384  0.00  0.00     0.274 C 
ATOM     26  O13 8NN d   1     -31.897 -21.415  24.783  0.00  0.00    -0.266 OA
ATOM     27  H9  8NN d   1     -34.436 -22.291  26.476  0.00  0.00     0.163 HD
BRANCH  25  28
ATOM     28  C09 8NN d   1     -32.457 -23.642  25.422  0.00  0.00     0.160 A 
ATOM     29  C10 8NN d   1     -31.453 -24.297  24.755  0.00  0.00     0.111 A 
ATOM     30  C04 8NN d   1     -31.404 -25.718  24.786  0.00  0.00     0.013 A 
ATOM     31  C03 8NN d   1     -30.429 -26.504  24.159  0.00  0.00    -0.069 A 
ATOM     32  C05 8NN d   1     -32.370 -26.345  25.496  0.00  0.00     0.018 A 
ATOM     33  C02 8NN d   1     -30.472 -27.908  24.257  0.00  0.00    -0.082 A 
ATOM     34  H7  8NN d   1     -29.636 -26.028  23.594  0.00  0.00     0.085 H 
ATOM     35  C01 8NN d   1     -31.459 -28.523  25.000  0.00  0.00    -0.082 A 
ATOM     36  H6  8NN d   1     -29.727 -28.508  23.747  0.00  0.00     0.083 H 
ATOM     37  C06 8NN d   1     -32.424 -27.749  25.616  0.00  0.00    -0.069 A 
ATOM     38  H5  8NN d   1     -31.477 -29.602  25.099  0.00  0.00     0.083 H 
ATOM     39  H8  8NN d   1     -33.217 -28.218  26.187  0.00  0.00     0.085 H 
ATOM     40  C07 8NN d   1     -33.336 -25.592  26.140  0.00  0.00     0.138 A 
ATOM     41  N08 8NN d   1     -33.369 -24.289  26.086  0.00  0.00    -0.227 NA
ATOM     42 CL1  8NN d   1     -34.575 -26.450  27.050  0.00  0.00    -0.061 Cl
BRANCH  29  43
ATOM     43  O11 8NN d   1     -30.534 -23.508  24.065  0.00  0.00    -0.357 OA
ATOM     44  H4  8NN d   1     -30.756 -22.591  24.180  0.00  0.00     0.217 HD
ENDBRANCH  29  43
ENDBRANCH  25  28
ENDBRANCH   1  24
TORSDOF 6
