REMARK  6 active torsions:
REMARK  status: ('A' for Active; 'I' for Inactive)
REMARK    1  A    between atoms: C19_2  and  C20_3 
REMARK    2  A    between atoms: C15_20  and  C19_2 
REMARK    3  A    between atoms: C15_20  and  C16_5 
REMARK    4  A    between atoms: C10_8  and  O11_6 
REMARK    5  A    between atoms: C12_7  and  C09_17 
REMARK       I    between atoms: N14_19  and  C12_7 
REMARK    6  A    between atoms: N14_19  and  C15_20 
ROOT
ATOM      1  C15 93W d   1       1.279  -6.323 -24.443  0.00  0.00     0.100 C 
ATOM      2  H10 93W d   1       0.411  -5.759 -24.815  0.00  0.00     0.090 H 
ENDROOT
BRANCH   1   3
ATOM      3  C19 93W d   1       2.126  -6.791 -25.611  0.00  0.00    -0.011 C 
ATOM      4  H2  93W d   1       1.497  -7.415 -26.264  0.00  0.00     0.044 H 
ATOM      5  H3  93W d   1       2.465  -5.904 -26.167  0.00  0.00     0.044 H 
BRANCH   3   6
ATOM      6  C20 93W d   1       3.362  -7.609 -25.211  0.00  0.00    -0.028 A 
ATOM      7  C24 93W d   1       4.630  -7.093 -25.015  0.00  0.00    -0.015 A 
ATOM      8  N23 93W d   1       5.459  -8.074 -24.696  0.00  0.00    -0.365 N 
ATOM      9  H1  93W d   1       4.904  -6.043 -25.109  0.00  0.00     0.112 H 
ATOM     10  C22 93W d   1       4.799  -9.229 -24.662  0.00  0.00     0.042 A 
ATOM     11  H11 93W d   1       6.464  -7.960 -24.503  0.00  0.00     0.165 HD
ATOM     12  C21 93W d   1       3.480  -8.995 -24.982  0.00  0.00    -0.002 A 
ATOM     13  C25 93W d   1       5.252 -10.525 -24.359  0.00  0.00    -0.056 A 
ATOM     14  C28 93W d   1       2.589 -10.079 -25.004  0.00  0.00    -0.070 A 
ATOM     15  C27 93W d   1       3.032 -11.367 -24.711  0.00  0.00    -0.082 A 
ATOM     16  H15 93W d   1       1.547  -9.913 -25.251  0.00  0.00     0.084 H 
ATOM     17  C26 93W d   1       4.365 -11.592 -24.389  0.00  0.00    -0.081 A 
ATOM     18  H14 93W d   1       2.334 -12.197 -24.734  0.00  0.00     0.083 H 
ATOM     19  H13 93W d   1       4.710 -12.595 -24.163  0.00  0.00     0.083 H 
ATOM     20  H12 93W d   1       6.292 -10.691 -24.102  0.00  0.00     0.086 H 
ENDBRANCH   3   6
ENDBRANCH   1   3
BRANCH   1  21
ATOM     21  C16 93W d   1       2.082  -5.377 -23.572  0.00  0.00     0.197 C 
ATOM     22  O17 93W d   1       2.328  -5.629 -22.355  0.00  0.00    -0.646 OA
ATOM     23  O18 93W d   1       2.496  -4.302 -24.113  0.00  0.00    -0.646 OA
ENDBRANCH   1  21
BRANCH   1  24
ATOM     24  N14 93W d   1       0.792  -7.561 -23.844  0.00  0.00    -0.341 N 
ATOM     25  C12 93W d   1      -0.481  -7.647 -23.144  0.00  0.00     0.274 C 
ATOM     26  O13 93W d   1      -1.169  -6.712 -22.984  0.00  0.00    -0.266 OA
ATOM     27  H9  93W d   1       1.356  -8.384 -23.917  0.00  0.00     0.163 HD
BRANCH  25  28
ATOM     28  C09 93W d   1      -0.946  -8.999 -22.632  0.00  0.00     0.160 A 
ATOM     29  C10 93W d   1      -2.248  -9.170 -22.209  0.00  0.00     0.111 A 
ATOM     30  C04 93W d   1      -2.684 -10.431 -21.773  0.00  0.00     0.013 A 
ATOM     31  C03 93W d   1      -3.991 -10.668 -21.302  0.00  0.00    -0.069 A 
ATOM     32  C05 93W d   1      -1.769 -11.455 -21.799  0.00  0.00     0.018 A 
ATOM     33  C02 93W d   1      -4.359 -11.942 -20.880  0.00  0.00    -0.082 A 
ATOM     34  H7  93W d   1      -4.710  -9.857 -21.268  0.00  0.00     0.085 H 
ATOM     35  C01 93W d   1      -3.431 -12.978 -20.919  0.00  0.00    -0.082 A 
ATOM     36  H6  93W d   1      -5.365 -12.127 -20.522  0.00  0.00     0.083 H 
ATOM     37  C06 93W d   1      -2.139 -12.744 -21.376  0.00  0.00    -0.069 A 
ATOM     38  H5  93W d   1      -3.716 -13.971 -20.592  0.00  0.00     0.083 H 
ATOM     39  H8  93W d   1      -1.419 -13.553 -21.406  0.00  0.00     0.085 H 
ATOM     40  C07 93W d   1      -0.471 -11.202 -22.261  0.00  0.00     0.138 A 
ATOM     41  N08 93W d   1      -0.106 -10.008 -22.679  0.00  0.00    -0.227 NA
ATOM     42 CL1  93W d   1       0.747 -12.487 -22.334  0.00  0.00    -0.061 Cl
BRANCH  29  43
ATOM     43  O11 93W d   1      -3.120  -8.080 -22.209  0.00  0.00    -0.357 OA
ATOM     44  H4  93W d   1      -2.664  -7.311 -22.532  0.00  0.00     0.217 HD
ENDBRANCH  29  43
ENDBRANCH  25  28
ENDBRANCH   1  24
TORSDOF 6
