REMARK  10 active torsions:
REMARK  status: ('A' for Active; 'I' for Inactive)
REMARK    1  A    between atoms: C10_1  and  C09_16 
REMARK    2  A    between atoms: C22_4  and  C23_26 
REMARK    3  A    between atoms: O02_9  and  C01_8 
REMARK    4  A    between atoms: C03_10  and  O02_9 
REMARK       I    between atoms: N05_12  and  C03_10 
REMARK    5  A    between atoms: C09_16  and  N08_15 
REMARK    6  A    between atoms: N15_20  and  C14_19 
REMARK    7  A    between atoms: C16_21  and  N15_20 
REMARK    8  A    between atoms: C16_21  and  O17_22 
REMARK    9  A    between atoms: N18_23  and  C16_21 
REMARK   10  A    between atoms: N18_23  and  C19_24 
ROOT
ATOM      1  C10 2OW d   1       0.752   1.404  18.089  0.00  0.00     0.001 C 
ATOM      2  C13 2OW d   1       1.044  -1.406  17.014  0.00  0.00    -0.035 C 
ATOM      3  C26 2OW d   1       0.116   0.252  18.870  0.00  0.00     0.111 C 
ATOM      4  C11 2OW d   1       2.015   1.059  17.286  0.00  0.00    -0.058 C 
ATOM      5  C12 2OW d   1       2.135  -0.368  16.702  0.00  0.00    -0.063 C 
ATOM      6  C14 2OW d   1       0.220  -1.137  18.273  0.00  0.00     0.136 C 
ATOM      7  F27 2OW d   1      -1.123   0.534  19.356  0.00  0.00    -0.247 F 
ATOM      8  H1  2OW d   1       0.001   1.716  17.349  0.00  0.00     0.046 H 
ATOM      9  H2  2OW d   1       1.531  -2.385  17.131  0.00  0.00     0.036 H 
ATOM     10  H3  2OW d   1       0.354  -1.440  16.158  0.00  0.00     0.036 H 
ATOM     11  H8  2OW d   1       0.744   0.186  19.771  0.00  0.00     0.095 H 
ATOM     12  H21 2OW d   1       2.878   1.214  17.950  0.00  0.00     0.033 H 
ATOM     13  H22 2OW d   1       2.070   1.763  16.443  0.00  0.00     0.033 H 
ATOM     14  H23 2OW d   1       2.175  -0.264  15.608  0.00  0.00     0.033 H 
ATOM     15  H24 2OW d   1       3.086  -0.784  17.066  0.00  0.00     0.033 H 
ATOM     16  H25 2OW d   1       0.856  -1.623  19.028  0.00  0.00     0.089 H 
ENDROOT
BRANCH   6  17
ATOM     17  N15 2OW d   1      -1.016  -1.942  18.368  0.00  0.00    -0.016 N 
ATOM     18  H26 2OW d   1      -1.269  -2.288  17.456  0.00  0.00     0.282 HD
ATOM     19  H27 2OW d   1      -1.766  -1.375  18.732  0.00  0.00     0.282 HD
BRANCH  17  20
ATOM     20  C16 2OW d   1      -0.759  -3.065  19.271  0.00  0.00     0.345 C 
ATOM     21  H28 2OW d   1      -0.634  -2.720  20.308  0.00  0.00     0.177 H 
BRANCH  20  22
ATOM     22  O17 2OW d   1       0.356  -3.762  18.816  0.00  0.00    -0.349 OA
ATOM     23  H29 2OW d   1       0.189  -4.086  17.939  0.00  0.00     0.213 HD
ENDBRANCH  20  22
BRANCH  20  24
ATOM     24  N18 2OW d   1      -1.856  -4.021  19.137  0.00  0.00    -0.017 N 
ATOM     25  H30 2OW d   1      -1.626  -4.701  18.429  0.00  0.00     0.282 HD
ATOM     26  H31 2OW d   1      -2.698  -3.533  18.874  0.00  0.00     0.282 HD
BRANCH  24  27
ATOM     27  C19 2OW d   1      -2.064  -4.704  20.428  0.00  0.00     0.124 C 
ATOM     28  C20 2OW d   1      -1.125  -5.872  20.603  0.00  0.00     0.041 C 
ATOM     29  N21 2OW d   1      -1.574  -6.949  21.562  0.00  0.00    -0.297 NA
ATOM     30  H4  2OW d   1      -0.164  -5.479  20.966  0.00  0.00     0.070 H 
ATOM     31  H5  2OW d   1      -0.982  -6.338  19.617  0.00  0.00     0.070 H 
ATOM     32  C22 2OW d   1      -2.865  -7.138  21.774  0.00  0.00     0.003 C 
ATOM     33  C24 2OW d   1      -3.874  -6.328  20.920  0.00  0.00    -0.027 C 
ATOM     34  C25 2OW d   1      -3.491  -4.949  20.556  0.00  0.00    -0.032 C 
ATOM     35  H6  2OW d   1      -4.816  -6.272  21.484  0.00  0.00     0.042 H 
ATOM     36  H7  2OW d   1      -4.039  -6.884  19.985  0.00  0.00     0.042 H 
ATOM     37  H36 2OW d   1      -3.881  -4.274  21.332  0.00  0.00     0.036 H 
ATOM     38  H37 2OW d   1      -3.963  -4.711  19.591  0.00  0.00     0.036 H 
ATOM     39  H32 2OW d   1      -1.800  -3.994  21.226  0.00  0.00     0.087 H 
BRANCH  32  40
ATOM     40  C23 2OW d   1      -3.380  -8.300  22.632  0.00  0.00    -0.039 C 
ATOM     41  H33 2OW d   1      -2.538  -8.761  23.168  0.00  0.00     0.035 H 
ATOM     42  H34 2OW d   1      -3.857  -9.050  21.985  0.00  0.00     0.035 H 
ATOM     43  H35 2OW d   1      -4.114  -7.922  23.358  0.00  0.00     0.035 H 
ENDBRANCH  32  40
ENDBRANCH  24  27
ENDBRANCH  20  24
ENDBRANCH  17  20
ENDBRANCH   6  17
BRANCH   1  44
ATOM     44  C09 2OW d   1       1.009   2.631  19.020  0.00  0.00     0.089 C 
ATOM     45  H19 2OW d   1       0.058   2.991  19.440  0.00  0.00     0.076 H 
ATOM     46  H20 2OW d   1       1.490   3.441  18.452  0.00  0.00     0.076 H 
BRANCH  44  47
ATOM     47  N08 2OW d   1       1.890   2.180  20.091  0.00  0.00    -0.068 N 
ATOM     48  C28 2OW d   1       3.252   2.733  20.006  0.00  0.00     0.098 C 
ATOM     49  C29 2OW d   1       4.208   2.279  21.137  0.00  0.00     0.022 C 
ATOM     50  H9  2OW d   1       3.179   3.830  20.039  0.00  0.00     0.078 H 
ATOM     51  H10 2OW d   1       3.688   2.424  19.045  0.00  0.00     0.078 H 
ATOM     52  N05 2OW d   1       3.602   1.763  22.336  0.00  0.00    -0.325 N 
ATOM     53  H38 2OW d   1       4.821   3.147  21.422  0.00  0.00     0.067 H 
ATOM     54  H39 2OW d   1       4.856   1.491  20.727  0.00  0.00     0.067 H 
ATOM     55  C03 2OW d   1       4.474   1.117  23.362  0.00  0.00     0.362 C 
ATOM     56  C06 2OW d   1       2.184   1.901  22.590  0.00  0.00     0.022 C 
ATOM     57  O04 2OW d   1       4.111   0.156  23.978  0.00  0.00    -0.238 OA
ATOM     58  C07 2OW d   1       1.297   2.343  21.401  0.00  0.00     0.098 C 
ATOM     59  H14 2OW d   1       2.061   2.646  23.390  0.00  0.00     0.067 H 
ATOM     60  H15 2OW d   1       1.812   0.925  22.936  0.00  0.00     0.067 H 
ATOM     61  H16 2OW d   1       1.056   3.408  21.535  0.00  0.00     0.078 H 
ATOM     62  H17 2OW d   1       0.370   1.751  21.430  0.00  0.00     0.078 H 
ATOM     63  H18 2OW d   1       1.993   1.186  19.958  0.00  0.00     0.280 HD
BRANCH  55  64
ATOM     64  O02 2OW d   1       5.738   1.711  23.632  0.00  0.00    -0.309 OA
BRANCH  64  65
ATOM     65  C01 2OW d   1       5.645   2.953  24.352  0.00  0.00     0.015 C 
ATOM     66  H11 2OW d   1       6.655   3.353  24.525  0.00  0.00     0.067 H 
ATOM     67  H12 2OW d   1       5.149   2.780  25.318  0.00  0.00     0.067 H 
ATOM     68  H13 2OW d   1       5.060   3.675  23.763  0.00  0.00     0.067 H 
ENDBRANCH  64  65
ENDBRANCH  55  64
ENDBRANCH  44  47
ENDBRANCH   1  44
TORSDOF 10
