REMARK WARNING: 32 MAX_TORS EXCEEDED!!!
REMARK  37 active torsions:
REMARK  status: ('A' for Active; 'I' for Inactive)
REMARK    1  A    between atoms: N_1  and  CA_2 
REMARK    2  A    between atoms: CA_2  and  C_3 
REMARK    3  A    between atoms: CA_2  and  CB_5 
REMARK       I    between atoms: C_3  and  N_6 
REMARK    4  A    between atoms: N_6  and  CA_7 
REMARK    5  A    between atoms: CA_7  and  C_8 
REMARK    6  A    between atoms: CA_7  and  CB_10 
REMARK       I    between atoms: C_8  and  N_17 
REMARK    7  A    between atoms: CB_10  and  CG_11 
REMARK    8  A    between atoms: N_17  and  CA_18 
REMARK    9  A    between atoms: CA_18  and  C_19 
REMARK   10  A    between atoms: CA_18  and  CB_21 
REMARK       I    between atoms: C_19  and  N_28 
REMARK   11  A    between atoms: CB_21  and  CG_22 
REMARK   12  A    between atoms: CG_22  and  CD_23 
REMARK   13  A    between atoms: CD_23  and  NE_24 
REMARK       I    between atoms: NE_24  and  CZ_25 
REMARK       I    between atoms: CZ_25  and  NH1_26 
REMARK       I    between atoms: CZ_25  and  NH2_27 
REMARK   14  A    between atoms: N_28  and  CA_29 
REMARK   15  A    between atoms: CA_29  and  C_30 
REMARK   16  A    between atoms: CA_29  and  CB_32 
REMARK       I    between atoms: C_30  and  N_36 
REMARK   17  A    between atoms: CB_32  and  CG1_33 
REMARK   18  A    between atoms: CB_32  and  CG2_34 
REMARK   19  A    between atoms: CG1_33  and  CD1_35 
REMARK   20  A    between atoms: CA_37  and  C_38 
REMARK       I    between atoms: C_38  and  N_43 
REMARK   21  A    between atoms: N_43  and  CA_44 
REMARK   22  A    between atoms: CA_44  and  C_45 
REMARK   23  A    between atoms: CA_44  and  CB_47 
REMARK       I    between atoms: C_45  and  N_51 
REMARK   24  A    between atoms: CB_47  and  CG_48 
REMARK   25  A    between atoms: CG_48  and  CD1_49 
REMARK   26  A    between atoms: CG_48  and  CD2_50 
REMARK   27  A    between atoms: N_51  and  CA_52 
REMARK   28  A    between atoms: CA_52  and  C_53 
REMARK   29  A    between atoms: CA_52  and  CB_55 
REMARK       I    between atoms: C_53  and  N_58 
REMARK   30  A    between atoms: CB_55  and  OG1_56 
REMARK   31  A    between atoms: CB_55  and  CG2_57 
REMARK   32  A    between atoms: N_58  and  CA_59 
REMARK   33  A    between atoms: CA_59  and  C_60 
REMARK   34  A    between atoms: CA_59  and  CB_62 
REMARK   35  A    between atoms: CB_62  and  CG_63 
REMARK   36  A    between atoms: CG_63  and  CD_64 
REMARK   37  A    between atoms: CD_64  and  NE_65 
REMARK       I    between atoms: NE_65  and  CZ_66 
REMARK       I    between atoms: CZ_66  and  NH1_67 
ROOT
ATOM      1  C   ILE d   1       7.244  30.640  11.658  0.00  0.00     0.243 C 
ATOM      2  O   ILE d   1       6.618  29.763  11.083  0.00  0.00    -0.271 OA
ATOM      3  N   PRO d   1       6.702  31.415  12.632  0.00  0.00    -0.337 N 
ATOM      4  CA  PRO d   1       5.314  31.219  13.002  0.00  0.00     0.091 C 
ATOM      5  CB  PRO d   1       5.194  31.921  14.372  0.00  0.00    -0.036 C 
ATOM      6  CG  PRO d   1       6.220  33.008  14.284  0.00  0.00    -0.048 C 
ATOM      7  CD  PRO d   1       7.369  32.367  13.558  0.00  0.00    -0.001 C 
ATOM      8  H41 PRO d   1       5.086  30.146  13.087  0.00  0.00     0.087 H 
ATOM      9  H42 PRO d   1       5.423  31.227  15.194  0.00  0.00     0.036 H 
ATOM     10  H43 PRO d   1       4.187  32.339  14.515  0.00  0.00     0.036 H 
ATOM     11  H44 PRO d   1       6.527  33.338  15.287  0.00  0.00     0.035 H 
ATOM     12  H45 PRO d   1       5.831  33.868  13.718  0.00  0.00     0.035 H 
ATOM     13  H46 PRO d   1       7.950  33.117  13.001  0.00  0.00     0.064 H 
ATOM     14  H47 PRO d   1       8.031  31.837  14.259  0.00  0.00     0.064 H 
ENDROOT
BRANCH   1  15
ATOM     15  CA  ILE d   1       8.640  30.959  11.194  0.00  0.00     0.092 C 
ATOM     16  H31 ILE d   1       9.084  31.733  11.838  0.00  0.00     0.088 H 
BRANCH  15  17
ATOM     17  N   ILE d   1       9.482  29.768  11.224  0.00  0.00    -0.346 N 
ATOM     18  C   ARG d   1      10.527  29.631  12.029  0.00  0.00     0.241 C 
ATOM     19  O   ARG d   1      11.013  30.559  12.637  0.00  0.00    -0.271 OA
ATOM     20  H30 ILE d   1       9.259  29.015  10.605  0.00  0.00     0.163 HD
BRANCH  18  21
ATOM     21  CA  ARG d   1      11.123  28.243  12.194  0.00  0.00     0.089 C 
ATOM     22  H18 ARG d   1      10.676  27.520  11.495  0.00  0.00     0.087 H 
BRANCH  21  23
ATOM     23  N   ARG d   1      12.548  28.386  11.988  0.00  0.00    -0.346 N 
ATOM     24  C   PHE d   1      13.201  27.940  10.941  0.00  0.00     0.241 C 
ATOM     25  O   PHE d   1      12.669  27.636   9.861  0.00  0.00    -0.271 OA
ATOM     26  H17 ARG d   1      13.073  28.859  12.695  0.00  0.00     0.163 HD
BRANCH  24  27
ATOM     27  CA  PHE d   1      14.690  27.857  11.203  0.00  0.00     0.093 C 
ATOM     28  H9  PHE d   1      14.793  27.691  12.286  0.00  0.00     0.088 H 
BRANCH  27  29
ATOM     29  N   PHE d   1      15.294  26.723  10.576  0.00  0.00    -0.346 N 
ATOM     30  C   ALA d   1      16.278  26.069  11.171  0.00  0.00     0.248 C 
ATOM     31  O   ALA d   1      16.810  26.472  12.198  0.00  0.00    -0.271 OA
ATOM     32  H8  PHE d   1      14.970  26.421   9.679  0.00  0.00     0.163 HD
BRANCH  30  33
ATOM     33  CA  ALA d   1      16.767  24.810  10.503  0.00  0.00     0.172 C 
ATOM     34  H4  ALA d   1      16.723  24.960   9.414  0.00  0.00     0.098 H 
BRANCH  33  35
ATOM     35  N   ALA d   1      18.182  24.517  10.873  0.00  0.00    -0.067 N 
ATOM     36  H1  ALA d   1      18.482  23.672  10.413  0.00  0.00     0.275 HD
ATOM     37  H2  ALA d   1      18.250  24.398  11.872  0.00  0.00     0.275 HD
ATOM     38  H3  ALA d   1      18.770  25.283  10.585  0.00  0.00     0.275 HD
ENDBRANCH  33  35
BRANCH  33  39
ATOM     39  CB  ALA d   1      15.856  23.625  10.863  0.00  0.00    -0.042 C 
ATOM     40  H5  ALA d   1      14.819  23.861  10.582  0.00  0.00     0.030 H 
ATOM     41  H6  ALA d   1      15.909  23.437  11.945  0.00  0.00     0.030 H 
ATOM     42  H7  ALA d   1      16.188  22.729  10.319  0.00  0.00     0.030 H 
ENDBRANCH  33  39
ENDBRANCH  30  33
ENDBRANCH  27  29
BRANCH  27  43
ATOM     43  CB  PHE d   1      15.440  29.179  10.911  0.00  0.00    -0.014 C 
ATOM     44  H10 PHE d   1      16.364  29.192  11.507  0.00  0.00     0.043 H 
ATOM     45  H11 PHE d   1      14.796  30.018  11.214  0.00  0.00     0.043 H 
BRANCH  43  46
ATOM     46  CG  PHE d   1      15.802  29.359   9.481  0.00  0.00    -0.056 A 
ATOM     47  CD1 PHE d   1      16.915  28.733   8.962  0.00  0.00    -0.077 A 
ATOM     48  CE1 PHE d   1      17.243  28.844   7.628  0.00  0.00    -0.082 A 
ATOM     49  H12 PHE d   1      17.545  28.141   9.616  0.00  0.00     0.084 H 
ATOM     50  CZ  PHE d   1      16.454  29.607   6.779  0.00  0.00    -0.083 A 
ATOM     51  H14 PHE d   1      18.118  28.335   7.242  0.00  0.00     0.083 H 
ATOM     52  CE2 PHE d   1      15.331  30.258   7.291  0.00  0.00    -0.082 A 
ATOM     53  H16 PHE d   1      16.707  29.696   5.729  0.00  0.00     0.083 H 
ATOM     54  CD2 PHE d   1      15.003  30.115   8.642  0.00  0.00    -0.077 A 
ATOM     55  H15 PHE d   1      14.716  30.872   6.644  0.00  0.00     0.083 H 
ATOM     56  H13 PHE d   1      14.117  30.600   9.035  0.00  0.00     0.084 H 
ENDBRANCH  43  46
ENDBRANCH  27  43
ENDBRANCH  24  27
ENDBRANCH  21  23
BRANCH  21  57
ATOM     57  CB  ARG d   1      10.920  27.816  13.664  0.00  0.00    -0.036 C 
ATOM     58  H19 ARG d   1      10.426  28.650  14.184  0.00  0.00     0.036 H 
ATOM     59  H20 ARG d   1      11.916  27.651  14.100  0.00  0.00     0.036 H 
BRANCH  57  60
ATOM     60  CG  ARG d   1      10.107  26.581  13.920  0.00  0.00    -0.048 C 
ATOM     61  H21 ARG d   1      10.746  25.694  13.798  0.00  0.00     0.035 H 
ATOM     62  H22 ARG d   1       9.277  26.537  13.200  0.00  0.00     0.035 H 
BRANCH  60  63
ATOM     63  CD  ARG d   1       9.543  26.605  15.337  0.00  0.00     0.009 C 
ATOM     64  H23 ARG d   1      10.087  27.355  15.930  0.00  0.00     0.064 H 
ATOM     65  H24 ARG d   1       9.671  25.613  15.794  0.00  0.00     0.064 H 
BRANCH  63  66
ATOM     66  NE  ARG d   1       8.118  26.947  15.319  0.00  0.00    -0.227 N 
ATOM     67  CZ  ARG d   1       7.564  28.149  15.524  0.00  0.00     0.665 C 
ATOM     68  NH1 ARG d   1       8.285  29.238  15.806  0.00  0.00    -0.235 N 
ATOM     69  NH2 ARG d   1       6.234  28.248  15.455  0.00  0.00    -0.235 N 
ATOM     70  H26 ARG d   1       7.815  30.142  15.956  0.00  0.00     0.174 HD
ATOM     71  H27 ARG d   1       9.311  29.173  15.873  0.00  0.00     0.174 HD
ATOM     72  H28 ARG d   1       5.666  27.416  15.239  0.00  0.00     0.174 HD
ATOM     73  H29 ARG d   1       5.776  29.156  15.618  0.00  0.00     0.174 HD
ATOM     74  H25 ARG d   1       7.467  26.173  15.126  0.00  0.00     0.177 HD
ENDBRANCH  63  66
ENDBRANCH  60  63
ENDBRANCH  57  60
ENDBRANCH  21  57
ENDBRANCH  18  21
ENDBRANCH  15  17
BRANCH  15  75
ATOM     75  CB  ILE d   1       8.501  31.491   9.732  0.00  0.00    -0.030 C 
ATOM     76  H32 ILE d   1       7.994  30.721   9.132  0.00  0.00     0.043 H 
BRANCH  75  77
ATOM     77  CG1 ILE d   1       9.873  31.719   9.140  0.00  0.00    -0.063 C 
ATOM     78  H33 ILE d   1       9.752  32.136   8.129  0.00  0.00     0.033 H 
ATOM     79  H34 ILE d   1      10.391  30.750   9.077  0.00  0.00     0.033 H 
BRANCH  77  80
ATOM     80  CD1 ILE d   1      10.731  32.671   9.953  0.00  0.00    -0.076 C 
ATOM     81  H38 ILE d   1      11.710  32.789   9.466  0.00  0.00     0.027 H 
ATOM     82  H39 ILE d   1      10.872  32.264  10.965  0.00  0.00     0.027 H 
ATOM     83  H40 ILE d   1      10.233  33.650  10.017  0.00  0.00     0.027 H 
ENDBRANCH  77  80
ENDBRANCH  75  77
BRANCH  75  84
ATOM     84  CG2 ILE d   1       7.654  32.742   9.691  0.00  0.00    -0.071 C 
ATOM     85  H35 ILE d   1       6.668  32.532  10.130  0.00  0.00     0.028 H 
ATOM     86  H36 ILE d   1       7.529  33.066   8.647  0.00  0.00     0.028 H 
ATOM     87  H37 ILE d   1       8.149  33.539  10.266  0.00  0.00     0.028 H 
ENDBRANCH  75  84
ENDBRANCH  15  75
ENDBRANCH   1  15
BRANCH   4  88
ATOM     88  C   PRO d   1       4.359  31.857  12.016  0.00  0.00     0.241 C 
ATOM     89  O   PRO d   1       4.569  32.976  11.572  0.00  0.00    -0.271 OA
ATOM     90  N   LEU d   1       3.282  31.150  11.735  0.00  0.00    -0.346 N 
ATOM     91  H48 LEU d   1       3.197  30.236  12.132  0.00  0.00     0.163 HD
BRANCH  90  92
ATOM     92  CA  LEU d   1       2.223  31.628  10.886  0.00  0.00     0.089 C 
ATOM     93  H49 LEU d   1       2.592  32.487  10.306  0.00  0.00     0.087 H 
BRANCH  92  94
ATOM     94  C   LEU d   1       1.036  32.064  11.720  0.00  0.00     0.241 C 
ATOM     95  O   LEU d   1       0.727  31.477  12.752  0.00  0.00    -0.271 OA
ATOM     96  N   THR d   1       0.384  33.094  11.243  0.00  0.00    -0.344 N 
ATOM     97  H59 THR d   1       0.803  33.617  10.501  0.00  0.00     0.163 HD
BRANCH  96  98
ATOM     98  CA  THR d   1      -0.906  33.514  11.731  0.00  0.00     0.113 C 
ATOM     99  H60 THR d   1      -1.134  32.989  12.671  0.00  0.00     0.091 H 
BRANCH  98 100
ATOM    100  C   THR d   1      -1.984  33.205  10.701  0.00  0.00     0.243 C 
ATOM    101  O   THR d   1      -1.796  33.441   9.512  0.00  0.00    -0.271 OA
ATOM    102  N   ARG d   1      -3.145  32.719  11.155  0.00  0.00    -0.345 N 
ATOM    103  H66 ARG d   1      -3.236  32.513  12.129  0.00  0.00     0.163 HD
BRANCH 102 104
ATOM    104  CA  ARG d   1      -4.277  32.481  10.279  0.00  0.00     0.096 C 
ATOM    105  H67 ARG d   1      -3.887  32.253   9.276  0.00  0.00     0.089 H 
BRANCH 104 106
ATOM    106  C   ARG d   1      -5.159  33.735  10.175  0.00  0.00     0.196 C 
ATOM    107  O   ARG d   1      -5.764  34.106  11.171  0.00  0.00    -0.646 OA
ATOM    108  OXT ARG d   1      -5.338  34.367   9.120  0.00  0.00    -0.646 OA
ENDBRANCH 104 106
BRANCH 104 109
ATOM    109  CB  ARG d   1      -5.114  31.261  10.757  0.00  0.00    -0.035 C 
ATOM    110  H68 ARG d   1      -5.455  31.441  11.787  0.00  0.00     0.036 H 
ATOM    111  H69 ARG d   1      -4.482  30.361  10.732  0.00  0.00     0.036 H 
BRANCH 109 112
ATOM    112  CG  ARG d   1      -6.323  31.042   9.867  0.00  0.00    -0.047 C 
ATOM    113  H70 ARG d   1      -5.964  30.870   8.842  0.00  0.00     0.035 H 
ATOM    114  H71 ARG d   1      -6.934  31.956   9.893  0.00  0.00     0.035 H 
BRANCH 112 115
ATOM    115  CD  ARG d   1      -7.216  29.866  10.257  0.00  0.00     0.009 C 
ATOM    116  H72 ARG d   1      -7.442  29.901  11.333  0.00  0.00     0.064 H 
ATOM    117  H73 ARG d   1      -6.718  28.915  10.018  0.00  0.00     0.064 H 
BRANCH 115 118
ATOM    118  NE  ARG d   1      -8.451  30.002   9.474  0.00  0.00    -0.227 N 
ATOM    119  CZ  ARG d   1      -9.342  29.051   9.220  0.00  0.00     0.665 C 
ATOM    120  NH1 ARG d   1      -9.206  27.818   9.700  0.00  0.00    -0.235 N 
ATOM    121  NH2 ARG d   1     -10.395  29.350   8.470  0.00  0.00    -0.235 N 
ATOM    122  H75 ARG d   1      -9.914  27.101   9.486  0.00  0.00     0.174 HD
ATOM    123  H76 ARG d   1      -8.393  27.580  10.286  0.00  0.00     0.174 HD
ATOM    124  H77 ARG d   1     -10.506  30.303   8.095  0.00  0.00     0.174 HD
ATOM    125  H78 ARG d   1     -11.101  28.629   8.263  0.00  0.00     0.174 HD
ATOM    126  H74 ARG d   1      -8.647  30.933   9.080  0.00  0.00     0.177 HD
ENDBRANCH 115 118
ENDBRANCH 112 115
ENDBRANCH 109 112
ENDBRANCH 104 109
ENDBRANCH 102 104
ENDBRANCH  98 100
BRANCH  98 127
ATOM    127  CB  THR d   1      -0.871  35.011  11.973  0.00  0.00     0.060 C 
ATOM    128  H61 THR d   1      -0.641  35.530  11.031  0.00  0.00     0.086 H 
BRANCH 127 129
ATOM    129  OG1 THR d   1       0.154  35.284  12.943  0.00  0.00    -0.393 OA
ATOM    130  H62 THR d   1       0.191  36.219  13.108  0.00  0.00     0.210 HD
ENDBRANCH 127 129
BRANCH 127 131
ATOM    131  CG2 THR d   1      -2.205  35.501  12.503  0.00  0.00    -0.050 C 
ATOM    132  H63 THR d   1      -2.156  36.587  12.671  0.00  0.00     0.031 H 
ATOM    133  H64 THR d   1      -2.431  34.993  13.452  0.00  0.00     0.031 H 
ATOM    134  H65 THR d   1      -2.995  35.278  11.771  0.00  0.00     0.031 H 
ENDBRANCH 127 131
ENDBRANCH  98 127
ENDBRANCH  96  98
ENDBRANCH  92  94
BRANCH  92 135
ATOM    135  CB  LEU d   1       1.773  30.517   9.914  0.00  0.00    -0.035 C 
ATOM    136  H50 LEU d   1       0.882  30.880   9.381  0.00  0.00     0.037 H 
ATOM    137  H51 LEU d   1       1.507  29.635  10.515  0.00  0.00     0.037 H 
BRANCH 135 138
ATOM    138  CG  LEU d   1       2.800  30.071   8.858  0.00  0.00    -0.059 C 
ATOM    139  H52 LEU d   1       3.706  29.715   9.369  0.00  0.00     0.038 H 
BRANCH 138 140
ATOM    140  CD1 LEU d   1       2.202  28.951   8.046  0.00  0.00    -0.073 C 
ATOM    141  H53 LEU d   1       2.926  28.622   7.286  0.00  0.00     0.028 H 
ATOM    142  H54 LEU d   1       1.286  29.306   7.550  0.00  0.00     0.028 H 
ATOM    143  H55 LEU d   1       1.957  28.108   8.709  0.00  0.00     0.028 H 
ENDBRANCH 138 140
BRANCH 138 144
ATOM    144  CD2 LEU d   1       3.179  31.208   7.909  0.00  0.00    -0.073 C 
ATOM    145  H56 LEU d   1       3.618  32.036   8.485  0.00  0.00     0.028 H 
ATOM    146  H57 LEU d   1       2.280  31.563   7.384  0.00  0.00     0.028 H 
ATOM    147  H58 LEU d   1       3.912  30.843   7.174  0.00  0.00     0.028 H 
ENDBRANCH 138 144
ENDBRANCH 135 138
ENDBRANCH  92 135
ENDBRANCH  90  92
ENDBRANCH   4  88
TORSDOF 37
