REMARK  27 active torsions:
REMARK  status: ('A' for Active; 'I' for Inactive)
REMARK    1  A    between atoms: CA_2  and  N_1 
REMARK    2  A    between atoms: C_3  and  CA_2 
REMARK    3  A    between atoms: CA_2  and  CB_5 
REMARK       I    between atoms: N_6  and  C_3 
REMARK    4  A    between atoms: C_8  and  CA_7 
REMARK       I    between atoms: N_13  and  C_8 
REMARK    5  A    between atoms: CA_14  and  N_13 
REMARK    6  A    between atoms: C_15  and  CA_14 
REMARK    7  A    between atoms: CA_14  and  CB_17 
REMARK       I    between atoms: N_24  and  C_15 
REMARK    8  A    between atoms: CB_17  and  CG_18 
REMARK    9  A    between atoms: CA_23  and  C_22 
REMARK       I    between atoms: C_22  and  N_28 
REMARK   10  A    between atoms: CA_23  and  N_24 
REMARK   11  A    between atoms: CA_23  and  CB_25 
REMARK   12  A    between atoms: CB_25  and  SG_26 
REMARK   13  A    between atoms: CB_25  and  CM_27 
REMARK   14  A    between atoms: SG_26  and  C1_48 
REMARK   15  A    between atoms: N_28  and  CA_29 
REMARK   16  A    between atoms: CA_29  and  C_30 
REMARK   17  A    between atoms: CA_29  and  CB_32 
REMARK       I    between atoms: C_30  and  N_39 
REMARK   18  A    between atoms: CB_32  and  CG_33 
REMARK   19  A    between atoms: CG_33  and  CD_34 
REMARK   20  A    between atoms: CD_34  and  NE_35 
REMARK       I    between atoms: NE_35  and  CZ_36 
REMARK       I    between atoms: CZ_36  and  NH1_37 
REMARK       I    between atoms: CZ_36  and  NH2_38 
REMARK   21  A    between atoms: CA_40  and  C_41 
REMARK       I    between atoms: C_41  and  N_46 
REMARK   22  A    between atoms: C2_49  and  N2_50 
REMARK       I    between atoms: N2_50  and  C7_58 
REMARK   23  A    between atoms: C3_51  and  O3_52 
REMARK   24  A    between atoms: C4_53  and  O4_54 
REMARK   25  A    between atoms: C5_55  and  C6_56 
REMARK   26  A    between atoms: C6_56  and  O6_57 
REMARK   27  A    between atoms: C7_58  and  C8_60 
ROOT
ATOM      1  CA  ALA d   1     -18.911  10.869  -3.527  0.00  0.00     0.101 C 
ATOM      2  H19 ALA d   1     -18.628   9.815  -3.664  0.00  0.00     0.089 H 
ENDROOT
BRANCH   1   3
ATOM      3  C   ALA d   1     -20.434  10.942  -3.541  0.00  0.00     0.242 C 
ATOM      4  O   ALA d   1     -21.062  10.581  -2.548  0.00  0.00    -0.271 OA
ATOM      5  N   ALA d   1     -21.031  11.396  -4.656  0.00  0.00    -0.346 N 
ATOM      6  H25 ALA d   1     -20.504  11.700  -5.450  0.00  0.00     0.163 HD
BRANCH   5   7
ATOM      7  CA  ALA d   1     -22.501  11.422  -4.645  0.00  0.00     0.089 C 
ATOM      8  H26 ALA d   1     -22.810  11.693  -3.625  0.00  0.00     0.087 H 
BRANCH   7   9
ATOM      9  C   ALA d   1     -22.978   9.979  -4.896  0.00  0.00     0.243 C 
ATOM     10  O   ALA d   1     -22.449   9.227  -5.714  0.00  0.00    -0.271 OA
ATOM     11  N   ALA d   1     -23.923   9.581  -4.046  0.00  0.00    -0.337 N 
ATOM     12  CA  ALA d   1     -24.532   8.236  -4.062  0.00  0.00     0.091 C 
ATOM     13  CD  ALA d   1     -24.531  10.444  -3.037  0.00  0.00    -0.001 C 
ATOM     14  CB  ALA d   1     -25.677   8.349  -3.086  0.00  0.00    -0.036 C 
ATOM     15  H38 ALA d   1     -23.815   7.467  -3.739  0.00  0.00     0.087 H 
ATOM     16  CG  ALA d   1     -25.165   9.399  -2.135  0.00  0.00    -0.048 C 
ATOM     17  H39 ALA d   1     -25.859   7.395  -2.570  0.00  0.00     0.036 H 
ATOM     18  H40 ALA d   1     -26.600   8.677  -3.587  0.00  0.00     0.036 H 
ATOM     19  H41 ALA d   1     -24.419   8.973  -1.448  0.00  0.00     0.035 H 
ATOM     20  H42 ALA d   1     -25.991   9.835  -1.554  0.00  0.00     0.035 H 
ATOM     21  H43 ALA d   1     -25.285  11.115  -3.475  0.00  0.00     0.064 H 
ATOM     22  H44 ALA d   1     -23.776  11.040  -2.502  0.00  0.00     0.064 H 
BRANCH  12  23
ATOM     23  C   ALA d   1     -24.981   7.952  -5.349  0.00  0.00     0.238 C 
ATOM     24  O   ALA d   1     -25.648   8.769  -5.988  0.00  0.00    -0.271 OA
ATOM     25  N   ALA d   1     -24.590   6.777  -5.825  0.00  0.00    -0.368 N 
ATOM     26  H45 ALA d   1     -24.867   6.492  -6.743  0.00  0.00     0.159 HD
ATOM     27  H46 ALA d   1     -24.018   6.176  -5.266  0.00  0.00     0.159 HD
ENDBRANCH  12  23
ENDBRANCH   7   9
BRANCH   7  28
ATOM     28  CB  ALA d   1     -23.142  12.472  -5.561  0.00  0.00    -0.036 C 
ATOM     29  H27 ALA d   1     -22.367  13.144  -5.958  0.00  0.00     0.036 H 
ATOM     30  H28 ALA d   1     -23.882  13.058  -4.996  0.00  0.00     0.036 H 
BRANCH  28  31
ATOM     31  CG  ALA d   1     -23.831  11.737  -6.713  0.00  0.00    -0.048 C 
ATOM     32  H29 ALA d   1     -24.375  10.860  -6.333  0.00  0.00     0.035 H 
ATOM     33  H30 ALA d   1     -23.087  11.413  -7.456  0.00  0.00     0.035 H 
BRANCH  31  34
ATOM     34  CD  ALA d   1     -24.816  12.741  -7.348  0.00  0.00     0.009 C 
ATOM     35  H31 ALA d   1     -25.818  12.289  -7.395  0.00  0.00     0.064 H 
ATOM     36  H32 ALA d   1     -24.478  12.991  -8.365  0.00  0.00     0.064 H 
BRANCH  34  37
ATOM     37  NE  ALA d   1     -24.871  13.960  -6.542  0.00  0.00    -0.227 N 
ATOM     38  CZ  ALA d   1     -25.170  15.292  -7.456  0.00  0.00     0.665 C 
ATOM     39  NH1 ALA d   1     -25.401  16.602  -6.924  0.00  0.00    -0.235 N 
ATOM     40  NH2 ALA d   1     -25.144  15.094  -8.865  0.00  0.00    -0.235 N 
ATOM     41  H34 ALA d   1     -25.582  17.392  -7.560  0.00  0.00     0.174 HD
ATOM     42  H35 ALA d   1     -25.386  16.754  -5.905  0.00  0.00     0.174 HD
ATOM     43  H36 ALA d   1     -24.978  14.153  -9.250  0.00  0.00     0.174 HD
ATOM     44  H37 ALA d   1     -25.291  15.892  -9.500  0.00  0.00     0.174 HD
ATOM     45  H33 ALA d   1     -24.738  13.981  -5.521  0.00  0.00     0.177 HD
ENDBRANCH  34  37
ENDBRANCH  31  34
ENDBRANCH  28  31
ENDBRANCH   7  28
ENDBRANCH   5   7
ENDBRANCH   1   3
BRANCH   1  46
ATOM     46  N   ALA d   1     -18.312  11.631  -4.633  0.00  0.00    -0.345 N 
ATOM     47  C   ALA d   1     -17.957  10.981  -5.753  0.00  0.00     0.241 C 
ATOM     48  O   ALA d   1     -18.144   9.783  -5.937  0.00  0.00    -0.271 OA
ATOM     49  H20 ALA d   1     -18.171  12.618  -4.552  0.00  0.00     0.163 HD
BRANCH  47  50
ATOM     50  CA  ALA d   1     -17.277  11.820  -6.826  0.00  0.00     0.098 C 
ATOM     51  H16 ALA d   1     -17.620  12.864  -6.768  0.00  0.00     0.088 H 
BRANCH  50  52
ATOM     52  N   ALA d   1     -15.808  11.763  -6.640  0.00  0.00    -0.346 N 
ATOM     53  C   ALA d   1     -15.176  12.465  -5.671  0.00  0.00     0.241 C 
ATOM     54  O   ALA d   1     -15.785  13.188  -4.874  0.00  0.00    -0.271 OA
ATOM     55  H15 ALA d   1     -15.265  11.187  -7.251  0.00  0.00     0.163 HD
BRANCH  53  56
ATOM     56  CA  ALA d   1     -13.756  12.339  -5.608  0.00  0.00     0.091 C 
ATOM     57  N   ALA d   1     -13.287  12.805  -4.279  0.00  0.00    -0.337 N 
ATOM     58  C   ALA d   1     -13.108  14.080  -3.895  0.00  0.00     0.250 C 
ATOM     59  CD  ALA d   1     -13.055  11.707  -3.370  0.00  0.00    -0.001 C 
ATOM     60  O   ALA d   1     -13.291  15.049  -4.625  0.00  0.00    -0.271 OA
ATOM     61  CG  ALA d   1     -13.338  10.448  -4.212  0.00  0.00    -0.048 C 
ATOM     62  H13 ALA d   1     -13.739  11.762  -2.510  0.00  0.00     0.064 H 
ATOM     63  H14 ALA d   1     -12.015  11.711  -3.012  0.00  0.00     0.064 H 
ATOM     64  CB  ALA d   1     -13.308  10.897  -5.662  0.00  0.00    -0.036 C 
ATOM     65  H11 ALA d   1     -12.565   9.686  -4.032  0.00  0.00     0.035 H 
ATOM     66  H12 ALA d   1     -14.326  10.034  -3.961  0.00  0.00     0.035 H 
ATOM     67  H9  ALA d   1     -12.291  10.819  -6.074  0.00  0.00     0.036 H 
ATOM     68  H10 ALA d   1     -13.998  10.296  -6.272  0.00  0.00     0.036 H 
ATOM     69  H8  ALA d   1     -13.296  12.920  -6.421  0.00  0.00     0.087 H 
BRANCH  58  70
ATOM     70  CA  ALA d   1     -12.721  14.256  -2.428  0.00  0.00     0.172 C 
ATOM     71  H4  ALA d   1     -11.980  13.493  -2.147  0.00  0.00     0.098 H 
BRANCH  70  72
ATOM     72  N   ALA d   1     -12.144  15.591  -2.182  0.00  0.00    -0.067 N 
ATOM     73  H1  ALA d   1     -11.899  15.677  -1.208  0.00  0.00     0.275 HD
ATOM     74  H2  ALA d   1     -12.820  16.299  -2.422  0.00  0.00     0.275 HD
ATOM     75  H3  ALA d   1     -11.318  15.710  -2.748  0.00  0.00     0.275 HD
ENDBRANCH  70  72
BRANCH  70  76
ATOM     76  CB  ALA d   1     -14.004  14.055  -1.615  0.00  0.00    -0.042 C 
ATOM     77  H5  ALA d   1     -14.413  13.054  -1.817  0.00  0.00     0.030 H 
ATOM     78  H6  ALA d   1     -14.743  14.817  -1.902  0.00  0.00     0.030 H 
ATOM     79  H7  ALA d   1     -13.777  14.149  -0.543  0.00  0.00     0.030 H 
ENDBRANCH  70  76
ENDBRANCH  58  70
ENDBRANCH  53  56
ENDBRANCH  50  52
BRANCH  50  80
ATOM     80  CB  ALA d   1     -17.644  11.223  -8.166  0.00  0.00     0.043 C 
ATOM     81  H17 ALA d   1     -17.531  10.129  -8.138  0.00  0.00     0.052 H 
ATOM     82  H18 ALA d   1     -17.000  11.638  -8.956  0.00  0.00     0.052 H 
BRANCH  80  83
ATOM     83  CG  ALA d   1     -19.116  11.600  -8.426  0.00  0.00     0.175 C 
ATOM     84  OD1 ALA d   1     -19.607  11.221  -9.519  0.00  0.00    -0.648 OA
ATOM     85  OD2 ALA d   1     -19.713  12.244  -7.535  0.00  0.00    -0.648 OA
ENDBRANCH  80  83
ENDBRANCH  50  80
ENDBRANCH  47  50
ENDBRANCH   1  46
BRANCH   1  86
ATOM     86  CB  ALA d   1     -18.365  11.326  -2.157  0.00  0.00     0.018 C 
ATOM     87  H21 ALA d   1     -18.957  10.841  -1.367  0.00  0.00     0.060 H 
BRANCH  86  88
ATOM     88  SG  ALA d   1     -18.439  13.097  -1.915  0.00  0.00    -0.128 SA
BRANCH  88  89
ATOM     89  C1  ALA d   1     -20.185  13.394  -1.685  0.00  0.00     0.105 C 
ATOM     90  O   ALA d   1     -20.601  13.236  -0.346  0.00  0.00    -0.363 OA
ATOM     91  C5  ALA d   1     -19.467  13.662   0.395  0.00  0.00     0.087 C 
ATOM     92  C4  ALA d   1     -19.388  15.185   0.336  0.00  0.00     0.089 C 
ATOM     93  H54 ALA d   1     -18.555  13.244  -0.057  0.00  0.00     0.090 H 
ATOM     94  C3  ALA d   1     -19.254  15.635  -1.136  0.00  0.00     0.085 C 
ATOM     95  H52 ALA d   1     -18.505  15.524   0.897  0.00  0.00     0.091 H 
ATOM     96  C2  ALA d   1     -20.198  14.839  -2.078  0.00  0.00     0.073 C 
ATOM     97  H50 ALA d   1     -18.219  15.453  -1.460  0.00  0.00     0.090 H 
ATOM     98  H48 ALA d   1     -21.212  15.265  -2.045  0.00  0.00     0.082 H 
ATOM     99  H47 ALA d   1     -20.805  12.768  -2.343  0.00  0.00     0.104 H 
BRANCH  91 100
ATOM    100  C6  ALA d   1     -19.589  13.142   1.809  0.00  0.00     0.043 C 
ATOM    101  H55 ALA d   1     -20.306  12.310   1.875  0.00  0.00     0.078 H 
ATOM    102  H56 ALA d   1     -19.884  13.937   2.510  0.00  0.00     0.078 H 
BRANCH 100 103
ATOM    103  O6  ALA d   1     -18.242  12.700   2.046  0.00  0.00    -0.398 OA
ATOM    104  H57 ALA d   1     -18.177  12.341   2.923  0.00  0.00     0.209 HD
ENDBRANCH 100 103
ENDBRANCH  91 100
BRANCH  92 105
ATOM    105  O4  ALA d   1     -20.565  15.755   0.928  0.00  0.00    -0.390 OA
ATOM    106  H53 ALA d   1     -20.506  16.703   0.898  0.00  0.00     0.210 HD
ENDBRANCH  92 105
BRANCH  94 107
ATOM    107  O3  ALA d   1     -19.518  17.047  -1.219  0.00  0.00    -0.391 OA
ATOM    108  H51 ALA d   1     -20.418  17.215  -0.964  0.00  0.00     0.210 HD
ENDBRANCH  94 107
BRANCH  96 109
ATOM    109  N2  ALA d   1     -19.679  14.794  -3.451  0.00  0.00    -0.351 N 
ATOM    110  C7  ALA d   1     -19.958  15.684  -4.413  0.00  0.00     0.214 C 
ATOM    111  O7  ALA d   1     -20.656  16.690  -4.275  0.00  0.00    -0.274 OA
ATOM    112  H49 ALA d   1     -19.068  14.038  -3.687  0.00  0.00     0.163 HD
BRANCH 110 113
ATOM    113  C8  ALA d   1     -19.284  15.346  -5.747  0.00  0.00    -0.003 C 
ATOM    114  H58 ALA d   1     -19.548  16.108  -6.495  0.00  0.00     0.040 H 
ATOM    115  H59 ALA d   1     -19.627  14.360  -6.092  0.00  0.00     0.040 H 
ATOM    116  H60 ALA d   1     -18.192  15.328  -5.612  0.00  0.00     0.040 H 
ENDBRANCH 110 113
ENDBRANCH  96 109
ENDBRANCH  88  89
ENDBRANCH  86  88
BRANCH  86 117
ATOM    117  CM  ALA d   1     -16.902  10.884  -2.043  0.00  0.00    -0.062 C 
ATOM    118  H22 ALA d   1     -16.497  11.203  -1.071  0.00  0.00     0.029 H 
ATOM    119  H23 ALA d   1     -16.316  11.344  -2.852  0.00  0.00     0.029 H 
ATOM    120  H24 ALA d   1     -16.843   9.789  -2.124  0.00  0.00     0.029 H 
ENDBRANCH  86 117
ENDBRANCH   1  86
TORSDOF 27
