REMARK  25 active torsions:
REMARK  status: ('A' for Active; 'I' for Inactive)
REMARK    1  A    between atoms: N_1  and  CA_2 
REMARK    2  A    between atoms: CA_2  and  C_3 
REMARK    3  A    between atoms: CA_2  and  CB_5 
REMARK       I    between atoms: C_3  and  N_6 
REMARK    4  A    between atoms: CA_7  and  C_8 
REMARK       I    between atoms: C_8  and  N_13 
REMARK    5  A    between atoms: N_13  and  CA_14 
REMARK    6  A    between atoms: CA_14  and  CB_15 
REMARK    7  A    between atoms: CA_14  and  C_17 
REMARK    8  A    between atoms: CB_15  and  OG_16 
REMARK    9  A    between atoms: OG_16  and  P_19 
REMARK       I    between atoms: C_17  and  N_23 
REMARK   10  A    between atoms: N_23  and  CA_24 
REMARK   11  A    between atoms: CA_24  and  C_25 
REMARK   12  A    between atoms: CA_24  and  CB_27 
REMARK       I    between atoms: C_25  and  N_30 
REMARK   13  A    between atoms: CB_27  and  OG1_28 
REMARK   14  A    between atoms: CB_27  and  CG2_29 
REMARK   15  A    between atoms: N_30  and  CA_31 
REMARK   16  A    between atoms: CA_31  and  C_32 
REMARK   17  A    between atoms: CA_31  and  CB_34 
REMARK       I    between atoms: C_32  and  N_37 
REMARK   18  A    between atoms: CB_34  and  OG1_35 
REMARK   19  A    between atoms: CB_34  and  CG2_36 
REMARK   20  A    between atoms: N_37  and  CA_38 
REMARK   21  A    between atoms: CA_38  and  C_39 
REMARK   22  A    between atoms: CA_38  and  CB_41 
REMARK   23  A    between atoms: CB_41  and  CG_42 
REMARK   24  A    between atoms: CG_42  and  CD1_43 
REMARK   25  A    between atoms: CG_42  and  CD2_44 
ROOT
ATOM      1  CA  THR d   1     340.945 -52.610 427.309  0.00  0.00     0.113 C 
ATOM      2  H20 THR d   1     341.668 -52.799 426.502  0.00  0.00     0.091 H 
ENDROOT
BRANCH   1   3
ATOM      3  N   THR d   1     341.576 -51.736 428.279  0.00  0.00    -0.344 N 
ATOM      4  C   SEP d   1     342.896 -51.632 428.370  0.00  0.00     0.243 C 
ATOM      5  O   SEP d   1     343.676 -52.166 427.587  0.00  0.00    -0.271 OA
ATOM      6  H19 THR d   1     341.002 -51.198 428.896  0.00  0.00     0.163 HD
BRANCH   4   7
ATOM      7  CA  SEP d   1     343.401 -50.832 429.541  0.00  0.00     0.110 C 
ATOM      8  H16 SEP d   1     342.541 -50.539 430.162  0.00  0.00     0.090 H 
BRANCH   7   9
ATOM      9  N   SEP d   1     344.284 -51.653 430.321  0.00  0.00    -0.344 N 
ATOM     10  C   PRO d   1     344.641 -51.214 431.513  0.00  0.00     0.241 C 
ATOM     11  O   PRO d   1     344.146 -50.202 432.012  0.00  0.00    -0.271 OA
ATOM     12  H15 SEP d   1     344.618 -52.529 429.972  0.00  0.00     0.163 HD
BRANCH  10  13
ATOM     13  CA  PRO d   1     345.713 -51.980 432.253  0.00  0.00     0.091 C 
ATOM     14  N   PRO d   1     346.546 -51.022 432.971  0.00  0.00    -0.337 N 
ATOM     15  C   LEU d   1     347.585 -50.483 432.307  0.00  0.00     0.250 C 
ATOM     16  CD  PRO d   1     345.990 -50.743 434.305  0.00  0.00    -0.001 C 
ATOM     17  O   LEU d   1     347.903 -50.849 431.173  0.00  0.00    -0.271 OA
ATOM     18  CG  PRO d   1     344.886 -51.807 434.464  0.00  0.00    -0.048 C 
ATOM     19  H13 PRO d   1     345.568 -49.728 434.351  0.00  0.00     0.064 H 
ATOM     20  H14 PRO d   1     346.759 -50.855 435.083  0.00  0.00     0.064 H 
ATOM     21  CB  PRO d   1     345.116 -52.826 433.373  0.00  0.00    -0.036 C 
ATOM     22  H11 PRO d   1     344.958 -52.285 435.452  0.00  0.00     0.035 H 
ATOM     23  H12 PRO d   1     343.894 -51.346 434.351  0.00  0.00     0.035 H 
ATOM     24  H9  PRO d   1     345.819 -53.606 433.700  0.00  0.00     0.036 H 
ATOM     25  H10 PRO d   1     344.171 -53.292 433.059  0.00  0.00     0.036 H 
ATOM     26  H8  PRO d   1     346.298 -52.594 431.553  0.00  0.00     0.087 H 
BRANCH  15  27
ATOM     27  CA  LEU d   1     348.385 -49.372 432.991  0.00  0.00     0.172 C 
ATOM     28  H4  LEU d   1     347.713 -48.511 433.119  0.00  0.00     0.098 H 
BRANCH  27  29
ATOM     29  N   LEU d   1     348.906 -49.723 434.317  0.00  0.00    -0.067 N 
ATOM     30  H1  LEU d   1     349.417 -48.941 434.695  0.00  0.00     0.275 HD
ATOM     31  H2  LEU d   1     349.520 -50.519 434.237  0.00  0.00     0.275 HD
ATOM     32  H3  LEU d   1     348.139 -49.951 434.930  0.00  0.00     0.275 HD
ENDBRANCH  27  29
BRANCH  27  33
ATOM     33  CB  LEU d   1     349.541 -48.954 432.079  0.00  0.00    -0.042 C 
ATOM     34  H5  LEU d   1     349.148 -48.691 431.086  0.00  0.00     0.030 H 
ATOM     35  H6  LEU d   1     350.252 -49.788 431.983  0.00  0.00     0.030 H 
ATOM     36  H7  LEU d   1     350.053 -48.083 432.513  0.00  0.00     0.030 H 
ENDBRANCH  27  33
ENDBRANCH  15  27
ENDBRANCH  10  13
ENDBRANCH   7   9
BRANCH   7  37
ATOM     37  CB  SEP d   1     344.131 -49.565 429.101  0.00  0.00     0.059 C 
ATOM     38  H17 SEP d   1     345.202 -49.792 428.993  0.00  0.00     0.079 H 
ATOM     39  H18 SEP d   1     343.996 -48.792 429.872  0.00  0.00     0.079 H 
BRANCH  37  40
ATOM     40  OG  SEP d   1     343.646 -49.070 427.873  0.00  0.00    -0.280 OA
BRANCH  40  41
ATOM     41  P   SEP d   1     344.964 -48.747 427.012  0.00  0.00     0.422 P 
ATOM     42  O1P SEP d   1     345.335 -50.015 426.086  0.00  0.00    -0.617 OA
ATOM     43  O2P SEP d   1     346.187 -48.469 428.024  0.00  0.00    -0.617 OA
ATOM     44  O3P SEP d   1     344.722 -47.432 426.118  0.00  0.00    -0.617 OA
ENDBRANCH  40  41
ENDBRANCH  37  40
ENDBRANCH   7  37
ENDBRANCH   4   7
ENDBRANCH   1   3
BRANCH   1  45
ATOM     45  C   THR d   1     339.701 -51.991 426.705  0.00  0.00     0.243 C 
ATOM     46  O   THR d   1     338.861 -51.445 427.415  0.00  0.00    -0.271 OA
ATOM     47  N   THR d   1     339.582 -52.105 425.388  0.00  0.00    -0.344 N 
ATOM     48  H26 THR d   1     340.300 -52.564 424.865  0.00  0.00     0.163 HD
BRANCH  47  49
ATOM     49  CA  THR d   1     338.419 -51.570 424.695  0.00  0.00     0.113 C 
ATOM     50  H27 THR d   1     338.206 -50.567 425.094  0.00  0.00     0.091 H 
BRANCH  49  51
ATOM     51  C   THR d   1     337.192 -52.452 424.921  0.00  0.00     0.243 C 
ATOM     52  O   THR d   1     337.281 -53.684 424.918  0.00  0.00    -0.271 OA
ATOM     53  N   LEU d   1     336.039 -51.811 425.114  0.00  0.00    -0.345 N 
ATOM     54  H33 LEU d   1     336.049 -50.813 425.178  0.00  0.00     0.163 HD
BRANCH  53  55
ATOM     55  CA  LEU d   1     334.759 -52.512 425.236  0.00  0.00     0.096 C 
ATOM     56  H34 LEU d   1     334.936 -53.578 425.029  0.00  0.00     0.089 H 
BRANCH  55  57
ATOM     57  C   LEU d   1     333.721 -51.999 424.224  0.00  0.00     0.196 C 
ATOM     58  O   LEU d   1     334.063 -51.648 423.092  0.00  0.00    -0.646 OA
ATOM     59  OXT LEU d   1     332.518 -51.937 424.492  0.00  0.00    -0.646 OA
ENDBRANCH  55  57
BRANCH  55  60
ATOM     60  CB  LEU d   1     334.217 -52.383 426.661  0.00  0.00    -0.034 C 
ATOM     61  H35 LEU d   1     333.225 -52.858 426.687  0.00  0.00     0.037 H 
ATOM     62  H36 LEU d   1     334.116 -51.311 426.886  0.00  0.00     0.037 H 
BRANCH  60  63
ATOM     63  CG  LEU d   1     335.066 -53.014 427.768  0.00  0.00    -0.059 C 
ATOM     64  H37 LEU d   1     336.029 -52.484 427.807  0.00  0.00     0.038 H 
BRANCH  63  65
ATOM     65  CD1 LEU d   1     334.376 -52.848 429.106  0.00  0.00    -0.073 C 
ATOM     66  H38 LEU d   1     334.992 -53.304 429.895  0.00  0.00     0.028 H 
ATOM     67  H39 LEU d   1     333.394 -53.343 429.076  0.00  0.00     0.028 H 
ATOM     68  H40 LEU d   1     334.241 -51.777 429.319  0.00  0.00     0.028 H 
ENDBRANCH  63  65
BRANCH  63  69
ATOM     69  CD2 LEU d   1     335.347 -54.485 427.484  0.00  0.00    -0.073 C 
ATOM     70  H41 LEU d   1     335.847 -54.581 426.509  0.00  0.00     0.028 H 
ATOM     71  H42 LEU d   1     334.399 -55.043 427.466  0.00  0.00     0.028 H 
ATOM     72  H43 LEU d   1     335.997 -54.893 428.272  0.00  0.00     0.028 H 
ENDBRANCH  63  69
ENDBRANCH  60  63
ENDBRANCH  55  60
ENDBRANCH  53  55
ENDBRANCH  49  51
BRANCH  49  73
ATOM     73  CB  THR d   1     338.713 -51.450 423.198  0.00  0.00     0.060 C 
ATOM     74  H28 THR d   1     338.893 -52.454 422.785  0.00  0.00     0.086 H 
BRANCH  73  75
ATOM     75  OG1 THR d   1     339.879 -50.641 423.004  0.00  0.00    -0.393 OA
ATOM     76  H29 THR d   1     340.061 -50.567 422.075  0.00  0.00     0.210 HD
ENDBRANCH  73  75
BRANCH  73  77
ATOM     77  CG2 THR d   1     337.541 -50.818 422.474  0.00  0.00    -0.050 C 
ATOM     78  H30 THR d   1     337.771 -50.741 421.401  0.00  0.00     0.031 H 
ATOM     79  H31 THR d   1     337.356 -49.814 422.883  0.00  0.00     0.031 H 
ATOM     80  H32 THR d   1     336.645 -51.441 422.613  0.00  0.00     0.031 H 
ENDBRANCH  73  77
ENDBRANCH  49  73
ENDBRANCH  47  49
ENDBRANCH   1  45
BRANCH   1  81
ATOM     81  CB  THR d   1     340.557 -53.947 427.945  0.00  0.00     0.060 C 
ATOM     82  H21 THR d   1     339.774 -54.420 427.335  0.00  0.00     0.086 H 
BRANCH  81  83
ATOM     83  OG1 THR d   1     340.042 -53.712 429.264  0.00  0.00    -0.393 OA
ATOM     84  H22 THR d   1     340.709 -53.289 429.792  0.00  0.00     0.210 HD
ENDBRANCH  81  83
BRANCH  81  85
ATOM     85  CG2 THR d   1     341.762 -54.874 427.999  0.00  0.00    -0.050 C 
ATOM     86  H23 THR d   1     341.469 -55.830 428.458  0.00  0.00     0.031 H 
ATOM     87  H24 THR d   1     342.557 -54.407 428.599  0.00  0.00     0.031 H 
ATOM     88  H25 THR d   1     342.131 -55.055 426.979  0.00  0.00     0.031 H 
ENDBRANCH  81  85
ENDBRANCH   1  81
TORSDOF 25
