REMARK  6 active torsions:
REMARK  status: ('A' for Active; 'I' for Inactive)
REMARK    1  A    between atoms: N6_12  and  C6_3 
REMARK    2  A    between atoms: C2_5  and  N2_17 
REMARK    3  A    between atoms: CAK_11  and  N6_12 
REMARK    4  A    between atoms: N2_17  and  CAM_18 
REMARK    5  A    between atoms: CAR_19  and  CAS_20 
REMARK    6  A    between atoms: CAP_24  and  NAT_25 
ROOT
ATOM      1  C4  8PT d   1      36.203  43.224  37.906  0.00  0.00     0.180 A 
ATOM      2  C5  8PT d   1      36.627  42.389  38.906  0.00  0.00     0.150 A 
ATOM      3  C6  8PT d   1      36.281  42.683  40.179  0.00  0.00     0.176 A 
ATOM      4  C8  8PT d   1      37.343  41.670  36.996  0.00  0.00     0.066 A 
ATOM      5  C2  8PT d   1      35.108  44.534  39.480  0.00  0.00     0.731 A 
ATOM      6  N1  8PT d   1      35.540  43.736  40.425  0.00  0.00    -0.043 NA
ATOM      7  N7  8PT d   1      37.331  41.432  38.337  0.00  0.00    -0.236 NA
ATOM      8  N9  8PT d   1      36.639  42.767  36.722  0.00  0.00    -0.333 N 
ATOM      9  N3  8PT d   1      35.436  44.303  38.185  0.00  0.00    -0.042 NA
ATOM     10  H1  8PT d   1      37.853  41.054  36.257  0.00  0.00     0.143 H 
ATOM     11  H14 8PT d   1      36.465  43.179  35.794  0.00  0.00     0.168 HD
ENDROOT
BRANCH   5  12
ATOM     12  N2  8PT d   1      34.374  45.538  39.956  0.00  0.00    -0.188 N 
ATOM     13  H15 8PT d   1      33.955  46.234  39.323  0.00  0.00     0.184 HD
BRANCH  12  14
ATOM     14  CAM 8PT d   1      34.192  45.619  41.317  0.00  0.00     0.055 A 
ATOM     15  CAR 8PT d   1      34.264  46.898  41.898  0.00  0.00    -0.033 A 
ATOM     16  CAQ 8PT d   1      34.079  47.039  43.258  0.00  0.00    -0.050 A 
ATOM     17  CAP 8PT d   1      33.820  45.944  44.063  0.00  0.00     0.030 A 
ATOM     18  H19 8PT d   1      34.138  48.025  43.704  0.00  0.00     0.087 H 
ATOM     19  CAO 8PT d   1      33.748  44.665  43.502  0.00  0.00    -0.055 A 
ATOM     20  CAN 8PT d   1      33.939  44.503  42.139  0.00  0.00    -0.054 A 
ATOM     21  H21 8PT d   1      33.544  43.805  44.130  0.00  0.00     0.087 H 
ATOM     22  H20 8PT d   1      33.894  43.512  41.703  0.00  0.00     0.087 H 
BRANCH  15  23
ATOM     23  CAS 8PT d   1      34.526  48.039  41.156  0.00  0.00    -0.049 C 
ATOM     24  H16 8PT d   1      34.533  48.915  41.821  0.00  0.00     0.033 H 
ATOM     25  H17 8PT d   1      33.746  48.166  40.391  0.00  0.00     0.033 H 
ATOM     26  H18 8PT d   1      35.507  47.941  40.667  0.00  0.00     0.033 H 
ENDBRANCH  15  23
BRANCH  17  27
ATOM     27  NAT 8PT d   1      33.629  46.149  45.374  0.00  0.00    -0.377 N 
ATOM     28  CAZ 8PT d   1      32.637  47.160  45.784  0.00  0.00     0.015 C 
ATOM     29  CBA 8PT d   1      32.684  47.203  47.309  0.00  0.00     0.034 C 
ATOM     30  H22 8PT d   1      31.633  46.871  45.441  0.00  0.00     0.067 H 
ATOM     31  H23 8PT d   1      32.898  48.143  45.366  0.00  0.00     0.067 H 
ATOM     32  OBB 8PT d   1      32.451  45.865  47.809  0.00  0.00    -0.388 OA
ATOM     33  H24 8PT d   1      31.905  47.882  47.686  0.00  0.00     0.076 H 
ATOM     34  H25 8PT d   1      33.671  47.557  47.641  0.00  0.00     0.076 H 
ATOM     35  CBC 8PT d   1      33.563  44.993  47.619  0.00  0.00     0.034 C 
ATOM     36  CBD 8PT d   1      34.396  45.391  46.392  0.00  0.00     0.015 C 
ATOM     37  H26 8PT d   1      33.191  43.967  47.480  0.00  0.00     0.076 H 
ATOM     38  H27 8PT d   1      34.203  45.033  48.512  0.00  0.00     0.076 H 
ATOM     39  H28 8PT d   1      35.236  46.015  46.730  0.00  0.00     0.067 H 
ATOM     40  H29 8PT d   1      34.785  44.475  45.923  0.00  0.00     0.067 H 
ENDBRANCH  17  27
ENDBRANCH  12  14
ENDBRANCH   5  12
BRANCH   3  41
ATOM     41  N6  8PT d   1      36.538  42.046  41.331  0.00  0.00    -0.368 N 
ATOM     42  H13 8PT d   1      35.998  42.401  42.133  0.00  0.00     0.161 HD
BRANCH  41  43
ATOM     43  CAK 8PT d   1      37.410  40.979  41.656  0.00  0.00     0.011 C 
ATOM     44  CAU 8PT d   1      38.423  41.477  42.735  0.00  0.00    -0.046 C 
ATOM     45  CAV 8PT d   1      38.029  41.373  44.221  0.00  0.00    -0.063 C 
ATOM     46  H2  8PT d   1      39.348  40.897  42.603  0.00  0.00     0.035 H 
ATOM     47  H3  8PT d   1      38.623  42.538  42.526  0.00  0.00     0.035 H 
ATOM     48  CAW 8PT d   1      36.806  40.466  44.545  0.00  0.00    -0.065 C 
ATOM     49  H4  8PT d   1      37.799  42.387  44.579  0.00  0.00     0.033 H 
ATOM     50  H5  8PT d   1      38.895  40.977  44.771  0.00  0.00     0.033 H 
ATOM     51  CAX 8PT d   1      35.802  40.321  43.393  0.00  0.00    -0.063 C 
ATOM     52  H6  8PT d   1      36.278  40.895  45.409  0.00  0.00     0.033 H 
ATOM     53  H7  8PT d   1      37.179  39.464  44.804  0.00  0.00     0.033 H 
ATOM     54  CAY 8PT d   1      36.620  39.824  42.262  0.00  0.00    -0.046 C 
ATOM     55  H8  8PT d   1      35.346  41.291  43.148  0.00  0.00     0.033 H 
ATOM     56  H9  8PT d   1      35.013  39.599  43.651  0.00  0.00     0.033 H 
ATOM     57  H10 8PT d   1      35.961  39.390  41.496  0.00  0.00     0.035 H 
ATOM     58  H11 8PT d   1      37.317  39.054  42.625  0.00  0.00     0.035 H 
ATOM     59  H12 8PT d   1      37.943  40.642  40.755  0.00  0.00     0.072 H 
ENDBRANCH  41  43
ENDBRANCH   3  41
TORSDOF 6
