REMARK WARNING: 32 MAX_TORS EXCEEDED!!!
REMARK  48 active torsions:
REMARK  status: ('A' for Active; 'I' for Inactive)
REMARK    1  A    between atoms: N_1  and  CA_2 
REMARK    2  A    between atoms: CA_2  and  C_3 
REMARK    3  A    between atoms: CA_2  and  CB_5 
REMARK       I    between atoms: C_3  and  N_10 
REMARK    4  A    between atoms: CB_5  and  CG_6 
REMARK    5  A    between atoms: CG_6  and  CD_7 
REMARK    6  A    between atoms: N_10  and  CA_11 
REMARK    7  A    between atoms: CA_11  and  C_12 
REMARK    8  A    between atoms: CA_11  and  CB_14 
REMARK       I    between atoms: C_12  and  N_24 
REMARK    9  A    between atoms: CB_14  and  CG_15 
REMARK   10  A    between atoms: N_24  and  CA_25 
REMARK   11  A    between atoms: CA_25  and  C_26 
REMARK   12  A    between atoms: CA_25  and  CB_28 
REMARK       I    between atoms: C_26  and  N_31 
REMARK   13  A    between atoms: CB_28  and  CG1_29 
REMARK   14  A    between atoms: CB_28  and  CG2_30 
REMARK   15  A    between atoms: N_31  and  CA_32 
REMARK   16  A    between atoms: CA_32  and  C_33 
REMARK   17  A    between atoms: CA_32  and  CB_35 
REMARK       I    between atoms: C_33  and  N_41 
REMARK   18  A    between atoms: CB_35  and  CG_36 
REMARK   19  A    between atoms: CA_42  and  C_43 
REMARK       I    between atoms: C_43  and  N_48 
REMARK   20  A    between atoms: N_48  and  CA_49 
REMARK   21  A    between atoms: CA_49  and  C_50 
REMARK   22  A    between atoms: CA_49  and  CB_52 
REMARK       I    between atoms: C_50  and  N_57 
REMARK   23  A    between atoms: CB_52  and  CG_53 
REMARK   24  A    between atoms: CG_53  and  CD_54 
REMARK       I    between atoms: CD_54  and  NE2_56 
REMARK   25  A    between atoms: N_57  and  CA_58 
REMARK   26  A    between atoms: CA_58  and  C_59 
REMARK   27  A    between atoms: CA_58  and  CB_61 
REMARK       I    between atoms: C_59  and  N_68 
REMARK   28  A    between atoms: CB_61  and  CG_62 
REMARK   29  A    between atoms: N_68  and  CA_69 
REMARK   30  A    between atoms: CA_69  and  C_70 
REMARK   31  A    between atoms: CA_69  and  CB_72 
REMARK       I    between atoms: C_70  and  N_77 
REMARK   32  A    between atoms: CB_72  and  CG_73 
REMARK   33  A    between atoms: CG_73  and  CD_74 
REMARK   34  A    between atoms: N_77  and  CA_78 
REMARK   35  A    between atoms: CA_78  and  C_79 
REMARK   36  A    between atoms: CA_78  and  CB_81 
REMARK       I    between atoms: C_79  and  N_86 
REMARK   37  A    between atoms: CB_81  and  CG_82 
REMARK   38  A    between atoms: CG_82  and  CD_83 
REMARK       I    between atoms: CD_83  and  NE2_85 
REMARK   39  A    between atoms: N_86  and  CA_87 
REMARK   40  A    between atoms: CA_87  and  C_88 
REMARK   41  A    between atoms: CA_87  and  CB_90 
REMARK       I    between atoms: C_88  and  N_95 
REMARK   42  A    between atoms: CB_90  and  CG_91 
REMARK   43  A    between atoms: CG_91  and  CD_92 
REMARK   44  A    between atoms: CD_92  and  CE_93 
REMARK   45  A    between atoms: CE_93  and  NZ_94 
REMARK   46  A    between atoms: N_95  and  CA_96 
REMARK   47  A    between atoms: CA_96  and  C_97 
REMARK   48  A    between atoms: CA_96  and  CB_99 
ROOT
ATOM      1  CA  GLN d   1     -93.739-117.751 -21.667  0.00  0.00     0.090 C 
ATOM      2  H43 GLN d   1     -93.668-117.347 -20.646  0.00  0.00     0.087 H 
ENDROOT
BRANCH   1   3
ATOM      3  N   GLN d   1     -94.445-119.010 -21.610  0.00  0.00    -0.346 N 
ATOM      4  C   PRO d   1     -95.718-119.069 -21.246  0.00  0.00     0.241 C 
ATOM      5  O   PRO d   1     -96.313-118.074 -20.848  0.00  0.00    -0.271 OA
ATOM      6  H42 GLN d   1     -93.964-119.853 -21.850  0.00  0.00     0.163 HD
BRANCH   4   7
ATOM      7  CA  PRO d   1     -96.427-120.413 -21.282  0.00  0.00     0.091 C 
ATOM      8  N   PRO d   1     -95.978-121.413 -22.288  0.00  0.00    -0.337 N 
ATOM      9  C   HIS d   1     -95.966-121.065 -23.579  0.00  0.00     0.243 C 
ATOM     10  CD  PRO d   1     -95.728-122.719 -21.644  0.00  0.00    -0.001 C 
ATOM     11  O   HIS d   1     -96.229-119.918 -23.968  0.00  0.00    -0.271 OA
ATOM     12  CG  PRO d   1     -95.455-122.336 -20.215  0.00  0.00    -0.048 C 
ATOM     13  H40 PRO d   1     -94.859-123.223 -22.093  0.00  0.00     0.064 H 
ATOM     14  H41 PRO d   1     -96.609-123.373 -21.718  0.00  0.00     0.064 H 
ATOM     15  CB  PRO d   1     -96.288-121.152 -19.958  0.00  0.00    -0.036 C 
ATOM     16  H38 PRO d   1     -95.734-123.156 -19.537  0.00  0.00     0.035 H 
ATOM     17  H39 PRO d   1     -94.391-122.094 -20.079  0.00  0.00     0.035 H 
ATOM     18  H36 PRO d   1     -97.278-121.459 -19.590  0.00  0.00     0.036 H 
ATOM     19  H37 PRO d   1     -95.805-120.504 -19.212  0.00  0.00     0.036 H 
ATOM     20  H35 PRO d   1     -97.490-120.199 -21.468  0.00  0.00     0.087 H 
BRANCH   9  21
ATOM     21  CA  HIS d   1     -95.578-122.154 -24.619  0.00  0.00     0.095 C 
ATOM     22  H29 HIS d   1     -95.807-123.142 -24.193  0.00  0.00     0.088 H 
BRANCH  21  23
ATOM     23  N   HIS d   1     -96.354-121.958 -25.826  0.00  0.00    -0.346 N 
ATOM     24  C   VAL d   1     -97.684-121.940 -25.830  0.00  0.00     0.241 C 
ATOM     25  O   VAL d   1     -98.343-122.091 -24.814  0.00  0.00    -0.271 OA
ATOM     26  H28 HIS d   1     -95.870-121.831 -26.692  0.00  0.00     0.163 HD
BRANCH  24  27
ATOM     27  CA  VAL d   1     -98.346-121.761 -27.194  0.00  0.00     0.092 C 
ATOM     28  H20 VAL d   1     -97.573-121.838 -27.973  0.00  0.00     0.088 H 
BRANCH  27  29
ATOM     29  N   VAL d   1     -99.318-122.833 -27.406  0.00  0.00    -0.346 N 
ATOM     30  C   TRP d   1     -99.140-123.797 -28.306  0.00  0.00     0.241 C 
ATOM     31  O   TRP d   1     -98.222-123.821 -29.135  0.00  0.00    -0.271 OA
ATOM     32  H19 VAL d   1    -100.150-122.842 -26.852  0.00  0.00     0.163 HD
BRANCH  30  33
ATOM     33  CA  TRP d   1    -100.176-124.914 -28.269  0.00  0.00     0.093 C 
ATOM     34  H10 TRP d   1    -100.982-124.622 -27.580  0.00  0.00     0.088 H 
BRANCH  33  35
ATOM     35  N   TRP d   1    -100.761-125.133 -29.588  0.00  0.00    -0.346 N 
ATOM     36  C   GLU d   1    -101.541-124.240 -30.192  0.00  0.00     0.249 C 
ATOM     37  O   GLU d   1    -101.733-123.102 -29.766  0.00  0.00    -0.271 OA
ATOM     38  H9  TRP d   1    -100.567-125.993 -30.059  0.00  0.00     0.163 HD
BRANCH  36  39
ATOM     39  CA  GLU d   1    -102.197-124.710 -31.495  0.00  0.00     0.176 C 
ATOM     40  H4  GLU d   1    -102.235-125.809 -31.482  0.00  0.00     0.099 H 
BRANCH  39  41
ATOM     41  N   GLU d   1    -103.603-124.201 -31.616  0.00  0.00    -0.066 N 
ATOM     42  H1  GLU d   1    -104.005-124.527 -32.481  0.00  0.00     0.275 HD
ATOM     43  H2  GLU d   1    -103.597-123.193 -31.607  0.00  0.00     0.275 HD
ATOM     44  H3  GLU d   1    -104.151-124.541 -30.842  0.00  0.00     0.275 HD
ENDBRANCH  39  41
BRANCH  39  45
ATOM     45  CB  GLU d   1    -101.349-124.273 -32.695  0.00  0.00    -0.021 C 
ATOM     46  H5  GLU d   1    -101.169-123.191 -32.617  0.00  0.00     0.037 H 
ATOM     47  H6  GLU d   1    -101.913-124.486 -33.615  0.00  0.00     0.037 H 
BRANCH  45  48
ATOM     48  CG  GLU d   1    -100.003-124.978 -32.783  0.00  0.00     0.018 C 
ATOM     49  H7  GLU d   1    -100.180-126.061 -32.864  0.00  0.00     0.049 H 
ATOM     50  H8  GLU d   1     -99.437-124.767 -31.864  0.00  0.00     0.049 H 
BRANCH  48  51
ATOM     51  CD  GLU d   1     -99.171-124.535 -33.974  0.00  0.00     0.172 C 
ATOM     52  OE1 GLU d   1     -99.684-123.778 -34.823  0.00  0.00    -0.648 OA
ATOM     53  OE2 GLU d   1     -97.993-124.950 -34.062  0.00  0.00    -0.648 OA
ENDBRANCH  48  51
ENDBRANCH  45  48
ENDBRANCH  39  45
ENDBRANCH  36  39
ENDBRANCH  33  35
BRANCH  33  54
ATOM     54  CB  TRP d   1     -99.519-126.190 -27.738  0.00  0.00    -0.012 C 
ATOM     55  H11 TRP d   1     -98.671-126.437 -28.394  0.00  0.00     0.044 H 
ATOM     56  H12 TRP d   1    -100.262-127.000 -27.779  0.00  0.00     0.044 H 
BRANCH  54  57
ATOM     57  CG  TRP d   1     -99.003-126.094 -26.315  0.00  0.00    -0.028 A 
ATOM     58  CD1 TRP d   1     -99.742-126.143 -25.167  0.00  0.00    -0.015 A 
ATOM     59  NE1 TRP d   1     -98.920-126.033 -24.058  0.00  0.00    -0.365 N 
ATOM     60  H13 TRP d   1    -100.825-126.253 -25.129  0.00  0.00     0.112 H 
ATOM     61  CE2 TRP d   1     -97.625-125.916 -24.481  0.00  0.00     0.042 A 
ATOM     62  H14 TRP d   1     -99.233-126.038 -23.077  0.00  0.00     0.165 HD
ATOM     63  CD2 TRP d   1     -97.635-125.944 -25.901  0.00  0.00    -0.002 A 
ATOM     64  CZ2 TRP d   1     -96.446-125.787 -23.742  0.00  0.00    -0.056 A 
ATOM     65  CE3 TRP d   1     -96.415-125.850 -26.585  0.00  0.00    -0.070 A 
ATOM     66  CZ3 TRP d   1     -95.247-125.719 -25.844  0.00  0.00    -0.082 A 
ATOM     67  H15 TRP d   1     -96.383-125.879 -27.668  0.00  0.00     0.084 H 
ATOM     68  CH2 TRP d   1     -95.268-125.686 -24.450  0.00  0.00    -0.081 A 
ATOM     69  H17 TRP d   1     -94.298-125.641 -26.361  0.00  0.00     0.083 H 
ATOM     70  H18 TRP d   1     -94.334-125.578 -23.910  0.00  0.00     0.083 H 
ATOM     71  H16 TRP d   1     -96.457-125.767 -22.658  0.00  0.00     0.086 H 
ENDBRANCH  54  57
ENDBRANCH  33  54
ENDBRANCH  30  33
ENDBRANCH  27  29
BRANCH  27  72
ATOM     72  CB  VAL d   1     -98.986-120.366 -27.291  0.00  0.00    -0.033 C 
ATOM     73  H21 VAL d   1     -99.736-120.269 -26.492  0.00  0.00     0.042 H 
BRANCH  72  74
ATOM     74  CG1 VAL d   1     -97.934-119.276 -27.108  0.00  0.00    -0.071 C 
ATOM     75  H22 VAL d   1     -98.413-118.288 -27.181  0.00  0.00     0.028 H 
ATOM     76  H23 VAL d   1     -97.168-119.371 -27.892  0.00  0.00     0.028 H 
ATOM     77  H24 VAL d   1     -97.463-119.383 -26.120  0.00  0.00     0.028 H 
ENDBRANCH  72  74
BRANCH  72  78
ATOM     78  CG2 VAL d   1     -99.686-120.192 -28.651  0.00  0.00    -0.071 C 
ATOM     79  H25 VAL d   1    -100.443-120.980 -28.777  0.00  0.00     0.028 H 
ATOM     80  H26 VAL d   1     -98.942-120.265 -29.458  0.00  0.00     0.028 H 
ATOM     81  H27 VAL d   1    -100.173-119.207 -28.689  0.00  0.00     0.028 H 
ENDBRANCH  72  78
ENDBRANCH  27  72
ENDBRANCH  24  27
ENDBRANCH  21  23
BRANCH  21  82
ATOM     82  CB  HIS d   1     -94.104-122.112 -24.992  0.00  0.00     0.004 C 
ATOM     83  H30 HIS d   1     -93.894-121.133 -25.448  0.00  0.00     0.046 H 
ATOM     84  H31 HIS d   1     -93.914-122.908 -25.727  0.00  0.00     0.046 H 
BRANCH  82  85
ATOM     85  CG  HIS d   1     -93.175-122.300 -23.862  0.00  0.00     0.053 A 
ATOM     86  ND1 HIS d   1     -92.948-121.324 -22.912  0.00  0.00    -0.247 NA
ATOM     87  CE1 HIS d   1     -92.096-121.783 -22.018  0.00  0.00     0.064 A 
ATOM     88  NE2 HIS d   1     -91.778-123.031 -22.336  0.00  0.00    -0.359 N 
ATOM     89  H33 HIS d   1     -91.716-121.230 -21.160  0.00  0.00     0.143 H 
ATOM     90  CD2 HIS d   1     -92.452-123.372 -23.480  0.00  0.00     0.002 A 
ATOM     91  H34 HIS d   1     -91.134-123.641 -21.812  0.00  0.00     0.166 HD
ATOM     92  H32 HIS d   1     -92.411-124.334 -23.988  0.00  0.00     0.114 H 
ENDBRANCH  82  85
ENDBRANCH  21  82
ENDBRANCH   9  21
ENDBRANCH   4   7
ENDBRANCH   1   3
BRANCH   1  93
ATOM     93  C   GLN d   1     -94.465-116.715 -22.542  0.00  0.00     0.241 C 
ATOM     94  O   GLN d   1     -94.396-115.519 -22.271  0.00  0.00    -0.271 OA
ATOM     95  N   PHE d   1     -95.157-117.182 -23.574  0.00  0.00    -0.346 N 
ATOM     96  H50 PHE d   1     -95.328-118.166 -23.617  0.00  0.00     0.163 HD
BRANCH  95  97
ATOM     97  CA  PHE d   1     -95.683-116.349 -24.648  0.00  0.00     0.093 C 
ATOM     98  H51 PHE d   1     -95.352-115.319 -24.453  0.00  0.00     0.088 H 
BRANCH  97  99
ATOM     99  C   PHE d   1     -97.207-116.327 -24.737  0.00  0.00     0.241 C 
ATOM    100  O   PHE d   1     -97.747-115.517 -25.497  0.00  0.00    -0.271 OA
ATOM    101  N   GLU d   1     -97.883-117.219 -24.025  0.00  0.00    -0.346 N 
ATOM    102  H59 GLU d   1     -97.389-117.803 -23.381  0.00  0.00     0.163 HD
BRANCH 101 103
ATOM    103  CA  GLU d   1     -99.333-117.371 -24.158  0.00  0.00     0.090 C 
ATOM    104  H60 GLU d   1     -99.566-117.685 -25.186  0.00  0.00     0.087 H 
BRANCH 103 105
ATOM    105  C   GLU d   1    -100.011-116.033 -23.881  0.00  0.00     0.241 C 
ATOM    106  O   GLU d   1     -99.551-115.216 -23.040  0.00  0.00    -0.271 OA
ATOM    107  N   GLN d   1    -101.102-115.805 -24.608  0.00  0.00    -0.346 N 
ATOM    108  H65 GLN d   1    -101.435-116.528 -25.213  0.00  0.00     0.163 HD
BRANCH 107 109
ATOM    109  CA  GLN d   1    -101.830-114.547 -24.558  0.00  0.00     0.090 C 
ATOM    110  H66 GLN d   1    -101.314-113.856 -23.875  0.00  0.00     0.087 H 
BRANCH 109 111
ATOM    111  C   GLN d   1    -103.246-114.783 -24.059  0.00  0.00     0.241 C 
ATOM    112  O   GLN d   1    -103.755-115.904 -24.102  0.00  0.00    -0.271 OA
ATOM    113  N   LYS d   1    -103.858-113.716 -23.560  0.00  0.00    -0.346 N 
ATOM    114  H73 LYS d   1    -103.321-112.891 -23.382  0.00  0.00     0.163 HD
BRANCH 113 115
ATOM    115  CA  LYS d   1    -105.308-113.704 -23.258  0.00  0.00     0.089 C 
ATOM    116  H74 LYS d   1    -105.530-114.520 -22.555  0.00  0.00     0.087 H 
BRANCH 115 117
ATOM    117  C   LYS d   1    -106.105-113.918 -24.550  0.00  0.00     0.241 C 
ATOM    118  O   LYS d   1    -105.728-113.387 -25.593  0.00  0.00    -0.271 OA
ATOM    119  N   ALA d   1    -107.195-114.682 -24.476  0.00  0.00    -0.345 N 
ATOM    120  H86 ALA d   1    -107.437-115.097 -23.599  0.00  0.00     0.163 HD
BRANCH 119 121
ATOM    121  CA  ALA d   1    -108.058-114.934 -25.653  0.00  0.00     0.093 C 
ATOM    122  H87 ALA d   1    -107.402-115.136 -26.513  0.00  0.00     0.089 H 
BRANCH 121 123
ATOM    123  C   ALA d   1    -108.920-113.713 -25.995  0.00  0.00     0.196 C 
ATOM    124  O   ALA d   1    -108.713-112.623 -25.447  0.00  0.00    -0.646 OA
ATOM    125  OXT ALA d   1    -109.835-113.801 -26.824  0.00  0.00    -0.646 OA
ENDBRANCH 121 123
BRANCH 121 126
ATOM    126  CB  ALA d   1    -108.940-116.162 -25.432  0.00  0.00    -0.048 C 
ATOM    127  H88 ALA d   1    -109.569-116.326 -26.319  0.00  0.00     0.030 H 
ATOM    128  H89 ALA d   1    -109.581-116.000 -24.553  0.00  0.00     0.030 H 
ATOM    129  H90 ALA d   1    -108.305-117.044 -25.265  0.00  0.00     0.030 H 
ENDBRANCH 121 126
ENDBRANCH 119 121
ENDBRANCH 115 117
BRANCH 115 130
ATOM    130  CB  LYS d   1    -105.733-112.377 -22.629  0.00  0.00    -0.038 C 
ATOM    131  H75 LYS d   1    -106.822-112.277 -22.748  0.00  0.00     0.036 H 
ATOM    132  H76 LYS d   1    -105.228-111.565 -23.173  0.00  0.00     0.036 H 
BRANCH 130 133
ATOM    133  CG  LYS d   1    -105.406-112.227 -21.151  0.00  0.00    -0.061 C 
ATOM    134  H77 LYS d   1    -104.321-112.088 -21.034  0.00  0.00     0.033 H 
ATOM    135  H78 LYS d   1    -105.718-113.137 -20.618  0.00  0.00     0.033 H 
BRANCH 133 136
ATOM    136  CD  LYS d   1    -106.132-111.025 -20.556  0.00  0.00    -0.043 C 
ATOM    137  H79 LYS d   1    -107.190-111.069 -20.854  0.00  0.00     0.035 H 
ATOM    138  H80 LYS d   1    -105.677-110.106 -20.954  0.00  0.00     0.035 H 
BRANCH 136 139
ATOM    139  CE  LYS d   1    -106.054-110.990 -19.035  0.00  0.00     0.080 C 
ATOM    140  H81 LYS d   1    -106.250-112.000 -18.646  0.00  0.00     0.075 H 
ATOM    141  H82 LYS d   1    -106.819-110.296 -18.656  0.00  0.00     0.075 H 
BRANCH 139 142
ATOM    142  NZ  LYS d   1    -104.721-110.542 -18.554  0.00  0.00    -0.079 N 
ATOM    143  H83 LYS d   1    -104.713-110.533 -17.546  0.00  0.00     0.274 HD
ATOM    144  H84 LYS d   1    -104.534-109.614 -18.899  0.00  0.00     0.274 HD
ATOM    145  H85 LYS d   1    -104.012-111.175 -18.890  0.00  0.00     0.274 HD
ENDBRANCH 139 142
ENDBRANCH 136 139
ENDBRANCH 133 136
ENDBRANCH 130 133
ENDBRANCH 115 130
ENDBRANCH 113 115
ENDBRANCH 109 111
BRANCH 109 146
ATOM    146  CB  GLN d   1    -101.889-113.927 -25.964  0.00  0.00    -0.030 C 
ATOM    147  H67 GLN d   1    -102.545-113.045 -25.917  0.00  0.00     0.037 H 
ATOM    148  H68 GLN d   1    -102.326-114.673 -26.644  0.00  0.00     0.037 H 
BRANCH 146 149
ATOM    149  CG  GLN d   1    -100.554-113.486 -26.550  0.00  0.00     0.011 C 
ATOM    150  H69 GLN d   1    -100.728-113.126 -27.575  0.00  0.00     0.047 H 
ATOM    151  H70 GLN d   1     -99.883-114.357 -26.576  0.00  0.00     0.047 H 
BRANCH 149 152
ATOM    152  CD  GLN d   1     -99.875-112.387 -25.769  0.00  0.00     0.215 C 
ATOM    153  OE1 GLN d   1    -100.347-111.252 -25.722  0.00  0.00    -0.274 OA
ATOM    154  NE2 GLN d   1     -98.734-112.714 -25.176  0.00  0.00    -0.370 N 
ATOM    155  H71 GLN d   1     -98.234-112.031 -24.643  0.00  0.00     0.159 HD
ATOM    156  H72 GLN d   1     -98.374-113.643 -25.262  0.00  0.00     0.159 HD
ENDBRANCH 149 152
ENDBRANCH 146 149
ENDBRANCH 109 146
ENDBRANCH 107 109
ENDBRANCH 103 105
BRANCH 103 157
ATOM    157  CB  GLU d   1     -99.856-118.433 -23.187  0.00  0.00    -0.029 C 
ATOM    158  H61 GLU d   1     -99.347-119.383 -23.407  0.00  0.00     0.037 H 
ATOM    159  H62 GLU d   1    -100.937-118.549 -23.352  0.00  0.00     0.037 H 
BRANCH 157 160
ATOM    160  CG  GLU d   1     -99.630-118.100 -21.727  0.00  0.00     0.018 C 
ATOM    161  H63 GLU d   1    -100.191-117.185 -21.488  0.00  0.00     0.049 H 
ATOM    162  H64 GLU d   1     -98.555-117.922 -21.572  0.00  0.00     0.049 H 
BRANCH 160 163
ATOM    163  CD  GLU d   1    -100.073-119.190 -20.788  0.00  0.00     0.172 C 
ATOM    164  OE1 GLU d   1    -100.613-120.240 -21.280  0.00  0.00    -0.648 OA
ATOM    165  OE2 GLU d   1     -99.855-118.976 -19.560  0.00  0.00    -0.648 OA
ENDBRANCH 160 163
ENDBRANCH 157 160
ENDBRANCH 103 157
ENDBRANCH 101 103
ENDBRANCH  97  99
BRANCH  97 166
ATOM    166  CB  PHE d   1     -95.101-116.789 -25.984  0.00  0.00    -0.014 C 
ATOM    167  H52 PHE d   1     -95.268-115.990 -26.721  0.00  0.00     0.043 H 
ATOM    168  H53 PHE d   1     -95.619-117.703 -26.310  0.00  0.00     0.043 H 
BRANCH 166 169
ATOM    169  CG  PHE d   1     -93.654-117.068 -25.910  0.00  0.00    -0.056 A 
ATOM    170  CD1 PHE d   1     -92.716-116.051 -25.956  0.00  0.00    -0.077 A 
ATOM    171  CE1 PHE d   1     -91.355-116.334 -25.917  0.00  0.00    -0.082 A 
ATOM    172  H54 PHE d   1     -93.047-115.021 -26.023  0.00  0.00     0.084 H 
ATOM    173  CZ  PHE d   1     -90.962-117.632 -25.752  0.00  0.00    -0.083 A 
ATOM    174  H56 PHE d   1     -90.622-115.542 -26.015  0.00  0.00     0.083 H 
ATOM    175  CE2 PHE d   1     -91.856-118.647 -25.681  0.00  0.00    -0.082 A 
ATOM    176  H58 PHE d   1     -89.904-117.856 -25.676  0.00  0.00     0.083 H 
ATOM    177  CD2 PHE d   1     -93.212-118.372 -25.751  0.00  0.00    -0.077 A 
ATOM    178  H57 PHE d   1     -91.512-119.669 -25.570  0.00  0.00     0.083 H 
ATOM    179  H55 PHE d   1     -93.931-119.180 -25.681  0.00  0.00     0.084 H 
ENDBRANCH 166 169
ENDBRANCH  97 166
ENDBRANCH  95  97
ENDBRANCH   1  93
BRANCH   1 180
ATOM    180  CB  GLN d   1     -92.319-117.999 -22.201  0.00  0.00    -0.030 C 
ATOM    181  H44 GLN d   1     -92.400-118.386 -23.227  0.00  0.00     0.037 H 
ATOM    182  H45 GLN d   1     -91.838-118.753 -21.561  0.00  0.00     0.037 H 
BRANCH 180 183
ATOM    183  CG  GLN d   1     -91.434-116.762 -22.227  0.00  0.00     0.011 C 
ATOM    184  H46 GLN d   1     -91.413-116.317 -21.221  0.00  0.00     0.047 H 
ATOM    185  H47 GLN d   1     -91.854-116.037 -22.940  0.00  0.00     0.047 H 
BRANCH 183 186
ATOM    186  CD  GLN d   1     -90.032-117.096 -22.641  0.00  0.00     0.215 C 
ATOM    187  OE1 GLN d   1     -89.578-118.230 -22.467  0.00  0.00    -0.274 OA
ATOM    188  NE2 GLN d   1     -89.337-116.115 -23.167  0.00  0.00    -0.370 N 
ATOM    189  H48 GLN d   1     -88.395-116.273 -23.464  0.00  0.00     0.159 HD
ATOM    190  H49 GLN d   1     -89.749-115.210 -23.271  0.00  0.00     0.159 HD
ENDBRANCH 183 186
ENDBRANCH 180 183
ENDBRANCH   1 180
TORSDOF 48
