REMARK  12 active torsions:
REMARK  status: ('A' for Active; 'I' for Inactive)
REMARK    1  A    between atoms: NBM_3  and  CBP_4 
REMARK    2  A    between atoms: NBJ_7  and  CAV_8 
REMARK    3  A    between atoms: CAX_10  and  OBH_11 
REMARK    4  A    between atoms: OBH_11  and  CBI_12 
REMARK    5  A    between atoms: CAS_15  and  NAR_16 
REMARK    6  A    between atoms: NAR_16  and  C2_17 
REMARK    7  A    between atoms: CAL_29  and  CAN_30 
REMARK       I    between atoms: CAN_30  and  NAP_32 
REMARK    8  A    between atoms: NAP_32  and  CAQ_33 
REMARK    9  A    between atoms: CAY_34  and  CBD_35 
REMARK   10  A    between atoms: CBD_35  and  CBE_36 
REMARK   11  A    between atoms: CBC_40  and  CBF_41 
REMARK   12  A    between atoms: CBF_41  and  CBG_42 
ROOT
ATOM      1  C2  N66 d   1      34.705  44.915  38.701  0.00  0.00     0.728 A 
ATOM      2  N3  N66 d   1      35.305  43.924  39.410  0.00  0.00    -0.043 NA
ATOM      3  C4  N66 d   1      36.104  43.007  38.843  0.00  0.00     0.165 A 
ATOM      4  N1  N66 d   1      34.890  44.981  37.372  0.00  0.00    -0.074 NA
ATOM      5  C6  N66 d   1      35.717  44.042  36.727  0.00  0.00     0.035 A 
ATOM      6  C5  N66 d   1      36.324  43.041  37.473  0.00  0.00     0.029 A 
ATOM      7  CAG N66 d   1      37.156  42.104  36.841  0.00  0.00    -0.066 C 
ATOM      8  CAH N66 d   1      37.407  40.823  37.661  0.00  0.00    -0.055 C 
ATOM      9  CAI N66 d   1      37.289  40.963  39.049  0.00  0.00     0.056 A 
ATOM     10  NAJ N66 d   1      36.664  42.028  39.562  0.00  0.00    -0.305 N 
ATOM     11  CAK N66 d   1      36.678  41.911  40.893  0.00  0.00    -0.012 A 
ATOM     12  CAM N66 d   1      37.321  40.797  41.220  0.00  0.00    -0.050 A 
ATOM     13  CAL N66 d   1      37.697  40.194  40.085  0.00  0.00     0.060 A 
ATOM     14  H20 N66 d   1      35.879  44.100  35.657  0.00  0.00     0.117 H 
ATOM     15  H21 N66 d   1      37.588  42.268  35.855  0.00  0.00     0.085 H 
ATOM     16  H22 N66 d   1      37.659  39.873  37.192  0.00  0.00     0.087 H 
ATOM     17  H23 N66 d   1      36.234  42.615  41.595  0.00  0.00     0.112 H 
ATOM     18  H24 N66 d   1      37.509  40.438  42.231  0.00  0.00     0.087 H 
ENDROOT
BRANCH   1  19
ATOM     19  NAR N66 d   1      33.900  45.845  39.257  0.00  0.00    -0.185 N 
ATOM     20  H19 N66 d   1      33.366  46.477  38.644  0.00  0.00     0.184 HD
BRANCH  19  21
ATOM     21  CAS N66 d   1      33.777  45.968  40.593  0.00  0.00     0.082 A 
ATOM     22  CAX N66 d   1      33.807  47.279  41.091  0.00  0.00     0.097 A 
ATOM     23  CAW N66 d   1      33.682  47.517  42.458  0.00  0.00    -0.023 A 
ATOM     24  CAV N66 d   1      33.512  46.457  43.345  0.00  0.00     0.033 A 
ATOM     25  H13 N66 d   1      33.717  48.533  42.833  0.00  0.00     0.091 H 
ATOM     26  CAU N66 d   1      33.474  45.147  42.846  0.00  0.00    -0.055 A 
ATOM     27  CAT N66 d   1      33.594  44.898  41.477  0.00  0.00    -0.052 A 
ATOM     28  H17 N66 d   1      33.350  44.317  43.532  0.00  0.00     0.087 H 
ATOM     29  H18 N66 d   1      33.546  43.882  41.101  0.00  0.00     0.087 H 
BRANCH  22  30
ATOM     30  OBH N66 d   1      33.973  48.272  40.160  0.00  0.00    -0.354 OA
BRANCH  30  31
ATOM     31  CBI N66 d   1      33.958  49.639  40.608  0.00  0.00     0.010 C 
ATOM     32  H14 N66 d   1      34.103  50.309  39.747  0.00  0.00     0.066 H 
ATOM     33  H15 N66 d   1      34.769  49.796  41.335  0.00  0.00     0.066 H 
ATOM     34  H16 N66 d   1      32.991  49.858  41.084  0.00  0.00     0.066 H 
ENDBRANCH  30  31
ENDBRANCH  22  30
BRANCH  24  35
ATOM     35  NBJ N66 d   1      33.387  46.724  44.661  0.00  0.00    -0.378 N 
ATOM     36  CBK N66 d   1      32.468  47.798  45.111  0.00  0.00     0.018 C 
ATOM     37  CBL N66 d   1      33.157  48.531  46.211  0.00  0.00     0.098 C 
ATOM     38  H1  N66 d   1      32.252  48.483  44.278  0.00  0.00     0.066 H 
ATOM     39  H2  N66 d   1      31.528  47.361  45.479  0.00  0.00     0.066 H 
ATOM     40  NBM N66 d   1      33.065  47.617  47.373  0.00  0.00    -0.072 N 
ATOM     41  H3  N66 d   1      32.649  49.483  46.423  0.00  0.00     0.078 H 
ATOM     42  H4  N66 d   1      34.208  48.726  45.951  0.00  0.00     0.078 H 
ATOM     43  CBN N66 d   1      33.502  46.223  47.034  0.00  0.00     0.098 C 
ATOM     44  H5  N66 d   1      32.092  47.564  47.629  0.00  0.00     0.279 HD
ATOM     45  CBO N66 d   1      34.209  46.038  45.707  0.00  0.00     0.018 C 
ATOM     46  H9  N66 d   1      32.606  45.585  47.027  0.00  0.00     0.078 H 
ATOM     47  H10 N66 d   1      34.186  45.886  47.827  0.00  0.00     0.078 H 
ATOM     48  H11 N66 d   1      34.296  44.967  45.474  0.00  0.00     0.066 H 
ATOM     49  H12 N66 d   1      35.212  46.486  45.750  0.00  0.00     0.066 H 
BRANCH  40  50
ATOM     50  CBP N66 d   1      33.791  48.156  48.543  0.00  0.00     0.066 C 
ATOM     51  H6  N66 d   1      33.702  47.454  49.385  0.00  0.00     0.068 H 
ATOM     52  H7  N66 d   1      33.359  49.127  48.828  0.00  0.00     0.068 H 
ATOM     53  H8  N66 d   1      34.852  48.288  48.287  0.00  0.00     0.068 H 
ENDBRANCH  40  50
ENDBRANCH  24  35
ENDBRANCH  19  21
ENDBRANCH   1  19
BRANCH  13  54
ATOM     54  CAN N66 d   1      38.386  39.013  40.005  0.00  0.00     0.258 C 
ATOM     55  OAO N66 d   1      38.968  38.678  38.969  0.00  0.00    -0.267 OA
ATOM     56  NAP N66 d   1      38.413  38.237  41.129  0.00  0.00    -0.322 N 
ATOM     57  H25 N66 d   1      37.938  38.537  41.956  0.00  0.00     0.169 HD
BRANCH  56  58
ATOM     58  CAQ N66 d   1      39.081  37.068  41.121  0.00  0.00     0.047 A 
ATOM     59  CAY N66 d   1      38.358  35.862  41.028  0.00  0.00    -0.031 A 
ATOM     60  CAZ N66 d   1      39.058  34.655  41.035  0.00  0.00    -0.075 A 
ATOM     61  CBA N66 d   1      40.448  34.652  41.136  0.00  0.00    -0.082 A 
ATOM     62  H31 N66 d   1      38.519  33.717  40.962  0.00  0.00     0.084 H 
ATOM     63  CBB N66 d   1      41.151  35.853  41.240  0.00  0.00    -0.075 A 
ATOM     64  H32 N66 d   1      40.986  33.711  41.134  0.00  0.00     0.083 H 
ATOM     65  CBC N66 d   1      40.482  37.076  41.235  0.00  0.00    -0.031 A 
ATOM     66  H33 N66 d   1      42.231  35.835  41.326  0.00  0.00     0.084 H 
BRANCH  59  67
ATOM     67  CBD N66 d   1      36.964  35.811  40.925  0.00  0.00    -0.042 C 
ATOM     68  H26 N66 d   1      36.680  35.008  40.229  0.00  0.00     0.039 H 
ATOM     69  H27 N66 d   1      36.592  36.774  40.545  0.00  0.00     0.039 H 
BRANCH  67  70
ATOM     70  CBE N66 d   1      36.341  35.533  42.304  0.00  0.00    -0.073 C 
ATOM     71  H28 N66 d   1      35.246  35.495  42.211  0.00  0.00     0.028 H 
ATOM     72  H29 N66 d   1      36.622  36.336  43.002  0.00  0.00     0.028 H 
ATOM     73  H30 N66 d   1      36.710  34.569  42.685  0.00  0.00     0.028 H 
ENDBRANCH  67  70
ENDBRANCH  59  67
BRANCH  65  74
ATOM     74  CBF N66 d   1      41.234  38.232  41.336  0.00  0.00    -0.042 C 
ATOM     75  H34 N66 d   1      40.769  39.044  40.758  0.00  0.00     0.039 H 
ATOM     76  H35 N66 d   1      42.256  38.058  40.968  0.00  0.00     0.039 H 
BRANCH  74  77
ATOM     77  CBG N66 d   1      41.256  38.583  42.829  0.00  0.00    -0.073 C 
ATOM     78  H36 N66 d   1      41.843  39.501  42.981  0.00  0.00     0.028 H 
ATOM     79  H37 N66 d   1      41.714  37.757  43.393  0.00  0.00     0.028 H 
ATOM     80  H38 N66 d   1      40.227  38.743  43.183  0.00  0.00     0.028 H 
ENDBRANCH  74  77
ENDBRANCH  65  74
ENDBRANCH  56  58
ENDBRANCH  13  54
TORSDOF 12
