REMARK WARNING: 32 MAX_TORS EXCEEDED!!!
REMARK  44 active torsions:
REMARK  status: ('A' for Active; 'I' for Inactive)
REMARK    1  A    between atoms: N_1  and  CA_2 
REMARK    2  A    between atoms: CA_2  and  C_3 
REMARK    3  A    between atoms: CA_2  and  CB_5 
REMARK       I    between atoms: C_3  and  N_6 
REMARK    4  A    between atoms: N_6  and  CA_7 
REMARK    5  A    between atoms: CA_7  and  C_8 
REMARK    6  A    between atoms: CA_7  and  CB_10 
REMARK       I    between atoms: C_8  and  N_17 
REMARK    7  A    between atoms: CB_10  and  CG_11 
REMARK    8  A    between atoms: CA_18  and  C_19 
REMARK       I    between atoms: C_19  and  N_24 
REMARK    9  A    between atoms: N_24  and  CA_25 
REMARK   10  A    between atoms: CA_25  and  C_26 
REMARK   11  A    between atoms: CA_25  and  CB_28 
REMARK       I    between atoms: C_26  and  N_32 
REMARK   12  A    between atoms: CB_28  and  CG_29 
REMARK   13  A    between atoms: N_32  and  CA_33 
REMARK   14  A    between atoms: CA_33  and  C_34 
REMARK   15  A    between atoms: CA_33  and  CB_36 
REMARK       I    between atoms: C_34  and  N_44 
REMARK   16  A    between atoms: CB_36  and  CG_37 
REMARK   17  A    between atoms: CZ_42  and  OH_43 
REMARK   18  A    between atoms: N_44  and  CA_45 
REMARK   19  A    between atoms: CA_45  and  C_46 
REMARK   20  A    between atoms: CA_45  and  CB_48 
REMARK       I    between atoms: C_46  and  N_52 
REMARK   21  A    between atoms: CB_48  and  CG_49 
REMARK   22  A    between atoms: CG_49  and  CD1_50 
REMARK   23  A    between atoms: CG_49  and  CD2_51 
REMARK   24  A    between atoms: N_52  and  CA_53 
REMARK   25  A    between atoms: CA_53  and  C_54 
REMARK   26  A    between atoms: CA_53  and  CB_56 
REMARK       I    between atoms: C_54  and  N_57 
REMARK   27  A    between atoms: N_57  and  CA_58 
REMARK   28  A    between atoms: CA_58  and  C_59 
REMARK   29  A    between atoms: CA_58  and  CB_61 
REMARK       I    between atoms: C_59  and  N_66 
REMARK   30  A    between atoms: CB_61  and  CG_62 
REMARK   31  A    between atoms: CG_62  and  CD_63 
REMARK   32  A    between atoms: N_66  and  CA_67 
REMARK   33  A    between atoms: CA_67  and  C_68 
REMARK   34  A    between atoms: CA_67  and  CB_70 
REMARK       I    between atoms: C_68  and  N_78 
REMARK   35  A    between atoms: CB_70  and  CG_71 
REMARK   36  A    between atoms: CZ_76  and  OH_77 
REMARK   37  A    between atoms: N_78  and  CA_79 
REMARK   38  A    between atoms: CA_79  and  C_80 
REMARK   39  A    between atoms: CA_79  and  CB_82 
REMARK       I    between atoms: C_80  and  N_88 
REMARK   40  A    between atoms: CB_82  and  CG_83 
REMARK   41  A    between atoms: N_88  and  CA_89 
REMARK   42  A    between atoms: CA_89  and  C_90 
REMARK       I    between atoms: C_90  and  N_92 
REMARK   43  A    between atoms: N_92  and  CA_93 
REMARK   44  A    between atoms: CA_93  and  C_94 
REMARK       I    between atoms: C_94  and  N_96 
ROOT
ATOM      1  CA  LEU d   1      22.474  20.363  27.287  0.00  0.00     0.089 C 
ATOM      2  H38 LEU d   1      22.393  19.350  27.708  0.00  0.00     0.087 H 
ENDROOT
BRANCH   1   3
ATOM      3  N   LEU d   1      23.787  20.868  27.669  0.00  0.00    -0.346 N 
ATOM      4  C   TYR d   1      24.851  20.061  27.625  0.00  0.00     0.241 C 
ATOM      5  O   TYR d   1      24.769  18.872  27.333  0.00  0.00    -0.271 OA
ATOM      6  H37 LEU d   1      23.891  21.818  27.964  0.00  0.00     0.163 HD
BRANCH   4   7
ATOM      7  CA  TYR d   1      26.226  20.662  27.928  0.00  0.00     0.093 C 
ATOM      8  H29 TYR d   1      26.916  20.281  27.160  0.00  0.00     0.088 H 
BRANCH   7   9
ATOM      9  N   TYR d   1      26.223  22.120  27.800  0.00  0.00    -0.346 N 
ATOM     10  C   ASP d   1      26.008  22.687  26.609  0.00  0.00     0.241 C 
ATOM     11  O   ASP d   1      25.764  22.031  25.600  0.00  0.00    -0.271 OA
ATOM     12  H28 TYR d   1      26.382  22.692  28.604  0.00  0.00     0.163 HD
BRANCH  10  13
ATOM     13  CA  ASP d   1      26.018  24.211  26.516  0.00  0.00     0.098 C 
ATOM     14  H25 ASP d   1      25.322  24.501  25.715  0.00  0.00     0.088 H 
BRANCH  13  15
ATOM     15  N   ASP d   1      25.575  24.876  27.732  0.00  0.00    -0.346 N 
ATOM     16  C   PRO d   1      24.365  24.664  28.234  0.00  0.00     0.241 C 
ATOM     17  O   PRO d   1      23.588  23.810  27.804  0.00  0.00    -0.271 OA
ATOM     18  H24 ASP d   1      26.195  25.506  28.199  0.00  0.00     0.163 HD
BRANCH  16  19
ATOM     19  CA  PRO d   1      24.002  25.521  29.437  0.00  0.00     0.091 C 
ATOM     20  N   PRO d   1      22.554  25.688  29.625  0.00  0.00    -0.337 N 
ATOM     21  C   PHE d   1      21.862  26.363  28.696  0.00  0.00     0.243 C 
ATOM     22  CD  PRO d   1      22.106  25.093  30.895  0.00  0.00    -0.001 C 
ATOM     23  O   PHE d   1      22.411  26.774  27.663  0.00  0.00    -0.271 OA
ATOM     24  CG  PRO d   1      23.237  24.180  31.264  0.00  0.00    -0.048 C 
ATOM     25  H22 PRO d   1      21.172  24.528  30.758  0.00  0.00     0.064 H 
ATOM     26  H23 PRO d   1      21.957  25.867  31.662  0.00  0.00     0.064 H 
ATOM     27  CB  PRO d   1      24.461  24.864  30.750  0.00  0.00    -0.036 C 
ATOM     28  H20 PRO d   1      23.293  24.053  32.355  0.00  0.00     0.035 H 
ATOM     29  H21 PRO d   1      23.113  23.197  30.787  0.00  0.00     0.035 H 
ATOM     30  H18 PRO d   1      24.813  25.623  31.464  0.00  0.00     0.036 H 
ATOM     31  H19 PRO d   1      25.265  24.137  30.562  0.00  0.00     0.036 H 
ATOM     32  H17 PRO d   1      24.478  26.505  29.316  0.00  0.00     0.087 H 
BRANCH  21  33
ATOM     33  CA  PHE d   1      20.364  26.618  28.970  0.00  0.00     0.093 C 
ATOM     34  H9  PHE d   1      19.856  25.657  29.141  0.00  0.00     0.088 H 
BRANCH  33  35
ATOM     35  N   PHE d   1      20.238  27.440  30.171  0.00  0.00    -0.346 N 
ATOM     36  C   ALA d   1      19.524  27.078  31.241  0.00  0.00     0.248 C 
ATOM     37  O   ALA d   1      18.943  25.994  31.346  0.00  0.00    -0.271 OA
ATOM     38  H8  PHE d   1      20.711  28.321  30.194  0.00  0.00     0.163 HD
BRANCH  36  39
ATOM     39  CA  ALA d   1      19.506  28.083  32.377  0.00  0.00     0.172 C 
ATOM     40  H4  ALA d   1      19.292  29.078  31.960  0.00  0.00     0.098 H 
BRANCH  39  41
ATOM     41  N   ALA d   1      18.454  27.759  33.384  0.00  0.00    -0.067 N 
ATOM     42  H1  ALA d   1      18.472  28.446  34.121  0.00  0.00     0.275 HD
ATOM     43  H2  ALA d   1      18.630  26.845  33.772  0.00  0.00     0.275 HD
ATOM     44  H3  ALA d   1      17.549  27.767  32.939  0.00  0.00     0.275 HD
ENDBRANCH  39  41
BRANCH  39  45
ATOM     45  CB  ALA d   1      20.869  28.112  33.041  0.00  0.00    -0.042 C 
ATOM     46  H5  ALA d   1      21.637  28.352  32.291  0.00  0.00     0.030 H 
ATOM     47  H6  ALA d   1      21.082  27.128  33.483  0.00  0.00     0.030 H 
ATOM     48  H7  ALA d   1      20.876  28.878  33.831  0.00  0.00     0.030 H 
ENDBRANCH  39  45
ENDBRANCH  36  39
ENDBRANCH  33  35
BRANCH  33  49
ATOM     49  CB  PHE d   1      19.738  27.296  27.756  0.00  0.00    -0.014 C 
ATOM     50  H10 PHE d   1      19.704  26.563  26.937  0.00  0.00     0.043 H 
ATOM     51  H11 PHE d   1      20.383  28.139  27.467  0.00  0.00     0.043 H 
BRANCH  49  52
ATOM     52  CG  PHE d   1      18.338  27.829  27.963  0.00  0.00    -0.056 A 
ATOM     53  CD1 PHE d   1      17.300  27.043  28.454  0.00  0.00    -0.077 A 
ATOM     54  CE1 PHE d   1      16.006  27.553  28.567  0.00  0.00    -0.082 A 
ATOM     55  H12 PHE d   1      17.499  26.020  28.753  0.00  0.00     0.084 H 
ATOM     56  CZ  PHE d   1      15.742  28.836  28.169  0.00  0.00    -0.083 A 
ATOM     57  H14 PHE d   1      15.212  26.935  28.969  0.00  0.00     0.083 H 
ATOM     58  CE2 PHE d   1      16.752  29.620  27.656  0.00  0.00    -0.082 A 
ATOM     59  H16 PHE d   1      14.738  29.235  28.258  0.00  0.00     0.083 H 
ATOM     60  CD2 PHE d   1      18.034  29.115  27.547  0.00  0.00    -0.077 A 
ATOM     61  H15 PHE d   1      16.541  30.634  27.337  0.00  0.00     0.083 H 
ATOM     62  H13 PHE d   1      18.817  29.737  27.128  0.00  0.00     0.084 H 
ENDBRANCH  49  52
ENDBRANCH  33  49
ENDBRANCH  21  33
ENDBRANCH  16  19
ENDBRANCH  13  15
BRANCH  13  63
ATOM     63  CB  ASP d   1      27.427  24.671  26.117  0.00  0.00     0.043 C 
ATOM     64  H26 ASP d   1      27.773  24.047  25.280  0.00  0.00     0.052 H 
ATOM     65  H27 ASP d   1      28.096  24.532  26.979  0.00  0.00     0.052 H 
BRANCH  63  66
ATOM     66  CG  ASP d   1      27.490  26.137  25.687  0.00  0.00     0.175 C 
ATOM     67  OD1 ASP d   1      26.453  26.733  25.316  0.00  0.00    -0.648 OA
ATOM     68  OD2 ASP d   1      28.615  26.679  25.707  0.00  0.00    -0.648 OA
ENDBRANCH  63  66
ENDBRANCH  13  63
ENDBRANCH  10  13
ENDBRANCH   7   9
BRANCH   7  69
ATOM     69  CB  TYR d   1      26.769  20.182  29.283  0.00  0.00    -0.014 C 
ATOM     70  H30 TYR d   1      27.775  20.609  29.410  0.00  0.00     0.043 H 
ATOM     71  H31 TYR d   1      26.839  19.085  29.245  0.00  0.00     0.043 H 
BRANCH  69  72
ATOM     72  CG  TYR d   1      25.959  20.547  30.506  0.00  0.00    -0.056 A 
ATOM     73  CD1 TYR d   1      24.778  19.899  30.810  0.00  0.00    -0.074 A 
ATOM     74  CE1 TYR d   1      24.056  20.205  31.942  0.00  0.00    -0.051 A 
ATOM     75  H32 TYR d   1      24.410  19.130  30.140  0.00  0.00     0.084 H 
ATOM     76  CZ  TYR d   1      24.513  21.170  32.817  0.00  0.00     0.065 A 
ATOM     77  H34 TYR d   1      23.126  19.687  32.147  0.00  0.00     0.087 H 
ATOM     78  CE2 TYR d   1      25.690  21.828  32.547  0.00  0.00    -0.051 A 
ATOM     79  CD2 TYR d   1      26.411  21.508  31.403  0.00  0.00    -0.074 A 
ATOM     80  H35 TYR d   1      26.054  22.593  33.224  0.00  0.00     0.087 H 
ATOM     81  H33 TYR d   1      27.346  22.019  31.206  0.00  0.00     0.084 H 
BRANCH  76  82
ATOM     82  OH  TYR d   1      23.777  21.481  33.944  0.00  0.00    -0.361 OA
ATOM     83  H36 TYR d   1      23.000  20.935  33.974  0.00  0.00     0.217 HD
ENDBRANCH  76  82
ENDBRANCH  69  72
ENDBRANCH   7  69
ENDBRANCH   4   7
ENDBRANCH   1   3
BRANCH   1  84
ATOM     84  C   LEU d   1      22.259  20.245  25.785  0.00  0.00     0.241 C 
ATOM     85  O   LEU d   1      21.291  19.614  25.365  0.00  0.00    -0.271 OA
ATOM     86  N   ALA d   1      23.134  20.831  24.971  0.00  0.00    -0.346 N 
ATOM     87  H48 ALA d   1      23.976  21.225  25.339  0.00  0.00     0.163 HD
BRANCH  86  88
ATOM     88  CA  ALA d   1      22.860  20.897  23.538  0.00  0.00     0.086 C 
ATOM     89  H49 ALA d   1      21.957  21.509  23.398  0.00  0.00     0.086 H 
BRANCH  88  90
ATOM     90  C   ALA d   1      22.593  19.527  22.924  0.00  0.00     0.240 C 
ATOM     91  O   ALA d   1      21.608  19.323  22.208  0.00  0.00    -0.271 OA
ATOM     92  N   GLU d   1      23.480  18.565  23.191  0.00  0.00    -0.346 N 
ATOM     93  H53 GLU d   1      24.233  18.738  23.825  0.00  0.00     0.163 HD
BRANCH  92  94
ATOM     94  CA  GLU d   1      23.342  17.249  22.546  0.00  0.00     0.090 C 
ATOM     95  H54 GLU d   1      23.379  17.421  21.460  0.00  0.00     0.087 H 
BRANCH  94  96
ATOM     96  C   GLU d   1      21.999  16.581  22.848  0.00  0.00     0.241 C 
ATOM     97  O   GLU d   1      21.401  15.965  21.966  0.00  0.00    -0.271 OA
ATOM     98  N   TYR d   1      21.521  16.755  24.077  0.00  0.00    -0.346 N 
ATOM     99  H59 TYR d   1      22.026  17.329  24.721  0.00  0.00     0.163 HD
BRANCH  98 100
ATOM    100  CA  TYR d   1      20.271  16.124  24.507  0.00  0.00     0.093 C 
ATOM    101  H60 TYR d   1      20.352  15.044  24.315  0.00  0.00     0.088 H 
BRANCH 100 102
ATOM    102  C   TYR d   1      19.068  16.666  23.745  0.00  0.00     0.241 C 
ATOM    103  O   TYR d   1      18.010  16.032  23.744  0.00  0.00    -0.271 OA
ATOM    104  N   HIS d   1      19.234  17.858  23.165  0.00  0.00    -0.346 N 
ATOM    105  H68 HIS d   1      20.119  18.310  23.275  0.00  0.00     0.163 HD
BRANCH 104 106
ATOM    106  CA  HIS d   1      18.214  18.545  22.383  0.00  0.00     0.094 C 
ATOM    107  H69 HIS d   1      17.248  18.068  22.604  0.00  0.00     0.088 H 
BRANCH 106 108
ATOM    108  C   HIS d   1      18.430  18.437  20.878  0.00  0.00     0.241 C 
ATOM    109  O   HIS d   1      17.725  19.065  20.105  0.00  0.00    -0.271 OA
ATOM    110  N   GLY d   1      19.430  17.652  20.469  0.00  0.00    -0.351 N 
ATOM    111  H75 GLY d   1      20.004  17.201  21.153  0.00  0.00     0.163 HD
BRANCH 110 112
ATOM    112  CA  GLY d   1      19.712  17.431  19.050  0.00  0.00     0.069 C 
ATOM    113  H76 GLY d   1      18.759  17.480  18.502  0.00  0.00     0.078 H 
ATOM    114  H77 GLY d   1      20.146  16.426  18.942  0.00  0.00     0.078 H 
BRANCH 112 115
ATOM    115  C   GLY d   1      20.669  18.427  18.418  0.00  0.00     0.235 C 
ATOM    116  O   GLY d   1      20.778  18.454  17.194  0.00  0.00    -0.272 OA
ATOM    117  N   GLY d   1      21.344  19.251  19.218  0.00  0.00    -0.351 N 
ATOM    118  H78 GLY d   1      21.265  19.138  20.209  0.00  0.00     0.163 HD
BRANCH 117 119
ATOM    119  CA  GLY d   1      22.200  20.319  18.690  0.00  0.00     0.069 C 
ATOM    120  H79 GLY d   1      21.696  21.280  18.871  0.00  0.00     0.078 H 
ATOM    121  H80 GLY d   1      22.311  20.162  17.607  0.00  0.00     0.078 H 
BRANCH 119 122
ATOM    122  C   GLY d   1      23.576  20.396  19.292  0.00  0.00     0.233 C 
ATOM    123  O   GLY d   1      24.284  21.379  19.079  0.00  0.00    -0.272 OA
ATOM    124  N   NH2 d   1      23.985  19.299  20.070  0.00  0.00    -0.369 N 
ATOM    125  H81 NH2 d   1      24.890  19.297  20.494  0.00  0.00     0.159 HD
ATOM    126  H82 NH2 d   1      23.370  18.521  20.199  0.00  0.00     0.159 HD
ENDBRANCH 119 122
ENDBRANCH 117 119
ENDBRANCH 112 115
ENDBRANCH 110 112
ENDBRANCH 106 108
BRANCH 106 127
ATOM    127  CB  HIS d   1      18.137  20.011  22.852  0.00  0.00     0.004 C 
ATOM    128  H70 HIS d   1      17.450  20.559  22.190  0.00  0.00     0.046 H 
ATOM    129  H71 HIS d   1      19.141  20.456  22.788  0.00  0.00     0.046 H 
BRANCH 127 130
ATOM    130  CG  HIS d   1      17.647  20.132  24.257  0.00  0.00     0.053 A 
ATOM    131  ND1 HIS d   1      18.466  20.031  25.356  0.00  0.00    -0.247 NA
ATOM    132  CE1 HIS d   1      17.721  20.102  26.449  0.00  0.00     0.064 A 
ATOM    133  NE2 HIS d   1      16.454  20.233  26.106  0.00  0.00    -0.359 N 
ATOM    134  H73 HIS d   1      18.096  20.059  27.471  0.00  0.00     0.143 H 
ATOM    135  CD2 HIS d   1      16.385  20.262  24.738  0.00  0.00     0.002 A 
ATOM    136  H74 HIS d   1      15.656  20.302  26.754  0.00  0.00     0.166 HD
ATOM    137  H72 HIS d   1      15.479  20.370  24.143  0.00  0.00     0.114 H 
ENDBRANCH 127 130
ENDBRANCH 106 127
ENDBRANCH 104 106
ENDBRANCH 100 102
BRANCH 100 138
ATOM    138  CB  TYR d   1      20.020  16.338  25.987  0.00  0.00    -0.014 C 
ATOM    139  H61 TYR d   1      19.056  15.866  26.228  0.00  0.00     0.043 H 
ATOM    140  H62 TYR d   1      19.949  17.423  26.154  0.00  0.00     0.043 H 
BRANCH 138 141
ATOM    141  CG  TYR d   1      21.047  15.795  26.964  0.00  0.00    -0.056 A 
ATOM    142  CD1 TYR d   1      20.846  14.584  27.609  0.00  0.00    -0.074 A 
ATOM    143  CE1 TYR d   1      21.742  14.117  28.565  0.00  0.00    -0.051 A 
ATOM    144  H63 TYR d   1      19.973  13.990  27.363  0.00  0.00     0.084 H 
ATOM    145  CZ  TYR d   1      22.863  14.878  28.885  0.00  0.00     0.065 A 
ATOM    146  H65 TYR d   1      21.569  13.167  29.058  0.00  0.00     0.087 H 
ATOM    147  CE2 TYR d   1      23.074  16.082  28.247  0.00  0.00    -0.051 A 
ATOM    148  CD2 TYR d   1      22.173  16.534  27.304  0.00  0.00    -0.074 A 
ATOM    149  H66 TYR d   1      23.949  16.675  28.486  0.00  0.00     0.087 H 
ATOM    150  H64 TYR d   1      22.348  17.487  26.818  0.00  0.00     0.084 H 
BRANCH 145 151
ATOM    151  OH  TYR d   1      23.777  14.482  29.839  0.00  0.00    -0.361 OA
ATOM    152  H67 TYR d   1      23.515  13.642  30.197  0.00  0.00     0.217 HD
ENDBRANCH 145 151
ENDBRANCH 138 141
ENDBRANCH 100 138
ENDBRANCH  98 100
ENDBRANCH  94  96
BRANCH  94 153
ATOM    153  CB  GLU d   1      24.504  16.319  22.896  0.00  0.00    -0.029 C 
ATOM    154  H55 GLU d   1      25.440  16.807  22.586  0.00  0.00     0.037 H 
ATOM    155  H56 GLU d   1      24.375  15.382  22.334  0.00  0.00     0.037 H 
BRANCH 153 156
ATOM    156  CG  GLU d   1      24.613  15.978  24.366  0.00  0.00     0.018 C 
ATOM    157  H57 GLU d   1      23.628  15.656  24.734  0.00  0.00     0.049 H 
ATOM    158  H58 GLU d   1      24.936  16.872  24.919  0.00  0.00     0.049 H 
BRANCH 156 159
ATOM    159  CD  GLU d   1      25.609  14.872  24.595  0.00  0.00     0.172 C 
ATOM    160  OE1 GLU d   1      25.303  13.707  24.239  0.00  0.00    -0.648 OA
ATOM    161  OE2 GLU d   1      26.700  15.166  25.115  0.00  0.00    -0.648 OA
ENDBRANCH 156 159
ENDBRANCH 153 156
ENDBRANCH  94 153
ENDBRANCH  92  94
ENDBRANCH  88  90
BRANCH  88 162
ATOM    162  CB  ALA d   1      24.011  21.575  22.815  0.00  0.00    -0.049 C 
ATOM    163  H50 ALA d   1      23.793  21.618  21.738  0.00  0.00     0.030 H 
ATOM    164  H51 ALA d   1      24.936  21.002  22.979  0.00  0.00     0.030 H 
ATOM    165  H52 ALA d   1      24.138  22.596  23.205  0.00  0.00     0.030 H 
ENDBRANCH  88 162
ENDBRANCH  86  88
ENDBRANCH   1  84
BRANCH   1 166
ATOM    166  CB  LEU d   1      21.339  21.204  27.879  0.00  0.00    -0.035 C 
ATOM    167  H39 LEU d   1      20.393  20.852  27.441  0.00  0.00     0.037 H 
ATOM    168  H40 LEU d   1      21.509  22.252  27.591  0.00  0.00     0.037 H 
BRANCH 166 169
ATOM    169  CG  LEU d   1      21.201  21.151  29.391  0.00  0.00    -0.059 C 
ATOM    170  H41 LEU d   1      22.134  21.513  29.847  0.00  0.00     0.038 H 
BRANCH 169 171
ATOM    171  CD1 LEU d   1      20.055  22.064  29.807  0.00  0.00    -0.073 C 
ATOM    172  H42 LEU d   1      19.943  22.036  30.901  0.00  0.00     0.028 H 
ATOM    173  H43 LEU d   1      19.123  21.721  29.334  0.00  0.00     0.028 H 
ATOM    174  H44 LEU d   1      20.272  23.094  29.487  0.00  0.00     0.028 H 
ENDBRANCH 169 171
BRANCH 169 175
ATOM    175  CD2 LEU d   1      20.944  19.724  29.876  0.00  0.00    -0.073 C 
ATOM    176  H45 LEU d   1      21.779  19.076  29.569  0.00  0.00     0.028 H 
ATOM    177  H46 LEU d   1      20.008  19.350  29.435  0.00  0.00     0.028 H 
ATOM    178  H47 LEU d   1      20.860  19.719  30.973  0.00  0.00     0.028 H 
ENDBRANCH 169 175
ENDBRANCH 166 169
ENDBRANCH   1 166
TORSDOF 44
