REMARK WARNING: 32 MAX_TORS EXCEEDED!!!
REMARK  35 active torsions:
REMARK  status: ('A' for Active; 'I' for Inactive)
REMARK    1  A    between atoms: N_1  and  CA_2 
REMARK    2  A    between atoms: CA_2  and  C_3 
REMARK    3  A    between atoms: CA_2  and  CB_5 
REMARK       I    between atoms: C_3  and  N_12 
REMARK    4  A    between atoms: CB_5  and  CG_6 
REMARK    5  A    between atoms: CG_6  and  CD_7 
REMARK    6  A    between atoms: CD_7  and  NE_8 
REMARK       I    between atoms: NE_8  and  CZ_9 
REMARK       I    between atoms: CZ_9  and  NH1_10 
REMARK    7  A    between atoms: N_12  and  CA_13 
REMARK    8  A    between atoms: CA_13  and  C_14 
REMARK    9  A    between atoms: CA_13  and  CB_16 
REMARK       I    between atoms: C_14  and  N_20 
REMARK   10  A    between atoms: CB_16  and  CG_17 
REMARK   11  A    between atoms: CA_21  and  C_22 
REMARK       I    between atoms: C_22  and  N_27 
REMARK   12  A    between atoms: N_27  and  CA_28 
REMARK   13  A    between atoms: CA_28  and  C_29 
REMARK   14  A    between atoms: CA_28  and  CB_31 
REMARK       I    between atoms: C_29  and  N_32 
REMARK   15  A    between atoms: CA_33  and  C_34 
REMARK       I    between atoms: C_34  and  N_39 
REMARK   16  A    between atoms: N_39  and  CA_40 
REMARK   17  A    between atoms: CA_40  and  C_41 
REMARK   18  A    between atoms: CA_40  and  CB_43 
REMARK       I    between atoms: C_41  and  N_44 
REMARK   19  A    between atoms: N_44  and  CA_45 
REMARK   20  A    between atoms: CA_45  and  C_46 
REMARK   21  A    between atoms: CA_45  and  CB_48 
REMARK       I    between atoms: C_46  and  N_58 
REMARK   22  A    between atoms: CB_48  and  CG_49 
REMARK   23  A    between atoms: N_58  and  CA_59 
REMARK   24  A    between atoms: CA_59  and  C_60 
REMARK   25  A    between atoms: CA_59  and  CB_62 
REMARK       I    between atoms: C_60  and  N_63 
REMARK   26  A    between atoms: N_63  and  CA_64 
REMARK   27  A    between atoms: CA_64  and  C_65 
REMARK   28  A    between atoms: CA_64  and  CB_67 
REMARK       I    between atoms: C_65  and  N_73 
REMARK   29  A    between atoms: CB_67  and  CG_68 
REMARK   30  A    between atoms: N_73  and  CA_74 
REMARK   31  A    between atoms: CA_74  and  C_75 
REMARK       I    between atoms: C_75  and  N_77 
REMARK   32  A    between atoms: N_77  and  CA_78 
REMARK   33  A    between atoms: CA_78  and  C_79 
REMARK       I    between atoms: C_79  and  N_81 
REMARK   34  A    between atoms: N_81  and  CA_82 
REMARK   35  A    between atoms: CA_82  and  C_83 
REMARK       I    between atoms: C_83  and  N_85 
ROOT
ATOM      1  CA  ALA d   1      -5.358  16.515  41.242  0.00  0.00     0.086 C 
ATOM      2  H40 ALA d   1      -5.186  15.444  41.425  0.00  0.00     0.086 H 
ENDROOT
BRANCH   1   3
ATOM      3  N   ALA d   1      -6.108  17.046  42.374  0.00  0.00    -0.346 N 
ATOM      4  C   PRO d   1      -5.655  16.924  43.623  0.00  0.00     0.241 C 
ATOM      5  O   PRO d   1      -4.550  16.437  43.896  0.00  0.00    -0.271 OA
ATOM      6  H39 ALA d   1      -6.979  17.511  42.211  0.00  0.00     0.163 HD
BRANCH   4   7
ATOM      7  CA  PRO d   1      -6.582  17.407  44.744  0.00  0.00     0.091 C 
ATOM      8  N   PRO d   1      -6.840  16.373  45.758  0.00  0.00    -0.337 N 
ATOM      9  C   ALA d   1      -7.485  15.255  45.401  0.00  0.00     0.243 C 
ATOM     10  CD  PRO d   1      -6.556  16.863  47.120  0.00  0.00    -0.001 C 
ATOM     11  O   ALA d   1      -7.847  15.051  44.242  0.00  0.00    -0.271 OA
ATOM     12  CG  PRO d   1      -6.505  18.352  46.940  0.00  0.00    -0.048 C 
ATOM     13  H37 PRO d   1      -5.594  16.476  47.487  0.00  0.00     0.064 H 
ATOM     14  H38 PRO d   1      -7.356  16.576  47.818  0.00  0.00     0.064 H 
ATOM     15  CB  PRO d   1      -5.952  18.538  45.559  0.00  0.00    -0.036 C 
ATOM     16  H35 PRO d   1      -7.511  18.789  47.019  0.00  0.00     0.035 H 
ATOM     17  H36 PRO d   1      -5.845  18.813  47.690  0.00  0.00     0.035 H 
ATOM     18  H33 PRO d   1      -6.240  19.519  45.153  0.00  0.00     0.036 H 
ATOM     19  H34 PRO d   1      -4.856  18.451  45.563  0.00  0.00     0.036 H 
ATOM     20  H32 PRO d   1      -7.528  17.741  44.293  0.00  0.00     0.087 H 
BRANCH   9  21
ATOM     21  CA  ALA d   1      -7.771  14.202  46.477  0.00  0.00     0.086 C 
ATOM     22  H28 ALA d   1      -8.274  14.664  47.339  0.00  0.00     0.086 H 
BRANCH  21  23
ATOM     23  N   ALA d   1      -8.647  13.228  45.841  0.00  0.00    -0.346 N 
ATOM     24  C   PRO d   1      -9.361  12.313  46.492  0.00  0.00     0.241 C 
ATOM     25  O   PRO d   1      -9.302  12.134  47.709  0.00  0.00    -0.271 OA
ATOM     26  H27 ALA d   1      -8.717  13.248  44.844  0.00  0.00     0.163 HD
BRANCH  24  27
ATOM     27  CA  PRO d   1     -10.281  11.440  45.641  0.00  0.00     0.091 C 
ATOM     28  N   PRO d   1     -10.464  11.912  44.261  0.00  0.00    -0.337 N 
ATOM     29  C   ASP d   1     -11.310  12.917  43.973  0.00  0.00     0.243 C 
ATOM     30  CD  PRO d   1      -9.787  11.035  43.285  0.00  0.00    -0.001 C 
ATOM     31  O   ASP d   1     -11.943  13.504  44.839  0.00  0.00    -0.271 OA
ATOM     32  CG  PRO d   1      -8.948  10.141  44.153  0.00  0.00    -0.048 C 
ATOM     33  H25 PRO d   1      -9.159  11.620  42.598  0.00  0.00     0.064 H 
ATOM     34  H26 PRO d   1     -10.518  10.451  42.706  0.00  0.00     0.064 H 
ATOM     35  CB  PRO d   1      -9.677  10.046  45.453  0.00  0.00    -0.036 C 
ATOM     36  H23 PRO d   1      -8.847   9.146  43.695  0.00  0.00     0.035 H 
ATOM     37  H24 PRO d   1      -7.950  10.578  44.303  0.00  0.00     0.035 H 
ATOM     38  H21 PRO d   1     -10.466   9.281  45.404  0.00  0.00     0.036 H 
ATOM     39  H22 PRO d   1      -8.984   9.806  46.273  0.00  0.00     0.036 H 
ATOM     40  H20 PRO d   1     -11.257  11.374  46.144  0.00  0.00     0.087 H 
BRANCH  29  41
ATOM     41  CA  ASP d   1     -11.427  13.346  42.502  0.00  0.00     0.099 C 
ATOM     42  H17 ASP d   1     -11.247  12.466  41.866  0.00  0.00     0.088 H 
BRANCH  41  43
ATOM     43  N   ASP d   1     -12.756  13.876  42.198  0.00  0.00    -0.345 N 
ATOM     44  C   ARG d   1     -13.552  13.377  41.255  0.00  0.00     0.249 C 
ATOM     45  O   ARG d   1     -13.271  12.389  40.573  0.00  0.00    -0.271 OA
ATOM     46  H16 ASP d   1     -13.085  14.657  42.728  0.00  0.00     0.163 HD
BRANCH  44  47
ATOM     47  CA  ARG d   1     -14.896  14.088  41.078  0.00  0.00     0.176 C 
ATOM     48  H4  ARG d   1     -14.783  15.130  41.410  0.00  0.00     0.099 H 
BRANCH  47  49
ATOM     49  N   ARG d   1     -15.329  14.100  39.643  0.00  0.00    -0.067 N 
ATOM     50  H1  ARG d   1     -16.215  14.574  39.563  0.00  0.00     0.275 HD
ATOM     51  H2  ARG d   1     -15.425  13.152  39.313  0.00  0.00     0.275 HD
ATOM     52  H3  ARG d   1     -14.639  14.581  39.088  0.00  0.00     0.275 HD
ENDBRANCH  47  49
BRANCH  47  53
ATOM     53  CB  ARG d   1     -15.956  13.409  41.955  0.00  0.00    -0.029 C 
ATOM     54  H5  ARG d   1     -15.990  12.343  41.685  0.00  0.00     0.036 H 
ATOM     55  H6  ARG d   1     -16.928  13.874  41.735  0.00  0.00     0.036 H 
BRANCH  53  56
ATOM     56  CG  ARG d   1     -15.714  13.508  43.460  0.00  0.00    -0.047 C 
ATOM     57  H7  ARG d   1     -15.972  14.525  43.792  0.00  0.00     0.035 H 
ATOM     58  H8  ARG d   1     -14.649  13.317  43.658  0.00  0.00     0.035 H 
BRANCH  56  59
ATOM     59  CD  ARG d   1     -16.544  12.511  44.256  0.00  0.00     0.009 C 
ATOM     60  H9  ARG d   1     -15.908  12.069  45.037  0.00  0.00     0.064 H 
ATOM     61  H10 ARG d   1     -16.891  11.720  43.575  0.00  0.00     0.064 H 
BRANCH  59  62
ATOM     62  NE  ARG d   1     -17.711  13.121  44.895  0.00  0.00    -0.227 N 
ATOM     63  CZ  ARG d   1     -17.698  13.810  46.041  0.00  0.00     0.665 C 
ATOM     64  NH1 ARG d   1     -18.840  14.299  46.518  0.00  0.00    -0.235 N 
ATOM     65  NH2 ARG d   1     -16.569  14.027  46.716  0.00  0.00    -0.235 N 
ATOM     66  H12 ARG d   1     -18.844  14.832  47.400  0.00  0.00     0.174 HD
ATOM     67  H13 ARG d   1     -19.720  14.145  46.005  0.00  0.00     0.174 HD
ATOM     68  H14 ARG d   1     -15.677  13.655  46.360  0.00  0.00     0.174 HD
ATOM     69  H15 ARG d   1     -16.589  14.566  47.593  0.00  0.00     0.174 HD
ATOM     70  H11 ARG d   1     -18.619  13.010  44.422  0.00  0.00     0.177 HD
ENDBRANCH  59  62
ENDBRANCH  56  59
ENDBRANCH  53  56
ENDBRANCH  47  53
ENDBRANCH  44  47
ENDBRANCH  41  43
BRANCH  41  71
ATOM     71  CB  ASP d   1     -10.372  14.406  42.192  0.00  0.00     0.043 C 
ATOM     72  H18 ASP d   1      -9.390  14.027  42.513  0.00  0.00     0.052 H 
ATOM     73  H19 ASP d   1     -10.616  15.318  42.757  0.00  0.00     0.052 H 
BRANCH  71  74
ATOM     74  CG  ASP d   1     -10.295  14.759  40.714  0.00  0.00     0.175 C 
ATOM     75  OD1 ASP d   1     -10.491  13.872  39.853  0.00  0.00    -0.648 OA
ATOM     76  OD2 ASP d   1     -10.011  15.938  40.413  0.00  0.00    -0.648 OA
ENDBRANCH  71  74
ENDBRANCH  41  71
ENDBRANCH  29  41
ENDBRANCH  24  27
ENDBRANCH  21  23
BRANCH  21  77
ATOM     77  CB  ALA d   1      -6.485  13.537  46.943  0.00  0.00    -0.049 C 
ATOM     78  H29 ALA d   1      -5.837  14.287  47.420  0.00  0.00     0.030 H 
ATOM     79  H30 ALA d   1      -5.965  13.099  46.078  0.00  0.00     0.030 H 
ATOM     80  H31 ALA d   1      -6.724  12.744  47.667  0.00  0.00     0.030 H 
ENDBRANCH  21  77
ENDBRANCH   9  21
ENDBRANCH   4   7
ENDBRANCH   1   3
BRANCH   1  81
ATOM     81  C   ALA d   1      -3.996  17.186  41.088  0.00  0.00     0.240 C 
ATOM     82  O   ALA d   1      -3.004  16.509  40.803  0.00  0.00    -0.271 OA
ATOM     83  N   TRP d   1      -3.954  18.507  41.305  0.00  0.00    -0.346 N 
ATOM     84  H44 TRP d   1      -4.793  18.981  41.571  0.00  0.00     0.163 HD
BRANCH  83  85
ATOM     85  CA  TRP d   1      -2.713  19.283  41.164  0.00  0.00     0.093 C 
ATOM     86  H45 TRP d   1      -2.407  19.215  40.110  0.00  0.00     0.088 H 
BRANCH  85  87
ATOM     87  C   TRP d   1      -1.575  18.709  42.009  0.00  0.00     0.241 C 
ATOM     88  O   TRP d   1      -0.408  18.787  41.636  0.00  0.00    -0.271 OA
ATOM     89  N   ALA d   1      -1.927  18.133  43.156  0.00  0.00    -0.346 N 
ATOM     90  H54 ALA d   1      -2.897  18.050  43.383  0.00  0.00     0.163 HD
BRANCH  89  91
ATOM     91  CA  ALA d   1      -0.936  17.623  44.084  0.00  0.00     0.086 C 
ATOM     92  H55 ALA d   1      -0.162  18.396  44.199  0.00  0.00     0.086 H 
BRANCH  91  93
ATOM     93  C   ALA d   1      -0.249  16.357  43.603  0.00  0.00     0.240 C 
ATOM     94  O   ALA d   1       0.811  16.029  44.099  0.00  0.00    -0.271 OA
ATOM     95  N   HIS d   1      -0.852  15.669  42.638  0.00  0.00    -0.346 N 
ATOM     96  H59 HIS d   1      -1.647  16.077  42.190  0.00  0.00     0.163 HD
BRANCH  95  97
ATOM     97  CA  HIS d   1      -0.414  14.356  42.202  0.00  0.00     0.094 C 
ATOM     98  H60 HIS d   1       0.388  14.017  42.874  0.00  0.00     0.088 H 
BRANCH  97  99
ATOM     99  C   HIS d   1       0.147  14.386  40.806  0.00  0.00     0.241 C 
ATOM    100  O   HIS d   1       0.423  13.330  40.236  0.00  0.00    -0.271 OA
ATOM    101  N   GLY d   1       0.380  15.597  40.302  0.00  0.00    -0.351 N 
ATOM    102  H66 GLY d   1       0.164  16.398  40.861  0.00  0.00     0.163 HD
BRANCH 101 103
ATOM    103  CA  GLY d   1       0.932  15.802  38.980  0.00  0.00     0.069 C 
ATOM    104  H67 GLY d   1       1.686  15.023  38.793  0.00  0.00     0.078 H 
ATOM    105  H68 GLY d   1       1.412  16.791  38.953  0.00  0.00     0.078 H 
BRANCH 103 106
ATOM    106  C   GLY d   1      -0.102  15.742  37.877  0.00  0.00     0.235 C 
ATOM    107  O   GLY d   1       0.266  15.600  36.717  0.00  0.00    -0.272 OA
ATOM    108  N   GLY d   1      -1.388  15.890  38.216  0.00  0.00    -0.351 N 
ATOM    109  H69 GLY d   1      -1.623  16.080  39.169  0.00  0.00     0.163 HD
BRANCH 108 110
ATOM    110  CA  GLY d   1      -2.459  15.780  37.225  0.00  0.00     0.069 C 
ATOM    111  H70 GLY d   1      -2.943  14.802  37.359  0.00  0.00     0.078 H 
ATOM    112  H71 GLY d   1      -2.001  15.829  36.226  0.00  0.00     0.078 H 
BRANCH 110 113
ATOM    113  C   GLY d   1      -3.533  16.843  37.295  0.00  0.00     0.235 C 
ATOM    114  O   GLY d   1      -3.411  17.835  38.017  0.00  0.00    -0.272 OA
ATOM    115  N   GLY d   1      -4.586  16.626  36.508  0.00  0.00    -0.351 N 
ATOM    116  H72 GLY d   1      -4.576  15.828  35.905  0.00  0.00     0.163 HD
BRANCH 115 117
ATOM    117  CA  GLY d   1      -5.753  17.502  36.487  0.00  0.00     0.069 C 
ATOM    118  H73 GLY d   1      -5.948  17.863  37.508  0.00  0.00     0.078 H 
ATOM    119  H74 GLY d   1      -6.622  16.931  36.127  0.00  0.00     0.078 H 
BRANCH 117 120
ATOM    120  C   GLY d   1      -5.535  18.695  35.576  0.00  0.00     0.233 C 
ATOM    121  O   GLY d   1      -5.132  18.520  34.422  0.00  0.00    -0.272 OA
ATOM    122  N   NH2 d   1      -5.675  19.938  35.822  0.00  0.00    -0.369 N 
ATOM    123  H75 NH2 d   1      -5.490  20.613  35.108  0.00  0.00     0.159 HD
ATOM    124  H76 NH2 d   1      -5.969  20.238  36.729  0.00  0.00     0.159 HD
ENDBRANCH 117 120
ENDBRANCH 115 117
ENDBRANCH 110 113
ENDBRANCH 108 110
ENDBRANCH 103 106
ENDBRANCH 101 103
ENDBRANCH  97  99
BRANCH  97 125
ATOM    125  CB  HIS d   1      -1.585  13.396  42.336  0.00  0.00     0.004 C 
ATOM    126  H61 HIS d   1      -1.286  12.414  41.942  0.00  0.00     0.046 H 
ATOM    127  H62 HIS d   1      -2.431  13.784  41.750  0.00  0.00     0.046 H 
BRANCH 125 128
ATOM    128  CG  HIS d   1      -2.016  13.234  43.752  0.00  0.00     0.053 A 
ATOM    129  ND1 HIS d   1      -2.929  14.075  44.351  0.00  0.00    -0.247 NA
ATOM    130  CE1 HIS d   1      -3.044  13.742  45.627  0.00  0.00     0.064 A 
ATOM    131  NE2 HIS d   1      -2.221  12.740  45.885  0.00  0.00    -0.359 N 
ATOM    132  H64 HIS d   1      -3.709  14.216  46.347  0.00  0.00     0.143 H 
ATOM    133  CD2 HIS d   1      -1.580  12.396  44.721  0.00  0.00     0.002 A 
ATOM    134  H65 HIS d   1      -2.084  12.293  46.803  0.00  0.00     0.166 HD
ATOM    135  H63 HIS d   1      -0.853  11.595  44.599  0.00  0.00     0.114 H 
ENDBRANCH 125 128
ENDBRANCH  97 125
ENDBRANCH  95  97
ENDBRANCH  91  93
BRANCH  91 136
ATOM    136  CB  ALA d   1      -1.570  17.385  45.435  0.00  0.00    -0.049 C 
ATOM    137  H56 ALA d   1      -0.812  16.998  46.133  0.00  0.00     0.030 H 
ATOM    138  H57 ALA d   1      -2.384  16.652  45.334  0.00  0.00     0.030 H 
ATOM    139  H58 ALA d   1      -1.976  18.332  45.822  0.00  0.00     0.030 H 
ENDBRANCH  91 136
ENDBRANCH  89  91
ENDBRANCH  85  87
BRANCH  85 140
ATOM    140  CB  TRP d   1      -2.926  20.786  41.491  0.00  0.00    -0.012 C 
ATOM    141  H46 TRP d   1      -3.619  21.203  40.746  0.00  0.00     0.044 H 
ATOM    142  H47 TRP d   1      -1.954  21.294  41.412  0.00  0.00     0.044 H 
BRANCH 140 143
ATOM    143  CG  TRP d   1      -3.495  21.065  42.875  0.00  0.00    -0.028 A 
ATOM    144  CD1 TRP d   1      -4.799  21.370  43.185  0.00  0.00    -0.015 A 
ATOM    145  NE1 TRP d   1      -4.938  21.548  44.537  0.00  0.00    -0.365 N 
ATOM    146  H48 TRP d   1      -5.607  21.458  42.460  0.00  0.00     0.112 H 
ATOM    147  CE2 TRP d   1      -3.726  21.357  45.140  0.00  0.00     0.042 A 
ATOM    148  H49 TRP d   1      -5.815  21.787  45.021  0.00  0.00     0.165 HD
ATOM    149  CD2 TRP d   1      -2.786  21.064  44.120  0.00  0.00    -0.002 A 
ATOM    150  CZ2 TRP d   1      -3.374  21.417  46.486  0.00  0.00    -0.056 A 
ATOM    151  CE3 TRP d   1      -1.450  20.849  44.481  0.00  0.00    -0.070 A 
ATOM    152  CZ3 TRP d   1      -1.102  20.918  45.831  0.00  0.00    -0.082 A 
ATOM    153  H50 TRP d   1      -0.701  20.633  43.727  0.00  0.00     0.084 H 
ATOM    154  CH2 TRP d   1      -2.064  21.193  46.815  0.00  0.00    -0.081 A 
ATOM    155  H52 TRP d   1      -0.071  20.756  46.124  0.00  0.00     0.083 H 
ATOM    156  H53 TRP d   1      -1.764  21.229  47.856  0.00  0.00     0.083 H 
ATOM    157  H51 TRP d   1      -4.113  21.634  47.249  0.00  0.00     0.086 H 
ENDBRANCH 140 143
ENDBRANCH  85 140
ENDBRANCH  83  85
ENDBRANCH   1  81
BRANCH   1 158
ATOM    158  CB  ALA d   1      -6.164  16.651  39.968  0.00  0.00    -0.049 C 
ATOM    159  H41 ALA d   1      -5.586  16.247  39.124  0.00  0.00     0.030 H 
ATOM    160  H42 ALA d   1      -6.385  17.713  39.786  0.00  0.00     0.030 H 
ATOM    161  H43 ALA d   1      -7.106  16.092  40.069  0.00  0.00     0.030 H 
ENDBRANCH   1 158
TORSDOF 35
