REMARK WARNING: 32 MAX_TORS EXCEEDED!!!
REMARK  33 active torsions:
REMARK  status: ('A' for Active; 'I' for Inactive)
REMARK    1  A    between atoms: N_1  and  CA_2 
REMARK    2  A    between atoms: CA_2  and  C_3 
REMARK       I    between atoms: C_3  and  N_5 
REMARK    3  A    between atoms: N_5  and  CA_6 
REMARK    4  A    between atoms: CA_6  and  CB_7 
REMARK    5  A    between atoms: CA_6  and  C_11 
REMARK    6  A    between atoms: CB_7  and  CG_8 
REMARK    7  A    between atoms: CG_8  and  CD1_9 
REMARK    8  A    between atoms: CG_8  and  CD2_10 
REMARK       I    between atoms: C_11  and  N_13 
REMARK    9  A    between atoms: N_13  and  CA_14 
REMARK   10  A    between atoms: CA_14  and  CB_15 
REMARK   11  A    between atoms: CA_14  and  C_16 
REMARK       I    between atoms: C_16  and  N_18 
REMARK   12  A    between atoms: N_18  and  CA_19 
REMARK   13  A    between atoms: CA_19  and  C_20 
REMARK   14  A    between atoms: CA_19  and  CB_22 
REMARK       I    between atoms: C_20  and  N_26 
REMARK   15  A    between atoms: CB_22  and  CG_23 
REMARK       I    between atoms: CG_23  and  ND2_25 
REMARK   16  A    between atoms: N_26  and  CA_27 
REMARK   17  A    between atoms: CA_27  and  CB_28 
REMARK   18  A    between atoms: CA_27  and  C_31 
REMARK   19  A    between atoms: CB_28  and  CG1_29 
REMARK   20  A    between atoms: CB_28  and  CG2_30 
REMARK       I    between atoms: C_31  and  N_33 
REMARK   21  A    between atoms: N_33  and  CA_34 
REMARK   22  A    between atoms: CA_34  and  C_35 
REMARK   23  A    between atoms: CA_34  and  CB_37 
REMARK       I    between atoms: C_35  and  N_41 
REMARK   24  A    between atoms: CB_37  and  CG_38 
REMARK   25  A    between atoms: N_41  and  CA_42 
REMARK   26  A    between atoms: CA_42  and  C_43 
REMARK   27  A    between atoms: CA_42  and  CB_45 
REMARK       I    between atoms: C_43  and  N_50 
REMARK   28  A    between atoms: CB_45  and  CG_46 
REMARK   29  A    between atoms: CG_46  and  CD_47 
REMARK   30  A    between atoms: N_50  and  CA_51 
REMARK   31  A    between atoms: CA_51  and  C_52 
REMARK   32  A    between atoms: CA_51  and  CB_54 
REMARK   33  A    between atoms: CB_54  and  OG_55 
ROOT
ATOM      1  C   DSG d   1       1.463  12.485  -0.857  0.00  0.00     0.241 C 
ATOM      2  O   DSG d   1       1.783  11.307  -0.911  0.00  0.00    -0.271 OA
ATOM      3  N   DVA d   1       0.916  13.123  -1.895  0.00  0.00    -0.346 N 
ATOM      4  H28 DVA d   1       0.690  14.093  -1.809  0.00  0.00     0.163 HD
ENDROOT
BRANCH   3   5
ATOM      5  CA  DVA d   1       0.640  12.433  -3.156  0.00  0.00     0.092 C 
ATOM      6  H29 DVA d   1       1.603  12.056  -3.532  0.00  0.00     0.088 H 
BRANCH   5   7
ATOM      7  CB  DVA d   1       0.084  13.399  -4.212  0.00  0.00    -0.033 C 
ATOM      8  H30 DVA d   1      -0.129  12.796  -5.107  0.00  0.00     0.042 H 
BRANCH   7   9
ATOM      9  CG1 DVA d   1      -1.249  14.051  -3.816  0.00  0.00    -0.071 C 
ATOM     10  H31 DVA d   1      -1.580  14.726  -4.619  0.00  0.00     0.028 H 
ATOM     11  H32 DVA d   1      -1.115  14.625  -2.887  0.00  0.00     0.028 H 
ATOM     12  H33 DVA d   1      -2.007  13.270  -3.658  0.00  0.00     0.028 H 
ENDBRANCH   7   9
BRANCH   7  13
ATOM     13  CG2 DVA d   1       1.155  14.409  -4.611  0.00  0.00    -0.071 C 
ATOM     14  H34 DVA d   1       2.079  13.876  -4.881  0.00  0.00     0.028 H 
ATOM     15  H35 DVA d   1       1.355  15.085  -3.766  0.00  0.00     0.028 H 
ATOM     16  H36 DVA d   1       0.804  14.995  -5.473  0.00  0.00     0.028 H 
ENDBRANCH   7  13
ENDBRANCH   5   7
BRANCH   5  17
ATOM     17  C   DVA d   1      -0.273  11.229  -2.986  0.00  0.00     0.241 C 
ATOM     18  O   DVA d   1      -0.280  10.344  -3.854  0.00  0.00    -0.271 OA
ATOM     19  N   DAS d   1      -1.045  11.165  -1.896  0.00  0.00    -0.345 N 
ATOM     20  H37 DAS d   1      -1.070  11.943  -1.268  0.00  0.00     0.163 HD
BRANCH  19  21
ATOM     21  CA  DAS d   1      -1.859   9.976  -1.599  0.00  0.00     0.098 C 
ATOM     22  H38 DAS d   1      -2.589   9.873  -2.416  0.00  0.00     0.088 H 
BRANCH  21  23
ATOM     23  C   DAS d   1      -1.046   8.702  -1.542  0.00  0.00     0.241 C 
ATOM     24  O   DAS d   1      -1.570   7.624  -1.841  0.00  0.00    -0.271 OA
ATOM     25  N   DGL d   1       0.230   8.811  -1.168  0.00  0.00    -0.346 N 
ATOM     26  H41 DGL d   1       0.579   9.715  -0.919  0.00  0.00     0.163 HD
BRANCH  25  27
ATOM     27  CA  DGL d   1       1.152   7.658  -1.104  0.00  0.00     0.090 C 
ATOM     28  H42 DGL d   1       0.725   6.935  -0.394  0.00  0.00     0.087 H 
BRANCH  27  29
ATOM     29  C   DGL d   1       1.372   6.932  -2.419  0.00  0.00     0.241 C 
ATOM     30  O   DGL d   1       1.808   5.770  -2.402  0.00  0.00    -0.271 OA
ATOM     31  N   DSN d   1       1.127   7.606  -3.546  0.00  0.00    -0.343 N 
ATOM     32  H47 DSN d   1       0.772   8.539  -3.477  0.00  0.00     0.163 HD
BRANCH  31  33
ATOM     33  CA  DSN d   1       1.353   7.044  -4.869  0.00  0.00     0.116 C 
ATOM     34  H48 DSN d   1       1.468   5.953  -4.788  0.00  0.00     0.093 H 
BRANCH  33  35
ATOM     35  C   DSN d   1       0.195   7.326  -5.784  0.00  0.00     0.198 C 
ATOM     36  O   DSN d   1       0.313   7.159  -7.002  0.00  0.00    -0.646 OA
ATOM     37  OXT DSN d   1      -0.878   7.726  -5.320  0.00  0.00    -0.646 OA
ENDBRANCH  33  35
BRANCH  33  38
ATOM     38  CB  DSN d   1       2.667   7.652  -5.376  0.00  0.00     0.045 C 
ATOM     39  H49 DSN d   1       2.990   7.101  -6.272  0.00  0.00     0.077 H 
ATOM     40  H50 DSN d   1       3.430   7.553  -4.590  0.00  0.00     0.077 H 
BRANCH  38  41
ATOM     41  OG  DSN d   1       2.527   9.045  -5.713  0.00  0.00    -0.398 OA
ATOM     42  H51 DSN d   1       3.361   9.380  -6.021  0.00  0.00     0.209 HD
ENDBRANCH  38  41
ENDBRANCH  33  38
ENDBRANCH  31  33
ENDBRANCH  27  29
BRANCH  27  43
ATOM     43  CB  DGL d   1       2.516   8.125  -0.572  0.00  0.00    -0.029 C 
ATOM     44  H43 DGL d   1       3.057   7.255  -0.171  0.00  0.00     0.037 H 
ATOM     45  H44 DGL d   1       2.351   8.857   0.232  0.00  0.00     0.037 H 
BRANCH  43  46
ATOM     46  CG  DGL d   1       3.371   8.777  -1.668  0.00  0.00     0.018 C 
ATOM     47  H45 DGL d   1       2.714   9.388  -2.304  0.00  0.00     0.049 H 
ATOM     48  H46 DGL d   1       3.828   7.980  -2.272  0.00  0.00     0.049 H 
BRANCH  46  49
ATOM     49  CD  DGL d   1       4.473   9.661  -1.132  0.00  0.00     0.172 C 
ATOM     50  OE1 DGL d   1       4.992  10.481  -1.935  0.00  0.00    -0.648 OA
ATOM     51  OE2 DGL d   1       4.827   9.529   0.064  0.00  0.00    -0.648 OA
ENDBRANCH  46  49
ENDBRANCH  43  46
ENDBRANCH  27  43
ENDBRANCH  25  27
ENDBRANCH  21  23
BRANCH  21  52
ATOM     52  CB  DAS d   1      -2.638  10.112  -0.285  0.00  0.00     0.043 C 
ATOM     53  H39 DAS d   1      -1.926  10.316   0.528  0.00  0.00     0.052 H 
ATOM     54  H40 DAS d   1      -3.161   9.165  -0.085  0.00  0.00     0.052 H 
BRANCH  52  55
ATOM     55  CG  DAS d   1      -3.660  11.233  -0.330  0.00  0.00     0.175 C 
ATOM     56  OD1 DAS d   1      -4.064  11.686  -1.433  0.00  0.00    -0.648 OA
ATOM     57  OD2 DAS d   1      -4.067  11.670   0.769  0.00  0.00    -0.648 OA
ENDBRANCH  52  55
ENDBRANCH  21  52
ENDBRANCH  19  21
ENDBRANCH   5  17
ENDBRANCH   3   5
BRANCH   1  58
ATOM     58  CA  DSG d   1       1.639  13.250   0.440  0.00  0.00     0.097 C 
ATOM     59  H23 DSG d   1       1.556  12.516   1.255  0.00  0.00     0.088 H 
BRANCH  58  60
ATOM     60  N   DSG d   1       0.543  14.232   0.656  0.00  0.00    -0.346 N 
ATOM     61  C   DAL d   1      -0.718  13.863   0.772  0.00  0.00     0.240 C 
ATOM     62  O   DAL d   1      -1.097  12.728   0.477  0.00  0.00    -0.271 OA
ATOM     63  H22 DSG d   1       0.770  15.204   0.715  0.00  0.00     0.163 HD
BRANCH  61  64
ATOM     64  CA  DAL d   1      -1.705  14.917   1.210  0.00  0.00     0.086 C 
ATOM     65  H18 DAL d   1      -1.194  15.771   1.677  0.00  0.00     0.086 H 
BRANCH  64  66
ATOM     66  N   DAL d   1      -2.598  14.257   2.160  0.00  0.00    -0.346 N 
ATOM     67  C   DLE d   1      -3.242  14.919   3.112  0.00  0.00     0.241 C 
ATOM     68  O   DLE d   1      -3.064  16.124   3.317  0.00  0.00    -0.271 OA
ATOM     69  H17 DAL d   1      -2.729  13.268   2.090  0.00  0.00     0.163 HD
BRANCH  67  70
ATOM     70  CA  DLE d   1      -4.168  14.102   3.982  0.00  0.00     0.089 C 
ATOM     71  H7  DLE d   1      -4.391  13.149   3.481  0.00  0.00     0.087 H 
BRANCH  70  72
ATOM     72  N   DLE d   1      -5.435  14.811   4.240  0.00  0.00    -0.346 N 
ATOM     73  C   GLY d   1      -6.621  14.372   3.816  0.00  0.00     0.243 C 
ATOM     74  O   GLY d   1      -6.779  13.310   3.216  0.00  0.00    -0.272 OA
ATOM     75  H6  DLE d   1      -5.403  15.665   4.760  0.00  0.00     0.163 HD
BRANCH  73  76
ATOM     76  CA  GLY d   1      -7.808  15.263   4.132  0.00  0.00     0.152 C 
ATOM     77  H4  GLY d   1      -7.970  15.257   5.220  0.00  0.00     0.090 H 
ATOM     78  H5  GLY d   1      -7.575  16.286   3.801  0.00  0.00     0.090 H 
BRANCH  76  79
ATOM     79  N   GLY d   1      -9.066  14.823   3.463  0.00  0.00    -0.071 N 
ATOM     80  H1  GLY d   1      -9.815  15.451   3.710  0.00  0.00     0.274 HD
ATOM     81  H2  GLY d   1      -9.297  13.889   3.764  0.00  0.00     0.274 HD
ATOM     82  H3  GLY d   1      -8.936  14.832   2.463  0.00  0.00     0.274 HD
ENDBRANCH  76  79
ENDBRANCH  73  76
ENDBRANCH  70  72
BRANCH  70  83
ATOM     83  CB  DLE d   1      -3.444  13.832   5.299  0.00  0.00    -0.035 C 
ATOM     84  H8  DLE d   1      -3.248  14.797   5.790  0.00  0.00     0.037 H 
ATOM     85  H9  DLE d   1      -2.489  13.335   5.073  0.00  0.00     0.037 H 
BRANCH  83  86
ATOM     86  CG  DLE d   1      -4.229  12.947   6.274  0.00  0.00    -0.059 C 
ATOM     87  H10 DLE d   1      -5.299  13.161   6.137  0.00  0.00     0.038 H 
BRANCH  86  88
ATOM     88  CD1 DLE d   1      -4.004  11.466   5.995  0.00  0.00    -0.073 C 
ATOM     89  H11 DLE d   1      -4.582  10.866   6.713  0.00  0.00     0.028 H 
ATOM     90  H12 DLE d   1      -2.934  11.232   6.099  0.00  0.00     0.028 H 
ATOM     91  H13 DLE d   1      -4.333  11.231   4.972  0.00  0.00     0.028 H 
ENDBRANCH  86  88
BRANCH  86  92
ATOM     92  CD2 DLE d   1      -3.861  13.268   7.716  0.00  0.00    -0.073 C 
ATOM     93  H14 DLE d   1      -4.027  14.338   7.907  0.00  0.00     0.028 H 
ATOM     94  H15 DLE d   1      -2.802  13.025   7.887  0.00  0.00     0.028 H 
ATOM     95  H16 DLE d   1      -4.488  12.673   8.396  0.00  0.00     0.028 H 
ENDBRANCH  86  92
ENDBRANCH  83  86
ENDBRANCH  70  83
ENDBRANCH  67  70
ENDBRANCH  64  66
BRANCH  64  96
ATOM     96  CB  DAL d   1      -2.505  15.375  -0.010  0.00  0.00    -0.049 C 
ATOM     97  H19 DAL d   1      -1.832  15.872  -0.724  0.00  0.00     0.030 H 
ATOM     98  H20 DAL d   1      -3.287  16.080   0.308  0.00  0.00     0.030 H 
ATOM     99  H21 DAL d   1      -2.971  14.503  -0.491  0.00  0.00     0.030 H 
ENDBRANCH  64  96
ENDBRANCH  61  64
ENDBRANCH  58  60
BRANCH  58 100
ATOM    100  CB  DSG d   1       3.051  13.850   0.542  0.00  0.00     0.036 C 
ATOM    101  H24 DSG d   1       3.207  14.542  -0.299  0.00  0.00     0.051 H 
ATOM    102  H25 DSG d   1       3.790  13.037   0.489  0.00  0.00     0.051 H 
BRANCH 100 103
ATOM    103  CG  DSG d   1       3.240  14.597   1.829  0.00  0.00     0.217 C 
ATOM    104  OD1 DSG d   1       3.897  14.301   2.717  0.00  0.00    -0.274 OA
ATOM    105  ND2 DSG d   1       2.602  15.604   2.126  0.00  0.00    -0.370 N 
ATOM    106  H26 DSG d   1       2.769  16.063   2.999  0.00  0.00     0.159 HD
ATOM    107  H27 DSG d   1       1.915  15.965   1.495  0.00  0.00     0.159 HD
ENDBRANCH 100 103
ENDBRANCH  58 100
ENDBRANCH   1  58
TORSDOF 33
