REMARK WARNING: 32 MAX_TORS EXCEEDED!!!
REMARK  43 active torsions:
REMARK  status: ('A' for Active; 'I' for Inactive)
REMARK    1  A    between atoms: N_1  and  CA_2 
REMARK    2  A    between atoms: CA_2  and  CB_3 
REMARK    3  A    between atoms: CA_2  and  C_7 
REMARK    4  A    between atoms: CB_3  and  CG_4 
REMARK    5  A    between atoms: CG_4  and  CD1_5 
REMARK    6  A    between atoms: CG_4  and  CD2_6 
REMARK       I    between atoms: C_7  and  N_9 
REMARK    7  A    between atoms: N_9  and  CA_10 
REMARK    8  A    between atoms: CA_10  and  CB_11 
REMARK    9  A    between atoms: CA_10  and  C_21 
REMARK   10  A    between atoms: CB_11  and  CG_12 
REMARK       I    between atoms: C_21  and  N_23 
REMARK   11  A    between atoms: N_23  and  CA_24 
REMARK   12  A    between atoms: CA_24  and  C_25 
REMARK   13  A    between atoms: CA_24  and  CB_27 
REMARK       I    between atoms: C_25  and  N_32 
REMARK   14  A    between atoms: CB_27  and  CG_28 
REMARK   15  A    between atoms: CG_28  and  CD_29 
REMARK       I    between atoms: CD_29  and  NE2_31 
REMARK   16  A    between atoms: N_32  and  CA_33 
REMARK   17  A    between atoms: CA_33  and  C_34 
REMARK   18  A    between atoms: CA_33  and  CB_36 
REMARK       I    between atoms: C_34  and  N_42 
REMARK   19  A    between atoms: CB_36  and  CG_37 
REMARK   20  A    between atoms: N_42  and  CA_43 
REMARK   21  A    between atoms: CA_43  and  C_44 
REMARK   22  A    between atoms: CA_43  and  CB_46 
REMARK       I    between atoms: C_44  and  N_51 
REMARK   23  A    between atoms: CB_46  and  CG_47 
REMARK   24  A    between atoms: CG_47  and  CD_48 
REMARK   25  A    between atoms: N_51  and  CA_52 
REMARK   26  A    between atoms: CA_52  and  CB_53 
REMARK   27  A    between atoms: CA_52  and  C_54 
REMARK       I    between atoms: C_54  and  N_56 
REMARK   28  A    between atoms: N_56  and  CA_57 
REMARK   29  A    between atoms: CA_57  and  CB_58 
REMARK   30  A    between atoms: CA_57  and  C_61 
REMARK   31  A    between atoms: CB_58  and  CG2_59 
REMARK   32  A    between atoms: CB_58  and  OG1_60 
REMARK       I    between atoms: C_61  and  N_63 
REMARK   33  A    between atoms: N_63  and  CA_64 
REMARK   34  A    between atoms: CA_64  and  CB_65 
REMARK   35  A    between atoms: CA_64  and  C_75 
REMARK   36  A    between atoms: CB_65  and  CG_66 
REMARK       I    between atoms: C_75  and  N_77 
REMARK   37  A    between atoms: N_77  and  CA_78 
REMARK   38  A    between atoms: CA_78  and  C_79 
REMARK   39  A    between atoms: CA_78  and  CB_81 
REMARK   40  A    between atoms: CB_81  and  CG_82 
REMARK   41  A    between atoms: CG_82  and  CD_83 
REMARK   42  A    between atoms: CD_83  and  CE_84 
REMARK   43  A    between atoms: CE_84  and  NZ_85 
ROOT
ATOM      1  H40 DLE d   1       4.181  14.129  16.828  0.00  0.00     0.087 H 
ATOM      2  CA  DGL d   1       3.948  13.862  15.787  0.00  0.00     0.090 C 
ENDROOT
BRANCH   2   3
ATOM      3  N   DGL d   1       2.495  13.658  15.693  0.00  0.00    -0.346 N 
ATOM      4  C   DHI d   1       1.852  12.892  16.576  0.00  0.00     0.241 C 
ATOM      5  O   DHI d   1       2.414  12.416  17.560  0.00  0.00    -0.271 OA
ATOM      6  H39 DLE d   1       1.982  14.100  14.957  0.00  0.00     0.163 HD
BRANCH   4   7
ATOM      7  CA  DHI d   1       0.390  12.587  16.322  0.00  0.00     0.094 C 
ATOM      8  H33 DLE d   1       0.172  11.614  16.787  0.00  0.00     0.088 H 
BRANCH   7   9
ATOM      9  N   DHI d   1       0.121  12.443  14.872  0.00  0.00    -0.346 N 
ATOM     10  C   DGN d   1       0.621  11.422  14.165  0.00  0.00     0.241 C 
ATOM     11  O   DGN d   1       1.223  10.479  14.694  0.00  0.00    -0.271 OA
ATOM     12  H32 DLE d   1      -0.447  13.124  14.411  0.00  0.00     0.163 HD
BRANCH  10  13
ATOM     13  CA  DGN d   1       0.424  11.433  12.652  0.00  0.00     0.090 C 
ATOM     14  H25 DLE d   1       1.350  11.036  12.211  0.00  0.00     0.087 H 
BRANCH  13  15
ATOM     15  N   DGN d   1       0.302  12.809  12.157  0.00  0.00    -0.346 N 
ATOM     16  C   DTR d   1       1.344  13.641  12.094  0.00  0.00     0.241 C 
ATOM     17  O   DTR d   1       2.449  13.361  12.569  0.00  0.00    -0.271 OA
ATOM     18  H24 DLE d   1      -0.594  13.135  11.856  0.00  0.00     0.163 HD
BRANCH  16  19
ATOM     19  CA  DTR d   1       1.104  15.005  11.470  0.00  0.00     0.093 C 
ATOM     20  H15 DLE d   1       1.728  15.726  12.019  0.00  0.00     0.088 H 
BRANCH  19  21
ATOM     21  N   DTR d   1      -0.297  15.455  11.619  0.00  0.00    -0.346 N 
ATOM     22  C   DLE d   1      -0.853  15.577  12.824  0.00  0.00     0.249 C 
ATOM     23  O   DLE d   1      -0.203  15.417  13.873  0.00  0.00    -0.271 OA
ATOM     24  H14 DLE d   1      -0.835  15.671  10.804  0.00  0.00     0.163 HD
BRANCH  22  25
ATOM     25  CA  DLE d   1      -2.331  15.872  12.871  0.00  0.00     0.176 C 
ATOM     26  H4  DLE d   1      -2.727  15.922  11.846  0.00  0.00     0.099 H 
BRANCH  25  27
ATOM     27  N   DLE d   1      -2.586  17.188  13.550  0.00  0.00    -0.066 N 
ATOM     28  H1  DLE d   1      -3.578  17.368  13.572  0.00  0.00     0.275 HD
ATOM     29  H2  DLE d   1      -2.122  17.924  13.041  0.00  0.00     0.275 HD
ATOM     30  H3  DLE d   1      -2.229  17.155  14.492  0.00  0.00     0.275 HD
ENDBRANCH  25  27
BRANCH  25  31
ATOM     31  CB  DLE d   1      -3.007  14.715  13.621  0.00  0.00    -0.028 C 
ATOM     32  H5  DLE d   1      -2.826  14.878  14.694  0.00  0.00     0.037 H 
ATOM     33  H6  DLE d   1      -2.507  13.789  13.301  0.00  0.00     0.037 H 
BRANCH  31  34
ATOM     34  CG  DLE d   1      -4.525  14.490  13.449  0.00  0.00    -0.059 C 
ATOM     35  H7  DLE d   1      -4.958  14.585  14.456  0.00  0.00     0.038 H 
BRANCH  34  36
ATOM     36  CD1 DLE d   1      -5.281  15.483  12.566  0.00  0.00    -0.073 C 
ATOM     37  H8  DLE d   1      -6.345  15.206  12.531  0.00  0.00     0.028 H 
ATOM     38  H9  DLE d   1      -4.863  15.461  11.549  0.00  0.00     0.028 H 
ATOM     39  H10 DLE d   1      -5.179  16.496  12.983  0.00  0.00     0.028 H 
ENDBRANCH  34  36
BRANCH  34  40
ATOM     40  CD2 DLE d   1      -4.814  13.068  12.958  0.00  0.00    -0.073 C 
ATOM     41  H11 DLE d   1      -4.274  12.346  13.588  0.00  0.00     0.028 H 
ATOM     42  H12 DLE d   1      -4.481  12.966  11.915  0.00  0.00     0.028 H 
ATOM     43  H13 DLE d   1      -5.895  12.871  13.019  0.00  0.00     0.028 H 
ENDBRANCH  34  40
ENDBRANCH  31  34
ENDBRANCH  25  31
ENDBRANCH  22  25
ENDBRANCH  19  21
BRANCH  19  44
ATOM     44  CB  DTR d   1       1.574  15.024  10.013  0.00  0.00    -0.012 C 
ATOM     45  H16 DLE d   1       2.659  14.844  10.015  0.00  0.00     0.044 H 
ATOM     46  H17 DLE d   1       1.370  16.029   9.615  0.00  0.00     0.044 H 
BRANCH  44  47
ATOM     47  CG  DTR d   1       0.953  14.027   9.063  0.00  0.00    -0.028 A 
ATOM     48  CD1 DTR d   1      -0.005  14.316   8.077  0.00  0.00    -0.015 A 
ATOM     49  NE1 DTR d   1      -0.309  13.172   7.369  0.00  0.00    -0.365 N 
ATOM     50  H18 DLE d   1      -0.443  15.297   7.898  0.00  0.00     0.112 H 
ATOM     51  CE2 DTR d   1       0.388  12.106   7.838  0.00  0.00     0.042 A 
ATOM     52  H19 DLE d   1      -0.978  13.132   6.587  0.00  0.00     0.165 HD
ATOM     53  CZ2 DTR d   1       0.428  10.758   7.516  0.00  0.00    -0.056 A 
ATOM     54  CD2 DTR d   1       1.235  12.573   8.948  0.00  0.00    -0.002 A 
ATOM     55  CH2 DTR d   1       1.275   9.864   8.187  0.00  0.00    -0.081 A 
ATOM     56  H20 DLE d   1      -0.212  10.385   6.725  0.00  0.00     0.086 H 
ATOM     57  CZ3 DTR d   1       2.094  10.322   9.208  0.00  0.00    -0.082 A 
ATOM     58  H21 DLE d   1       1.289   8.817   7.908  0.00  0.00     0.083 H 
ATOM     59  CE3 DTR d   1       2.079  11.662   9.605  0.00  0.00    -0.070 A 
ATOM     60  H22 DLE d   1       2.759   9.627   9.708  0.00  0.00     0.083 H 
ATOM     61  H23 DLE d   1       2.716  11.997  10.416  0.00  0.00     0.084 H 
ENDBRANCH  44  47
ENDBRANCH  19  44
ENDBRANCH  16  19
ENDBRANCH  13  15
BRANCH  13  62
ATOM     62  CB  DGN d   1      -0.689  10.471  12.213  0.00  0.00    -0.030 C 
ATOM     63  H26 DLE d   1      -0.901   9.826  13.079  0.00  0.00     0.037 H 
ATOM     64  H27 DLE d   1      -0.270   9.863  11.397  0.00  0.00     0.037 H 
BRANCH  62  65
ATOM     65  CG  DGN d   1      -2.038  10.986  11.718  0.00  0.00     0.011 C 
ATOM     66  H28 DLE d   1      -2.357  11.778  12.412  0.00  0.00     0.047 H 
ATOM     67  H29 DLE d   1      -2.745  10.145  11.772  0.00  0.00     0.047 H 
BRANCH  65  68
ATOM     68  CD  DGN d   1      -2.131  11.557  10.318  0.00  0.00     0.215 C 
ATOM     69  OE1 DGN d   1      -2.189  10.872   9.290  0.00  0.00    -0.274 OA
ATOM     70  NE2 DGN d   1      -2.249  12.872  10.280  0.00  0.00    -0.370 N 
ATOM     71  H30 DLE d   1      -2.317  13.343   9.400  0.00  0.00     0.159 HD
ATOM     72  H31 DLE d   1      -2.270  13.397  11.131  0.00  0.00     0.159 HD
ENDBRANCH  65  68
ENDBRANCH  62  65
ENDBRANCH  13  62
ENDBRANCH  10  13
ENDBRANCH   7   9
BRANCH   7  73
ATOM     73  CB  DHI d   1      -0.516  13.624  17.005  0.00  0.00     0.004 C 
ATOM     74  H34 DLE d   1      -0.417  14.582  16.473  0.00  0.00     0.046 H 
ATOM     75  H35 DLE d   1      -0.185  13.747  18.047  0.00  0.00     0.046 H 
BRANCH  73  76
ATOM     76  CG  DHI d   1      -1.986  13.219  17.007  0.00  0.00     0.053 A 
ATOM     77  ND1 DHI d   1      -3.004  14.000  17.423  0.00  0.00    -0.247 NA
ATOM     78  CE1 DHI d   1      -4.175  13.323  17.291  0.00  0.00     0.064 A 
ATOM     79  NE2 DHI d   1      -3.900  12.101  16.778  0.00  0.00    -0.359 N 
ATOM     80  H37 DLE d   1      -5.163  13.698  17.553  0.00  0.00     0.143 H 
ATOM     81  CD2 DHI d   1      -2.562  12.016  16.599  0.00  0.00     0.002 A 
ATOM     82  H38 DLE d   1      -4.588  11.366  16.562  0.00  0.00     0.166 HD
ATOM     83  H36 DLE d   1      -2.026  11.155  16.203  0.00  0.00     0.114 H 
ENDBRANCH  73  76
ENDBRANCH   7  73
ENDBRANCH   4   7
ENDBRANCH   2   3
BRANCH   2  84
ATOM     84  C   DGL d   1       4.678  12.591  15.433  0.00  0.00     0.241 C 
ATOM     85  O   DGL d   1       5.672  12.249  16.083  0.00  0.00    -0.271 OA
ATOM     86  N   DLE d   1       4.192  11.888  14.413  0.00  0.00    -0.346 N 
ATOM     87  H45 DLE d   1       3.377  12.225  13.942  0.00  0.00     0.163 HD
BRANCH  86  88
ATOM     88  CA  DLE d   1       4.811  10.630  13.951  0.00  0.00     0.086 C 
ATOM     89  H46 DLE d   1       5.879  10.837  13.789  0.00  0.00     0.086 H 
BRANCH  88  90
ATOM     90  CB  DLE d   1       4.194  10.191  12.628  0.00  0.00    -0.049 C 
ATOM     91  H47 DLE d   1       4.665   9.254  12.297  0.00  0.00     0.030 H 
ATOM     92  H48 DLE d   1       4.358  10.971  11.870  0.00  0.00     0.030 H 
ATOM     93  H49 DLE d   1       3.114  10.031  12.762  0.00  0.00     0.030 H 
ENDBRANCH  88  90
BRANCH  88  94
ATOM     94  C   DLE d   1       4.713   9.462  14.909  0.00  0.00     0.240 C 
ATOM     95  O   DLE d   1       5.395   8.451  14.693  0.00  0.00    -0.271 OA
ATOM     96  N   DTH d   1       3.883   9.572  15.956  0.00  0.00    -0.344 N 
ATOM     97  H50 DLE d   1       3.312  10.390  16.033  0.00  0.00     0.163 HD
BRANCH  96  98
ATOM     98  CA  DTH d   1       3.778   8.535  16.999  0.00  0.00     0.113 C 
ATOM     99  H51 DLE d   1       4.550   7.773  16.816  0.00  0.00     0.091 H 
BRANCH  98 100
ATOM    100  CB  DTH d   1       2.404   7.869  16.885  0.00  0.00     0.060 C 
ATOM    101  H52 DLE d   1       2.300   7.134  17.697  0.00  0.00     0.086 H 
BRANCH 100 102
ATOM    102  CG2 DTH d   1       2.274   7.148  15.542  0.00  0.00    -0.050 C 
ATOM    103  H53 DLE d   1       1.283   6.675  15.474  0.00  0.00     0.031 H 
ATOM    104  H54 DLE d   1       3.055   6.377  15.463  0.00  0.00     0.031 H 
ATOM    105  H55 DLE d   1       2.391   7.874  14.723  0.00  0.00     0.031 H 
ENDBRANCH 100 102
BRANCH 100 106
ATOM    106  OG1 DTH d   1       1.356   8.843  17.003  0.00  0.00    -0.393 OA
ATOM    107  H56 DLE d   1       1.429   9.472  16.295  0.00  0.00     0.210 HD
ENDBRANCH 100 106
ENDBRANCH  98 100
BRANCH  98 108
ATOM    108  C   DTH d   1       4.016   9.118  18.372  0.00  0.00     0.243 C 
ATOM    109  O   DTH d   1       3.601   8.536  19.362  0.00  0.00    -0.271 OA
ATOM    110  N   DTR d   1       4.733  10.244  18.430  0.00  0.00    -0.346 N 
ATOM    111  H57 DLE d   1       5.078  10.629  17.574  0.00  0.00     0.163 HD
BRANCH 110 112
ATOM    112  CA  DTR d   1       5.043  10.948  19.683  0.00  0.00     0.093 C 
ATOM    113  H58 DLE d   1       4.109  11.199  20.206  0.00  0.00     0.088 H 
BRANCH 112 114
ATOM    114  CB  DTR d   1       5.831  12.230  19.373  0.00  0.00    -0.012 C 
ATOM    115  H59 DLE d   1       5.213  12.886  18.742  0.00  0.00     0.044 H 
ATOM    116  H60 DLE d   1       6.752  11.963  18.833  0.00  0.00     0.044 H 
BRANCH 114 117
ATOM    117  CG  DTR d   1       6.201  12.972  20.643  0.00  0.00    -0.028 A 
ATOM    118  CD1 DTR d   1       5.411  13.895  21.319  0.00  0.00    -0.015 A 
ATOM    119  NE1 DTR d   1       6.057  14.365  22.428  0.00  0.00    -0.365 N 
ATOM    120  H61 DLE d   1       4.414  14.202  21.007  0.00  0.00     0.112 H 
ATOM    121  CE2 DTR d   1       7.273  13.808  22.569  0.00  0.00     0.042 A 
ATOM    122  H62 DLE d   1       5.661  15.061  23.076  0.00  0.00     0.165 HD
ATOM    123  CZ2 DTR d   1       8.305  13.935  23.504  0.00  0.00    -0.056 A 
ATOM    124  CD2 DTR d   1       7.456  12.880  21.439  0.00  0.00    -0.002 A 
ATOM    125  CH2 DTR d   1       9.479  13.187  23.351  0.00  0.00    -0.081 A 
ATOM    126  H63 DLE d   1       8.197  14.611  24.345  0.00  0.00     0.086 H 
ATOM    127  CZ3 DTR d   1       9.641  12.301  22.273  0.00  0.00    -0.082 A 
ATOM    128  H64 DLE d   1      10.277  13.294  24.077  0.00  0.00     0.083 H 
ATOM    129  CE3 DTR d   1       8.632  12.143  21.312  0.00  0.00    -0.070 A 
ATOM    130  H65 DLE d   1      10.559  11.731  22.183  0.00  0.00     0.083 H 
ATOM    131  H66 DLE d   1       8.765  11.458  20.483  0.00  0.00     0.084 H 
ENDBRANCH 114 117
ENDBRANCH 112 114
BRANCH 112 132
ATOM    132  C   DTR d   1       5.904  10.075  20.558  0.00  0.00     0.241 C 
ATOM    133  O   DTR d   1       6.888   9.508  20.074  0.00  0.00    -0.271 OA
ATOM    134  N   DLY d   1       5.535   9.967  21.844  0.00  0.00    -0.345 N 
ATOM    135  H67 DLE d   1       4.688  10.414  22.131  0.00  0.00     0.163 HD
BRANCH 134 136
ATOM    136  CA  DLY d   1       6.312   9.223  22.863  0.00  0.00     0.096 C 
ATOM    137  H68 DLE d   1       7.336   9.092  22.483  0.00  0.00     0.089 H 
BRANCH 136 138
ATOM    138  C   DLY d   1       6.348  10.040  24.130  0.00  0.00     0.196 C 
ATOM    139  O   DLY d   1       7.383  10.593  24.474  0.00  0.00    -0.646 OA
ATOM    140  O1  DLE d   1       5.310  10.153  24.835  0.00  0.00    -0.646 OA
ENDBRANCH 136 138
BRANCH 136 141
ATOM    141  CB  DLY d   1       5.748   7.834  23.215  0.00  0.00    -0.037 C 
ATOM    142  H69 DLE d   1       4.859   7.971  23.849  0.00  0.00     0.036 H 
ATOM    143  H70 DLE d   1       6.516   7.279  23.774  0.00  0.00     0.036 H 
BRANCH 141 144
ATOM    144  CG  DLY d   1       5.346   7.003  21.992  0.00  0.00    -0.061 C 
ATOM    145  H71 DLE d   1       5.619   7.576  21.093  0.00  0.00     0.033 H 
ATOM    146  H72 DLE d   1       4.255   6.867  22.023  0.00  0.00     0.033 H 
BRANCH 144 147
ATOM    147  CD  DLY d   1       5.986   5.615  21.873  0.00  0.00    -0.043 C 
ATOM    148  H73 DLE d   1       5.495   4.922  22.572  0.00  0.00     0.035 H 
ATOM    149  H74 DLE d   1       7.057   5.682  22.114  0.00  0.00     0.035 H 
BRANCH 147 150
ATOM    150  CE  DLY d   1       5.815   5.101  20.437  0.00  0.00     0.080 C 
ATOM    151  H75 DLE d   1       6.801   5.074  19.951  0.00  0.00     0.075 H 
ATOM    152  H76 DLE d   1       5.155   5.791  19.890  0.00  0.00     0.075 H 
BRANCH 150 153
ATOM    153  NZ  DLY d   1       5.237   3.769  20.395  0.00  0.00    -0.079 N 
ATOM    154  H77 DLE d   1       5.144   3.473  19.436  0.00  0.00     0.274 HD
ATOM    155  H78 DLE d   1       4.329   3.783  20.832  0.00  0.00     0.274 HD
ATOM    156  H79 DLE d   1       5.837   3.127  20.888  0.00  0.00     0.274 HD
ENDBRANCH 150 153
ENDBRANCH 147 150
ENDBRANCH 144 147
ENDBRANCH 141 144
ENDBRANCH 136 141
ENDBRANCH 134 136
ENDBRANCH 112 132
ENDBRANCH 110 112
ENDBRANCH  98 108
ENDBRANCH  96  98
ENDBRANCH  88  94
ENDBRANCH  86  88
ENDBRANCH   2  84
BRANCH   2 157
ATOM    157  CB  DGL d   1       4.483  14.971  14.879  0.00  0.00    -0.029 C 
ATOM    158  H41 DLE d   1       4.242  14.713  13.837  0.00  0.00     0.037 H 
ATOM    159  H42 DLE d   1       5.575  15.023  15.001  0.00  0.00     0.037 H 
BRANCH 157 160
ATOM    160  CG  DGL d   1       3.897  16.350  15.183  0.00  0.00     0.018 C 
ATOM    161  H43 DLE d   1       2.804  16.298  15.070  0.00  0.00     0.049 H 
ATOM    162  H44 DLE d   1       4.306  17.071  14.460  0.00  0.00     0.049 H 
BRANCH 160 163
ATOM    163  CD  DGL d   1       4.212  16.833  16.570  0.00  0.00     0.172 C 
ATOM    164  OE1 DGL d   1       5.352  16.643  17.045  0.00  0.00    -0.648 OA
ATOM    165  OE2 DGL d   1       3.307  17.423  17.197  0.00  0.00    -0.648 OA
ENDBRANCH 160 163
ENDBRANCH 157 160
ENDBRANCH   2 157
TORSDOF 43
