REMARK  10 active torsions:
REMARK  status: ('A' for Active; 'I' for Inactive)
REMARK    1  A    between atoms: CAA_1  and  OAZ_2 
REMARK    2  A    between atoms: OAZ_2  and  CBD_3 
REMARK    3  A    between atoms: CBC_12  and  CAV_13 
REMARK    4  A    between atoms: CAV_13  and  NBL_14 
REMARK    5  A    between atoms: NBM_20  and  CAT_21 
REMARK    6  A    between atoms: CAT_21  and  CAQ_22 
REMARK    7  A    between atoms: CAQ_22  and  NAC_23 
REMARK    8  A    between atoms: CBE_25  and  CBA_26 
REMARK       I    between atoms: CBA_26  and  NAY_28 
REMARK    9  A    between atoms: NAY_28  and  CAU_29 
REMARK   10  A    between atoms: CAU_29  and  CBB_30 
ROOT
ATOM      1  NBL KZZ d   1       4.619   0.033  -7.049  0.00  0.00    -0.063 N 
ATOM      2  CAS KZZ d   1       4.344  -1.052  -6.102  0.00  0.00     0.089 C 
ATOM      3  CAR KZZ d   1       3.659  -0.489  -4.985  0.00  0.00    -0.002 C 
ATOM      4  CAW KZZ d   1       5.269   1.064  -6.435  0.00  0.00     0.112 C 
ATOM      5  CBF KZZ d   1       4.860   1.500  -5.204  0.00  0.00     0.028 A 
ATOM      6  CBG KZZ d   1       4.051   0.710  -4.484  0.00  0.00     0.042 A 
ATOM      7  NBM KZZ d   1       3.782   1.341  -3.332  0.00  0.00    -0.271 N 
ATOM      8  NAX KZZ d   1       4.373   2.439  -3.305  0.00  0.00    -0.166 NA
ATOM      9  CBE KZZ d   1       5.055   2.608  -4.441  0.00  0.00     0.154 A 
ATOM     10  H12 KZZ d   1       3.718   0.406  -7.306  0.00  0.00     0.280 HD
ATOM     11  H13 KZZ d   1       5.288  -1.509  -5.771  0.00  0.00     0.076 H 
ATOM     12  H14 KZZ d   1       3.715  -1.817  -6.581  0.00  0.00     0.076 H 
ATOM     13  H15 KZZ d   1       3.737  -1.217  -4.164  0.00  0.00     0.044 H 
ATOM     14  H16 KZZ d   1       2.605  -0.381  -5.280  0.00  0.00     0.044 H 
ATOM     15  H17 KZZ d   1       5.205   1.927  -7.114  0.00  0.00     0.083 H 
ATOM     16  H18 KZZ d   1       6.320   0.757  -6.329  0.00  0.00     0.083 H 
ENDROOT
BRANCH   1  17
ATOM     17  CAV KZZ d   1       5.216  -0.447  -8.340  0.00  0.00     0.108 C 
ATOM     18  H10 KZZ d   1       4.465  -1.064  -8.855  0.00  0.00     0.083 H 
ATOM     19  H11 KZZ d   1       5.451   0.434  -8.955  0.00  0.00     0.083 H 
BRANCH  17  20
ATOM     20  CBC KZZ d   1       6.419  -1.230  -8.202  0.00  0.00    -0.021 A 
ATOM     21  CAJ KZZ d   1       7.626  -0.524  -8.170  0.00  0.00    -0.072 A 
ATOM     22  CAK KZZ d   1       8.854  -1.160  -8.026  0.00  0.00    -0.049 A 
ATOM     23  H5  KZZ d   1       7.603   0.556  -8.261  0.00  0.00     0.084 H 
ATOM     24  CBD KZZ d   1       8.913  -2.553  -7.911  0.00  0.00     0.079 A 
ATOM     25  H4  KZZ d   1       9.767  -0.576  -8.003  0.00  0.00     0.087 H 
ATOM     26  CBK KZZ d   1       7.721  -3.301  -7.951  0.00  0.00     0.008 A 
ATOM     27  CAP KZZ d   1       7.774  -4.702  -7.839  0.00  0.00    -0.070 A 
ATOM     28  CBJ KZZ d   1       6.470  -2.651  -8.098  0.00  0.00    -0.015 A 
ATOM     29  CAG KZZ d   1       6.613  -5.469  -7.868  0.00  0.00    -0.082 A 
ATOM     30  H6  KZZ d   1       8.735  -5.192  -7.728  0.00  0.00     0.085 H 
ATOM     31  CAF KZZ d   1       5.382  -4.842  -8.012  0.00  0.00    -0.082 A 
ATOM     32  H7  KZZ d   1       6.669  -6.548  -7.779  0.00  0.00     0.083 H 
ATOM     33  CAO KZZ d   1       5.311  -3.453  -8.126  0.00  0.00    -0.072 A 
ATOM     34  H8  KZZ d   1       4.474  -5.433  -8.036  0.00  0.00     0.083 H 
ATOM     35  H9  KZZ d   1       4.342  -2.980  -8.239  0.00  0.00     0.084 H 
BRANCH  24  36
ATOM     36  OAZ KZZ d   1      10.088  -3.264  -7.766  0.00  0.00    -0.355 OA
BRANCH  36  37
ATOM     37  CAA KZZ d   1      11.346  -2.570  -7.649  0.00  0.00     0.010 C 
ATOM     38  H1  KZZ d   1      12.160  -3.302  -7.542  0.00  0.00     0.066 H 
ATOM     39  H2  KZZ d   1      11.323  -1.916  -6.765  0.00  0.00     0.066 H 
ATOM     40  H3  KZZ d   1      11.515  -1.963  -8.550  0.00  0.00     0.066 H 
ENDBRANCH  36  37
ENDBRANCH  24  36
ENDBRANCH  17  20
ENDBRANCH   1  17
BRANCH   9  41
ATOM     41  CBA KZZ d   1       5.819   3.715  -4.711  0.00  0.00     0.272 C 
ATOM     42  OAB KZZ d   1       6.433   3.822  -5.770  0.00  0.00    -0.266 OA
ATOM     43  NAY KZZ d   1       5.910   4.662  -3.723  0.00  0.00    -0.351 N 
ATOM     44  H26 KZZ d   1       5.395   4.514  -2.879  0.00  0.00     0.163 HD
BRANCH  43  45
ATOM     45  CAU KZZ d   1       6.735   5.902  -3.836  0.00  0.00     0.020 C 
ATOM     46  H27 KZZ d   1       6.153   6.747  -3.441  0.00  0.00     0.071 H 
ATOM     47  H28 KZZ d   1       6.960   6.077  -4.898  0.00  0.00     0.071 H 
BRANCH  45  48
ATOM     48  CBB KZZ d   1       7.981   5.822  -3.109  0.00  0.00    -0.029 A 
ATOM     49  CBI KZZ d   1       8.755   6.971  -2.788  0.00  0.00    -0.018 A 
ATOM     50  CAN KZZ d   1       8.366   8.277  -3.145  0.00  0.00    -0.072 A 
ATOM     51  CBH KZZ d   1       9.961   6.829  -2.068  0.00  0.00    -0.025 A 
ATOM     52  CAE KZZ d   1       9.146   9.386  -2.806  0.00  0.00    -0.082 A 
ATOM     53  H29 KZZ d   1       7.443   8.425  -3.694  0.00  0.00     0.084 H 
ATOM     54  CAD KZZ d   1      10.332   9.221  -2.099  0.00  0.00    -0.082 A 
ATOM     55  H30 KZZ d   1       8.825  10.380  -3.096  0.00  0.00     0.083 H 
ATOM     56  CAL KZZ d   1      10.736   7.942  -1.729  0.00  0.00    -0.072 A 
ATOM     57  H31 KZZ d   1      10.937  10.082  -1.838  0.00  0.00     0.083 H 
ATOM     58  H32 KZZ d   1      11.658   7.808  -1.174  0.00  0.00     0.084 H 
ATOM     59  CAM KZZ d   1      10.410   5.567  -1.675  0.00  0.00    -0.072 A 
ATOM     60  CAH KZZ d   1       9.661   4.443  -1.995  0.00  0.00    -0.082 A 
ATOM     61  H33 KZZ d   1      11.338   5.465  -1.123  0.00  0.00     0.084 H 
ATOM     62  CAI KZZ d   1       8.469   4.567  -2.699  0.00  0.00    -0.074 A 
ATOM     63  H34 KZZ d   1      10.008   3.461  -1.694  0.00  0.00     0.083 H 
ATOM     64  H35 KZZ d   1       7.901   3.675  -2.938  0.00  0.00     0.084 H 
ENDBRANCH  45  48
ENDBRANCH  43  45
ENDBRANCH   9  41
BRANCH   7  65
ATOM     65  CAT KZZ d   1       2.921   0.829  -2.225  0.00  0.00     0.039 C 
ATOM     66  H19 KZZ d   1       3.263   1.273  -1.278  0.00  0.00     0.069 H 
ATOM     67  H20 KZZ d   1       3.024  -0.265  -2.175  0.00  0.00     0.069 H 
BRANCH  65  68
ATOM     68  CAQ KZZ d   1       1.438   1.175  -2.424  0.00  0.00     0.096 C 
ATOM     69  H21 KZZ d   1       0.873   0.818  -1.550  0.00  0.00     0.077 H 
ATOM     70  H22 KZZ d   1       1.076   0.664  -3.329  0.00  0.00     0.077 H 
BRANCH  68  71
ATOM     71  NAC KZZ d   1       1.206   2.620  -2.575  0.00  0.00    -0.078 N 
ATOM     72  H23 KZZ d   1       0.221   2.791  -2.702  0.00  0.00     0.274 HD
ATOM     73  H24 KZZ d   1       1.712   2.959  -3.378  0.00  0.00     0.274 HD
ATOM     74  H25 KZZ d   1       1.526   3.100  -1.748  0.00  0.00     0.274 HD
ENDBRANCH  68  71
ENDBRANCH  65  68
ENDBRANCH   7  65
TORSDOF 10
