REMARK WARNING: 32 MAX_TORS EXCEEDED!!!
REMARK  40 active torsions:
REMARK  status: ('A' for Active; 'I' for Inactive)
REMARK    1  A    between atoms: N_1  and  CA_2 
REMARK    2  A    between atoms: CA_2  and  C_3 
REMARK       I    between atoms: C_3  and  N_5 
REMARK    3  A    between atoms: N_5  and  CA_6 
REMARK    4  A    between atoms: CA_6  and  C_7 
REMARK       I    between atoms: C_7  and  N_9 
REMARK    5  A    between atoms: N_9  and  CA_10 
REMARK    6  A    between atoms: CA_10  and  CB_11 
REMARK    7  A    between atoms: CA_10  and  C_21 
REMARK    8  A    between atoms: CB_11  and  CG_12 
REMARK       I    between atoms: C_21  and  N_23 
REMARK    9  A    between atoms: N_23  and  CA_24 
REMARK   10  A    between atoms: CA_24  and  C_25 
REMARK   11  A    between atoms: CA_24  and  CB_27 
REMARK       I    between atoms: C_25  and  N_33 
REMARK   12  A    between atoms: CB_27  and  CG_28 
REMARK   13  A    between atoms: N_33  and  CA_34 
REMARK   14  A    between atoms: CA_34  and  C_35 
REMARK   15  A    between atoms: CA_34  and  CB_37 
REMARK       I    between atoms: C_35  and  N_41 
REMARK   16  A    between atoms: CB_37  and  CG_38 
REMARK   17  A    between atoms: N_41  and  CA_42 
REMARK   18  A    between atoms: CA_42  and  C_43 
REMARK   19  A    between atoms: CA_42  and  CB_45 
REMARK       I    between atoms: C_43  and  N_50 
REMARK   20  A    between atoms: CB_45  and  CG_46 
REMARK   21  A    between atoms: CG_46  and  CD_47 
REMARK   22  A    between atoms: N_50  and  CA_51 
REMARK   23  A    between atoms: CA_51  and  CB_52 
REMARK   24  A    between atoms: CA_51  and  C_53 
REMARK       I    between atoms: C_53  and  N_55 
REMARK   25  A    between atoms: N_55  and  CA_56 
REMARK   26  A    between atoms: CA_56  and  CB_57 
REMARK   27  A    between atoms: CA_56  and  C_60 
REMARK   28  A    between atoms: CB_57  and  CG2_58 
REMARK   29  A    between atoms: CB_57  and  OG1_59 
REMARK       I    between atoms: C_60  and  N_62 
REMARK   30  A    between atoms: N_62  and  CA_63 
REMARK   31  A    between atoms: CA_63  and  CB_64 
REMARK   32  A    between atoms: CA_63  and  C_74 
REMARK   33  A    between atoms: CB_64  and  CG_65 
REMARK       I    between atoms: C_74  and  N_76 
REMARK   34  A    between atoms: N_76  and  CA_77 
REMARK   35  A    between atoms: CA_77  and  C_78 
REMARK   36  A    between atoms: CA_77  and  CB_80 
REMARK   37  A    between atoms: CB_80  and  CG_81 
REMARK   38  A    between atoms: CG_81  and  CD_82 
REMARK   39  A    between atoms: CD_82  and  CE_83 
REMARK   40  A    between atoms: CE_83  and  NZ_84 
ROOT
ATOM      1  CA  DGL d   1      27.790   8.391  14.069  0.00  0.00     0.090 C 
ATOM      2  H31 DGL d   1      27.373   7.374  14.104  0.00  0.00     0.087 H 
ENDROOT
BRANCH   1   3
ATOM      3  N   DGL d   1      28.800   8.438  13.005  0.00  0.00    -0.346 N 
ATOM      4  C   DAS d   1      29.723   7.491  12.891  0.00  0.00     0.241 C 
ATOM      5  O   DAS d   1      29.777   6.531  13.664  0.00  0.00    -0.271 OA
ATOM      6  H30 DGL d   1      28.793   9.197  12.354  0.00  0.00     0.163 HD
BRANCH   4   7
ATOM      7  CA  DAS d   1      30.720   7.638  11.766  0.00  0.00     0.098 C 
ATOM      8  H27 DAS d   1      31.623   7.067  12.028  0.00  0.00     0.088 H 
BRANCH   7   9
ATOM      9  N   DAS d   1      31.118   9.033  11.544  0.00  0.00    -0.345 N 
ATOM     10  C   DHI d   1      31.838   9.712  12.437  0.00  0.00     0.241 C 
ATOM     11  O   DHI d   1      32.212   9.223  13.520  0.00  0.00    -0.271 OA
ATOM     12  H26 DAS d   1      30.841   9.488  10.698  0.00  0.00     0.163 HD
BRANCH  10  13
ATOM     13  CA  DHI d   1      32.182  11.138  12.074  0.00  0.00     0.094 C 
ATOM     14  H20 DHI d   1      32.457  11.681  12.990  0.00  0.00     0.088 H 
BRANCH  13  15
ATOM     15  N   DHI d   1      31.054  11.821  11.444  0.00  0.00    -0.346 N 
ATOM     16  C   DTR d   1      29.857  11.882  12.022  0.00  0.00     0.241 C 
ATOM     17  O   DTR d   1      29.611  11.363  13.113  0.00  0.00    -0.271 OA
ATOM     18  H19 DHI d   1      31.186  12.255  10.553  0.00  0.00     0.163 HD
BRANCH  16  19
ATOM     19  CA  DTR d   1      28.774  12.604  11.269  0.00  0.00     0.093 C 
ATOM     20  H10 DTR d   1      27.838  12.064  11.478  0.00  0.00     0.088 H 
BRANCH  19  21
ATOM     21  N   DTR d   1      28.959  12.581   9.827  0.00  0.00    -0.346 N 
ATOM     22  C   GLY d   1      28.947  11.431   9.168  0.00  0.00     0.236 C 
ATOM     23  O   GLY d   1      28.932  10.331   9.735  0.00  0.00    -0.272 OA
ATOM     24  H9  DTR d   1      29.096  13.438   9.330  0.00  0.00     0.163 HD
BRANCH  22  25
ATOM     25  CA  GLY d   1      28.984  11.548   7.657  0.00  0.00     0.069 C 
ATOM     26  H7  GLY d   1      27.972  11.366   7.266  0.00  0.00     0.078 H 
ATOM     27  H8  GLY d   1      29.301  12.567   7.392  0.00  0.00     0.078 H 
BRANCH  25  28
ATOM     28  N   GLY d   1      29.894  10.606   7.040  0.00  0.00    -0.351 N 
ATOM     29  C   GLY d   1      31.193  10.598   7.311  0.00  0.00     0.243 C 
ATOM     30  O   GLY d   1      31.717  11.362   8.140  0.00  0.00    -0.272 OA
ATOM     31  H6  GLY d   1      29.532   9.940   6.388  0.00  0.00     0.163 HD
BRANCH  29  32
ATOM     32  CA  GLY d   1      32.010   9.581   6.527  0.00  0.00     0.152 C 
ATOM     33  H4  GLY d   1      31.339   8.766   6.218  0.00  0.00     0.090 H 
ATOM     34  H5  GLY d   1      32.416  10.081   5.635  0.00  0.00     0.090 H 
BRANCH  32  35
ATOM     35  N   GLY d   1      33.146   8.986   7.285  0.00  0.00    -0.071 N 
ATOM     36  H1  GLY d   1      33.633   8.327   6.698  0.00  0.00     0.274 HD
ATOM     37  H2  GLY d   1      32.793   8.512   8.102  0.00  0.00     0.274 HD
ATOM     38  H3  GLY d   1      33.780   9.716   7.568  0.00  0.00     0.274 HD
ENDBRANCH  32  35
ENDBRANCH  29  32
ENDBRANCH  25  28
ENDBRANCH  22  25
ENDBRANCH  19  21
BRANCH  19  39
ATOM     39  CB  DTR d   1      28.581  14.031  11.756  0.00  0.00    -0.012 C 
ATOM     40  H11 DTR d   1      28.151  13.965  12.766  0.00  0.00     0.044 H 
ATOM     41  H12 DTR d   1      27.854  14.501  11.078  0.00  0.00     0.044 H 
BRANCH  39  42
ATOM     42  CG  DTR d   1      29.751  14.964  11.846  0.00  0.00    -0.028 A 
ATOM     43  CD1 DTR d   1      30.074  16.008  10.997  0.00  0.00    -0.015 A 
ATOM     44  NE1 DTR d   1      31.179  16.692  11.443  0.00  0.00    -0.365 N 
ATOM     45  H13 DTR d   1      29.523  16.256  10.091  0.00  0.00     0.112 H 
ATOM     46  CE2 DTR d   1      31.604  16.144  12.602  0.00  0.00     0.042 A 
ATOM     47  H14 DTR d   1      31.614  17.496  10.968  0.00  0.00     0.165 HD
ATOM     48  CZ2 DTR d   1      32.638  16.461  13.456  0.00  0.00    -0.056 A 
ATOM     49  CD2 DTR d   1      30.733  15.031  12.937  0.00  0.00    -0.002 A 
ATOM     50  CH2 DTR d   1      32.862  15.702  14.602  0.00  0.00    -0.081 A 
ATOM     51  H15 DTR d   1      33.280  17.306  13.235  0.00  0.00     0.086 H 
ATOM     52  CZ3 DTR d   1      32.019  14.629  14.913  0.00  0.00    -0.082 A 
ATOM     53  H16 DTR d   1      33.693  15.943  15.256  0.00  0.00     0.083 H 
ATOM     54  CE3 DTR d   1      30.949  14.286  14.085  0.00  0.00    -0.070 A 
ATOM     55  H17 DTR d   1      32.200  14.054  15.814  0.00  0.00     0.083 H 
ATOM     56  H18 DTR d   1      30.300  13.454  14.335  0.00  0.00     0.084 H 
ENDBRANCH  39  42
ENDBRANCH  19  39
ENDBRANCH  16  19
ENDBRANCH  13  15
BRANCH  13  57
ATOM     57  CB  DHI d   1      33.369  11.134  11.114  0.00  0.00     0.004 C 
ATOM     58  H21 DHI d   1      33.078  10.582  10.208  0.00  0.00     0.046 H 
ATOM     59  H22 DHI d   1      34.207  10.617  11.604  0.00  0.00     0.046 H 
BRANCH  57  60
ATOM     60  CG  DHI d   1      33.838  12.509  10.700  0.00  0.00     0.053 A 
ATOM     61  ND1 DHI d   1      34.518  12.739   9.572  0.00  0.00    -0.247 NA
ATOM     62  CE1 DHI d   1      34.794  14.061   9.507  0.00  0.00     0.064 A 
ATOM     63  NE2 DHI d   1      34.278  14.667  10.604  0.00  0.00    -0.359 N 
ATOM     64  H24 DHI d   1      35.340  14.557   8.706  0.00  0.00     0.143 H 
ATOM     65  CD2 DHI d   1      33.684  13.714  11.360  0.00  0.00     0.002 A 
ATOM     66  H25 DHI d   1      34.329  15.672  10.823  0.00  0.00     0.166 HD
ATOM     67  H23 DHI d   1      33.178  13.868  12.312  0.00  0.00     0.114 H 
ENDBRANCH  57  60
ENDBRANCH  13  57
ENDBRANCH  10  13
ENDBRANCH   7   9
BRANCH   7  68
ATOM     68  CB  DAS d   1      30.111   7.036  10.491  0.00  0.00     0.043 C 
ATOM     69  H28 DAS d   1      29.272   7.671  10.171  0.00  0.00     0.052 H 
ATOM     70  H29 DAS d   1      29.739   6.027  10.724  0.00  0.00     0.052 H 
BRANCH  68  71
ATOM     71  CG  DAS d   1      31.097   6.932   9.350  0.00  0.00     0.175 C 
ATOM     72  OD1 DAS d   1      30.639   6.732   8.202  0.00  0.00    -0.648 OA
ATOM     73  OD2 DAS d   1      32.317   7.031   9.588  0.00  0.00    -0.648 OA
ENDBRANCH  68  71
ENDBRANCH   7  68
ENDBRANCH   4   7
ENDBRANCH   1   3
BRANCH   1  74
ATOM     74  C   DGL d   1      28.411   8.699  15.412  0.00  0.00     0.241 C 
ATOM     75  O   DGL d   1      28.053   8.071  16.413  0.00  0.00    -0.271 OA
ATOM     76  N   DAL d   1      29.354   9.646  15.453  0.00  0.00    -0.346 N 
ATOM     77  H36 DAL d   1      29.669  10.059  14.598  0.00  0.00     0.163 HD
BRANCH  76  78
ATOM     78  CA  DAL d   1      29.938  10.093  16.722  0.00  0.00     0.086 C 
ATOM     79  H37 DAL d   1      29.111  10.300  17.418  0.00  0.00     0.086 H 
BRANCH  78  80
ATOM     80  CB  DAL d   1      30.721  11.378  16.502  0.00  0.00    -0.049 C 
ATOM     81  H38 DAL d   1      31.157  11.710  17.456  0.00  0.00     0.030 H 
ATOM     82  H39 DAL d   1      30.047  12.157  16.117  0.00  0.00     0.030 H 
ATOM     83  H40 DAL d   1      31.526  11.197  15.774  0.00  0.00     0.030 H 
ENDBRANCH  78  80
BRANCH  78  84
ATOM     84  C   DAL d   1      30.836   9.069  17.364  0.00  0.00     0.240 C 
ATOM     85  O   DAL d   1      31.158   9.200  18.546  0.00  0.00    -0.271 OA
ATOM     86  N   DTH d   1      31.275   8.071  16.595  0.00  0.00    -0.344 N 
ATOM     87  H41 DTH d   1      30.985   8.046  15.638  0.00  0.00     0.163 HD
BRANCH  86  88
ATOM     88  CA  DTH d   1      32.162   7.008  17.082  0.00  0.00     0.113 C 
ATOM     89  H42 DTH d   1      32.371   7.194  18.146  0.00  0.00     0.091 H 
BRANCH  88  90
ATOM     90  CB  DTH d   1      33.488   7.061  16.310  0.00  0.00     0.060 C 
ATOM     91  H43 DTH d   1      34.116   6.221  16.641  0.00  0.00     0.086 H 
BRANCH  90  92
ATOM     92  CG2 DTH d   1      34.222   8.359  16.617  0.00  0.00    -0.050 C 
ATOM     93  H44 DTH d   1      35.169   8.385  16.059  0.00  0.00     0.031 H 
ATOM     94  H45 DTH d   1      34.430   8.416  17.696  0.00  0.00     0.031 H 
ATOM     95  H46 DTH d   1      33.597   9.213  16.319  0.00  0.00     0.031 H 
ENDBRANCH  90  92
BRANCH  90  96
ATOM     96  OG1 DTH d   1      33.259   6.923  14.898  0.00  0.00    -0.393 OA
ATOM     97  H47 DTH d   1      34.093   6.918  14.442  0.00  0.00     0.210 HD
ENDBRANCH  90  96
ENDBRANCH  88  90
BRANCH  88  98
ATOM     98  C   DTH d   1      31.521   5.644  16.965  0.00  0.00     0.243 C 
ATOM     99  O   DTH d   1      32.216   4.627  17.044  0.00  0.00    -0.271 OA
ATOM    100  N   DTR d   1      30.195   5.601  16.804  0.00  0.00    -0.346 N 
ATOM    101  H48 DTR d   1      29.687   6.462  16.775  0.00  0.00     0.163 HD
BRANCH 100 102
ATOM    102  CA  DTR d   1      29.457   4.346  16.669  0.00  0.00     0.093 C 
ATOM    103  H49 DTR d   1      29.826   3.800  15.788  0.00  0.00     0.088 H 
BRANCH 102 104
ATOM    104  CB  DTR d   1      27.979   4.696  16.465  0.00  0.00    -0.012 C 
ATOM    105  H50 DTR d   1      27.889   5.370  15.601  0.00  0.00     0.044 H 
ATOM    106  H51 DTR d   1      27.606   5.204  17.367  0.00  0.00     0.044 H 
BRANCH 104 107
ATOM    107  CG  DTR d   1      27.144   3.475  16.216  0.00  0.00    -0.028 A 
ATOM    108  CD1 DTR d   1      26.844   2.866  15.003  0.00  0.00    -0.015 A 
ATOM    109  NE1 DTR d   1      26.053   1.772  15.205  0.00  0.00    -0.365 N 
ATOM    110  H52 DTR d   1      27.191   3.212  14.030  0.00  0.00     0.112 H 
ATOM    111  CE2 DTR d   1      25.789   1.600  16.518  0.00  0.00     0.042 A 
ATOM    112  H53 DTR d   1      25.704   1.159  14.455  0.00  0.00     0.165 HD
ATOM    113  CZ2 DTR d   1      25.057   0.677  17.258  0.00  0.00    -0.056 A 
ATOM    114  CD2 DTR d   1      26.467   2.681  17.247  0.00  0.00    -0.002 A 
ATOM    115  CH2 DTR d   1      24.993   0.799  18.652  0.00  0.00    -0.081 A 
ATOM    116  H54 DTR d   1      24.538  -0.133  16.758  0.00  0.00     0.086 H 
ATOM    117  CZ3 DTR d   1      25.645   1.836  19.331  0.00  0.00    -0.082 A 
ATOM    118  H55 DTR d   1      24.424   0.072  19.220  0.00  0.00     0.083 H 
ATOM    119  CE3 DTR d   1      26.395   2.781  18.629  0.00  0.00    -0.070 A 
ATOM    120  H56 DTR d   1      25.567   1.905  20.410  0.00  0.00     0.083 H 
ATOM    121  H57 DTR d   1      26.911   3.577  19.153  0.00  0.00     0.084 H 
ENDBRANCH 104 107
ENDBRANCH 102 104
BRANCH 102 122
ATOM    122  C   DTR d   1      29.646   3.472  17.895  0.00  0.00     0.241 C 
ATOM    123  O   DTR d   1      29.580   3.952  19.028  0.00  0.00    -0.271 OA
ATOM    124  N   DLY d   1      29.909   2.186  17.681  0.00  0.00    -0.345 N 
ATOM    125  H58 DLY d   1      30.008   1.863  16.740  0.00  0.00     0.163 HD
BRANCH 124 126
ATOM    126  CA  DLY d   1      30.059   1.222  18.785  0.00  0.00     0.096 C 
ATOM    127  H59 DLY d   1      29.772   1.717  19.725  0.00  0.00     0.089 H 
BRANCH 126 128
ATOM    128  C   DLY d   1      29.167   0.039  18.564  0.00  0.00     0.196 C 
ATOM    129  O   DLY d   1      28.953  -0.374  17.427  0.00  0.00    -0.646 OA
ATOM    130  OXT DLY d   1      28.641  -0.529  19.518  0.00  0.00    -0.646 OA
ENDBRANCH 126 128
BRANCH 126 131
ATOM    131  CB  DLY d   1      31.505   0.742  18.901  0.00  0.00    -0.037 C 
ATOM    132  H60 DLY d   1      31.802   0.275  17.950  0.00  0.00     0.036 H 
ATOM    133  H61 DLY d   1      31.570  -0.000  19.710  0.00  0.00     0.036 H 
BRANCH 131 134
ATOM    134  CG  DLY d   1      32.465   1.893  19.208  0.00  0.00    -0.061 C 
ATOM    135  H62 DLY d   1      31.890   2.717  19.655  0.00  0.00     0.033 H 
ATOM    136  H63 DLY d   1      32.917   2.231  18.264  0.00  0.00     0.033 H 
BRANCH 134 137
ATOM    137  CD  DLY d   1      33.587   1.508  20.171  0.00  0.00    -0.043 C 
ATOM    138  H64 DLY d   1      34.527   1.965  19.828  0.00  0.00     0.035 H 
ATOM    139  H65 DLY d   1      33.693   0.413  20.179  0.00  0.00     0.035 H 
BRANCH 137 140
ATOM    140  CE  DLY d   1      33.289   1.989  21.588  0.00  0.00     0.080 C 
ATOM    141  H66 DLY d   1      33.884   1.405  22.306  0.00  0.00     0.075 H 
ATOM    142  H67 DLY d   1      32.219   1.853  21.803  0.00  0.00     0.075 H 
BRANCH 140 143
ATOM    143  NZ  DLY d   1      33.631   3.393  21.707  0.00  0.00    -0.079 N 
ATOM    144  H68 DLY d   1      33.433   3.709  22.644  0.00  0.00     0.274 HD
ATOM    145  H69 DLY d   1      33.086   3.929  21.050  0.00  0.00     0.274 HD
ATOM    146  H70 DLY d   1      34.612   3.518  21.510  0.00  0.00     0.274 HD
ENDBRANCH 140 143
ENDBRANCH 137 140
ENDBRANCH 134 137
ENDBRANCH 131 134
ENDBRANCH 126 131
ENDBRANCH 124 126
ENDBRANCH 102 122
ENDBRANCH 100 102
ENDBRANCH  88  98
ENDBRANCH  86  88
ENDBRANCH  78  84
ENDBRANCH  76  78
ENDBRANCH   1  74
BRANCH   1 147
ATOM    147  CB  DGL d   1      26.654   9.368  13.782  0.00  0.00    -0.029 C 
ATOM    148  H32 DGL d   1      27.061  10.389  13.823  0.00  0.00     0.037 H 
ATOM    149  H33 DGL d   1      25.890   9.246  14.564  0.00  0.00     0.037 H 
BRANCH 147 150
ATOM    150  CG  DGL d   1      25.976   9.177  12.416  0.00  0.00     0.018 C 
ATOM    151  H34 DGL d   1      26.736   9.318  11.633  0.00  0.00     0.049 H 
ATOM    152  H35 DGL d   1      25.195   9.944  12.311  0.00  0.00     0.049 H 
BRANCH 150 153
ATOM    153  CD  DGL d   1      25.336   7.822  12.212  0.00  0.00     0.172 C 
ATOM    154  OE1 DGL d   1      25.183   7.418  11.038  0.00  0.00    -0.648 OA
ATOM    155  OE2 DGL d   1      24.936   7.139  13.180  0.00  0.00    -0.648 OA
ENDBRANCH 150 153
ENDBRANCH 147 150
ENDBRANCH   1 147
TORSDOF 40
