REMARK  6 active torsions:
REMARK  status: ('A' for Active; 'I' for Inactive)
REMARK    1  A    between atoms: OAO_24  and  CAA_1 
REMARK    2  A    between atoms: CAW_16  and  CAF_2 
REMARK    3  A    between atoms: CAQ_10  and  OAB_22 
REMARK    4  A    between atoms: NAN_21  and  CAS_12 
REMARK    5  A    between atoms: CAT_13  and  OAC_23 
REMARK    6  A    between atoms: CAU_14  and  OAO_24 
ROOT
ATOM      1  CAG 8QK d   1     -17.093  15.735  49.270  0.00  0.00    -0.049 A 
ATOM      2  CAL 8QK d   1     -16.954  14.654  48.410  0.00  0.00    -0.067 A 
ATOM      3  CAM 8QK d   1     -16.465  14.132  43.746  0.00  0.00    -0.026 A 
ATOM      4  CAQ 8QK d   1     -17.091  17.003  48.701  0.00  0.00     0.080 A 
ATOM      5  CAR 8QK d   1     -16.393  12.756  43.627  0.00  0.00     0.071 A 
ATOM      6  CAT 8QK d   1     -16.472  12.016  44.791  0.00  0.00     0.110 A 
ATOM      7  CAV 8QK d   1     -16.629  12.614  46.016  0.00  0.00     0.082 A 
ATOM      8  CAW 8QK d   1     -16.978  17.144  47.317  0.00  0.00     0.049 A 
ATOM      9  CAX 8QK d   1     -16.620  14.687  44.946  0.00  0.00     0.090 A 
ATOM     10  CAY 8QK d   1     -16.835  14.824  47.091  0.00  0.00     0.014 A 
ATOM     11  CAZ 8QK d   1     -16.842  16.055  46.576  0.00  0.00     0.101 A 
ATOM     12  CBA 8QK d   1     -16.699  13.955  46.077  0.00  0.00     0.035 A 
ATOM     13  OAP 8QK d   1     -16.712  15.951  45.268  0.00  0.00    -0.308 OA
ATOM     14 CL1  8QK d   1     -16.195  12.025  42.110  0.00  0.00    -0.081 Cl
ATOM     15 CL2  8QK d   1     -16.691  11.559  47.429  0.00  0.00    -0.080 Cl
ATOM     16  H5  8QK d   1     -17.199  15.596  50.340  0.00  0.00     0.087 H 
ATOM     17  H10 8QK d   1     -16.942  13.650  48.818  0.00  0.00     0.085 H 
ATOM     18  H11 8QK d   1     -16.395  14.758  42.864  0.00  0.00     0.090 H 
ENDROOT
BRANCH   8  19
ATOM     19  CAF 8QK d   1     -16.920  18.364  46.632  0.00  0.00     0.018 C 
ATOM     20  NAN 8QK d   1     -16.985  19.474  47.367  0.00  0.00    -0.260 NA
ATOM     21  H4  8QK d   1     -16.826  18.404  45.548  0.00  0.00     0.116 H 
BRANCH  20  22
ATOM     22  CAS 8QK d   1     -16.935  20.663  46.784  0.00  0.00     0.056 A 
ATOM     23  CAH 8QK d   1     -17.030  21.786  47.596  0.00  0.00    -0.053 A 
ATOM     24  CAJ 8QK d   1     -16.991  23.053  47.035  0.00  0.00    -0.049 A 
ATOM     25  H6  8QK d   1     -17.135  21.672  48.669  0.00  0.00     0.087 H 
ATOM     26  CAU 8QK d   1     -16.852  23.199  45.658  0.00  0.00     0.068 A 
ATOM     27  H8  8QK d   1     -17.069  23.929  47.668  0.00  0.00     0.087 H 
ATOM     28  CAK 8QK d   1     -16.765  22.072  44.843  0.00  0.00    -0.049 A 
ATOM     29  CAI 8QK d   1     -16.817  20.799  45.406  0.00  0.00    -0.053 A 
ATOM     30  H9  8QK d   1     -16.657  22.186  43.770  0.00  0.00     0.087 H 
ATOM     31  H7  8QK d   1     -16.766  19.920  44.773  0.00  0.00     0.087 H 
BRANCH  26  32
ATOM     32  OAO 8QK d   1     -16.821  24.445  45.104  0.00  0.00    -0.356 OA
BRANCH  32  33
ATOM     33  CAA 8QK d   1     -16.948  25.484  46.087  0.00  0.00     0.010 C 
ATOM     34  H1  8QK d   1     -16.917  26.465  45.590  0.00  0.00     0.066 H 
ATOM     35  H2  8QK d   1     -16.119  25.411  46.806  0.00  0.00     0.066 H 
ATOM     36  H3  8QK d   1     -17.905  25.372  46.618  0.00  0.00     0.066 H 
ENDBRANCH  32  33
ENDBRANCH  26  32
ENDBRANCH  20  22
ENDBRANCH   8  19
BRANCH   4  37
ATOM     37  OAB 8QK d   1     -17.227  18.118  49.469  0.00  0.00    -0.360 OA
ATOM     38  H12 8QK d   1     -16.470  18.679  49.347  0.00  0.00     0.217 HD
ENDBRANCH   4  37
BRANCH   6  39
ATOM     39  OAC 8QK d   1     -16.393  10.659  44.734  0.00  0.00    -0.357 OA
ATOM     40  H13 8QK d   1     -15.648  10.364  45.245  0.00  0.00     0.217 HD
ENDBRANCH   6  39
TORSDOF 6
