REMARK  4 active torsions:
REMARK  status: ('A' for Active; 'I' for Inactive)
REMARK    1  A    between atoms: CAR_12  and  CAA_1 
REMARK    2  A    between atoms: CAQ_11  and  CAF_2 
REMARK    3  A    between atoms: CAS_13  and  OAC_23 
REMARK    4  A    between atoms: NAN_21  and  CAT_14 
ROOT
ATOM      1  CAK 8QH d   1     -17.073  16.006  48.125  0.00  0.00    -0.036 A 
ATOM      2  CAL 8QH d   1     -16.376  11.708  46.816  0.00  0.00    -0.001 C 
ATOM      3  CAM 8QH d   1     -17.197  12.835  47.360  0.00  0.00    -0.031 C 
ATOM      4  CAP 8QH d   1     -16.530  11.528  45.467  0.00  0.00     0.164 C 
ATOM      5  CAQ 8QH d   1     -16.564  12.731  44.764  0.00  0.00     0.059 C 
ATOM      6  CAS 8QH d   1     -16.970  17.395  48.103  0.00  0.00     0.090 A 
ATOM      7  CAU 8QH d   1     -16.677  18.054  46.922  0.00  0.00     0.091 A 
ATOM      8  CAV 8QH d   1     -16.492  17.294  45.784  0.00  0.00     0.093 A 
ATOM      9  CAW 8QH d   1     -16.842  14.017  46.716  0.00  0.00    -0.010 A 
ATOM     10  CAX 8QH d   1     -16.675  13.898  45.397  0.00  0.00     0.098 A 
ATOM     11  CAY 8QH d   1     -16.885  15.326  46.992  0.00  0.00     0.011 A 
ATOM     12  CAZ 8QH d   1     -16.603  15.972  45.850  0.00  0.00     0.110 A 
ATOM     13  OAB 8QH d   1     -16.352  10.439  44.919  0.00  0.00    -0.292 OA
ATOM     14  OAO 8QH d   1     -16.467  15.090  44.902  0.00  0.00    -0.306 OA
ATOM     15 CL1  8QH d   1     -16.543  19.764  46.851  0.00  0.00    -0.079 Cl
ATOM     16 CL2  8QH d   1     -16.126  18.056  44.268  0.00  0.00    -0.079 Cl
ATOM     17  H9  8QH d   1     -17.302  15.486  49.048  0.00  0.00     0.089 H 
ATOM     18  H10 8QH d   1     -16.673  10.781  47.328  0.00  0.00     0.045 H 
ATOM     19  H11 8QH d   1     -15.316  11.917  47.022  0.00  0.00     0.045 H 
ATOM     20  H12 8QH d   1     -17.013  12.936  48.440  0.00  0.00     0.040 H 
ATOM     21  H13 8QH d   1     -18.264  12.629  47.188  0.00  0.00     0.040 H 
ENDROOT
BRANCH   5  22
ATOM     22  CAF 8QH d   1     -16.420  12.921  43.406  0.00  0.00    -0.006 C 
ATOM     23  NAN 8QH d   1     -16.317  11.948  42.501  0.00  0.00    -0.365 N 
ATOM     24  H14 8QH d   1     -16.332  10.938  42.703  0.00  0.00     0.165 HD
ATOM     25  H4  8QH d   1     -16.388  13.948  43.044  0.00  0.00     0.112 H 
BRANCH  23  26
ATOM     26  CAT 8QH d   1     -16.191  12.497  41.288  0.00  0.00     0.031 A 
ATOM     27  CAI 8QH d   1     -16.084  11.771  40.108  0.00  0.00    -0.057 A 
ATOM     28  CAG 8QH d   1     -15.958  12.451  38.896  0.00  0.00    -0.075 A 
ATOM     29  H7  8QH d   1     -16.098  10.687  40.129  0.00  0.00     0.086 H 
ATOM     30  CAR 8QH d   1     -15.948  13.844  38.860  0.00  0.00    -0.062 A 
ATOM     31  H5  8QH d   1     -15.867  11.890  37.973  0.00  0.00     0.084 H 
ATOM     32  CAH 8QH d   1     -16.061  14.573  40.028  0.00  0.00    -0.075 A 
ATOM     33  CAJ 8QH d   1     -16.188  13.891  41.222  0.00  0.00    -0.057 A 
ATOM     34  H6  8QH d   1     -16.050  15.657  40.008  0.00  0.00     0.084 H 
ATOM     35  H8  8QH d   1     -16.289  14.458  42.140  0.00  0.00     0.086 H 
BRANCH  30  36
ATOM     36  CAA 8QH d   1     -15.822  14.536  37.670  0.00  0.00    -0.051 C 
ATOM     37  H1  8QH d   1     -15.743  13.822  36.837  0.00  0.00     0.033 H 
ATOM     38  H2  8QH d   1     -14.918  15.162  37.704  0.00  0.00     0.033 H 
ATOM     39  H3  8QH d   1     -16.705  15.175  37.522  0.00  0.00     0.033 H 
ENDBRANCH  30  36
ENDBRANCH  23  26
ENDBRANCH   5  22
BRANCH   6  40
ATOM     40  OAC 8QH d   1     -17.148  18.175  49.202  0.00  0.00    -0.359 OA
ATOM     41  H15 8QH d   1     -16.355  18.670  49.369  0.00  0.00     0.217 HD
ENDBRANCH   6  40
TORSDOF 4
