REMARK  5 active torsions:
REMARK  status: ('A' for Active; 'I' for Inactive)
REMARK    1  A    between atoms: OAO_24  and  CAA_1 
REMARK    2  A    between atoms: CAW_16  and  CAF_2 
REMARK    3  A    between atoms: NAN_21  and  CAS_12 
REMARK    4  A    between atoms: CAT_13  and  OAC_23 
REMARK    5  A    between atoms: CAU_14  and  OAO_24 
ROOT
ATOM      1  CAG 8QK d   1     -17.424  15.718  49.071  0.00  0.00    -0.001 C 
ATOM      2  CAL 8QK d   1     -16.575  14.657  48.484  0.00  0.00    -0.031 C 
ATOM      3  CAM 8QK d   1     -16.403  14.044  43.730  0.00  0.00    -0.026 A 
ATOM      4  CAQ 8QK d   1     -17.052  16.968  48.656  0.00  0.00     0.164 C 
ATOM      5  CAR 8QK d   1     -16.307  12.674  43.593  0.00  0.00     0.071 A 
ATOM      6  CAT 8QK d   1     -16.308  11.926  44.751  0.00  0.00     0.110 A 
ATOM      7  CAV 8QK d   1     -16.405  12.514  45.998  0.00  0.00     0.082 A 
ATOM      8  CAW 8QK d   1     -16.772  17.041  47.288  0.00  0.00     0.059 C 
ATOM      9  CAX 8QK d   1     -16.493  14.578  44.944  0.00  0.00     0.090 A 
ATOM     10  CAY 8QK d   1     -16.649  14.706  47.087  0.00  0.00    -0.008 A 
ATOM     11  CAZ 8QK d   1     -16.642  15.936  46.556  0.00  0.00     0.098 A 
ATOM     12  CBA 8QK d   1     -16.494  13.846  46.072  0.00  0.00     0.032 A 
ATOM     13  OAB 8QK d   1     -17.281  17.976  49.325  0.00  0.00    -0.292 OA
ATOM     14  OAP 8QK d   1     -16.589  15.832  45.276  0.00  0.00    -0.308 OA
ATOM     15 CL1  8QK d   1     -16.178  11.950  42.063  0.00  0.00    -0.081 Cl
ATOM     16 CL2  8QK d   1     -16.405  11.518  47.396  0.00  0.00    -0.080 Cl
ATOM     17  H5  8QK d   1     -17.343  15.670  50.167  0.00  0.00     0.045 H 
ATOM     18  H6  8QK d   1     -18.468  15.542  48.772  0.00  0.00     0.045 H 
ATOM     19  H11 8QK d   1     -16.925  13.675  48.834  0.00  0.00     0.040 H 
ATOM     20  H12 8QK d   1     -15.532  14.808  48.800  0.00  0.00     0.040 H 
ATOM     21  H13 8QK d   1     -16.405  14.681  42.853  0.00  0.00     0.090 H 
ENDROOT
BRANCH   8  22
ATOM     22  CAF 8QK d   1     -16.734  18.251  46.614  0.00  0.00    -0.006 C 
ATOM     23  NAN 8QK d   1     -16.876  19.333  47.374  0.00  0.00    -0.365 N 
ATOM     24  H14 8QK d   1     -17.005  19.261  48.393  0.00  0.00     0.165 HD
ATOM     25  H4  8QK d   1     -16.597  18.312  45.535  0.00  0.00     0.112 H 
BRANCH  23  26
ATOM     26  CAS 8QK d   1     -16.845  20.505  46.764  0.00  0.00     0.032 A 
ATOM     27  CAH 8QK d   1     -16.674  20.596  45.384  0.00  0.00    -0.055 A 
ATOM     28  CAJ 8QK d   1     -16.726  21.842  44.764  0.00  0.00    -0.049 A 
ATOM     29  H7  8QK d   1     -16.501  19.702  44.796  0.00  0.00     0.087 H 
ATOM     30  CAU 8QK d   1     -16.989  22.986  45.517  0.00  0.00     0.068 A 
ATOM     31  H9  8QK d   1     -16.562  21.923  43.696  0.00  0.00     0.087 H 
ATOM     32  CAK 8QK d   1     -17.183  22.879  46.889  0.00  0.00    -0.049 A 
ATOM     33  CAI 8QK d   1     -17.139  21.639  47.507  0.00  0.00    -0.055 A 
ATOM     34  H10 8QK d   1     -17.370  23.769  47.479  0.00  0.00     0.087 H 
ATOM     35  H8  8QK d   1     -17.334  21.555  48.570  0.00  0.00     0.087 H 
BRANCH  30  36
ATOM     36  OAO 8QK d   1     -17.044  24.226  44.950  0.00  0.00    -0.356 OA
BRANCH  36  37
ATOM     37  CAA 8QK d   1     -16.834  24.207  43.534  0.00  0.00     0.010 C 
ATOM     38  H1  8QK d   1     -16.891  25.233  43.141  0.00  0.00     0.066 H 
ATOM     39  H2  8QK d   1     -17.608  23.588  43.057  0.00  0.00     0.066 H 
ATOM     40  H3  8QK d   1     -15.842  23.785  43.316  0.00  0.00     0.066 H 
ENDBRANCH  36  37
ENDBRANCH  30  36
ENDBRANCH  23  26
ENDBRANCH   8  22
BRANCH   6  41
ATOM     41  OAC 8QK d   1     -16.216  10.574  44.663  0.00  0.00    -0.357 OA
ATOM     42  H15 8QK d   1     -15.440  10.280  45.126  0.00  0.00     0.217 HD
ENDBRANCH   6  41
TORSDOF 5
