REMARK  11 active torsions:
REMARK  status: ('A' for Active; 'I' for Inactive)
REMARK    1  A    between atoms: C4_3  and  C10_25 
REMARK    2  A    between atoms: N11_33  and  C12_5 
REMARK    3  A    between atoms: C15_8  and  S27_37 
REMARK    4  A    between atoms: C16_9  and  O31_34 
REMARK    5  A    between atoms: C25_17  and  C26_16 
REMARK    6  A    between atoms: C25_17  and  C39_18 
REMARK    7  A    between atoms: C24_19  and  C25_17 
REMARK       I    between atoms: N23_21  and  C24_19 
REMARK    8  A    between atoms: C20_22  and  N23_21 
REMARK    9  A    between atoms: C9_31  and  N11_33 
REMARK   10  A    between atoms: O31_34  and  C32_35 
REMARK   11  A    between atoms: S27_37  and  C30_38 
ROOT
ATOM      1  C1  8QW d   1      36.271  43.667  37.041  0.00  0.00     0.170 A 
ATOM      2  C2  8QW d   1      37.393  41.928  35.872  0.00  0.00    -0.067 A 
ATOM      3  C4  8QW d   1      37.641  41.263  37.068  0.00  0.00    -0.008 A 
ATOM      4  C6  8QW d   1      37.170  41.833  38.244  0.00  0.00     0.017 A 
ATOM      5  N5  8QW d   1      36.543  43.014  38.184  0.00  0.00    -0.210 N 
ATOM      6  C3  8QW d   1      36.685  43.118  35.850  0.00  0.00    -0.035 A 
ATOM      7  N8  8QW d   1      35.570  44.792  37.385  0.00  0.00    -0.042 NA
ATOM      8  C9  8QW d   1      35.475  44.705  38.737  0.00  0.00     0.746 A 
ATOM      9  N7  8QW d   1      36.038  43.604  39.302  0.00  0.00     0.027 NA
ATOM     10  H1  8QW d   1      37.761  41.506  34.938  0.00  0.00     0.085 H 
ATOM     11  H2  8QW d   1      37.309  41.328  39.199  0.00  0.00     0.116 H 
ATOM     12  H18 8QW d   1      36.460  43.611  34.905  0.00  0.00     0.089 H 
ENDROOT
BRANCH   3  13
ATOM     13  C10 8QW d   1      38.355  39.939  37.127  0.00  0.00    -0.024 A 
ATOM     14  C21 8QW d   1      39.116  39.528  38.231  0.00  0.00    -0.070 A 
ATOM     15  C22 8QW d   1      39.724  38.260  38.258  0.00  0.00    -0.056 A 
ATOM     16  H15 8QW d   1      39.237  40.197  39.075  0.00  0.00     0.084 H 
ATOM     17  C20 8QW d   1      39.570  37.382  37.137  0.00  0.00     0.034 A 
ATOM     18  H14 8QW d   1      40.304  37.950  39.120  0.00  0.00     0.086 H 
ATOM     19  C18 8QW d   1      38.847  37.797  36.017  0.00  0.00    -0.056 A 
ATOM     20  C19 8QW d   1      38.223  39.060  36.042  0.00  0.00    -0.070 A 
ATOM     21  H17 8QW d   1      38.767  37.159  35.144  0.00  0.00     0.086 H 
ATOM     22  H16 8QW d   1      37.620  39.363  35.194  0.00  0.00     0.084 H 
BRANCH  17  23
ATOM     23  N23 8QW d   1      40.134  36.121  36.990  0.00  0.00    -0.327 N 
ATOM     24  C24 8QW d   1      40.973  35.527  37.846  0.00  0.00     0.230 C 
ATOM     25  O33 8QW d   1      41.351  36.055  38.878  0.00  0.00    -0.272 OA
ATOM     26  H13 8QW d   1      39.890  35.609  36.166  0.00  0.00     0.169 HD
BRANCH  24  27
ATOM     27  C25 8QW d   1      41.481  34.124  37.489  0.00  0.00     0.046 C 
ATOM     28  H9  8QW d   1      40.894  33.723  36.650  0.00  0.00     0.061 H 
BRANCH  27  29
ATOM     29  C26 8QW d   1      42.891  34.250  37.040  0.00  0.00    -0.045 A 
ATOM     30  C37 8QW d   1      43.164  34.603  35.719  0.00  0.00    -0.073 A 
ATOM     31  C38 8QW d   1      44.484  34.734  35.314  0.00  0.00    -0.045 A 
ATOM     32  H6  8QW d   1      42.355  34.773  35.018  0.00  0.00     0.084 H 
ATOM     33  C36 8QW d   1      45.515  34.554  36.256  0.00  0.00     0.116 A 
ATOM     34  H5  8QW d   1      44.719  34.972  34.283  0.00  0.00     0.088 H 
ATOM     35  F40 8QW d   1      46.794  34.654  35.929  0.00  0.00    -0.206 F 
ATOM     36  C34 8QW d   1      45.260  34.187  37.537  0.00  0.00    -0.045 A 
ATOM     37  C35 8QW d   1      43.949  34.072  37.938  0.00  0.00    -0.073 A 
ATOM     38  H7  8QW d   1      46.071  33.989  38.229  0.00  0.00     0.088 H 
ATOM     39  H8  8QW d   1      43.731  33.838  38.974  0.00  0.00     0.084 H 
ENDBRANCH  27  29
BRANCH  27  40
ATOM     40  C39 8QW d   1      41.243  33.209  38.720  0.00  0.00    -0.061 C 
ATOM     41  H10 8QW d   1      41.598  32.192  38.495  0.00  0.00     0.029 H 
ATOM     42  H11 8QW d   1      40.168  33.179  38.952  0.00  0.00     0.029 H 
ATOM     43  H12 8QW d   1      41.794  33.607  39.585  0.00  0.00     0.029 H 
ENDBRANCH  27  40
ENDBRANCH  24  27
ENDBRANCH  17  23
ENDBRANCH   3  13
BRANCH   8  44
ATOM     44  N11 8QW d   1      34.783  45.680  39.400  0.00  0.00    -0.184 N 
ATOM     45  H19 8QW d   1      34.424  46.456  38.825  0.00  0.00     0.184 HD
BRANCH  44  46
ATOM     46  C12 8QW d   1      34.514  45.743  40.732  0.00  0.00     0.082 A 
ATOM     47  C14 8QW d   1      34.542  44.667  41.627  0.00  0.00    -0.052 A 
ATOM     48  C13 8QW d   1      34.375  44.858  42.993  0.00  0.00    -0.060 A 
ATOM     49  H4  8QW d   1      34.697  43.664  41.246  0.00  0.00     0.087 H 
ATOM     50  C15 8QW d   1      34.111  46.159  43.480  0.00  0.00     0.061 A 
ATOM     51  H3  8QW d   1      34.446  44.020  43.677  0.00  0.00     0.085 H 
ATOM     52  C17 8QW d   1      34.063  47.269  42.623  0.00  0.00    -0.028 A 
ATOM     53  C16 8QW d   1      34.271  47.111  41.266  0.00  0.00     0.096 A 
ATOM     54  H23 8QW d   1      33.862  48.255  43.027  0.00  0.00     0.090 H 
BRANCH  50  55
ATOM     55  S27 8QW d   1      33.908  46.454  45.051  0.00  0.00     0.172 S 
ATOM     56  O29 8QW d   1      32.915  47.473  45.086  0.00  0.00    -0.223 OA
ATOM     57  O28 8QW d   1      33.483  45.312  45.828  0.00  0.00    -0.223 OA
BRANCH  55  58
ATOM     58  C30 8QW d   1      35.388  46.846  45.686  0.00  0.00     0.020 C 
ATOM     59  H24 8QW d   1      35.282  47.054  46.761  0.00  0.00     0.049 H 
ATOM     60  H25 8QW d   1      35.781  47.739  45.177  0.00  0.00     0.049 H 
ATOM     61  H26 8QW d   1      36.083  46.006  45.541  0.00  0.00     0.049 H 
ENDBRANCH  55  58
ENDBRANCH  50  55
BRANCH  53  62
ATOM     62  O31 8QW d   1      34.225  48.135  40.356  0.00  0.00    -0.354 OA
BRANCH  62  63
ATOM     63  C32 8QW d   1      34.244  49.521  40.688  0.00  0.00     0.010 C 
ATOM     64  H20 8QW d   1      34.197  50.120  39.766  0.00  0.00     0.066 H 
ATOM     65  H21 8QW d   1      35.172  49.755  41.230  0.00  0.00     0.066 H 
ATOM     66  H22 8QW d   1      33.378  49.758  41.324  0.00  0.00     0.066 H 
ENDBRANCH  62  63
ENDBRANCH  53  62
ENDBRANCH  44  46
ENDBRANCH   8  44
TORSDOF 11
