REMARK  11 active torsions:
REMARK  status: ('A' for Active; 'I' for Inactive)
REMARK    1  A    between atoms: C15_8  and  C17_5 
REMARK    2  A    between atoms: C15_8  and  C16_9 
REMARK    3  A    between atoms: C14_15  and  C15_8 
REMARK    4  A    between atoms: C13_16  and  C14_15 
REMARK       I    between atoms: N4_18  and  C13_16 
REMARK    5  A    between atoms: C8_23  and  O2_24 
REMARK    6  A    between atoms: C7_25  and  C8_23 
REMARK    7  A    between atoms: N1_26  and  C7_25 
REMARK    8  A    between atoms: N3_30  and  C5_31 
REMARK    9  A    between atoms: C4_32  and  C6_34 
REMARK   10  A    between atoms: C20_37  and  C23_38 
REMARK   11  A    between atoms: C23_38  and  N5_39 
ROOT
ATOM      1  C13 8QQ d   1      27.601  14.199 -12.314  0.00  0.00     0.220 C 
ATOM      2  O1  8QQ d   1      26.434  14.083 -12.171  0.00  0.00    -0.273 OA
ATOM      3  N4  8QQ d   1      28.370  14.431 -11.219  0.00  0.00    -0.352 N 
ATOM      4  C10 8QQ d   1      27.814  14.427  -9.865  0.00  0.00     0.000 C 
ATOM      5  C9  8QQ d   1      28.541  13.340  -9.080  0.00  0.00    -0.020 C 
ATOM      6  C11 8QQ d   1      29.818  14.713 -11.224  0.00  0.00     0.000 C 
ATOM      7  C12 8QQ d   1      30.599  13.692 -10.433  0.00  0.00    -0.020 C 
ATOM      8  C8  8QQ d   1      30.051  13.594  -8.962  0.00  0.00     0.077 C 
ATOM      9  H9  8QQ d   1      26.736  14.209  -9.901  0.00  0.00     0.064 H 
ATOM     10  H10 8QQ d   1      27.974  15.406  -9.389  0.00  0.00     0.064 H 
ATOM     11  H11 8QQ d   1      28.386  12.377  -9.589  0.00  0.00     0.040 H 
ATOM     12  H12 8QQ d   1      28.113  13.293  -8.068  0.00  0.00     0.040 H 
ATOM     13  H13 8QQ d   1      29.987  15.707 -10.784  0.00  0.00     0.064 H 
ATOM     14  H14 8QQ d   1      30.177  14.706 -12.264  0.00  0.00     0.064 H 
ATOM     15  H15 8QQ d   1      31.658  13.989 -10.405  0.00  0.00     0.040 H 
ATOM     16  H16 8QQ d   1      30.506  12.710 -10.919  0.00  0.00     0.040 H 
ENDROOT
BRANCH   8  17
ATOM     17  O2  8QQ d   1      30.183  14.895  -8.365  0.00  0.00    -0.388 OA
ATOM     18  H17 8QQ d   1      31.098  15.150  -8.363  0.00  0.00     0.210 HD
ENDBRANCH   8  17
BRANCH   8  19
ATOM     19  C7  8QQ d   1      30.766  12.475  -8.158  0.00  0.00     0.032 C 
ATOM     20  H18 8QQ d   1      30.657  11.511  -8.676  0.00  0.00     0.069 H 
ATOM     21  H19 8QQ d   1      30.333  12.400  -7.149  0.00  0.00     0.069 H 
BRANCH  19  22
ATOM     22  N1  8QQ d   1      32.175  12.839  -8.071  0.00  0.00    -0.304 N 
ATOM     23  C2  8QQ d   1      32.549  13.765  -7.084  0.00  0.00     0.069 A 
ATOM     24  N   8QQ d   1      33.756  14.234  -6.923  0.00  0.00    -0.239 NA
ATOM     25  H20 8QQ d   1      31.775  14.117  -6.403  0.00  0.00     0.143 H 
ATOM     26  C1  8QQ d   1      34.735  13.774  -7.884  0.00  0.00     0.123 A 
ATOM     27  C   8QQ d   1      34.445  12.870  -8.859  0.00  0.00     0.176 A 
ATOM     28  C4  8QQ d   1      36.063  14.071  -7.981  0.00  0.00     0.094 A 
ATOM     29  C3  8QQ d   1      33.095  12.358  -9.022  0.00  0.00     0.281 A 
ATOM     30  N2  8QQ d   1      35.551  12.642  -9.572  0.00  0.00    -0.164 NA
ATOM     31  O   8QQ d   1      32.788  11.567  -9.906  0.00  0.00    -0.265 OA
ATOM     32  N3  8QQ d   1      36.480  13.334  -9.041  0.00  0.00    -0.270 N 
BRANCH  32  33
ATOM     33  C5  8QQ d   1      37.854  13.335  -9.583  0.00  0.00     0.003 C 
ATOM     34  H21 8QQ d   1      38.488  13.997  -8.974  0.00  0.00     0.059 H 
ATOM     35  H22 8QQ d   1      37.838  13.696 -10.622  0.00  0.00     0.059 H 
ATOM     36  H23 8QQ d   1      38.260  12.313  -9.556  0.00  0.00     0.059 H 
ENDBRANCH  32  33
BRANCH  28  37
ATOM     37  C6  8QQ d   1      36.834  15.023  -7.107  0.00  0.00    -0.005 A 
ATOM     38  C22 8QQ d   1      36.323  16.294  -6.858  0.00  0.00    -0.070 A 
ATOM     39  C21 8QQ d   1      37.010  17.214  -6.068  0.00  0.00    -0.074 A 
ATOM     40  H24 8QQ d   1      35.369  16.575  -7.289  0.00  0.00     0.084 H 
ATOM     41  C20 8QQ d   1      38.241  16.855  -5.517  0.00  0.00    -0.033 A 
ATOM     42  H25 8QQ d   1      36.593  18.197  -5.884  0.00  0.00     0.084 H 
ATOM     43  C19 8QQ d   1      38.774  15.592  -5.759  0.00  0.00    -0.074 A 
ATOM     44  C18 8QQ d   1      38.083  14.699  -6.547  0.00  0.00    -0.070 A 
ATOM     45  H31 8QQ d   1      39.729  15.313  -5.329  0.00  0.00     0.084 H 
ATOM     46  H32 8QQ d   1      38.512  13.723  -6.740  0.00  0.00     0.084 H 
BRANCH  41  47
ATOM     47  C23 8QQ d   1      39.014  17.781  -4.616  0.00  0.00     0.103 C 
ATOM     48  H26 8QQ d   1      38.831  18.830  -4.892  0.00  0.00     0.082 H 
ATOM     49  H27 8QQ d   1      40.092  17.569  -4.677  0.00  0.00     0.082 H 
BRANCH  47  50
ATOM     50  N5  8QQ d   1      38.506  17.506  -3.251  0.00  0.00    -0.075 N 
ATOM     51  H28 8QQ d   1      38.984  18.097  -2.589  0.00  0.00     0.274 HD
ATOM     52  H29 8QQ d   1      38.672  16.539  -3.019  0.00  0.00     0.274 HD
ATOM     53  H30 8QQ d   1      37.517  17.695  -3.216  0.00  0.00     0.274 HD
ENDBRANCH  47  50
ENDBRANCH  41  47
ENDBRANCH  28  37
ENDBRANCH  19  22
ENDBRANCH   8  19
BRANCH   1  54
ATOM     54  C14 8QQ d   1      28.108  14.078 -13.749  0.00  0.00     0.025 C 
ATOM     55  H7  8QQ d   1      27.544  14.771 -14.391  0.00  0.00     0.048 H 
ATOM     56  H8  8QQ d   1      29.176  14.338 -13.778  0.00  0.00     0.048 H 
BRANCH  54  57
ATOM     57  C15 8QQ d   1      27.924  12.647 -14.268  0.00  0.00     0.073 C 
ATOM     58  H1  8QQ d   1      26.854  12.403 -14.193  0.00  0.00     0.061 H 
BRANCH  57  59
ATOM     59  C17 8QQ d   1      28.295  12.631 -15.790  0.00  0.00     0.395 C 
ATOM     60  F2  8QQ d   1      28.046  11.393 -16.231  0.00  0.00    -0.170 F 
ATOM     61  F   8QQ d   1      29.560  12.982 -16.029  0.00  0.00    -0.170 F 
ATOM     62  F1  8QQ d   1      27.540  13.541 -16.381  0.00  0.00    -0.170 F 
ENDBRANCH  57  59
BRANCH  57  63
ATOM     63  C16 8QQ d   1      28.653  11.614 -13.429  0.00  0.00    -0.045 A 
ATOM     64  C28 8QQ d   1      27.878  10.826 -12.575  0.00  0.00    -0.076 A 
ATOM     65  C27 8QQ d   1      28.466   9.895 -11.731  0.00  0.00    -0.082 A 
ATOM     66  H2  8QQ d   1      26.800  10.944 -12.572  0.00  0.00     0.084 H 
ATOM     67  C26 8QQ d   1      29.825   9.706 -11.724  0.00  0.00    -0.083 A 
ATOM     68  H3  8QQ d   1      27.842   9.308 -11.067  0.00  0.00     0.083 H 
ATOM     69  C25 8QQ d   1      30.604  10.494 -12.563  0.00  0.00    -0.082 A 
ATOM     70  H4  8QQ d   1      30.279   8.961 -11.081  0.00  0.00     0.083 H 
ATOM     71  C24 8QQ d   1      30.035  11.434 -13.384  0.00  0.00    -0.076 A 
ATOM     72  H5  8QQ d   1      31.680  10.363 -12.569  0.00  0.00     0.083 H 
ATOM     73  H6  8QQ d   1      30.672  12.049 -14.010  0.00  0.00     0.084 H 
ENDBRANCH  57  63
ENDBRANCH  54  57
ENDBRANCH   1  54
TORSDOF 11
