REMARK  23 active torsions:
REMARK  status: ('A' for Active; 'I' for Inactive)
REMARK    1  A    between atoms: C45_2  and  C47_3 
REMARK       I    between atoms: C45_2  and  N44_6 
REMARK    2  A    between atoms: C47_3  and  O48_4 
REMARK    3  A    between atoms: O48_4  and  C49_5 
REMARK    4  A    between atoms: N41_11  and  C40_12 
REMARK    5  A    between atoms: C54_16  and  O55_17 
REMARK    6  A    between atoms: O55_17  and  C56_18 
REMARK    7  A    between atoms: C37_19  and  N36_20 
REMARK    8  A    between atoms: N36_20  and  C35_21 
REMARK    9  A    between atoms: C9_28  and  C10_34 
REMARK       I    between atoms: C10_34  and  N12_36 
REMARK   10  A    between atoms: C29_38  and  C30_39 
REMARK   11  A    between atoms: C30_39  and  C31_40 
REMARK   12  A    between atoms: N17_42  and  C18_46 
REMARK   13  A    between atoms: C14_43  and  C15_44 
REMARK   14  A    between atoms: C15_44  and  C16_45 
REMARK   15  A    between atoms: C18_46  and  C19_47 
REMARK   16  A    between atoms: C19_47  and  O20_48 
REMARK   17  A    between atoms: O20_48  and  C21_49 
REMARK   18  A    between atoms: C21_49  and  C22_50 
REMARK   19  A    between atoms: C22_50  and  O23_51 
REMARK   20  A    between atoms: O23_51  and  C24_52 
REMARK   21  A    between atoms: C24_52  and  C25_53 
REMARK   22  A    between atoms: C25_53  and  O26_54 
REMARK   23  A    between atoms: O26_54  and  C27_55 
ROOT
ATOM      1  C35 8QZ d   1      34.809  45.704  38.307  0.00  0.00     0.728 A 
ATOM      2  N1  8QZ d   1      35.040  45.692  36.966  0.00  0.00    -0.074 NA
ATOM      3  N34 8QZ d   1      35.398  44.762  39.083  0.00  0.00    -0.043 NA
ATOM      4  C4  8QZ d   1      36.208  43.804  38.568  0.00  0.00     0.165 A 
ATOM      5  N5  8QZ d   1      36.697  42.874  39.389  0.00  0.00    -0.305 N 
ATOM      6  C33 8QZ d   1      36.354  42.809  40.653  0.00  0.00    -0.012 A 
ATOM      7  C32 8QZ d   1      37.007  41.709  41.155  0.00  0.00    -0.050 A 
ATOM      8  C9  8QZ d   1      37.739  41.080  40.156  0.00  0.00     0.060 A 
ATOM      9  C6  8QZ d   1      37.476  41.895  38.927  0.00  0.00     0.056 A 
ATOM     10  C7  8QZ d   1      37.976  41.765  37.494  0.00  0.00    -0.055 C 
ATOM     11  C8  8QZ d   1      37.304  42.723  36.490  0.00  0.00    -0.066 C 
ATOM     12  C3  8QZ d   1      36.430  43.803  37.105  0.00  0.00     0.029 A 
ATOM     13  C2  8QZ d   1      35.803  44.777  36.354  0.00  0.00     0.035 A 
ATOM     14  H21 8QZ d   1      35.691  43.485  41.192  0.00  0.00     0.112 H 
ATOM     15  H22 8QZ d   1      36.958  41.377  42.191  0.00  0.00     0.087 H 
ATOM     16  H23 8QZ d   1      38.743  41.056  37.203  0.00  0.00     0.087 H 
ATOM     17  H24 8QZ d   1      37.445  42.632  35.419  0.00  0.00     0.085 H 
ATOM     18  H25 8QZ d   1      35.927  44.801  35.277  0.00  0.00     0.117 H 
ENDROOT
BRANCH   8  19
ATOM     19  C10 8QZ d   1      38.575  39.820  40.286  0.00  0.00     0.258 C 
ATOM     20  O11 8QZ d   1      39.210  39.489  39.286  0.00  0.00    -0.267 OA
ATOM     21  N12 8QZ d   1      38.520  39.158  41.502  0.00  0.00    -0.319 N 
ATOM     22  C13 8QZ d   1      39.261  38.032  41.693  0.00  0.00     0.086 A 
ATOM     23  H26 8QZ d   1      37.938  39.506  42.237  0.00  0.00     0.169 HD
ATOM     24  C29 8QZ d   1      40.666  38.038  42.127  0.00  0.00     0.083 A 
ATOM     25  C14 8QZ d   1      39.025  36.748  41.008  0.00  0.00     0.059 A 
ATOM     26  N28 8QZ d   1      41.175  36.820  41.852  0.00  0.00    -0.175 NA
ATOM     27  N17 8QZ d   1      40.184  36.072  41.177  0.00  0.00    -0.269 N 
BRANCH  24  28
ATOM     28  C30 8QZ d   1      41.374  39.137  42.844  0.00  0.00    -0.024 C 
ATOM     29  H27 8QZ d   1      42.377  38.799  43.145  0.00  0.00     0.042 H 
ATOM     30  H28 8QZ d   1      40.801  39.427  43.737  0.00  0.00     0.042 H 
BRANCH  28  31
ATOM     31  C31 8QZ d   1      41.492  40.309  41.916  0.00  0.00    -0.071 C 
ATOM     32  H29 8QZ d   1      42.013  41.131  42.428  0.00  0.00     0.028 H 
ATOM     33  H30 8QZ d   1      40.487  40.642  41.616  0.00  0.00     0.028 H 
ATOM     34  H31 8QZ d   1      42.062  40.014  41.023  0.00  0.00     0.028 H 
ENDBRANCH  28  31
ENDBRANCH  24  28
BRANCH  27  35
ATOM     35  C18 8QZ d   1      40.629  34.704  40.812  0.00  0.00     0.037 C 
ATOM     36  H37 8QZ d   1      39.733  34.070  40.744  0.00  0.00     0.070 H 
ATOM     37  H38 8QZ d   1      41.277  34.338  41.622  0.00  0.00     0.070 H 
BRANCH  35  38
ATOM     38  C19 8QZ d   1      41.409  34.555  39.485  0.00  0.00     0.036 C 
ATOM     39  H39 8QZ d   1      40.677  34.473  38.668  0.00  0.00     0.076 H 
ATOM     40  H40 8QZ d   1      42.002  33.630  39.541  0.00  0.00     0.076 H 
BRANCH  38  41
ATOM     41  O20 8QZ d   1      42.304  35.639  39.174  0.00  0.00    -0.387 OA
BRANCH  41  42
ATOM     42  C21 8QZ d   1      43.672  35.516  39.594  0.00  0.00     0.039 C 
ATOM     43  H41 8QZ d   1      43.687  35.049  40.590  0.00  0.00     0.077 H 
ATOM     44  H42 8QZ d   1      44.106  36.525  39.656  0.00  0.00     0.077 H 
BRANCH  42  45
ATOM     45  C22 8QZ d   1      44.550  34.668  38.648  0.00  0.00     0.039 C 
ATOM     46  H43 8QZ d   1      44.063  33.691  38.510  0.00  0.00     0.077 H 
ATOM     47  H44 8QZ d   1      45.531  34.525  39.125  0.00  0.00     0.077 H 
BRANCH  45  48
ATOM     48  O23 8QZ d   1      44.762  35.256  37.344  0.00  0.00    -0.387 OA
BRANCH  48  49
ATOM     49  C24 8QZ d   1      43.882  34.810  36.279  0.00  0.00     0.039 C 
ATOM     50  H45 8QZ d   1      43.346  33.915  36.627  0.00  0.00     0.077 H 
ATOM     51  H46 8QZ d   1      44.500  34.551  35.407  0.00  0.00     0.077 H 
BRANCH  49  52
ATOM     52  C25 8QZ d   1      42.838  35.859  35.838  0.00  0.00     0.039 C 
ATOM     53  H47 8QZ d   1      42.917  35.968  34.746  0.00  0.00     0.077 H 
ATOM     54  H48 8QZ d   1      43.099  36.812  36.322  0.00  0.00     0.077 H 
BRANCH  52  55
ATOM     55  O26 8QZ d   1      41.450  35.575  36.150  0.00  0.00    -0.394 OA
BRANCH  55  56
ATOM     56  C27 8QZ d   1      40.503  36.422  35.470  0.00  0.00     0.004 C 
ATOM     57  H49 8QZ d   1      39.481  36.139  35.763  0.00  0.00     0.066 H 
ATOM     58  H50 8QZ d   1      40.619  36.302  34.383  0.00  0.00     0.066 H 
ATOM     59  H51 8QZ d   1      40.686  37.471  35.745  0.00  0.00     0.066 H 
ENDBRANCH  55  56
ENDBRANCH  52  55
ENDBRANCH  49  52
ENDBRANCH  48  49
ENDBRANCH  45  48
ENDBRANCH  42  45
ENDBRANCH  41  42
ENDBRANCH  38  41
ENDBRANCH  35  38
ENDBRANCH  27  35
BRANCH  25  60
ATOM     60  C15 8QZ d   1      37.753  36.273  40.351  0.00  0.00    -0.026 C 
ATOM     61  H32 8QZ d   1      37.729  35.173  40.348  0.00  0.00     0.041 H 
ATOM     62  H33 8QZ d   1      37.713  36.644  39.316  0.00  0.00     0.041 H 
BRANCH  60  63
ATOM     63  C16 8QZ d   1      36.562  36.804  41.127  0.00  0.00    -0.071 C 
ATOM     64  H34 8QZ d   1      35.632  36.460  40.651  0.00  0.00     0.028 H 
ATOM     65  H35 8QZ d   1      36.587  37.904  41.130  0.00  0.00     0.028 H 
ATOM     66  H36 8QZ d   1      36.604  36.433  42.162  0.00  0.00     0.028 H 
ENDBRANCH  60  63
ENDBRANCH  25  60
ENDBRANCH   8  19
BRANCH   1  67
ATOM     67  N36 8QZ d   1      34.013  46.707  38.807  0.00  0.00    -0.185 N 
ATOM     68  H20 8QZ d   1      33.463  47.256  38.131  0.00  0.00     0.184 HD
BRANCH  67  69
ATOM     69  C37 8QZ d   1      33.892  47.037  40.137  0.00  0.00     0.082 A 
ATOM     70  C38 8QZ d   1      34.068  46.165  41.211  0.00  0.00    -0.052 A 
ATOM     71  C39 8QZ d   1      34.037  46.609  42.537  0.00  0.00    -0.060 A 
ATOM     72  H15 8QZ d   1      34.234  45.112  41.012  0.00  0.00     0.087 H 
ATOM     73  C40 8QZ d   1      33.861  47.953  42.860  0.00  0.00     0.013 A 
ATOM     74  H14 8QZ d   1      34.153  45.886  43.337  0.00  0.00     0.086 H 
ATOM     75  C53 8QZ d   1      33.717  48.854  41.817  0.00  0.00    -0.028 A 
ATOM     76  C54 8QZ d   1      33.737  48.458  40.492  0.00  0.00     0.097 A 
ATOM     77  H16 8QZ d   1      33.584  49.905  42.047  0.00  0.00     0.090 H 
BRANCH  73  78
ATOM     78  N41 8QZ d   1      33.856  48.509  44.179  0.00  0.00    -0.281 NA
ATOM     79  C42 8QZ d   1      34.470  47.689  45.257  0.00  0.00    -0.005 C 
ATOM     80  C43 8QZ d   1      33.430  47.077  46.202  0.00  0.00    -0.003 C 
ATOM     81  H8  8QZ d   1      35.047  46.875  44.794  0.00  0.00     0.058 H 
ATOM     82  H9  8QZ d   1      35.145  48.329  45.844  0.00  0.00     0.058 H 
ATOM     83  N44 8QZ d   1      32.543  48.079  46.855  0.00  0.00    -0.249 NA
ATOM     84  H6  8QZ d   1      32.802  46.384  45.623  0.00  0.00     0.058 H 
ATOM     85  H7  8QZ d   1      33.962  46.521  46.988  0.00  0.00     0.058 H 
ATOM     86  C45 8QZ d   1      32.893  48.300  48.192  0.00  0.00     0.223 C 
ATOM     87  C51 8QZ d   1      32.502  49.329  46.059  0.00  0.00    -0.003 C 
ATOM     88  O46 8QZ d   1      32.035  48.055  49.045  0.00  0.00    -0.277 OA
ATOM     89  C52 8QZ d   1      32.504  48.976  44.571  0.00  0.00    -0.005 C 
ATOM     90  H10 8QZ d   1      33.384  49.944  46.293  0.00  0.00     0.058 H 
ATOM     91  H11 8QZ d   1      31.588  49.891  46.303  0.00  0.00     0.058 H 
ATOM     92  H12 8QZ d   1      32.238  49.866  43.982  0.00  0.00     0.058 H 
ATOM     93  H13 8QZ d   1      31.771  48.178  44.382  0.00  0.00     0.058 H 
BRANCH  86  94
ATOM     94  C47 8QZ d   1      34.276  48.826  48.619  0.00  0.00     0.088 C 
ATOM     95  H1  8QZ d   1      34.116  49.765  49.168  0.00  0.00     0.088 H 
ATOM     96  H2  8QZ d   1      34.848  49.031  47.702  0.00  0.00     0.088 H 
BRANCH  94  97
ATOM     97  O48 8QZ d   1      35.087  47.972  49.452  0.00  0.00    -0.387 OA
BRANCH  97  98
ATOM     98  C49 8QZ d   1      36.228  47.243  48.973  0.00  0.00     0.004 C 
ATOM     99  H3  8QZ d   1      36.671  46.670  49.801  0.00  0.00     0.066 H 
ATOM    100  H4  8QZ d   1      36.973  47.948  48.575  0.00  0.00     0.066 H 
ATOM    101  H5  8QZ d   1      35.914  46.553  48.176  0.00  0.00     0.066 H 
ENDBRANCH  97  98
ENDBRANCH  94  97
ENDBRANCH  86  94
ENDBRANCH  73  78
BRANCH  76 102
ATOM    102  O55 8QZ d   1      33.579  49.384  39.500  0.00  0.00    -0.354 OA
BRANCH 102 103
ATOM    103  C56 8QZ d   1      34.385  50.560  39.399  0.00  0.00     0.010 C 
ATOM    104  H17 8QZ d   1      34.070  51.146  38.523  0.00  0.00     0.066 H 
ATOM    105  H18 8QZ d   1      35.441  50.272  39.287  0.00  0.00     0.066 H 
ATOM    106  H19 8QZ d   1      34.265  51.166  40.309  0.00  0.00     0.066 H 
ENDBRANCH 102 103
ENDBRANCH  76 102
ENDBRANCH  67  69
ENDBRANCH   1  67
TORSDOF 23
