REMARK  12 active torsions:
REMARK  status: ('A' for Active; 'I' for Inactive)
REMARK    1  A    between atoms: C1_1  and  O18_9 
REMARK    2  A    between atoms: C2_2  and  N10_24 
REMARK    3  A    between atoms: C8_4  and  C17_28 
REMARK    4  A    between atoms: C11_6  and  C12_7 
REMARK    5  A    between atoms: N10_24  and  C11_6 
REMARK    6  A    between atoms: C12_7  and  C13_8 
REMARK    7  A    between atoms: O18_9  and  C19_17 
REMARK    8  A    between atoms: C22_12  and  O37_13 
REMARK    9  A    between atoms: O37_13  and  C38_14 
REMARK   10  A    between atoms: C27_31  and  C31_35 
REMARK   11  A    between atoms: C25_32  and  C30_33 
REMARK       I    between atoms: C31_35  and  N32_37 
REMARK   12  A    between atoms: N32_37  and  C34_38 
ROOT
ATOM      1  C1  8RH d   1      -0.113  37.398  45.935  0.00  0.00     0.192 A 
ATOM      2  C2  8RH d   1       0.917  35.970  47.512  0.00  0.00     0.080 A 
ATOM      3  C3  8RH d   1       0.683  37.249  47.039  0.00  0.00    -0.001 A 
ATOM      4  C8  8RH d   1      -0.864  33.920  45.281  0.00  0.00     0.088 A 
ATOM      5  C9  8RH d   1      -0.350  32.901  46.078  0.00  0.00     0.033 A 
ATOM      6  N5  8RH d   1      -0.665  36.340  45.315  0.00  0.00    -0.140 NA
ATOM      7  N6  8RH d   1      -0.409  35.072  45.773  0.00  0.00    -0.209 N 
ATOM      8  N7  8RH d   1       0.402  33.503  47.051  0.00  0.00    -0.237 NA
ATOM      9  C4  8RH d   1       0.365  34.854  46.843  0.00  0.00     0.178 A 
ATOM     10  H1  8RH d   1       1.121  38.115  47.532  0.00  0.00     0.094 H 
ATOM     11  H2  8RH d   1      -0.514  31.832  45.952  0.00  0.00     0.118 H 
ENDROOT
BRANCH   4  12
ATOM     12  C17 8RH d   1      -1.701  33.949  44.034  0.00  0.00    -0.005 A 
ATOM     13  C28 8RH d   1      -2.034  32.746  43.453  0.00  0.00    -0.070 A 
ATOM     14  C29 8RH d   1      -2.772  32.666  42.278  0.00  0.00    -0.066 A 
ATOM     15  H13 8RH d   1      -1.709  31.828  43.929  0.00  0.00     0.084 H 
ATOM     16  C27 8RH d   1      -3.197  33.796  41.632  0.00  0.00     0.037 A 
ATOM     17  H14 8RH d   1      -3.015  31.693  41.866  0.00  0.00     0.085 H 
ATOM     18  C25 8RH d   1      -2.834  35.097  42.201  0.00  0.00    -0.045 A 
ATOM     19  C26 8RH d   1      -2.079  35.112  43.373  0.00  0.00    -0.064 A 
ATOM     20  H18 8RH d   1      -1.775  36.068  43.785  0.00  0.00     0.085 H 
BRANCH  16  21
ATOM     21  C31 8RH d   1      -3.976  33.740  40.377  0.00  0.00     0.252 C 
ATOM     22  O33 8RH d   1      -5.156  33.993  40.380  0.00  0.00    -0.268 OA
ATOM     23  N32 8RH d   1      -3.333  33.463  39.215  0.00  0.00    -0.352 N 
ATOM     24  H19 8RH d   1      -2.339  33.489  39.110  0.00  0.00     0.163 HD
BRANCH  23  25
ATOM     25  C34 8RH d   1      -4.265  33.120  38.124  0.00  0.00     0.012 A 
ATOM     26  C42 8RH d   1      -4.882  31.731  38.212  0.00  0.00    -0.044 A 
ATOM     27  C41 8RH d   1      -3.788  32.031  37.168  0.00  0.00    -0.044 A 
ATOM     28  H21 8RH d   1      -5.921  31.569  37.890  0.00  0.00     0.036 H 
ATOM     29  H22 8RH d   1      -4.659  31.083  39.072  0.00  0.00     0.036 H 
ATOM     30  H23 8RH d   1      -2.783  31.598  37.282  0.00  0.00     0.036 H 
ATOM     31  H24 8RH d   1      -4.045  32.084  36.100  0.00  0.00     0.036 H 
ATOM     32  H20 8RH d   1      -4.836  33.993  37.775  0.00  0.00     0.072 H 
ENDBRANCH  23  25
ENDBRANCH  16  21
BRANCH  18  33
ATOM     33  C30 8RH d   1      -3.244  36.381  41.516  0.00  0.00    -0.050 C 
ATOM     34  H15 8RH d   1      -2.878  37.240  42.097  0.00  0.00     0.033 H 
ATOM     35  H16 8RH d   1      -4.341  36.426  41.447  0.00  0.00     0.033 H 
ATOM     36  H17 8RH d   1      -2.812  36.411  40.505  0.00  0.00     0.033 H 
ENDBRANCH  18  33
ENDBRANCH   4  12
BRANCH   1  37
ATOM     37  O18 8RH d   1      -0.398  38.643  45.517  0.00  0.00    -0.287 OA
BRANCH  37  38
ATOM     38  C19 8RH d   1      -1.061  38.894  44.358  0.00  0.00     0.119 A 
ATOM     39  C23 8RH d   1      -2.413  39.008  44.147  0.00  0.00    -0.044 A 
ATOM     40  C24 8RH d   1      -2.846  39.304  42.862  0.00  0.00    -0.045 A 
ATOM     41  H11 8RH d   1      -3.119  38.871  44.958  0.00  0.00     0.088 H 
ATOM     42  C22 8RH d   1      -1.977  39.482  41.765  0.00  0.00     0.110 A 
ATOM     43  H10 8RH d   1      -3.912  39.404  42.692  0.00  0.00     0.088 H 
ATOM     44  C20 8RH d   1      -0.546  39.358  41.957  0.00  0.00     0.190 A 
ATOM     45  F36 8RH d   1       0.346  39.512  40.967  0.00  0.00    -0.200 F 
ATOM     46  C21 8RH d   1      -0.111  39.066  43.296  0.00  0.00     0.191 A 
ATOM     47  F35 8RH d   1       1.167  38.940  43.637  0.00  0.00    -0.200 F 
BRANCH  42  48
ATOM     48  O37 8RH d   1      -2.386  39.767  40.489  0.00  0.00    -0.353 OA
BRANCH  48  49
ATOM     49  C38 8RH d   1      -1.575  40.485  39.531  0.00  0.00     0.011 C 
ATOM     50  H7  8RH d   1      -2.127  40.584  38.585  0.00  0.00     0.066 H 
ATOM     51  H8  8RH d   1      -0.641  39.932  39.354  0.00  0.00     0.066 H 
ATOM     52  H9  8RH d   1      -1.341  41.485  39.925  0.00  0.00     0.066 H 
ENDBRANCH  48  49
ENDBRANCH  42  48
ENDBRANCH  37  38
ENDBRANCH   1  37
BRANCH   2  53
ATOM     53  N10 8RH d   1       1.717  35.818  48.658  0.00  0.00    -0.386 N 
ATOM     54  H12 8RH d   1       2.683  36.159  48.765  0.00  0.00     0.159 HD
BRANCH  53  55
ATOM     55  C11 8RH d   1       0.948  35.094  49.675  0.00  0.00     0.001 C 
ATOM     56  H3  8RH d   1      -0.020  35.595  49.823  0.00  0.00     0.064 H 
ATOM     57  H4  8RH d   1       0.779  34.061  49.336  0.00  0.00     0.064 H 
BRANCH  55  58
ATOM     58  C12 8RH d   1       1.704  35.072  50.984  0.00  0.00     0.040 C 
ATOM     59  H5  8RH d   1       2.704  35.502  50.827  0.00  0.00     0.048 H 
ATOM     60  H6  8RH d   1       1.802  34.030  51.323  0.00  0.00     0.048 H 
BRANCH  58  61
ATOM     61  C13 8RH d   1       0.988  35.870  52.050  0.00  0.00     0.389 C 
ATOM     62  F16 8RH d   1       1.758  35.870  53.130  0.00  0.00    -0.171 F 
ATOM     63  F15 8RH d   1      -0.147  35.248  52.325  0.00  0.00    -0.171 F 
ATOM     64  F14 8RH d   1       0.764  37.103  51.591  0.00  0.00    -0.171 F 
ENDBRANCH  58  61
ENDBRANCH  55  58
ENDBRANCH  53  55
ENDBRANCH   2  53
TORSDOF 12
