REMARK  6 active torsions:
REMARK  status: ('A' for Active; 'I' for Inactive)
REMARK    1  A    between atoms: C19_2  and  C20_3 
REMARK    2  A    between atoms: C15_20  and  C19_2 
REMARK    3  A    between atoms: C15_20  and  C16_5 
REMARK    4  A    between atoms: C10_8  and  O11_6 
REMARK    5  A    between atoms: C12_7  and  C09_17 
REMARK       I    between atoms: N14_19  and  C12_7 
REMARK    6  A    between atoms: N14_19  and  C15_20 
ROOT
ATOM      1  C15 93W d   1      18.816 -15.033  17.321  0.00  0.00     0.100 C 
ATOM      2  H10 93W d   1      19.372 -15.958  17.531  0.00  0.00     0.090 H 
ENDROOT
BRANCH   1   3
ATOM      3  C19 93W d   1      17.311 -15.347  17.306  0.00  0.00    -0.011 C 
ATOM      4  H2  93W d   1      17.109 -15.989  16.436  0.00  0.00     0.044 H 
ATOM      5  H3  93W d   1      17.072 -15.895  18.229  0.00  0.00     0.044 H 
BRANCH   3   6
ATOM      6  C20 93W d   1      16.380 -14.140  17.224  0.00  0.00    -0.028 A 
ATOM      7  C24 93W d   1      15.876 -13.431  18.296  0.00  0.00    -0.015 A 
ATOM      8  N23 93W d   1      15.097 -12.452  17.865  0.00  0.00    -0.365 N 
ATOM      9  H1  93W d   1      16.088 -13.646  19.342  0.00  0.00     0.112 H 
ATOM     10  C22 93W d   1      15.039 -12.482  16.524  0.00  0.00     0.042 A 
ATOM     11  H11 93W d   1      14.610 -11.772  18.466  0.00  0.00     0.165 HD
ATOM     12  C21 93W d   1      15.831 -13.530  16.076  0.00  0.00    -0.002 A 
ATOM     13  C25 93W d   1      14.353 -11.651  15.622  0.00  0.00    -0.056 A 
ATOM     14  C28 93W d   1      15.950 -13.771  14.696  0.00  0.00    -0.070 A 
ATOM     15  C27 93W d   1      15.262 -12.949  13.813  0.00  0.00    -0.082 A 
ATOM     16  H15 93W d   1      16.567 -14.583  14.328  0.00  0.00     0.084 H 
ATOM     17  C26 93W d   1      14.470 -11.894  14.270  0.00  0.00    -0.081 A 
ATOM     18  H14 93W d   1      15.342 -13.130  12.747  0.00  0.00     0.083 H 
ATOM     19  H13 93W d   1      13.946 -11.264  13.560  0.00  0.00     0.083 H 
ATOM     20  H12 93W d   1      13.742 -10.832  15.983  0.00  0.00     0.086 H 
ENDBRANCH   3   6
ENDBRANCH   1   3
BRANCH   1  21
ATOM     21  C16 93W d   1      19.181 -14.048  18.419  0.00  0.00     0.197 C 
ATOM     22  O17 93W d   1      18.931 -14.384  19.598  0.00  0.00    -0.646 OA
ATOM     23  O18 93W d   1      19.734 -12.954  18.176  0.00  0.00    -0.646 OA
ENDBRANCH   1  21
BRANCH   1  24
ATOM     24  N14 93W d   1      19.112 -14.634  15.980  0.00  0.00    -0.341 N 
ATOM     25  C12 93W d   1      20.283 -15.150  15.314  0.00  0.00     0.274 C 
ATOM     26  O13 93W d   1      21.037 -15.905  15.838  0.00  0.00    -0.266 OA
ATOM     27  H9  93W d   1      18.507 -13.997  15.503  0.00  0.00     0.163 HD
BRANCH  25  28
ATOM     28  C09 93W d   1      20.333 -14.798  13.848  0.00  0.00     0.160 A 
ATOM     29  C10 93W d   1      21.188 -15.439  12.971  0.00  0.00     0.111 A 
ATOM     30  C04 93W d   1      21.154 -15.153  11.594  0.00  0.00     0.013 A 
ATOM     31  C03 93W d   1      22.038 -15.770  10.670  0.00  0.00    -0.069 A 
ATOM     32  C05 93W d   1      20.205 -14.270  11.160  0.00  0.00     0.018 A 
ATOM     33  C02 93W d   1      21.954 -15.466   9.318  0.00  0.00    -0.082 A 
ATOM     34  H7  93W d   1      22.779 -16.479  11.021  0.00  0.00     0.085 H 
ATOM     35  C01 93W d   1      20.997 -14.568   8.878  0.00  0.00    -0.082 A 
ATOM     36  H6  93W d   1      22.634 -15.929   8.611  0.00  0.00     0.083 H 
ATOM     37  C06 93W d   1      20.127 -13.972   9.782  0.00  0.00    -0.069 A 
ATOM     38  H5  93W d   1      20.926 -14.329   7.823  0.00  0.00     0.083 H 
ATOM     39  H8  93W d   1      19.381 -13.271   9.426  0.00  0.00     0.085 H 
ATOM     40  C07 93W d   1      19.337 -13.682  12.115  0.00  0.00     0.138 A 
ATOM     41  N08 93W d   1      19.410 -13.970  13.399  0.00  0.00    -0.227 NA
ATOM     42 CL1  93W d   1      18.106 -12.521  11.617  0.00  0.00    -0.061 Cl
BRANCH  29  43
ATOM     43  O11 93W d   1      22.148 -16.307  13.443  0.00  0.00    -0.357 OA
ATOM     44  H4  93W d   1      22.051 -16.404  14.383  0.00  0.00     0.217 HD
ENDBRANCH  29  43
ENDBRANCH  25  28
ENDBRANCH   1  24
TORSDOF 6
