REMARK  5 active torsions:
REMARK  status: ('A' for Active; 'I' for Inactive)
REMARK       I    between atoms: N1_12  and  C6_4 
REMARK       I    between atoms: C6_4  and  N2_13 
REMARK    1  A    between atoms: N2_13  and  C7_6 
REMARK       I    between atoms: N3_15  and  C9_8 
REMARK       I    between atoms: C9_8  and  N4_19 
REMARK    2  A    between atoms: C1_17  and  C2_18 
REMARK       I    between atoms: C1_17  and  N5_23 
REMARK    3  A    between atoms: N5_23  and  C16_24 
REMARK    4  A    between atoms: C20_28  and  O4_29 
REMARK    5  A    between atoms: O4_29  and  C21_30 
ROOT
ATOM      1  C4  8RW d   1       2.042 -12.462  -4.123  0.00  0.00    -0.048 C 
ATOM      2  C5  8RW d   1       1.256 -11.224  -3.795  0.00  0.00     0.000 C 
ATOM      3  C6  8RW d   1      -0.638 -10.336  -5.242  0.00  0.00     0.323 C 
ATOM      4  N1  8RW d   1       0.120 -11.324  -4.707  0.00  0.00    -0.320 N 
ATOM      5  N2  8RW d   1      -0.393  -9.103  -4.929  0.00  0.00    -0.307 N 
ATOM      6  C3  8RW d   1       1.052 -13.487  -4.423  0.00  0.00    -0.036 C 
ATOM      7  C2  8RW d   1      -0.133 -12.727  -4.950  0.00  0.00     0.093 C 
ATOM      8  O3  8RW d   1      -1.548 -10.575  -6.032  0.00  0.00    -0.247 OA
ATOM      9  H1  8RW d   1       2.659 -12.764  -3.264  0.00  0.00     0.035 H 
ATOM     10  H2  8RW d   1       2.689 -12.286  -4.995  0.00  0.00     0.035 H 
ATOM     11  H4  8RW d   1       1.845 -10.315  -3.990  0.00  0.00     0.064 H 
ATOM     12  H5  8RW d   1       0.926 -11.229  -2.746  0.00  0.00     0.064 H 
ATOM     13  H9  8RW d   1       0.404  -8.916  -4.355  0.00  0.00     0.170 HD
ATOM     14  H10 8RW d   1       0.783 -14.045  -3.514  0.00  0.00     0.036 H 
ATOM     15  H11 8RW d   1       1.434 -14.186  -5.182  0.00  0.00     0.036 H 
ATOM     16  H12 8RW d   1      -0.115 -12.855  -6.042  0.00  0.00     0.087 H 
ENDROOT
BRANCH   7  17
ATOM     17  C1  8RW d   1      -1.477 -13.234  -4.540  0.00  0.00     0.245 C 
ATOM     18  O1  8RW d   1      -2.013 -12.765  -3.568  0.00  0.00    -0.271 OA
ATOM     19  N5  8RW d   1      -2.023 -14.215  -5.277  0.00  0.00    -0.325 N 
ATOM     20  H16 8RW d   1      -1.475 -14.551  -6.043  0.00  0.00     0.169 HD
BRANCH  19  21
ATOM     21  C16 8RW d   1      -3.244 -14.807  -5.098  0.00  0.00     0.037 A 
ATOM     22  C17 8RW d   1      -3.648 -15.201  -3.829  0.00  0.00    -0.057 A 
ATOM     23  C18 8RW d   1      -4.848 -15.898  -3.686  0.00  0.00    -0.078 A 
ATOM     24  H17 8RW d   1      -3.040 -14.970  -2.962  0.00  0.00     0.086 H 
ATOM     25  C19 8RW d   1      -5.604 -16.227  -4.800  0.00  0.00    -0.050 A 
ATOM     26  H18 8RW d   1      -5.191 -16.184  -2.698  0.00  0.00     0.083 H 
ATOM     27  C20 8RW d   1      -5.145 -15.838  -6.054  0.00  0.00     0.080 A 
ATOM     28  H19 8RW d   1      -6.533 -16.776  -4.696  0.00  0.00     0.087 H 
ATOM     29  C22 8RW d   1      -3.943 -15.173  -6.208  0.00  0.00    -0.025 A 
ATOM     30  H20 8RW d   1      -3.562 -14.946  -7.197  0.00  0.00     0.091 H 
BRANCH  27  31
ATOM     31  O4  8RW d   1      -5.863 -16.194  -7.201  0.00  0.00    -0.255 OA
BRANCH  31  32
ATOM     32  C21 8RW d   1      -6.744 -15.304  -7.628  0.00  0.00     0.530 C 
ATOM     33  F1  8RW d   1      -7.508 -14.915  -6.654  0.00  0.00    -0.144 F 
ATOM     34  F2  8RW d   1      -7.519 -15.716  -8.589  0.00  0.00    -0.144 F 
ATOM     35  F3  8RW d   1      -6.137 -14.217  -8.024  0.00  0.00    -0.144 F 
ENDBRANCH  31  32
ENDBRANCH  27  31
ENDBRANCH  19  21
ENDBRANCH   7  17
BRANCH   5  36
ATOM     36  C7  8RW d   1      -1.175  -8.009  -5.344  0.00  0.00     0.065 A 
ATOM     37  C11 8RW d   1      -2.371  -7.544  -4.765  0.00  0.00     0.019 A 
ATOM     38  C10 8RW d   1      -2.871  -6.488  -5.541  0.00  0.00     0.056 A 
ATOM     39  C12 8RW d   1      -3.115  -7.948  -3.653  0.00  0.00    -0.069 A 
ATOM     40  N3  8RW d   1      -1.958  -6.274  -6.540  0.00  0.00    -0.272 N 
ATOM     41  C15 8RW d   1      -4.029  -5.797  -5.223  0.00  0.00    -0.056 A 
ATOM     42  C8  8RW d   1      -0.932  -7.219  -6.367  0.00  0.00     0.017 A 
ATOM     43  C9  8RW d   1      -2.032  -5.249  -7.558  0.00  0.00     0.324 C 
ATOM     44  H6  8RW d   1      -0.048  -7.288  -7.000  0.00  0.00     0.116 H 
ATOM     45  N4  8RW d   1      -0.911  -5.100  -8.263  0.00  0.00    -0.351 N 
ATOM     46  O2  8RW d   1      -3.038  -4.633  -7.745  0.00  0.00    -0.247 OA
ATOM     47  H13 8RW d   1      -0.865  -4.415  -8.990  0.00  0.00     0.160 HD
ATOM     48  H14 8RW d   1      -0.116  -5.673  -8.065  0.00  0.00     0.160 HD
ATOM     49  C14 8RW d   1      -4.691  -6.162  -4.057  0.00  0.00    -0.081 A 
ATOM     50  H15 8RW d   1      -4.404  -5.003  -5.859  0.00  0.00     0.087 H 
ATOM     51  C13 8RW d   1      -4.271  -7.251  -3.329  0.00  0.00    -0.082 A 
ATOM     52  H3  8RW d   1      -5.544  -5.585  -3.719  0.00  0.00     0.083 H 
ATOM     53  H8  8RW d   1      -4.860  -7.574  -2.478  0.00  0.00     0.083 H 
ATOM     54  H7  8RW d   1      -2.795  -8.792  -3.053  0.00  0.00     0.085 H 
ENDBRANCH   5  36
TORSDOF 5
