REMARK  6 active torsions:
REMARK  status: ('A' for Active; 'I' for Inactive)
REMARK    1  A    between atoms: O5_18  and  C2_1 
REMARK    2  A    between atoms: N39_31  and  C50_7 
REMARK    3  A    between atoms: C20_11  and  C18_10 
REMARK       I    between atoms: C18_10  and  N16_23 
REMARK    4  A    between atoms: C6_19  and  O5_18 
REMARK    5  A    between atoms: N16_23  and  C9_21 
REMARK       I    between atoms: C32_26  and  N22_25 
REMARK       I    between atoms: N34_28  and  C32_26 
REMARK    6  A    between atoms: C36_29  and  N34_28 
ROOT
ATOM      1  C20 MOL d   1      -0.194  -9.969  10.197  0.00  0.00     0.093 C 
ATOM      2  C23 MOL d   1      -2.225 -10.250   8.819  0.00  0.00     0.000 C 
ATOM      3  C26 MOL d   1      -2.575 -10.462  10.307  0.00  0.00    -0.048 C 
ATOM      4  C29 MOL d   1      -1.221 -10.847  10.949  0.00  0.00    -0.036 C 
ATOM      5  N22 MOL d   1      -0.908  -9.644   8.974  0.00  0.00    -0.320 N 
ATOM      6  C32 MOL d   1      -0.324  -8.846   8.028  0.00  0.00     0.323 C 
ATOM      7  O33 MOL d   1       0.778  -8.380   8.281  0.00  0.00    -0.247 OA
ATOM      8  N34 MOL d   1      -0.918  -8.475   6.853  0.00  0.00    -0.307 N 
ATOM      9  H10 MOL d   1       0.075  -9.067  10.765  0.00  0.00     0.087 H 
ATOM     10  H11 MOL d   1      -2.934  -9.572   8.322  0.00  0.00     0.064 H 
ATOM     11  H12 MOL d   1      -2.178 -11.201   8.268  0.00  0.00     0.064 H 
ATOM     12  H13 MOL d   1      -3.310 -11.272  10.426  0.00  0.00     0.035 H 
ATOM     13  H14 MOL d   1      -2.972  -9.538  10.752  0.00  0.00     0.035 H 
ATOM     14  H15 MOL d   1      -1.218 -10.619  12.025  0.00  0.00     0.036 H 
ATOM     15  H16 MOL d   1      -1.006 -11.916  10.800  0.00  0.00     0.036 H 
ATOM     16  H20 MOL d   1      -1.863  -8.773   6.721  0.00  0.00     0.170 HD
ENDROOT
BRANCH   1  17
ATOM     17  C18 MOL d   1       1.040 -10.791   9.896  0.00  0.00     0.245 C 
ATOM     18  N16 MOL d   1       2.036 -10.699  10.796  0.00  0.00    -0.325 N 
ATOM     19  H19 MOL d   1       1.891 -10.095  11.580  0.00  0.00     0.169 HD
ATOM     20  O19 MOL d   1       1.095 -11.477   8.876  0.00  0.00    -0.271 OA
BRANCH  18  21
ATOM     21  C9  MOL d   1       3.271 -11.385  10.726  0.00  0.00     0.037 A 
ATOM     22  C7  MOL d   1       4.398 -10.702  11.149  0.00  0.00    -0.025 A 
ATOM     23  C6  MOL d   1       5.631 -11.343  11.111  0.00  0.00     0.080 A 
ATOM     24  H17 MOL d   1       4.320  -9.681  11.505  0.00  0.00     0.091 H 
ATOM     25  C14 MOL d   1       5.742 -12.657  10.662  0.00  0.00    -0.050 A 
ATOM     26  C12 MOL d   1       4.610 -13.356  10.255  0.00  0.00    -0.078 A 
ATOM     27  H9  MOL d   1       6.714 -13.136  10.630  0.00  0.00     0.087 H 
ATOM     28  C10 MOL d   1       3.369 -12.717  10.283  0.00  0.00    -0.057 A 
ATOM     29  H8  MOL d   1       4.691 -14.384   9.920  0.00  0.00     0.083 H 
ATOM     30  H18 MOL d   1       2.480 -13.248   9.963  0.00  0.00     0.086 H 
BRANCH  23  31
ATOM     31  O5  MOL d   1       6.741 -10.627  11.527  0.00  0.00    -0.255 OA
BRANCH  31  32
ATOM     32  C2  MOL d   1       7.434  -9.846  10.576  0.00  0.00     0.530 C 
ATOM     33  F1  MOL d   1       8.478  -9.301  11.247  0.00  0.00    -0.144 F 
ATOM     34  F3  MOL d   1       7.843 -10.629   9.532  0.00  0.00    -0.144 F 
ATOM     35  F4  MOL d   1       6.631  -8.850  10.139  0.00  0.00    -0.144 F 
ENDBRANCH  31  32
ENDBRANCH  23  31
ENDBRANCH  18  21
ENDBRANCH   1  17
BRANCH   8  36
ATOM     36  C36 MOL d   1      -0.364  -7.741   5.836  0.00  0.00     0.064 A 
ATOM     37  C41 MOL d   1       0.421  -8.403   4.725  0.00  0.00     0.019 A 
ATOM     38  C42 MOL d   1       0.785  -9.714   4.386  0.00  0.00    -0.069 A 
ATOM     39  C40 MOL d   1       0.810  -7.337   3.929  0.00  0.00     0.046 A 
ATOM     40  C44 MOL d   1       1.554  -9.910   3.225  0.00  0.00    -0.082 A 
ATOM     41  H1  MOL d   1       0.482 -10.553   5.002  0.00  0.00     0.085 H 
ATOM     42  C46 MOL d   1       1.940  -8.829   2.415  0.00  0.00    -0.081 A 
ATOM     43  H2  MOL d   1       1.855 -10.915   2.950  0.00  0.00     0.083 H 
ATOM     44  C48 MOL d   1       1.585  -7.520   2.765  0.00  0.00    -0.056 A 
ATOM     45  H3  MOL d   1       2.516  -9.009   1.514  0.00  0.00     0.083 H 
ATOM     46  H4  MOL d   1       1.896  -6.675   2.161  0.00  0.00     0.087 H 
ATOM     47  N39 MOL d   1       0.350  -6.194   4.477  0.00  0.00    -0.358 N 
ATOM     48  C37 MOL d   1      -0.340  -6.422   5.586  0.00  0.00     0.006 A 
ATOM     49  H21 MOL d   1      -0.814  -5.657   6.199  0.00  0.00     0.115 H 
BRANCH  47  50
ATOM     50  C50 MOL d   1       0.561  -4.868   3.888  0.00  0.00    -0.014 C 
ATOM     51  H5  MOL d   1       0.089  -4.105   4.524  0.00  0.00     0.057 H 
ATOM     52  H6  MOL d   1       0.112  -4.837   2.884  0.00  0.00     0.057 H 
ATOM     53  H7  MOL d   1       1.640  -4.667   3.813  0.00  0.00     0.057 H 
ENDBRANCH  47  50
ENDBRANCH   8  36
TORSDOF 6
