REMARK  5 active torsions:
REMARK  status: ('A' for Active; 'I' for Inactive)
REMARK       I    between atoms: N1_12  and  C7_6 
REMARK       I    between atoms: C7_6  and  N2_13 
REMARK    1  A    between atoms: N2_13  and  C8_7 
REMARK       I    between atoms: N3_15  and  C10_9 
REMARK       I    between atoms: C10_9  and  N4_19 
REMARK    2  A    between atoms: C1_17  and  C2_18 
REMARK       I    between atoms: C1_17  and  N5_24 
REMARK    3  A    between atoms: N5_24  and  C17_25 
REMARK    4  A    between atoms: C21_29  and  O4_30 
REMARK    5  A    between atoms: O4_30  and  C22_31 
ROOT
ATOM      1  C4  8RZ d   1      10.975  10.344   0.571  0.00  0.00    -0.030 A 
ATOM      2  C5  8RZ d   1       9.725   9.587   0.392  0.00  0.00     0.021 A 
ATOM      3  C6  8RZ d   1      11.057   8.964   0.087  0.00  0.00    -0.040 A 
ATOM      4  C7  8RZ d   1       8.204   8.503   1.961  0.00  0.00     0.324 C 
ATOM      5  N1  8RZ d   1       9.166   9.397   1.672  0.00  0.00    -0.315 N 
ATOM      6  N2  8RZ d   1       7.642   7.872   0.921  0.00  0.00    -0.307 N 
ATOM      7  C3  8RZ d   1      11.104  10.714   2.017  0.00  0.00    -0.032 C 
ATOM      8  C2  8RZ d   1      10.025   9.893   2.696  0.00  0.00     0.094 C 
ATOM      9  O3  8RZ d   1       7.891   8.254   3.109  0.00  0.00    -0.247 OA
ATOM     10  H1  8RZ d   1      11.296  11.165  -0.087  0.00  0.00     0.043 H 
ATOM     11  H3  8RZ d   1       8.976   9.765  -0.394  0.00  0.00     0.073 H 
ATOM     12  H4  8RZ d   1      11.458   8.174   0.739  0.00  0.00     0.036 H 
ATOM     13  H5  8RZ d   1      11.345   8.761  -0.955  0.00  0.00     0.036 H 
ATOM     14  H8  8RZ d   1       8.029   8.007   0.009  0.00  0.00     0.170 HD
ATOM     15  H9  8RZ d   1      10.929  11.790   2.164  0.00  0.00     0.037 H 
ATOM     16  H10 8RZ d   1      12.100  10.449   2.402  0.00  0.00     0.037 H 
ATOM     17  H11 8RZ d   1      10.520   9.019   3.145  0.00  0.00     0.088 H 
ENDROOT
BRANCH   8  18
ATOM     18  C1  8RZ d   1       9.343  10.588   3.831  0.00  0.00     0.245 C 
ATOM     19  O1  8RZ d   1       8.373  11.308   3.626  0.00  0.00    -0.271 OA
ATOM     20  N5  8RZ d   1       9.876  10.389   5.047  0.00  0.00    -0.325 N 
ATOM     21  H16 8RZ d   1      10.632   9.736   5.091  0.00  0.00     0.169 HD
BRANCH  20  22
ATOM     22  C17 8RZ d   1       9.512  10.974   6.248  0.00  0.00     0.037 A 
ATOM     23  C18 8RZ d   1       9.146  12.322   6.307  0.00  0.00    -0.057 A 
ATOM     24  C19 8RZ d   1       8.777  12.895   7.512  0.00  0.00    -0.078 A 
ATOM     25  H17 8RZ d   1       9.151  12.922   5.404  0.00  0.00     0.086 H 
ATOM     26  C20 8RZ d   1       8.864  12.152   8.663  0.00  0.00    -0.050 A 
ATOM     27  H18 8RZ d   1       8.423  13.919   7.546  0.00  0.00     0.083 H 
ATOM     28  C21 8RZ d   1       9.254  10.812   8.595  0.00  0.00     0.080 A 
ATOM     29  H19 8RZ d   1       8.631  12.603   9.621  0.00  0.00     0.087 H 
ATOM     30  C23 8RZ d   1       9.612  10.233   7.396  0.00  0.00    -0.025 A 
ATOM     31  H20 8RZ d   1       9.966   9.209   7.362  0.00  0.00     0.091 H 
BRANCH  28  32
ATOM     32  O4  8RZ d   1       9.346  10.058   9.795  0.00  0.00    -0.255 OA
BRANCH  32  33
ATOM     33  C22 8RZ d   1       8.335   9.273  10.112  0.00  0.00     0.530 C 
ATOM     34  F1  8RZ d   1       8.591   8.752  11.261  0.00  0.00    -0.144 F 
ATOM     35  F2  8RZ d   1       8.196   8.323   9.246  0.00  0.00    -0.144 F 
ATOM     36  F3  8RZ d   1       7.230   9.987  10.155  0.00  0.00    -0.144 F 
ENDBRANCH  32  33
ENDBRANCH  28  32
ENDBRANCH  20  22
ENDBRANCH   8  18
BRANCH   6  37
ATOM     37  C8  8RZ d   1       6.522   7.023   1.066  0.00  0.00     0.065 A 
ATOM     38  C9  8RZ d   1       6.506   5.715   0.775  0.00  0.00     0.017 A 
ATOM     39  N3  8RZ d   1       5.256   5.160   0.993  0.00  0.00    -0.272 N 
ATOM     40  H6  8RZ d   1       7.369   5.158   0.412  0.00  0.00     0.116 H 
ATOM     41  C11 8RZ d   1       4.418   6.227   1.425  0.00  0.00     0.056 A 
ATOM     42  C10 8RZ d   1       4.902   3.868   0.784  0.00  0.00     0.324 C 
ATOM     43  C12 8RZ d   1       5.215   7.379   1.460  0.00  0.00     0.019 A 
ATOM     44  C16 8RZ d   1       3.075   6.249   1.736  0.00  0.00    -0.056 C 
ATOM     45  C13 8RZ d   1       4.615   8.613   1.830  0.00  0.00    -0.069 C 
ATOM     46  C14 8RZ d   1       3.266   8.632   2.071  0.00  0.00    -0.082 C 
ATOM     47  H7  8RZ d   1       5.209   9.515   1.919  0.00  0.00     0.085 H 
ATOM     48  C15 8RZ d   1       2.518   7.461   2.100  0.00  0.00    -0.081 C 
ATOM     49  H2  8RZ d   1       2.772   9.581   2.243  0.00  0.00     0.083 H 
ATOM     50  H14 8RZ d   1       1.481   7.498   2.413  0.00  0.00     0.083 H 
ATOM     51  H15 8RZ d   1       2.476   5.346   1.696  0.00  0.00     0.087 H 
ATOM     52  N4  8RZ d   1       5.747   3.145   0.055  0.00  0.00    -0.351 N 
ATOM     53  O2  8RZ d   1       3.837   3.464   1.216  0.00  0.00    -0.247 OA
ATOM     54  H12 8RZ d   1       5.546   2.184  -0.137  0.00  0.00     0.160 HD
ATOM     55  H13 8RZ d   1       6.583   3.562  -0.301  0.00  0.00     0.160 HD
ENDBRANCH   6  37
TORSDOF 5
