REMARK  6 active torsions:
REMARK  status: ('A' for Active; 'I' for Inactive)
REMARK    1  A    between atoms: C6_1  and  O5_11 
REMARK    2  A    between atoms: C18_16  and  C20_4 
REMARK    3  A    between atoms: C26_5  and  N31_20 
REMARK    4  A    between atoms: O5_11  and  C2_8 
REMARK    5  A    between atoms: N16_15  and  C9_12 
REMARK       I    between atoms: N16_15  and  C18_16 
REMARK       I    between atoms: N22_18  and  C34_21 
REMARK       I    between atoms: C34_21  and  N36_23 
REMARK    6  A    between atoms: N36_23  and  C38_24 
REMARK       I    between atoms: N41_26  and  C52_33 
REMARK       I    between atoms: C52_33  and  N54_35 
ROOT
ATOM      1  C20 8S2 d   1      -0.505 -13.130  -5.191  0.00  0.00     0.095 C 
ATOM      2  C26 8S2 d   1       1.198 -13.086  -3.508  0.00  0.00     0.117 C 
ATOM      3  C28 8S2 d   1       0.690 -13.998  -4.665  0.00  0.00    -0.010 C 
ATOM      4  N22 8S2 d   1      -0.117 -11.775  -4.889  0.00  0.00    -0.318 N 
ATOM      5  C23 8S2 d   1       1.104 -11.653  -4.097  0.00  0.00     0.027 C 
ATOM      6  C34 8S2 d   1      -0.884 -10.720  -5.380  0.00  0.00     0.323 C 
ATOM      7  O35 8S2 d   1      -1.932 -11.008  -6.041  0.00  0.00    -0.247 OA
ATOM      8  N36 8S2 d   1      -0.535  -9.446  -5.192  0.00  0.00    -0.307 N 
ATOM      9  H3  8S2 d   1      -0.563 -13.239  -6.284  0.00  0.00     0.088 H 
ATOM     10  H4  8S2 d   1       2.245 -13.311  -3.259  0.00  0.00     0.086 H 
ATOM     11  H5  8S2 d   1       1.459 -14.144  -5.437  0.00  0.00     0.040 H 
ATOM     12  H6  8S2 d   1       0.352 -14.977  -4.295  0.00  0.00     0.040 H 
ATOM     13  H10 8S2 d   1       1.974 -11.414  -4.726  0.00  0.00     0.067 H 
ATOM     14  H11 8S2 d   1       1.002 -10.894  -3.307  0.00  0.00     0.067 H 
ATOM     15  H15 8S2 d   1       0.323  -9.281  -4.705  0.00  0.00     0.170 HD
ENDROOT
BRANCH   1  16
ATOM     16  C18 8S2 d   1      -1.840 -13.536  -4.652  0.00  0.00     0.245 C 
ATOM     17  N16 8S2 d   1      -2.450 -14.410  -5.483  0.00  0.00    -0.325 N 
ATOM     18  H9  8S2 d   1      -1.959 -14.653  -6.320  0.00  0.00     0.169 HD
ATOM     19  O19 8S2 d   1      -2.302 -12.979  -3.675  0.00  0.00    -0.271 OA
BRANCH  17  20
ATOM     20  C9  8S2 d   1      -3.675 -14.997  -5.293  0.00  0.00     0.037 A 
ATOM     21  C7  8S2 d   1      -4.401 -15.338  -6.439  0.00  0.00    -0.025 A 
ATOM     22  C6  8S2 d   1      -5.612 -15.983  -6.265  0.00  0.00     0.080 A 
ATOM     23  H1  8S2 d   1      -4.027 -15.105  -7.429  0.00  0.00     0.091 H 
ATOM     24  C14 8S2 d   1      -6.098 -16.263  -4.975  0.00  0.00    -0.050 A 
ATOM     25  C12 8S2 d   1      -5.371 -15.920  -3.852  0.00  0.00    -0.078 A 
ATOM     26  H8  8S2 d   1      -7.057 -16.755  -4.861  0.00  0.00     0.087 H 
ATOM     27  C10 8S2 d   1      -4.137 -15.287  -4.003  0.00  0.00    -0.057 A 
ATOM     28  H7  8S2 d   1      -5.755 -16.140  -2.863  0.00  0.00     0.083 H 
ATOM     29  H2  8S2 d   1      -3.544 -15.023  -3.135  0.00  0.00     0.086 H 
BRANCH  22  30
ATOM     30  O5  8S2 d   1      -6.302 -16.373  -7.419  0.00  0.00    -0.255 OA
BRANCH  30  31
ATOM     31  C2  8S2 d   1      -7.239 -15.449  -7.938  0.00  0.00     0.530 C 
ATOM     32  F1  8S2 d   1      -6.601 -14.330  -8.283  0.00  0.00    -0.144 F 
ATOM     33  F3  8S2 d   1      -8.078 -15.124  -6.913  0.00  0.00    -0.144 F 
ATOM     34  F4  8S2 d   1      -7.823 -16.016  -9.036  0.00  0.00    -0.144 F 
ENDBRANCH  30  31
ENDBRANCH  22  30
ENDBRANCH  17  20
ENDBRANCH   1  16
BRANCH   2  35
ATOM     35  N31 8S2 d   1       0.366 -13.346  -2.321  0.00  0.00    -0.073 N 
ATOM     36  H12 8S2 d   1       0.499 -14.299  -2.019  0.00  0.00     0.274 HD
ATOM     37  H13 8S2 d   1      -0.604 -13.199  -2.552  0.00  0.00     0.274 HD
ATOM     38  H14 8S2 d   1       0.633 -12.718  -1.579  0.00  0.00     0.274 HD
ENDBRANCH   2  35
BRANCH   8  39
ATOM     39  C38 8S2 d   1      -1.249  -8.318  -5.608  0.00  0.00     0.065 A 
ATOM     40  C39 8S2 d   1      -1.011  -7.502  -6.674  0.00  0.00     0.017 A 
ATOM     41  N41 8S2 d   1      -2.059  -6.518  -6.730  0.00  0.00    -0.272 N 
ATOM     42  H16 8S2 d   1      -0.172  -7.581  -7.364  0.00  0.00     0.116 H 
ATOM     43  C42 8S2 d   1      -2.968  -6.716  -5.684  0.00  0.00     0.056 A 
ATOM     44  C52 8S2 d   1      -2.153  -5.547  -7.664  0.00  0.00     0.324 C 
ATOM     45  C43 8S2 d   1      -2.560  -7.834  -4.955  0.00  0.00     0.019 A 
ATOM     46  C50 8S2 d   1      -4.144  -5.964  -5.302  0.00  0.00    -0.056 A 
ATOM     47  C44 8S2 d   1      -3.294  -8.240  -3.829  0.00  0.00    -0.069 A 
ATOM     48  C46 8S2 d   1      -4.472  -7.540  -3.447  0.00  0.00    -0.082 A 
ATOM     49  H17 8S2 d   1      -2.961  -9.092  -3.247  0.00  0.00     0.085 H 
ATOM     50  C48 8S2 d   1      -4.896  -6.400  -4.177  0.00  0.00    -0.081 A 
ATOM     51  H18 8S2 d   1      -5.048  -7.879  -2.594  0.00  0.00     0.083 H 
ATOM     52  H19 8S2 d   1      -5.789  -5.864  -3.878  0.00  0.00     0.083 H 
ATOM     53  H20 8S2 d   1      -4.445  -5.086  -5.862  0.00  0.00     0.087 H 
ATOM     54  O53 8S2 d   1      -3.038  -4.661  -7.725  0.00  0.00    -0.247 OA
ATOM     55  N54 8S2 d   1      -1.115  -5.454  -8.557  0.00  0.00    -0.351 N 
ATOM     56  H21 8S2 d   1      -1.131  -4.754  -9.271  0.00  0.00     0.160 HD
ATOM     57  H22 8S2 d   1      -0.343  -6.087  -8.494  0.00  0.00     0.160 HD
ENDBRANCH   8  39
TORSDOF 6
