REMARK  5 active torsions:
REMARK  status: ('A' for Active; 'I' for Inactive)
REMARK    1  A    between atoms: C8_7  and  C7_6 
REMARK       I    between atoms: C7_6  and  N1_12 
REMARK    2  A    between atoms: N2_13  and  C8_7 
REMARK       I    between atoms: C16_20  and  N3_15 
REMARK    3  A    between atoms: C2_18  and  C1_17 
REMARK       I    between atoms: C1_17  and  N5_24 
REMARK    4  A    between atoms: C15_19  and  C16_20 
REMARK    5  A    between atoms: N5_24  and  C17_25 
ROOT
ATOM      1  C4  8NQ d   1      10.898  10.736   1.375  0.00  0.00    -0.030 A 
ATOM      2  C5  8NQ d   1       9.636  10.121   1.027  0.00  0.00     0.019 A 
ATOM      3  C6  8NQ d   1      10.909   9.647   0.474  0.00  0.00    -0.040 A 
ATOM      4  C7  8NQ d   1       8.087   8.680   2.199  0.00  0.00     0.240 C 
ATOM      5  N1  8NQ d   1       9.072   9.551   2.182  0.00  0.00    -0.332 N 
ATOM      6  C3  8NQ d   1      11.067  10.717   2.849  0.00  0.00    -0.032 C 
ATOM      7  C2  8NQ d   1       9.862   9.912   3.316  0.00  0.00     0.093 C 
ATOM      8  O3  8NQ d   1       7.753   8.152   3.244  0.00  0.00    -0.271 OA
ATOM      9  H1  8NQ d   1      11.216  11.712   0.981  0.00  0.00     0.043 H 
ATOM     10  H2  8NQ d   1       8.876  10.573   0.372  0.00  0.00     0.073 H 
ATOM     11  H3  8NQ d   1      11.318   8.676   0.791  0.00  0.00     0.036 H 
ATOM     12  H4  8NQ d   1      11.143   9.815  -0.588  0.00  0.00     0.036 H 
ATOM     13  H11 8NQ d   1      11.048  11.736   3.263  0.00  0.00     0.037 H 
ATOM     14  H12 8NQ d   1      12.008  10.223   3.134  0.00  0.00     0.037 H 
ATOM     15  H15 8NQ d   1      10.287   8.970   3.692  0.00  0.00     0.087 H 
ENDROOT
BRANCH   4  16
ATOM     16  C8  8NQ d   1       7.429   8.299   0.889  0.00  0.00     0.091 C 
ATOM     17  H6  8NQ d   1       8.169   7.793   0.252  0.00  0.00     0.082 H 
ATOM     18  H7  8NQ d   1       7.076   9.212   0.388  0.00  0.00     0.082 H 
BRANCH  16  19
ATOM     19  N2  8NQ d   1       6.309   7.417   1.096  0.00  0.00    -0.260 N 
ATOM     20  C9  8NQ d   1       5.045   7.789   1.408  0.00  0.00     0.066 A 
ATOM     21  C14 8NQ d   1       4.330   6.617   1.637  0.00  0.00     0.028 A 
ATOM     22  C10 8NQ d   1       4.480   9.057   1.566  0.00  0.00    -0.055 A 
ATOM     23  C13 8NQ d   1       2.953   6.674   1.960  0.00  0.00    -0.068 A 
ATOM     24  C15 8NQ d   1       5.245   5.566   1.378  0.00  0.00     0.157 A 
ATOM     25  C12 8NQ d   1       2.401   7.935   2.107  0.00  0.00    -0.082 A 
ATOM     26  H10 8NQ d   1       2.360   5.775   2.086  0.00  0.00     0.085 H 
ATOM     27  C11 8NQ d   1       3.149   9.076   1.877  0.00  0.00    -0.081 A 
ATOM     28  H9  8NQ d   1       1.364   8.030   2.408  0.00  0.00     0.083 H 
ATOM     29  H5  8NQ d   1       2.653  10.037   1.947  0.00  0.00     0.083 H 
ATOM     30  N4  8NQ d   1       6.429   6.094   1.064  0.00  0.00    -0.165 NA
ATOM     31  H8  8NQ d   1       5.059   9.966   1.450  0.00  0.00     0.087 H 
BRANCH  24  32
ATOM     32  C16 8NQ d   1       4.995   4.150   1.409  0.00  0.00     0.270 C 
ATOM     33  N3  8NQ d   1       5.945   3.376   0.924  0.00  0.00    -0.365 N 
ATOM     34  H13 8NQ d   1       5.827   2.383   0.919  0.00  0.00     0.159 HD
ATOM     35  H14 8NQ d   1       6.784   3.782   0.561  0.00  0.00     0.159 HD
ATOM     36  O2  8NQ d   1       3.940   3.710   1.902  0.00  0.00    -0.266 OA
ENDBRANCH  24  32
ENDBRANCH  16  19
ENDBRANCH   4  16
BRANCH   7  37
ATOM     37  C1  8NQ d   1       9.046  10.434   4.492  0.00  0.00     0.246 C 
ATOM     38  O1  8NQ d   1       8.117  11.175   4.259  0.00  0.00    -0.271 OA
ATOM     39  N5  8NQ d   1       9.444  10.032   5.739  0.00  0.00    -0.310 N 
ATOM     40  H16 8NQ d   1      10.318   9.550   5.800  0.00  0.00     0.170 HD
BRANCH  39  41
ATOM     41  C17 8NQ d   1       8.733  10.234   6.960  0.00  0.00     0.131 C 
ATOM     42  C18 8NQ d   1       7.815  11.239   7.120  0.00  0.00    -0.038 C 
ATOM     43  C19 8NQ d   1       7.116  11.292   8.334  0.00  0.00    -0.077 C 
ATOM     44  H17 8NQ d   1       7.636  11.966   6.336  0.00  0.00     0.089 H 
ATOM     45  C20 8NQ d   1       7.290  10.304   9.249  0.00  0.00    -0.048 C 
ATOM     46  H18 8NQ d   1       6.442  12.115   8.541  0.00  0.00     0.083 H 
ATOM     47  C21 8NQ d   1       8.239   9.352   9.075  0.00  0.00     0.105 C 
ATOM     48  H19 8NQ d   1       6.661  10.276  10.131  0.00  0.00     0.087 H 
ATOM     49 BR1  8NQ d   1       8.488   7.968  10.279  0.00  0.00    -0.029 Br
ATOM     50  N6  8NQ d   1       8.925   9.285   7.903  0.00  0.00    -0.224 NA
ENDBRANCH  39  41
ENDBRANCH   7  37
TORSDOF 5
