REMARK  5 active torsions:
REMARK  status: ('A' for Active; 'I' for Inactive)
REMARK       I    between atoms: N1_12  and  C6_4 
REMARK       I    between atoms: C6_4  and  N2_13 
REMARK    1  A    between atoms: N2_13  and  C7_6 
REMARK       I    between atoms: N3_15  and  C9_8 
REMARK       I    between atoms: C9_8  and  N4_20 
REMARK    2  A    between atoms: C1_17  and  C2_18 
REMARK       I    between atoms: C1_17  and  N5_24 
REMARK    3  A    between atoms: N5_24  and  C16_25 
REMARK    4  A    between atoms: C20_29  and  O4_30 
REMARK    5  A    between atoms: O4_30  and  C21_31 
ROOT
ATOM      1  C4  8S5 d   1      10.812  10.371   0.595  0.00  0.00     0.097 C 
ATOM      2  C5  8S5 d   1       9.396  10.108   0.413  0.00  0.00     0.029 C 
ATOM      3  C6  8S5 d   1       8.142   8.516   1.965  0.00  0.00     0.323 C 
ATOM      4  N1  8S5 d   1       9.083   9.431   1.679  0.00  0.00    -0.318 N 
ATOM      5  N2  8S5 d   1       7.258   8.239   0.980  0.00  0.00    -0.307 N 
ATOM      6  C3  8S5 d   1      10.935  10.858   1.973  0.00  0.00    -0.008 C 
ATOM      7  C2  8S5 d   1       9.950   9.947   2.705  0.00  0.00     0.096 C 
ATOM      8  F1  8S5 d   1      11.647   9.306   0.288  0.00  0.00    -0.248 F 
ATOM      9  O3  8S5 d   1       8.032   8.014   3.108  0.00  0.00    -0.247 OA
ATOM     10  H1  8S5 d   1      11.096  11.189  -0.083  0.00  0.00     0.094 H 
ATOM     11  H3  8S5 d   1       9.213   9.455  -0.453  0.00  0.00     0.068 H 
ATOM     12  H4  8S5 d   1       8.822  11.039   0.298  0.00  0.00     0.068 H 
ATOM     13  H8  8S5 d   1       7.367   8.703   0.101  0.00  0.00     0.170 HD
ATOM     14  H9  8S5 d   1      10.641  11.915   2.054  0.00  0.00     0.041 H 
ATOM     15  H10 8S5 d   1      11.959  10.732   2.354  0.00  0.00     0.041 H 
ATOM     16  H11 8S5 d   1      10.516   9.103   3.126  0.00  0.00     0.088 H 
ENDROOT
BRANCH   7  17
ATOM     17  C1  8S5 d   1       9.246  10.594   3.861  0.00  0.00     0.245 C 
ATOM     18  O1  8S5 d   1       8.205  11.202   3.665  0.00  0.00    -0.271 OA
ATOM     19  N5  8S5 d   1       9.819  10.437   5.084  0.00  0.00    -0.325 N 
ATOM     20  H15 8S5 d   1      10.621   9.841   5.121  0.00  0.00     0.169 HD
BRANCH  19  21
ATOM     21  C16 8S5 d   1       9.412  11.022   6.323  0.00  0.00     0.037 A 
ATOM     22  C17 8S5 d   1       9.020  12.349   6.442  0.00  0.00    -0.057 A 
ATOM     23  C18 8S5 d   1       8.673  12.862   7.693  0.00  0.00    -0.078 A 
ATOM     24  H16 8S5 d   1       8.984  12.985   5.565  0.00  0.00     0.086 H 
ATOM     25  C19 8S5 d   1       8.724  12.066   8.828  0.00  0.00    -0.050 A 
ATOM     26  H17 8S5 d   1       8.360  13.896   7.779  0.00  0.00     0.083 H 
ATOM     27  C20 8S5 d   1       9.133  10.742   8.700  0.00  0.00     0.080 A 
ATOM     28  H18 8S5 d   1       8.450  12.468   9.797  0.00  0.00     0.087 H 
ATOM     29  C22 8S5 d   1       9.486  10.225   7.461  0.00  0.00    -0.025 A 
ATOM     30  H19 8S5 d   1       9.820   9.197   7.380  0.00  0.00     0.091 H 
BRANCH  27  31
ATOM     31  O4  8S5 d   1       9.242   9.938   9.869  0.00  0.00    -0.255 OA
BRANCH  31  32
ATOM     32  C21 8S5 d   1       8.218   9.200  10.192  0.00  0.00     0.530 C 
ATOM     33  F2  8S5 d   1       8.505   8.647  11.369  0.00  0.00    -0.144 F 
ATOM     34  F3  8S5 d   1       7.936   8.278   9.289  0.00  0.00    -0.144 F 
ATOM     35  F4  8S5 d   1       7.121   9.902  10.312  0.00  0.00    -0.144 F 
ENDBRANCH  31  32
ENDBRANCH  27  31
ENDBRANCH  19  21
ENDBRANCH   7  17
BRANCH   5  36
ATOM     36  C7  8S5 d   1       6.196   7.335   1.127  0.00  0.00     0.065 A 
ATOM     37  C11 8S5 d   1       4.879   7.624   1.529  0.00  0.00     0.019 A 
ATOM     38  C10 8S5 d   1       4.172   6.409   1.550  0.00  0.00     0.056 A 
ATOM     39  C12 8S5 d   1       4.198   8.813   1.845  0.00  0.00    -0.069 A 
ATOM     40  N3  8S5 d   1       5.062   5.383   1.172  0.00  0.00    -0.272 N 
ATOM     41  C15 8S5 d   1       2.809   6.342   1.872  0.00  0.00    -0.056 A 
ATOM     42  C8  8S5 d   1       6.298   5.960   0.873  0.00  0.00     0.017 A 
ATOM     43  C9  8S5 d   1       4.751   4.004   1.056  0.00  0.00     0.324 C 
ATOM     44  H5  8S5 d   1       7.181   5.437   0.509  0.00  0.00     0.116 H 
ATOM     45  N4  8S5 d   1       5.645   3.292   0.371  0.00  0.00    -0.351 N 
ATOM     46  O2  8S5 d   1       3.722   3.545   1.493  0.00  0.00    -0.247 OA
ATOM     47  H12 8S5 d   1       5.507   2.310   0.239  0.00  0.00     0.160 HD
ATOM     48  H13 8S5 d   1       6.454   3.739  -0.011  0.00  0.00     0.160 HD
ATOM     49  C14 8S5 d   1       2.173   7.526   2.198  0.00  0.00    -0.081 A 
ATOM     50  H14 8S5 d   1       2.275   5.399   1.866  0.00  0.00     0.087 H 
ATOM     51  C13 8S5 d   1       2.846   8.746   2.159  0.00  0.00    -0.082 A 
ATOM     52  H2  8S5 d   1       1.129   7.505   2.490  0.00  0.00     0.083 H 
ATOM     53  H7  8S5 d   1       2.305   9.659   2.378  0.00  0.00     0.083 H 
ATOM     54  H6  8S5 d   1       4.718   9.764   1.844  0.00  0.00     0.085 H 
ENDBRANCH   5  36
TORSDOF 5
