REMARK  5 active torsions:
REMARK  status: ('A' for Active; 'I' for Inactive)
REMARK    1  A    between atoms: CBA_2  and  OAR_5 
REMARK    2  A    between atoms: OAR_5  and  CAU_6 
REMARK    3  A    between atoms: CAZ_18  and  NAP_19 
REMARK    4  A    between atoms: NAP_19  and  CAO_20 
REMARK    5  A    between atoms: CAO_20  and  CAT_21 
ROOT
ATOM      1  CAU 8T8 d   1      18.995  18.444  14.097  0.00  0.00     0.080 A 
ATOM      2  CAK 8T8 d   1      18.372  19.185  15.082  0.00  0.00    -0.024 A 
ATOM      3  CAI 8T8 d   1      18.367  18.212  12.853  0.00  0.00    -0.050 A 
ATOM      4  CAJ 8T8 d   1      17.099  18.717  12.613  0.00  0.00    -0.068 A 
ATOM      5  CAY 8T8 d   1      16.414  19.469  13.585  0.00  0.00    -0.001 A 
ATOM      6  CAX 8T8 d   1      17.082  19.690  14.827  0.00  0.00     0.046 A 
ATOM      7  NAQ 8T8 d   1      16.226  20.445  15.639  0.00  0.00    -0.357 N 
ATOM      8  CAW 8T8 d   1      15.069  20.706  14.934  0.00  0.00     0.048 A 
ATOM      9  CAV 8T8 d   1      15.137  20.134  13.691  0.00  0.00    -0.021 A 
ATOM     10  CAM 8T8 d   1      13.997  20.267  12.766  0.00  0.00    -0.038 C 
ATOM     11  CAL 8T8 d   1      12.711  20.068  13.567  0.00  0.00    -0.059 C 
ATOM     12  CAN 8T8 d   1      12.556  21.125  14.689  0.00  0.00    -0.033 C 
ATOM     13  CAZ 8T8 d   1      13.865  21.507  15.436  0.00  0.00     0.142 C 
ATOM     14  H1  8T8 d   1      18.864  19.374  16.029  0.00  0.00     0.091 H 
ATOM     15  H2  8T8 d   1      18.877  17.639  12.087  0.00  0.00     0.087 H 
ATOM     16  H3  8T8 d   1      16.625  18.529  11.656  0.00  0.00     0.085 H 
ATOM     17  H4  8T8 d   1      16.427  20.754  16.601  0.00  0.00     0.166 HD
ATOM     18  H5  8T8 d   1      14.066  19.504  11.976  0.00  0.00     0.040 H 
ATOM     19  H6  8T8 d   1      14.001  21.268  12.310  0.00  0.00     0.040 H 
ATOM     20  H7  8T8 d   1      12.728  19.067  14.022  0.00  0.00     0.033 H 
ATOM     21  H8  8T8 d   1      11.852  20.146  12.884  0.00  0.00     0.033 H 
ATOM     22  H9  8T8 d   1      11.846  20.730  15.431  0.00  0.00     0.036 H 
ATOM     23  H10 8T8 d   1      12.144  22.040  14.238  0.00  0.00     0.036 H 
ATOM     24  H11 8T8 d   1      13.722  21.199  16.482  0.00  0.00     0.094 H 
ENDROOT
BRANCH  13  25
ATOM     25  NAP 8T8 d   1      14.065  22.972  15.477  0.00  0.00    -0.062 N 
ATOM     26  H12 8T8 d   1      13.831  23.290  16.404  0.00  0.00     0.278 HD
ATOM     27  H13 8T8 d   1      13.435  23.388  14.810  0.00  0.00     0.278 HD
BRANCH  25  28
ATOM     28  CAO 8T8 d   1      15.436  23.449  15.166  0.00  0.00     0.106 C 
ATOM     29  H14 8T8 d   1      16.088  22.574  15.030  0.00  0.00     0.083 H 
ATOM     30  H15 8T8 d   1      15.799  24.048  16.014  0.00  0.00     0.083 H 
BRANCH  28  31
ATOM     31  CAT 8T8 d   1      15.502  24.293  13.922  0.00  0.00    -0.033 A 
ATOM     32  CAG 8T8 d   1      14.589  25.325  13.701  0.00  0.00    -0.074 A 
ATOM     33  CAE 8T8 d   1      14.646  26.103  12.548  0.00  0.00    -0.066 A 
ATOM     34  H16 8T8 d   1      13.822  25.524  14.440  0.00  0.00     0.084 H 
ATOM     35  CAS 8T8 d   1      15.628  25.835  11.616  0.00  0.00     0.011 A 
ATOM     36  H17 8T8 d   1      13.933  26.903  12.385  0.00  0.00     0.085 H 
ATOM     37 BR   8T8 d   1      15.702  26.896  10.052  0.00  0.00    -0.051 Br
ATOM     38  CAF 8T8 d   1      16.549  24.823  11.794  0.00  0.00    -0.066 A 
ATOM     39  CAH 8T8 d   1      16.475  24.057  12.951  0.00  0.00    -0.074 A 
ATOM     40  H18 8T8 d   1      17.312  24.630  11.049  0.00  0.00     0.085 H 
ATOM     41  H19 8T8 d   1      17.191  23.257  13.102  0.00  0.00     0.084 H 
ENDBRANCH  28  31
ENDBRANCH  25  28
ENDBRANCH  13  25
BRANCH   1  42
ATOM     42  OAR 8T8 d   1      20.276  17.943  14.313  0.00  0.00    -0.255 OA
BRANCH  42  43
ATOM     43  CBA 8T8 d   1      20.492  16.803  15.072  0.00  0.00     0.530 C 
ATOM     44  FAA 8T8 d   1      20.361  15.712  14.321  0.00  0.00    -0.144 F 
ATOM     45  FAB 8T8 d   1      21.746  16.826  15.516  0.00  0.00    -0.144 F 
ATOM     46  FAC 8T8 d   1      19.699  16.668  16.134  0.00  0.00    -0.144 F 
ENDBRANCH  42  43
ENDBRANCH   1  42
TORSDOF 5
