REMARK  7 active torsions:
REMARK  status: ('A' for Active; 'I' for Inactive)
REMARK    1  A    between atoms: C2_2  and  C1_1 
REMARK    2  A    between atoms: C25_26  and  C9_6 
REMARK    3  A    between atoms: C10_7  and  C12_9 
REMARK    4  A    between atoms: C12_9  and  C14_10 
REMARK    5  A    between atoms: C12_9  and  N15_18 
REMARK    6  A    between atoms: N15_18  and  C16_11 
REMARK    7  A    between atoms: C18_20  and  N22_23 
ROOT
ATOM      1  C16 8TK d   1      -6.733 -48.247  24.862  0.00  0.00     0.150 A 
ATOM      2  C20 8TK d   1      -4.790 -47.271  25.673  0.00  0.00     0.091 A 
ATOM      3  C17 8TK d   1      -7.467 -47.101  25.273  0.00  0.00     0.135 A 
ATOM      4  C18 8TK d   1      -6.751 -46.068  25.914  0.00  0.00     0.147 A 
ATOM      5  N19 8TK d   1      -5.426 -46.193  26.067  0.00  0.00    -0.223 NA
ATOM      6  N21 8TK d   1      -5.422 -48.278  25.083  0.00  0.00    -0.223 NA
ATOM      7  C23 8TK d   1      -8.872 -46.965  25.045  0.00  0.00     0.107 C 
ATOM      8  N24 8TK d   1      -9.980 -46.817  24.911  0.00  0.00    -0.191 NA
ATOM      9  H10 8TK d   1      -3.720 -47.341  25.834  0.00  0.00     0.146 H 
ENDROOT
BRANCH   1  10
ATOM     10  N15 8TK d   1      -7.370 -49.312  24.266  0.00  0.00    -0.365 N 
ATOM     11  H13 8TK d   1      -8.395 -49.282  24.173  0.00  0.00     0.162 HD
BRANCH  10  12
ATOM     12  C12 8TK d   1      -6.649 -50.499  23.753  0.00  0.00     0.034 C 
ATOM     13  H6  8TK d   1      -5.875 -50.785  24.480  0.00  0.00     0.079 H 
BRANCH  12  14
ATOM     14  C10 8TK d   1      -6.004 -50.240  22.407  0.00  0.00    -0.017 A 
ATOM     15  C9  8TK d   1      -4.796 -50.856  22.003  0.00  0.00     0.051 A 
ATOM     16  C7  8TK d   1      -4.298 -50.596  20.698  0.00  0.00     0.264 A 
ATOM     17  N6  8TK d   1      -4.962 -49.737  19.819  0.00  0.00    -0.276 N 
ATOM     18  O8  8TK d   1      -3.249 -51.143  20.380  0.00  0.00    -0.267 OA
ATOM     19  C2  8TK d   1      -4.639 -49.353  18.528  0.00  0.00     0.023 A 
ATOM     20  C5  8TK d   1      -6.113 -49.110  20.274  0.00  0.00     0.084 A 
ATOM     21  C3  8TK d   1      -5.408 -48.471  17.908  0.00  0.00    -0.021 A 
ATOM     22  S4  8TK d   1      -6.718 -48.034  19.005  0.00  0.00    -0.082 SA
ATOM     23  H4  8TK d   1      -5.258 -48.085  16.901  0.00  0.00     0.098 H 
ATOM     24  C11 8TK d   1      -6.643 -49.365  21.524  0.00  0.00    -0.041 A 
ATOM     25  H5  8TK d   1      -7.570 -48.879  21.825  0.00  0.00     0.088 H 
BRANCH  15  26
ATOM     26  C25 8TK d   1      -4.042 -51.756  22.927  0.00  0.00    -0.020 A 
ATOM     27  C30 8TK d   1      -4.166 -53.161  22.844  0.00  0.00    -0.072 A 
ATOM     28  C29 8TK d   1      -3.438 -53.961  23.735  0.00  0.00    -0.082 A 
ATOM     29  H12 8TK d   1      -4.814 -53.613  22.102  0.00  0.00     0.084 H 
ATOM     30  C28 8TK d   1      -2.615 -53.382  24.709  0.00  0.00    -0.083 A 
ATOM     31  H18 8TK d   1      -3.513 -55.040  23.669  0.00  0.00     0.083 H 
ATOM     32  C27 8TK d   1      -2.487 -51.997  24.792  0.00  0.00    -0.082 A 
ATOM     33  H17 8TK d   1      -2.074 -54.015  25.403  0.00  0.00     0.083 H 
ATOM     34  C26 8TK d   1      -3.206 -51.187  23.918  0.00  0.00    -0.072 A 
ATOM     35  H11 8TK d   1      -1.832 -51.553  25.533  0.00  0.00     0.083 H 
ATOM     36  H16 8TK d   1      -3.125 -50.109  23.997  0.00  0.00     0.084 H 
ENDBRANCH  15  26
BRANCH  19  37
ATOM     37  C1  8TK d   1      -3.448 -49.920  17.784  0.00  0.00    -0.036 C 
ATOM     38  H1  8TK d   1      -3.393 -49.469  16.782  0.00  0.00     0.035 H 
ATOM     39  H2  8TK d   1      -3.560 -51.010  17.689  0.00  0.00     0.035 H 
ATOM     40  H3  8TK d   1      -2.526 -49.693  18.340  0.00  0.00     0.035 H 
ENDBRANCH  19  37
ENDBRANCH  12  14
BRANCH  12  41
ATOM     41  C14 8TK d   1      -7.629 -51.654  23.556  0.00  0.00    -0.053 C 
ATOM     42  H7  8TK d   1      -8.125 -51.881  24.511  0.00  0.00     0.030 H 
ATOM     43  H8  8TK d   1      -7.083 -52.543  23.207  0.00  0.00     0.030 H 
ATOM     44  H9  8TK d   1      -8.384 -51.370  22.808  0.00  0.00     0.030 H 
ENDBRANCH  12  41
ENDBRANCH  10  12
ENDBRANCH   1  10
BRANCH   4  45
ATOM     45  N22 8TK d   1      -7.394 -44.947  26.362  0.00  0.00    -0.383 N 
ATOM     46  H14 8TK d   1      -6.861 -44.199  26.828  0.00  0.00     0.157 HD
ATOM     47  H15 8TK d   1      -8.411 -44.850  26.233  0.00  0.00     0.157 HD
ENDBRANCH   4  45
TORSDOF 7
