REMARK  11 active torsions:
REMARK  status: ('A' for Active; 'I' for Inactive)
REMARK    1  A    between atoms: C8_5  and  C14_11 
REMARK    2  A    between atoms: C23_27  and  C9_6 
REMARK    3  A    between atoms: C10_7  and  N29_21 
REMARK    4  A    between atoms: N30_30  and  C11_8 
REMARK    5  A    between atoms: C15_12  and  C24_18 
REMARK    6  A    between atoms: C16_13  and  C19_14 
REMARK    7  A    between atoms: C24_18  and  C20_15 
REMARK    8  A    between atoms: N31_31  and  C21_16 
REMARK    9  A    between atoms: N31_31  and  C22_17 
REMARK   10  A    between atoms: C24_18  and  N30_30 
REMARK   11  A    between atoms: C23_27  and  N31_31 
ROOT
ATOM      1  C1  8TN d   1      -8.840 -47.189  25.142  0.00  0.00     0.107 C 
ATOM      2  C7  8TN d   1      -7.437 -47.336  25.358  0.00  0.00     0.135 A 
ATOM      3  C10 8TN d   1      -6.736 -46.324  25.988  0.00  0.00     0.147 A 
ATOM      4  C11 8TN d   1      -6.737 -48.469  24.963  0.00  0.00     0.150 A 
ATOM      5  N25 8TN d   1      -9.977 -47.018  24.989  0.00  0.00    -0.191 NA
ATOM      6  N26 8TN d   1      -5.419 -46.407  26.208  0.00  0.00    -0.223 NA
ATOM      7  C6  8TN d   1      -4.826 -47.520  25.772  0.00  0.00     0.091 A 
ATOM      8  N27 8TN d   1      -5.413 -48.558  25.169  0.00  0.00    -0.223 NA
ATOM      9  H23 8TN d   1      -3.755 -47.590  25.923  0.00  0.00     0.146 H 
ENDROOT
BRANCH   3  10
ATOM     10  N29 8TN d   1      -7.407 -45.181  26.433  0.00  0.00    -0.383 N 
ATOM     11  H19 8TN d   1      -6.885 -44.427  26.902  0.00  0.00     0.157 HD
ATOM     12  H20 8TN d   1      -8.423 -45.093  26.292  0.00  0.00     0.157 HD
ENDBRANCH   3  10
BRANCH   4  13
ATOM     13  N30 8TN d   1      -7.456 -49.491  24.322  0.00  0.00    -0.365 N 
ATOM     14  H27 8TN d   1      -8.474 -49.425  24.181  0.00  0.00     0.161 HD
BRANCH  13  15
ATOM     15  C24 8TN d   1      -6.693 -50.656  23.862  0.00  0.00     0.030 C 
ATOM     16  H18 8TN d   1      -5.930 -50.900  24.616  0.00  0.00     0.079 H 
BRANCH  15  17
ATOM     17  C15 8TN d   1      -6.023 -50.475  22.530  0.00  0.00    -0.041 A 
ATOM     18  C12 8TN d   1      -6.686 -49.601  21.585  0.00  0.00    -0.066 A 
ATOM     19  C17 8TN d   1      -6.148 -49.416  20.378  0.00  0.00     0.085 A 
ATOM     20  H3  8TN d   1      -7.614 -49.100  21.857  0.00  0.00     0.081 H 
ATOM     21  N28 8TN d   1      -4.992 -50.059  20.015  0.00  0.00    -0.303 N 
ATOM     22  S33 8TN d   1      -6.811 -48.392  19.159  0.00  0.00    -0.110 SA
ATOM     23  H24 8TN d   1      -5.574 -48.570  20.784  0.00  0.00     0.097 H 
ATOM     24  C16 8TN d   1      -4.673 -49.710  18.726  0.00  0.00     0.018 A 
ATOM     25  C18 8TN d   1      -4.290 -50.915  20.854  0.00  0.00     0.238 A 
ATOM     26  C13 8TN d   1      -5.514 -48.852  18.147  0.00  0.00    -0.025 A 
ATOM     27  H4  8TN d   1      -5.387 -48.482  17.131  0.00  0.00     0.097 H 
ATOM     28  C14 8TN d   1      -4.874 -51.116  22.204  0.00  0.00     0.073 A 
ATOM     29  O32 8TN d   1      -3.247 -51.493  20.573  0.00  0.00    -0.272 OA
ATOM     30  H5  8TN d   1      -5.461 -51.973  21.843  0.00  0.00     0.069 H 
BRANCH  24  31
ATOM     31  C19 8TN d   1      -3.479 -50.261  18.029  0.00  0.00    -0.037 C 
ATOM     32  H6  8TN d   1      -3.423 -49.844  17.013  0.00  0.00     0.035 H 
ATOM     33  H7  8TN d   1      -3.561 -51.356  17.972  0.00  0.00     0.035 H 
ATOM     34  H8  8TN d   1      -2.571 -49.989  18.587  0.00  0.00     0.035 H 
ENDBRANCH  24  31
BRANCH  28  35
ATOM     35  C8  8TN d   1      -4.152 -51.994  23.123  0.00  0.00    -0.040 A 
ATOM     36  C3  8TN d   1      -3.310 -51.460  24.078  0.00  0.00    -0.076 A 
ATOM     37  C2  8TN d   1      -2.595 -52.288  24.923  0.00  0.00    -0.082 A 
ATOM     38  H2  8TN d   1      -3.209 -50.384  24.166  0.00  0.00     0.084 H 
ATOM     39  C4  8TN d   1      -2.727 -53.658  24.803  0.00  0.00    -0.075 A 
ATOM     40  H1  8TN d   1      -1.936 -51.866  25.673  0.00  0.00     0.083 H 
ATOM     41  C9  8TN d   1      -3.569 -54.200  23.849  0.00  0.00    -0.032 A 
ATOM     42  H21 8TN d   1      -2.167 -54.312  25.461  0.00  0.00     0.084 H 
ATOM     43  C5  8TN d   1      -4.279 -53.367  23.005  0.00  0.00    -0.068 A 
ATOM     44  H22 8TN d   1      -4.934 -53.789  22.252  0.00  0.00     0.085 H 
BRANCH  41  45
ATOM     45  C23 8TN d   1      -3.679 -55.689  23.700  0.00  0.00     0.106 C 
ATOM     46  H25 8TN d   1      -4.736 -55.976  23.801  0.00  0.00     0.083 H 
ATOM     47  H26 8TN d   1      -3.091 -56.167  24.497  0.00  0.00     0.083 H 
BRANCH  45  48
ATOM     48  N31 8TN d   1      -3.185 -56.166  22.402  0.00  0.00    -0.075 N 
ATOM     49  H28 8TN d   1      -3.508 -55.555  21.668  0.00  0.00     0.279 HD
BRANCH  48  50
ATOM     50  C21 8TN d   1      -1.731 -56.234  22.394  0.00  0.00     0.066 C 
ATOM     51  H12 8TN d   1      -1.386 -56.593  21.413  0.00  0.00     0.068 H 
ATOM     52  H13 8TN d   1      -1.392 -56.927  23.178  0.00  0.00     0.068 H 
ATOM     53  H14 8TN d   1      -1.316 -55.233  22.585  0.00  0.00     0.068 H 
ENDBRANCH  48  50
BRANCH  48  54
ATOM     54  C22 8TN d   1      -3.669 -57.523  22.190  0.00  0.00     0.066 C 
ATOM     55  H15 8TN d   1      -4.769 -57.524  22.188  0.00  0.00     0.068 H 
ATOM     56  H16 8TN d   1      -3.303 -58.173  22.998  0.00  0.00     0.068 H 
ATOM     57  H17 8TN d   1      -3.300 -57.897  21.224  0.00  0.00     0.068 H 
ENDBRANCH  48  54
ENDBRANCH  45  48
ENDBRANCH  41  45
ENDBRANCH  28  35
ENDBRANCH  15  17
BRANCH  15  58
ATOM     58  C20 8TN d   1      -7.671 -51.813  23.704  0.00  0.00    -0.054 C 
ATOM     59  H9  8TN d   1      -8.191 -51.987  24.658  0.00  0.00     0.030 H 
ATOM     60  H10 8TN d   1      -7.121 -52.721  23.415  0.00  0.00     0.030 H 
ATOM     61  H11 8TN d   1      -8.408 -51.567  22.925  0.00  0.00     0.030 H 
ENDBRANCH  15  58
ENDBRANCH  13  15
ENDBRANCH   4  13
TORSDOF 11
