REMARK  6 active torsions:
REMARK  status: ('A' for Active; 'I' for Inactive)
REMARK    1  A    between atoms: N01_1  and  C02_2 
REMARK    2  A    between atoms: C02_2  and  C03_3 
REMARK    3  A    between atoms: C06_6  and  C09_9 
REMARK       I    between atoms: C09_9  and  N11_11 
REMARK    4  A    between atoms: N11_11  and  C12_12 
REMARK    5  A    between atoms: B17_17  and  O18_18 
REMARK    6  A    between atoms: C20_19  and  C24_23 
ROOT
ATOM      1  C12 OK3 d   1     173.824  86.076 208.994  0.00  0.00     0.050 C 
ATOM      2  C13 OK3 d   1     172.525  86.368 209.681  0.00  0.00    -0.022 C 
ATOM      3  C14 OK3 d   1     171.730  85.024 209.710  0.00  0.00    -0.024 A 
ATOM      4  C15 OK3 d   1     172.430  83.881 210.111  0.00  0.00     0.075 A 
ATOM      5  O16 OK3 d   1     173.828  84.029 210.463  0.00  0.00    -0.386 OA
ATOM      6  B17 OK3 d   1     174.589  84.900 209.713  0.00  0.00     0.522 B 
ATOM      7  C20 OK3 d   1     171.784  82.629 210.164  0.00  0.00     0.073 A 
ATOM      8  C21 OK3 d   1     170.443  82.526 209.818  0.00  0.00    -0.064 A 
ATOM      9  C22 OK3 d   1     169.742  83.674 209.407  0.00  0.00    -0.081 A 
ATOM     10  C23 OK3 d   1     170.383  84.919 209.345  0.00  0.00    -0.074 A 
ATOM     11  H   OK3 d   1     174.564  86.875 208.948  0.00  0.00     0.065 H 
ATOM     12  H   OK3 d   1     171.968  87.141 209.152  0.00  0.00     0.042 H 
ATOM     13  H   OK3 d   1     172.692  86.746 210.690  0.00  0.00     0.042 H 
ATOM     14  H   OK3 d   1     169.937  81.562 209.865  0.00  0.00     0.085 H 
ATOM     15  H   OK3 d   1     168.690  83.595 209.134  0.00  0.00     0.083 H 
ATOM     16  H   OK3 d   1     169.835  85.801 209.014  0.00  0.00     0.084 H 
ENDROOT
BRANCH   1  17
ATOM     17  N11 OK3 d   1     173.237  85.645 207.734  0.00  0.00    -0.355 N 
ATOM     18  C09 OK3 d   1     172.677  86.633 206.811  0.00  0.00     0.251 C 
ATOM     19  O10 OK3 d   1     172.710  87.799 207.060  0.00  0.00    -0.268 OA
ATOM     20  H   OK3 d   1     173.216  84.654 207.494  0.00  0.00     0.162 HD
BRANCH  18  21
ATOM     21  C06 OK3 d   1     171.952  86.180 205.550  0.00  0.00     0.032 A 
ATOM     22  C05 OK3 d   1     171.327  84.945 205.618  0.00  0.00    -0.067 A 
ATOM     23  C04 OK3 d   1     170.594  84.450 204.556  0.00  0.00    -0.074 A 
ATOM     24  H   OK3 d   1     171.415  84.352 206.528  0.00  0.00     0.085 H 
ATOM     25  C03 OK3 d   1     170.459  85.217 203.420  0.00  0.00    -0.033 A 
ATOM     26  H   OK3 d   1     170.129  83.466 204.617  0.00  0.00     0.084 H 
ATOM     27  C08 OK3 d   1     171.055  86.475 203.348  0.00  0.00    -0.074 A 
ATOM     28  C07 OK3 d   1     171.798  86.974 204.422  0.00  0.00    -0.067 A 
ATOM     29  H   OK3 d   1     170.941  87.076 202.446  0.00  0.00     0.084 H 
ATOM     30  H   OK3 d   1     172.247  87.966 204.375  0.00  0.00     0.085 H 
BRANCH  25  31
ATOM     31  C02 OK3 d   1     169.623  84.631 202.282  0.00  0.00     0.103 C 
ATOM     32  H   OK3 d   1     169.706  85.264 201.399  0.00  0.00     0.082 H 
ATOM     33  H   OK3 d   1     169.985  83.633 202.034  0.00  0.00     0.082 H 
BRANCH  31  34
ATOM     34  N01 OK3 d   1     168.236  84.560 202.709  0.00  0.00    -0.075 N 
ATOM     35  H   OK3 d   1     167.669  84.170 201.956  0.00  0.00     0.274 HD
ATOM     36  H   OK3 d   1     168.165  83.963 203.533  0.00  0.00     0.274 HD
ATOM     37  H   OK3 d   1     167.903  85.497 202.936  0.00  0.00     0.274 HD
ENDBRANCH  31  34
ENDBRANCH  25  31
ENDBRANCH  18  21
ENDBRANCH   1  17
BRANCH   6  38
ATOM     38  O18 OK3 d   1     175.287  84.212 208.768  0.00  0.00    -0.436 OA
ATOM     39  H   OK3 d   1     174.674  83.750 208.192  0.00  0.00     0.185 HD
ENDBRANCH   6  38
BRANCH   7  40
ATOM     40  C24 OK3 d   1     172.535  81.386 210.648  0.00  0.00     0.212 C 
ATOM     41  O25 OK3 d   1     172.470  80.277 210.054  0.00  0.00    -0.644 OA
ATOM     42  O26 OK3 d   1     173.202  81.482 211.714  0.00  0.00    -0.644 OA
ENDBRANCH   7  40
TORSDOF 6
