REMARK  4 active torsions:
REMARK  status: ('A' for Active; 'I' for Inactive)
REMARK       I    between atoms: CAN_2  and  N_3 
REMARK    1  A    between atoms: CA_5  and  C_6 
REMARK       I    between atoms: C_6  and  NAA_8 
REMARK    2  A    between atoms: CAO_11  and  NAK_12 
REMARK    3  A    between atoms: NAK_12  and  OAL_13 
REMARK    4  A    between atoms: OAL_13  and  SAR_14 
ROOT
ATOM      1  OAC NXL d   1     154.922 162.715 289.325  0.00  0.00    -0.284 OA
ATOM      2  CAN NXL d   1     156.045 162.381 289.094  0.00  0.00     0.171 C 
ATOM      3  N   NXL d   1     156.328 161.210 288.603  0.00  0.00    -0.344 N 
ATOM      4  CAJ NXL d   1     157.637 160.831 288.162  0.00  0.00     0.027 C 
ATOM      5  CA  NXL d   1     155.351 160.179 288.528  0.00  0.00     0.091 C 
ATOM      6  CB  NXL d   1     155.327 159.483 287.151  0.00  0.00    -0.036 C 
ATOM      7  CAH NXL d   1     156.691 159.101 286.649  0.00  0.00    -0.032 C 
ATOM      8  CAO NXL d   1     157.710 160.228 286.746  0.00  0.00     0.147 C 
ATOM      9  H1  NXL d   1     156.856 163.077 289.300  0.00  0.00     0.180 H 
ATOM     10  H2  NXL d   1     158.030 160.085 288.869  0.00  0.00     0.067 H 
ATOM     11  H3  NXL d   1     158.274 161.727 288.182  0.00  0.00     0.067 H 
ATOM     12  H4  NXL d   1     154.372 160.658 288.676  0.00  0.00     0.087 H 
ATOM     13  H7  NXL d   1     154.867 160.167 286.423  0.00  0.00     0.036 H 
ATOM     14  H8  NXL d   1     154.718 158.571 287.233  0.00  0.00     0.036 H 
ATOM     15  H9  NXL d   1     156.603 158.801 285.594  0.00  0.00     0.036 H 
ATOM     16  H10 NXL d   1     157.055 158.250 287.243  0.00  0.00     0.036 H 
ATOM     17  H11 NXL d   1     158.715 159.804 286.603  0.00  0.00     0.091 H 
ENDROOT
BRANCH   8  18
ATOM     18  NAK NXL d   1     157.489 161.251 285.672  0.00  0.00     0.061 N 
ATOM     19  H12 NXL d   1     157.790 160.851 284.797  0.00  0.00     0.316 HD
ATOM     20  H13 NXL d   1     158.058 162.055 285.888  0.00  0.00     0.316 HD
BRANCH  18  21
ATOM     21  OAL NXL d   1     156.341 161.631 285.535  0.00  0.00    -0.054 OA
BRANCH  21  22
ATOM     22  SAR NXL d   1     156.185 163.335 285.361  0.00  0.00     0.279 S 
ATOM     23  OAD NXL d   1     156.593 163.791 286.592  0.00  0.00    -0.571 OA
ATOM     24  OAE NXL d   1     156.998 163.529 284.330  0.00  0.00    -0.571 OA
ATOM     25  OAG NXL d   1     154.850 163.544 285.209  0.00  0.00    -0.571 OA
ENDBRANCH  21  22
ENDBRANCH  18  21
ENDBRANCH   8  18
BRANCH   5  26
ATOM     26  C   NXL d   1     155.510 159.141 289.594  0.00  0.00     0.238 C 
ATOM     27  O   NXL d   1     156.441 159.128 290.339  0.00  0.00    -0.271 OA
ATOM     28  NAA NXL d   1     154.644 158.198 289.724  0.00  0.00    -0.368 N 
ATOM     29  H5  NXL d   1     154.759 157.509 290.439  0.00  0.00     0.159 HD
ATOM     30  H6  NXL d   1     153.856 158.154 289.110  0.00  0.00     0.159 HD
ENDBRANCH   5  26
TORSDOF 4
