REMARK  6 active torsions:
REMARK  status: ('A' for Active; 'I' for Inactive)
REMARK    1  A    between atoms: N5_16  and  C6_2 
REMARK    2  A    between atoms: C9_6  and  S1_17 
REMARK    3  A    between atoms: CB_11  and  CG_21 
REMARK    4  A    between atoms: C2_12  and  N5_16 
REMARK    5  A    between atoms: S1_17  and  N6_19 
REMARK    6  A    between atoms: CE2_25  and  C18_27 
ROOT
ATOM      1  C5  72L d   1      -9.358 -20.551  22.199  0.00  0.00     0.067 A 
ATOM      2  N1  72L d   1      -5.848 -22.878  23.742  0.00  0.00    -0.060 NA
ATOM      3  N2  72L d   1      -8.044 -22.883  24.510  0.00  0.00    -0.040 NA
ATOM      4  N3  72L d   1      -9.519 -21.390  23.250  0.00  0.00    -0.222 NA
ATOM      5  CB  72L d   1      -6.113 -21.981  22.751  0.00  0.00     0.117 A 
ATOM      6  C2  72L d   1      -6.776 -23.330  24.608  0.00  0.00     0.729 A 
ATOM      7  C   72L d   1      -8.375 -21.985  23.540  0.00  0.00     0.199 A 
ATOM      8  CA  72L d   1      -7.424 -21.522  22.635  0.00  0.00     0.112 A 
ATOM      9  N   72L d   1      -8.109 -20.571  21.739  0.00  0.00    -0.346 N 
ATOM     10  H1  72L d   1     -10.153 -19.935  21.781  0.00  0.00     0.143 H 
ATOM     11  H6  72L d   1      -7.714 -20.047  20.945  0.00  0.00     0.167 HD
ENDROOT
BRANCH   5  12
ATOM     12  CG  72L d   1      -5.015 -21.573  21.820  0.00  0.00    -0.004 A 
ATOM     13  CD1 72L d   1      -5.176 -20.702  20.706  0.00  0.00    -0.071 A 
ATOM     14  CE1 72L d   1      -4.090 -20.406  19.876  0.00  0.00    -0.081 A 
ATOM     15  H10 72L d   1      -6.146 -20.265  20.500  0.00  0.00     0.084 H 
ATOM     16  C15 72L d   1      -2.845 -20.974  20.124  0.00  0.00    -0.072 A 
ATOM     17  H11 72L d   1      -4.219 -19.732  19.037  0.00  0.00     0.083 H 
ATOM     18  CE2 72L d   1      -2.708 -21.817  21.202  0.00  0.00    -0.025 A 
ATOM     19  H12 72L d   1      -2.000 -20.757  19.481  0.00  0.00     0.084 H 
ATOM     20  CD2 72L d   1      -3.753 -22.133  22.035  0.00  0.00    -0.060 A 
ATOM     21  H13 72L d   1      -3.599 -22.818  22.861  0.00  0.00     0.086 H 
BRANCH  18  22
ATOM     22  C18 72L d   1      -1.419 -22.429  21.493  0.00  0.00    -0.026 A 
ATOM     23  C19 72L d   1      -1.326 -23.772  21.322  0.00  0.00    -0.072 A 
ATOM     24  C20 72L d   1      -0.145 -24.359  21.589  0.00  0.00    -0.082 A 
ATOM     25  H14 72L d   1      -2.175 -24.353  20.981  0.00  0.00     0.084 H 
ATOM     26  C21 72L d   1       0.931 -23.601  22.020  0.00  0.00    -0.083 A 
ATOM     27  H15 72L d   1      -0.035 -25.430  21.466  0.00  0.00     0.083 H 
ATOM     28  C22 72L d   1       0.816 -22.243  22.187  0.00  0.00    -0.082 A 
ATOM     29  H16 72L d   1       1.877 -24.087  22.229  0.00  0.00     0.083 H 
ATOM     30  C23 72L d   1      -0.375 -21.651  21.920  0.00  0.00    -0.072 A 
ATOM     31  H17 72L d   1       1.661 -21.655  22.526  0.00  0.00     0.083 H 
ATOM     32  H18 72L d   1      -0.499 -20.581  22.042  0.00  0.00     0.084 H 
ENDBRANCH  18  22
ENDBRANCH   5  12
BRANCH   6  33
ATOM     33  N5  72L d   1      -6.414 -24.289  25.612  0.00  0.00    -0.188 N 
ATOM     34  H7  72L d   1      -7.010 -24.378  26.448  0.00  0.00     0.184 HD
BRANCH  33  35
ATOM     35  C6  72L d   1      -5.232 -25.146  25.497  0.00  0.00     0.049 A 
ATOM     36  C11 72L d   1      -4.785 -25.799  26.646  0.00  0.00    -0.055 A 
ATOM     37  C10 72L d   1      -3.678 -26.612  26.602  0.00  0.00    -0.058 A 
ATOM     38  H2  72L d   1      -5.316 -25.664  27.582  0.00  0.00     0.087 H 
ATOM     39  C9  72L d   1      -3.013 -26.797  25.406  0.00  0.00     0.079 A 
ATOM     40  H5  72L d   1      -3.329 -27.106  27.502  0.00  0.00     0.086 H 
ATOM     41  C8  72L d   1      -3.420 -26.157  24.266  0.00  0.00    -0.058 A 
ATOM     42  C7  72L d   1      -4.532 -25.347  24.300  0.00  0.00    -0.055 A 
ATOM     43  H4  72L d   1      -2.869 -26.288  23.342  0.00  0.00     0.086 H 
ATOM     44  H3  72L d   1      -4.870 -24.860  23.392  0.00  0.00     0.087 H 
BRANCH  39  45
ATOM     45  S1  72L d   1      -1.617 -27.793  25.270  0.00  0.00     0.256 S 
ATOM     46  OH  72L d   1      -1.736 -28.650  24.162  0.00  0.00    -0.201 OA
ATOM     47  O2  72L d   1      -1.336 -28.561  26.429  0.00  0.00    -0.201 OA
BRANCH  45  48
ATOM     48  N6  72L d   1      -0.498 -26.594  24.966  0.00  0.00    -0.324 N 
ATOM     49  H8  72L d   1       0.464 -26.831  24.828  0.00  0.00     0.169 HD
ATOM     50  H9  72L d   1      -0.789 -25.638  24.921  0.00  0.00     0.169 HD
ENDBRANCH  45  48
ENDBRANCH  39  45
ENDBRANCH  33  35
ENDBRANCH   6  33
TORSDOF 6
