REMARK  2 active torsions:
REMARK  status: ('A' for Active; 'I' for Inactive)
REMARK    1  A    between atoms: C2_2  and  C7_7 
REMARK    2  A    between atoms: C3_3  and  C6_6 
ROOT
ATOM      1  C1  8VN d   1      -0.241 -33.307 -17.915  0.00  0.00     0.109 C 
ATOM      2  C2  8VN d   1       1.121 -31.358 -17.617  0.00  0.00     0.196 C 
ATOM      3  C3  8VN d   1       2.493 -33.114 -19.028  0.00  0.00     0.147 C 
ATOM      4  C4  8VN d   1       1.472 -32.006 -18.989  0.00  0.00     0.063 C 
ATOM      5  C5  8VN d   1       0.240 -32.830 -19.291  0.00  0.00     0.102 C 
ATOM      6  O1  8VN d   1       0.726 -33.935 -20.040  0.00  0.00    -0.248 OA
ATOM      7  N1  8VN d   1       0.034 -32.170 -17.029  0.00  0.00    -0.058 N 
ATOM      8  N2  8VN d   1       2.058 -34.159 -19.606  0.00  0.00    -0.131 NA
ATOM      9  H1  8VN d   1       0.318 -34.198 -17.593  0.00  0.00     0.079 H 
ATOM     10  H2  8VN d   1      -1.317 -33.536 -17.935  0.00  0.00     0.079 H 
ATOM     11  H3  8VN d   1       2.003 -31.366 -16.959  0.00  0.00     0.103 H 
ATOM     12  H4  8VN d   1       1.700 -31.229 -19.733  0.00  0.00     0.058 H 
ATOM     13  H5  8VN d   1      -0.537 -32.270 -19.833  0.00  0.00     0.091 H 
ATOM     14  H6  8VN d   1       0.316 -32.508 -16.122  0.00  0.00     0.278 HD
ATOM     15  H7  8VN d   1      -0.796 -31.606 -16.934  0.00  0.00     0.278 HD
ENDROOT
BRANCH   2  16
ATOM     16  C7  8VN d   1       0.631 -29.900 -17.808  0.00  0.00     0.205 C 
ATOM     17  O4  8VN d   1      -0.354 -29.470 -17.167  0.00  0.00    -0.646 OA
ATOM     18  O5  8VN d   1       1.250 -29.169 -18.607  0.00  0.00    -0.646 OA
ENDBRANCH   2  16
BRANCH   3  19
ATOM     19  C6  8VN d   1       3.888 -32.970 -18.431  0.00  0.00     0.227 C 
ATOM     20  O3  8VN d   1       4.486 -34.020 -18.104  0.00  0.00    -0.643 OA
ATOM     21  O2  8VN d   1       4.374 -31.828 -18.299  0.00  0.00    -0.643 OA
ENDBRANCH   3  19
TORSDOF 2
