REMARK  2 active torsions:
REMARK  status: ('A' for Active; 'I' for Inactive)
REMARK    1  A    between atoms: C2_2  and  C7_7 
REMARK    2  A    between atoms: C3_3  and  C6_6 
ROOT
ATOM      1  C1  8VN d   1      19.826  -7.429 104.038  0.00  0.00     0.109 C 
ATOM      2  C2  8VN d   1      21.559  -6.810 105.583  0.00  0.00     0.196 C 
ATOM      3  C3  8VN d   1      19.531  -5.564 106.674  0.00  0.00     0.147 C 
ATOM      4  C4  8VN d   1      20.229  -6.868 106.394  0.00  0.00     0.063 C 
ATOM      5  C5  8VN d   1      19.222  -7.506 105.449  0.00  0.00     0.102 C 
ATOM      6  O1  8VN d   1      18.050  -6.695 105.502  0.00  0.00    -0.248 OA
ATOM      7  N1  8VN d   1      21.276  -7.358 104.245  0.00  0.00    -0.058 N 
ATOM      8  N2  8VN d   1      18.362  -5.493 106.183  0.00  0.00    -0.131 NA
ATOM      9  H1  8VN d   1      19.467  -6.532 103.513  0.00  0.00     0.079 H 
ATOM     10  H2  8VN d   1      19.563  -8.325 103.456  0.00  0.00     0.079 H 
ATOM     11  H3  8VN d   1      21.906  -5.768 105.513  0.00  0.00     0.103 H 
ATOM     12  H4  8VN d   1      20.381  -7.437 107.323  0.00  0.00     0.058 H 
ATOM     13  H5  8VN d   1      19.001  -8.546 105.731  0.00  0.00     0.091 H 
ATOM     14  H6  8VN d   1      21.686  -6.760 103.544  0.00  0.00     0.278 HD
ATOM     15  H7  8VN d   1      21.671  -8.282 104.171  0.00  0.00     0.278 HD
ENDROOT
BRANCH   2  16
ATOM     16  C7  8VN d   1      22.670  -7.690 106.209  0.00  0.00     0.205 C 
ATOM     17  O4  8VN d   1      22.754  -7.766 107.450  0.00  0.00    -0.646 OA
ATOM     18  O5  8VN d   1      23.473  -8.296 105.464  0.00  0.00    -0.646 OA
ENDBRANCH   2  16
BRANCH   3  19
ATOM     19  C6  8VN d   1      20.201  -4.454 107.477  0.00  0.00     0.227 C 
ATOM     20  O3  8VN d   1      21.171  -4.743 108.210  0.00  0.00    -0.643 OA
ATOM     21  O2  8VN d   1      19.742  -3.294 107.365  0.00  0.00    -0.643 OA
ENDBRANCH   3  19
TORSDOF 2
