REMARK  16 active torsions:
REMARK  status: ('A' for Active; 'I' for Inactive)
REMARK    1  A    between atoms: C33_2  and  C34_3 
REMARK       I    between atoms: C33_2  and  N1_4 
REMARK    2  A    between atoms: N1_4  and  UNK_5_5 
REMARK    3  A    between atoms: UNK_6_6  and  N2_7 
REMARK       I    between atoms: N2_7  and  C36_8 
REMARK    4  A    between atoms: C36_8  and  C38_9 
REMARK    5  A    between atoms: C42_13  and  O44_14 
REMARK    6  A    between atoms: O44_14  and  C45_15 
REMARK    7  A    between atoms: UNK_19_19  and  UNK_20_20 
REMARK    8  A    between atoms: UNK_20_20  and  UNK_21_21 
REMARK    9  A    between atoms: UNK_22_22  and  O1_25 
REMARK   10  A    between atoms: UNK_23_23  and  UNK_24_24 
REMARK   11  A    between atoms: O1_25  and  C1_26 
REMARK   12  A    between atoms: C2_27  and  O2_28 
REMARK   13  A    between atoms: C3_29  and  O3_30 
REMARK   14  A    between atoms: C4_31  and  O4_32 
REMARK   15  A    between atoms: C5_33  and  C6_35 
REMARK   16  A    between atoms: C6_35  and  O6_36 
ROOT
ATOM      1  UNK 8VW d   1      25.204 -10.743  -1.303  0.00  0.00     0.128 C 
ATOM      2  UNK 8VW d   1      24.840  -9.842  -0.096  0.00  0.00     0.081 C 
ATOM      3  UNK 8VW d   1      24.471 -10.287  -2.452  0.00  0.00    -0.354 OA
ATOM      4  UNK 8VW d   1      23.063 -10.480  -2.305  0.00  0.00     0.089 C 
ATOM      5  UNK 8VW d   1      22.612  -9.545  -1.157  0.00  0.00     0.095 C 
ATOM      6  UNK 8VW d   1      23.353  -9.885   0.127  0.00  0.00     0.086 C 
ATOM      7  H5  8VW d   1      24.969 -11.797  -1.097  0.00  0.00     0.121 H 
ATOM      8  H6  8VW d   1      25.161  -8.808  -0.288  0.00  0.00     0.083 H 
ATOM      9  H15 8VW d   1      22.826 -11.524  -2.053  0.00  0.00     0.090 H 
ATOM     10  H19 8VW d   1      22.813  -8.500  -1.435  0.00  0.00     0.091 H 
ATOM     11  H20 8VW d   1      23.075 -10.914   0.399  0.00  0.00     0.090 H 
ENDROOT
BRANCH   5  12
ATOM     12  O1  8VW d   1      21.245  -9.723  -0.934  0.00  0.00    -0.348 OA
BRANCH  12  13
ATOM     13  C1  8VW d   1      20.503  -8.566  -1.350  0.00  0.00     0.159 C 
ATOM     14  C2  8VW d   1      19.072  -9.000  -1.325  0.00  0.00     0.110 C 
ATOM     15  C3  8VW d   1      18.197  -7.786  -1.630  0.00  0.00     0.092 C 
ATOM     16  H23 8VW d   1      18.829  -9.402  -0.330  0.00  0.00     0.094 H 
ATOM     17  C4  8VW d   1      18.529  -6.630  -0.708  0.00  0.00     0.090 C 
ATOM     18  H25 8VW d   1      18.385  -7.468  -2.666  0.00  0.00     0.091 H 
ATOM     19  C5  8VW d   1      19.999  -6.275  -0.831  0.00  0.00     0.089 C 
ATOM     20  H27 8VW d   1      17.947  -5.752  -1.025  0.00  0.00     0.091 H 
ATOM     21  O5  8VW d   1      20.809  -7.424  -0.497  0.00  0.00    -0.348 OA
ATOM     22  H29 8VW d   1      20.185  -5.997  -1.879  0.00  0.00     0.090 H 
ATOM     23  H22 8VW d   1      20.777  -8.299  -2.381  0.00  0.00     0.133 H 
BRANCH  14  24
ATOM     24  O2  8VW d   1      18.803 -10.003  -2.328  0.00  0.00    -0.388 OA
ATOM     25  H24 8VW d   1      17.888 -10.255  -2.284  0.00  0.00     0.210 HD
ENDBRANCH  14  24
BRANCH  15  26
ATOM     26  O3  8VW d   1      16.829  -8.151  -1.505  0.00  0.00    -0.390 OA
ATOM     27  H26 8VW d   1      16.662  -8.450  -0.619  0.00  0.00     0.210 HD
ENDBRANCH  15  26
BRANCH  17  28
ATOM     28  O4  8VW d   1      18.123  -6.966   0.641  0.00  0.00    -0.390 OA
ATOM     29  H28 8VW d   1      17.187  -7.129   0.657  0.00  0.00     0.210 HD
ENDBRANCH  17  28
BRANCH  19  30
ATOM     30  C6  8VW d   1      20.465  -5.113   0.056  0.00  0.00     0.043 C 
ATOM     31  H30 8VW d   1      20.314  -5.348   1.120  0.00  0.00     0.078 H 
ATOM     32  H31 8VW d   1      19.925  -4.188  -0.195  0.00  0.00     0.078 H 
BRANCH  30  33
ATOM     33  O6  8VW d   1      21.838  -4.988  -0.240  0.00  0.00    -0.398 OA
ATOM     34  H32 8VW d   1      22.282  -5.801  -0.028  0.00  0.00     0.209 HD
ENDBRANCH  30  33
ENDBRANCH  19  30
ENDBRANCH  12  13
ENDBRANCH   5  12
BRANCH   4  35
ATOM     35  UNK 8VW d   1      22.442 -10.114  -3.660  0.00  0.00     0.043 C 
ATOM     36  H16 8VW d   1      21.364 -10.328  -3.619  0.00  0.00     0.078 H 
ATOM     37  H17 8VW d   1      22.910 -10.735  -4.438  0.00  0.00     0.078 H 
BRANCH  35  38
ATOM     38  UNK 8VW d   1      22.622  -8.710  -4.018  0.00  0.00    -0.398 OA
ATOM     39  H18 8VW d   1      23.550  -8.513  -4.066  0.00  0.00     0.209 HD
ENDBRANCH  35  38
ENDBRANCH   4  35
BRANCH   6  40
ATOM     40  UNK 8VW d   1      23.027  -9.038   1.249  0.00  0.00    -0.391 OA
ATOM     41  H21 8VW d   1      23.241  -8.137   1.037  0.00  0.00     0.210 HD
ENDBRANCH   6  40
BRANCH   2  42
ATOM     42  N2  8VW d   1      25.505 -10.360   1.085  0.00  0.00    -0.345 N 
ATOM     43  C36 8VW d   1      26.658  -9.895   1.597  0.00  0.00     0.252 C 
ATOM     44  O37 8VW d   1      27.259  -8.970   1.075  0.00  0.00    -0.268 OA
ATOM     45  H7  8VW d   1      25.070 -11.126   1.557  0.00  0.00     0.163 HD
BRANCH  43  46
ATOM     46  C38 8VW d   1      27.127 -10.427   2.939  0.00  0.00     0.034 A 
ATOM     47  C39 8VW d   1      26.704 -11.653   3.528  0.00  0.00    -0.068 A 
ATOM     48  C40 8VW d   1      27.156 -11.981   4.829  0.00  0.00    -0.079 A 
ATOM     49  H8  8VW d   1      26.046 -12.325   2.988  0.00  0.00     0.085 H 
ATOM     50  C41 8VW d   1      28.018 -11.078   5.506  0.00  0.00    -0.051 A 
ATOM     51  H9  8VW d   1      26.849 -12.907   5.301  0.00  0.00     0.083 H 
ATOM     52  C42 8VW d   1      28.438  -9.870   4.898  0.00  0.00     0.069 A 
ATOM     53  H10 8VW d   1      28.361 -11.318   6.506  0.00  0.00     0.087 H 
ATOM     54  C43 8VW d   1      27.982  -9.555   3.629  0.00  0.00    -0.036 A 
ATOM     55  H14 8VW d   1      28.289  -8.625   3.164  0.00  0.00     0.089 H 
BRANCH  52  56
ATOM     56  O44 8VW d   1      29.289  -8.985   5.515  0.00  0.00    -0.356 OA
BRANCH  56  57
ATOM     57  C45 8VW d   1      29.430  -7.601   5.172  0.00  0.00     0.010 C 
ATOM     58  H11 8VW d   1      30.180  -7.135   5.828  0.00  0.00     0.066 H 
ATOM     59  H12 8VW d   1      28.464  -7.091   5.300  0.00  0.00     0.066 H 
ATOM     60  H13 8VW d   1      29.755  -7.514   4.125  0.00  0.00     0.066 H 
ENDBRANCH  56  57
ENDBRANCH  52  56
ENDBRANCH  43  46
ENDBRANCH   2  42
BRANCH   1  61
ATOM     61  N1  8VW d   1      26.613 -10.566  -1.504  0.00  0.00    -0.333 N 
ATOM     62  C33 8VW d   1      27.421 -11.511  -2.010  0.00  0.00     0.215 C 
ATOM     63  O35 8VW d   1      27.004 -12.612  -2.355  0.00  0.00    -0.274 OA
ATOM     64  H4  8VW d   1      27.017  -9.687  -1.252  0.00  0.00     0.165 HD
BRANCH  62  65
ATOM     65  C34 8VW d   1      28.871 -11.137  -2.124  0.00  0.00    -0.003 C 
ATOM     66  H1  8VW d   1      29.014 -10.109  -1.759  0.00  0.00     0.040 H 
ATOM     67  H2  8VW d   1      29.184 -11.199  -3.177  0.00  0.00     0.040 H 
ATOM     68  H3  8VW d   1      29.477 -11.829  -1.520  0.00  0.00     0.040 H 
ENDBRANCH  62  65
ENDBRANCH   1  61
TORSDOF 16
