REMARK  18 active torsions:
REMARK  status: ('A' for Active; 'I' for Inactive)
REMARK    1  A    between atoms: C4_1  and  O4_25 
REMARK    2  A    between atoms: C3_2  and  O3_29 
REMARK    3  A    between atoms: C2_3  and  O2_24 
REMARK    4  A    between atoms: C1_4  and  O1_23 
REMARK    5  A    between atoms: C6_27  and  O6_5 
REMARK    6  A    between atoms: C33_7  and  C34_8 
REMARK       I    between atoms: N1_9  and  C33_7 
REMARK    7  A    between atoms: UNK_10_10  and  N1_9 
REMARK    8  A    between atoms: UNK_11_11  and  N2_12 
REMARK       I    between atoms: N2_12  and  C36_13 
REMARK    9  A    between atoms: C36_13  and  C38_14 
REMARK   10  A    between atoms: UNK_17_17  and  UNK_18_18 
REMARK   11  A    between atoms: UNK_18_18  and  UNK_19_19 
REMARK   12  A    between atoms: O1_23  and  UNK_20_20 
REMARK   13  A    between atoms: UNK_21_21  and  UNK_22_22 
REMARK   14  A    between atoms: C5_26  and  C6_27 
REMARK   15  A    between atoms: O3_29  and  C24_30 
REMARK   16  A    between atoms: C24_30  and  C25_31 
REMARK   17  A    between atoms: C29_35  and  O31_37 
REMARK   18  A    between atoms: O31_37  and  C32_38 
ROOT
ATOM      1  C4  8VQ d   1      18.421  -6.929  -0.766  0.00  0.00     0.090 C 
ATOM      2  C3  8VQ d   1      18.068  -8.150  -1.571  0.00  0.00     0.095 C 
ATOM      3  C2  8VQ d   1      19.001  -9.229  -1.214  0.00  0.00     0.110 C 
ATOM      4  C1  8VQ d   1      20.431  -8.830  -1.301  0.00  0.00     0.159 C 
ATOM      5  C5  8VQ d   1      19.905  -6.569  -0.873  0.00  0.00     0.089 C 
ATOM      6  O5  8VQ d   1      20.693  -7.699  -0.439  0.00  0.00    -0.348 OA
ATOM      7  H1  8VQ d   1      17.847  -6.084  -1.173  0.00  0.00     0.091 H 
ATOM      8  H2  8VQ d   1      18.163  -7.928  -2.644  0.00  0.00     0.091 H 
ATOM      9  H3  8VQ d   1      18.777  -9.593  -0.201  0.00  0.00     0.094 H 
ATOM     10  H4  8VQ d   1      20.670  -8.581  -2.346  0.00  0.00     0.133 H 
ATOM     11  H25 8VQ d   1      20.130  -6.337  -1.925  0.00  0.00     0.090 H 
ENDROOT
BRANCH   4  12
ATOM     12  O1  8VQ d   1      21.292  -9.835  -0.836  0.00  0.00    -0.348 OA
BRANCH  12  13
ATOM     13  UNK 8VQ d   1      22.660  -9.690  -1.001  0.00  0.00     0.095 C 
ATOM     14  UNK 8VQ d   1      23.157 -10.579  -2.171  0.00  0.00     0.089 C 
ATOM     15  UNK 8VQ d   1      24.558 -10.495  -2.167  0.00  0.00    -0.354 OA
ATOM     16  H16 8VQ d   1      22.826 -11.619  -2.032  0.00  0.00     0.090 H 
ATOM     17  UNK 8VQ d   1      25.243 -11.069  -1.088  0.00  0.00     0.128 C 
ATOM     18  UNK 8VQ d   1      24.780 -10.223   0.134  0.00  0.00     0.081 C 
ATOM     19  H10 8VQ d   1      24.984 -12.131  -0.966  0.00  0.00     0.121 H 
ATOM     20  UNK 8VQ d   1      23.236 -10.206   0.267  0.00  0.00     0.086 C 
ATOM     21  H11 8VQ d   1      25.186  -9.203   0.064  0.00  0.00     0.083 H 
ATOM     22  H21 8VQ d   1      22.850 -11.219   0.455  0.00  0.00     0.090 H 
ATOM     23  H20 8VQ d   1      22.934  -8.639  -1.174  0.00  0.00     0.091 H 
BRANCH  14  24
ATOM     24  UNK 8VQ d   1      22.643 -10.035  -3.519  0.00  0.00     0.043 C 
ATOM     25  H17 8VQ d   1      21.565 -10.243  -3.579  0.00  0.00     0.078 H 
ATOM     26  H18 8VQ d   1      23.166 -10.574  -4.323  0.00  0.00     0.078 H 
BRANCH  24  27
ATOM     27  UNK 8VQ d   1      22.835  -8.618  -3.736  0.00  0.00    -0.398 OA
ATOM     28  H19 8VQ d   1      22.488  -8.379  -4.588  0.00  0.00     0.209 HD
ENDBRANCH  24  27
ENDBRANCH  14  24
BRANCH  17  29
ATOM     29  N1  8VQ d   1      26.712 -10.914  -1.274  0.00  0.00    -0.333 N 
ATOM     30  C33 8VQ d   1      27.358 -11.881  -2.062  0.00  0.00     0.215 C 
ATOM     31  O35 8VQ d   1      26.701 -12.767  -2.627  0.00  0.00    -0.274 OA
ATOM     32  H9  8VQ d   1      27.215 -10.157  -0.858  0.00  0.00     0.165 HD
BRANCH  30  33
ATOM     33  C34 8VQ d   1      28.863 -11.743  -2.227  0.00  0.00    -0.003 C 
ATOM     34  H6  8VQ d   1      29.220 -10.889  -1.633  0.00  0.00     0.040 H 
ATOM     35  H7  8VQ d   1      29.102 -11.577  -3.288  0.00  0.00     0.040 H 
ATOM     36  H8  8VQ d   1      29.356 -12.663  -1.880  0.00  0.00     0.040 H 
ENDBRANCH  30  33
ENDBRANCH  17  29
BRANCH  18  37
ATOM     37  N2  8VQ d   1      25.208 -10.901   1.372  0.00  0.00    -0.350 N 
ATOM     38  C36 8VQ d   1      26.434 -10.572   1.846  0.00  0.00     0.214 C 
ATOM     39  O37 8VQ d   1      27.132  -9.637   1.423  0.00  0.00    -0.274 OA
ATOM     40  H12 8VQ d   1      24.625 -11.568   1.837  0.00  0.00     0.163 HD
BRANCH  38  41
ATOM     41  C38 8VQ d   1      26.816 -11.454   3.004  0.00  0.00    -0.003 C 
ATOM     42  H13 8VQ d   1      27.813 -11.167   3.370  0.00  0.00     0.040 H 
ATOM     43  H14 8VQ d   1      26.834 -12.504   2.675  0.00  0.00     0.040 H 
ATOM     44  H15 8VQ d   1      26.081 -11.336   3.813  0.00  0.00     0.040 H 
ENDBRANCH  38  41
ENDBRANCH  18  37
BRANCH  20  45
ATOM     45  UNK 8VQ d   1      22.955  -9.351   1.411  0.00  0.00    -0.391 OA
ATOM     46  H22 8VQ d   1      23.322  -8.488   1.258  0.00  0.00     0.210 HD
ENDBRANCH  20  45
ENDBRANCH  12  13
ENDBRANCH   4  12
BRANCH   3  47
ATOM     47  O2  8VQ d   1      18.814 -10.294  -2.218  0.00  0.00    -0.388 OA
ATOM     48  H23 8VQ d   1      19.387 -11.024  -2.015  0.00  0.00     0.210 HD
ENDBRANCH   3  47
BRANCH   2  49
ATOM     49  O3  8VQ d   1      16.755  -8.510  -1.295  0.00  0.00    -0.376 OA
BRANCH  49  50
ATOM     50  C24 8VQ d   1      15.821  -7.801  -2.121  0.00  0.00     0.044 C 
ATOM     51  H28 8VQ d   1      16.172  -7.808  -3.163  0.00  0.00     0.081 H 
ATOM     52  H29 8VQ d   1      15.735  -6.762  -1.770  0.00  0.00     0.081 H 
BRANCH  50  53
ATOM     53  C25 8VQ d   1      14.454  -8.485  -2.037  0.00  0.00    -0.032 A 
ATOM     54  C26 8VQ d   1      13.371  -7.910  -2.653  0.00  0.00    -0.075 A 
ATOM     55  C27 8VQ d   1      12.134  -8.572  -2.548  0.00  0.00    -0.080 A 
ATOM     56  H30 8VQ d   1      13.465  -6.979  -3.201  0.00  0.00     0.084 H 
ATOM     57  C28 8VQ d   1      11.966  -9.785  -1.877  0.00  0.00    -0.051 A 
ATOM     58  H31 8VQ d   1      11.267  -8.117  -3.012  0.00  0.00     0.083 H 
ATOM     59  C29 8VQ d   1      13.034 -10.394  -1.313  0.00  0.00     0.068 A 
ATOM     60  H32 8VQ d   1      10.983 -10.237  -1.808  0.00  0.00     0.087 H 
ATOM     61  C30 8VQ d   1      14.290  -9.731  -1.396  0.00  0.00    -0.043 A 
ATOM     62  H33 8VQ d   1      15.157 -10.203  -0.948  0.00  0.00     0.088 H 
BRANCH  59  63
ATOM     63  O31 8VQ d   1      12.835 -11.618  -0.646  0.00  0.00    -0.356 OA
BRANCH  63  64
ATOM     64  C32 8VQ d   1      13.913 -12.312   0.063  0.00  0.00     0.010 C 
ATOM     65  H34 8VQ d   1      13.523 -13.242   0.503  0.00  0.00     0.066 H 
ATOM     66  H35 8VQ d   1      14.304 -11.664   0.861  0.00  0.00     0.066 H 
ATOM     67  H36 8VQ d   1      14.722 -12.552  -0.643  0.00  0.00     0.066 H 
ENDBRANCH  63  64
ENDBRANCH  59  63
ENDBRANCH  50  53
ENDBRANCH  49  50
ENDBRANCH   2  49
BRANCH   5  68
ATOM     68  C6  8VQ d   1      20.329  -5.395  -0.012  0.00  0.00     0.043 C 
ATOM     69  H26 8VQ d   1      19.812  -4.489  -0.360  0.00  0.00     0.078 H 
ATOM     70  H27 8VQ d   1      20.052  -5.597   1.033  0.00  0.00     0.078 H 
BRANCH  68  71
ATOM     71  O6  8VQ d   1      21.711  -5.191  -0.088  0.00  0.00    -0.398 OA
ATOM     72  H5  8VQ d   1      22.162  -5.970   0.215  0.00  0.00     0.209 HD
ENDBRANCH  68  71
ENDBRANCH   5  68
BRANCH   1  73
ATOM     73  O4  8VQ d   1      18.008  -7.119   0.665  0.00  0.00    -0.390 OA
ATOM     74  H24 8VQ d   1      17.070  -7.260   0.707  0.00  0.00     0.210 HD
ENDBRANCH   1  73
TORSDOF 18
