REMARK  20 active torsions:
REMARK  status: ('A' for Active; 'I' for Inactive)
REMARK    1  A    between atoms: C33_2  and  C34_3 
REMARK       I    between atoms: C33_2  and  N1_4 
REMARK    2  A    between atoms: N1_4  and  UNK_5_5 
REMARK    3  A    between atoms: UNK_6_6  and  N2_7 
REMARK       I    between atoms: N2_7  and  C36_8 
REMARK    4  A    between atoms: C36_8  and  C38_9 
REMARK    5  A    between atoms: C42_13  and  O44_14 
REMARK    6  A    between atoms: O44_14  and  C45_15 
REMARK    7  A    between atoms: UNK_19_19  and  UNK_20_20 
REMARK    8  A    between atoms: UNK_20_20  and  UNK_21_21 
REMARK    9  A    between atoms: UNK_22_22  and  O1_25 
REMARK   10  A    between atoms: UNK_23_23  and  UNK_24_24 
REMARK   11  A    between atoms: O1_25  and  C1_26 
REMARK   12  A    between atoms: C2_27  and  O2_28 
REMARK   13  A    between atoms: C3_29  and  O3_36 
REMARK   14  A    between atoms: C4_30  and  O4_31 
REMARK   15  A    between atoms: C5_32  and  C6_33 
REMARK   16  A    between atoms: C6_33  and  O6_34 
REMARK   17  A    between atoms: O3_36  and  C24_37 
REMARK   18  A    between atoms: C24_37  and  C25_38 
REMARK   19  A    between atoms: C29_42  and  O31_44 
REMARK   20  A    between atoms: O31_44  and  C32_45 
ROOT
ATOM      1  UNK 8VT d   1      25.379 -10.819  -1.164  0.00  0.00     0.128 C 
ATOM      2  UNK 8VT d   1      24.928  -9.991   0.080  0.00  0.00     0.081 C 
ATOM      3  UNK 8VT d   1      24.695 -10.222  -2.270  0.00  0.00    -0.354 OA
ATOM      4  UNK 8VT d   1      23.300 -10.404  -2.249  0.00  0.00     0.089 C 
ATOM      5  UNK 8VT d   1      22.750  -9.558  -1.050  0.00  0.00     0.095 C 
ATOM      6  UNK 8VT d   1      23.440 -10.017   0.229  0.00  0.00     0.086 C 
ATOM      7  H5  8VT d   1      25.157 -11.892  -1.063  0.00  0.00     0.121 H 
ATOM      8  H6  8VT d   1      25.306  -8.960   0.018  0.00  0.00     0.083 H 
ATOM      9  H15 8VT d   1      23.045 -11.466  -2.115  0.00  0.00     0.090 H 
ATOM     10  H19 8VT d   1      22.941  -8.488  -1.217  0.00  0.00     0.091 H 
ATOM     11  H20 8VT d   1      23.155 -11.065   0.404  0.00  0.00     0.090 H 
ENDROOT
BRANCH   5  12
ATOM     12  O1  8VT d   1      21.380  -9.793  -0.953  0.00  0.00    -0.348 OA
BRANCH  12  13
ATOM     13  C1  8VT d   1      20.553  -8.713  -1.424  0.00  0.00     0.159 C 
ATOM     14  C2  8VT d   1      19.153  -9.180  -1.321  0.00  0.00     0.110 C 
ATOM     15  C3  8VT d   1      18.164  -8.089  -1.623  0.00  0.00     0.095 C 
ATOM     16  H23 8VT d   1      18.972  -9.588  -0.316  0.00  0.00     0.094 H 
ATOM     17  C4  8VT d   1      18.512  -6.862  -0.789  0.00  0.00     0.090 C 
ATOM     18  H25 8VT d   1      18.251  -7.809  -2.683  0.00  0.00     0.091 H 
ATOM     19  C5  8VT d   1      19.970  -6.502  -0.920  0.00  0.00     0.089 C 
ATOM     20  H26 8VT d   1      17.933  -6.005  -1.165  0.00  0.00     0.091 H 
ATOM     21  O5  8VT d   1      20.705  -7.665  -0.489  0.00  0.00    -0.348 OA
ATOM     22  H28 8VT d   1      20.210  -6.263  -1.967  0.00  0.00     0.090 H 
ATOM     23  H22 8VT d   1      20.814  -8.401  -2.446  0.00  0.00     0.133 H 
BRANCH  14  24
ATOM     24  O2  8VT d   1      18.937 -10.217  -2.363  0.00  0.00    -0.388 OA
ATOM     25  H24 8VT d   1      19.096  -9.840  -3.221  0.00  0.00     0.210 HD
ENDBRANCH  14  24
BRANCH  15  26
ATOM     26  O3  8VT d   1      16.892  -8.589  -1.421  0.00  0.00    -0.376 OA
BRANCH  26  27
ATOM     27  C24 8VT d   1      15.906  -7.871  -2.176  0.00  0.00     0.044 C 
ATOM     28  H32 8VT d   1      16.237  -7.830  -3.224  0.00  0.00     0.081 H 
ATOM     29  H33 8VT d   1      15.839  -6.850  -1.773  0.00  0.00     0.081 H 
BRANCH  27  30
ATOM     30  C25 8VT d   1      14.532  -8.483  -2.139  0.00  0.00    -0.032 A 
ATOM     31  C26 8VT d   1      13.475  -7.845  -2.767  0.00  0.00    -0.075 A 
ATOM     32  C27 8VT d   1      12.256  -8.488  -2.668  0.00  0.00    -0.080 A 
ATOM     33  H34 8VT d   1      13.596  -6.908  -3.298  0.00  0.00     0.084 H 
ATOM     34  C28 8VT d   1      12.059  -9.727  -2.028  0.00  0.00    -0.051 A 
ATOM     35  H35 8VT d   1      11.393  -8.006  -3.113  0.00  0.00     0.083 H 
ATOM     36  C29 8VT d   1      13.084 -10.371  -1.438  0.00  0.00     0.068 A 
ATOM     37  H36 8VT d   1      11.069 -10.168  -2.010  0.00  0.00     0.087 H 
ATOM     38  C30 8VT d   1      14.328  -9.725  -1.549  0.00  0.00    -0.043 A 
ATOM     39  H37 8VT d   1      15.194 -10.235  -1.143  0.00  0.00     0.088 H 
BRANCH  36  40
ATOM     40  O31 8VT d   1      12.910 -11.629  -0.774  0.00  0.00    -0.356 OA
BRANCH  40  41
ATOM     41  C32 8VT d   1      13.963 -12.435  -0.126  0.00  0.00     0.010 C 
ATOM     42  H38 8VT d   1      13.518 -13.349   0.295  0.00  0.00     0.066 H 
ATOM     43  H39 8VT d   1      14.430 -11.849   0.680  0.00  0.00     0.066 H 
ATOM     44  H40 8VT d   1      14.726 -12.708  -0.870  0.00  0.00     0.066 H 
ENDBRANCH  40  41
ENDBRANCH  36  40
ENDBRANCH  27  30
ENDBRANCH  26  27
ENDBRANCH  15  26
BRANCH  17  45
ATOM     45  O4  8VT d   1      18.070  -7.141   0.569  0.00  0.00    -0.390 OA
ATOM     46  H27 8VT d   1      17.133  -7.296   0.570  0.00  0.00     0.210 HD
ENDBRANCH  17  45
BRANCH  19  47
ATOM     47  C6  8VT d   1      20.310  -5.328  -0.050  0.00  0.00     0.043 C 
ATOM     48  H29 8VT d   1      20.012  -5.549   0.986  0.00  0.00     0.078 H 
ATOM     49  H30 8VT d   1      19.763  -4.444  -0.408  0.00  0.00     0.078 H 
BRANCH  47  50
ATOM     50  O6  8VT d   1      21.684  -5.061  -0.084  0.00  0.00    -0.398 OA
ATOM     51  H31 8VT d   1      22.161  -5.821   0.228  0.00  0.00     0.209 HD
ENDBRANCH  47  50
ENDBRANCH  19  47
ENDBRANCH  12  13
ENDBRANCH   5  12
BRANCH   4  52
ATOM     52  UNK 8VT d   1      22.728  -9.884  -3.598  0.00  0.00     0.043 C 
ATOM     53  H16 8VT d   1      21.640 -10.048  -3.606  0.00  0.00     0.078 H 
ATOM     54  H17 8VT d   1      23.190 -10.452  -4.418  0.00  0.00     0.078 H 
BRANCH  52  55
ATOM     55  UNK 8VT d   1      22.989  -8.453  -3.812  0.00  0.00    -0.398 OA
ATOM     56  H18 8VT d   1      23.927  -8.300  -3.815  0.00  0.00     0.209 HD
ENDBRANCH  52  55
ENDBRANCH   4  52
BRANCH   6  57
ATOM     57  UNK 8VT d   1      22.943  -9.235   1.377  0.00  0.00    -0.391 OA
ATOM     58  H21 8VT d   1      23.127  -8.314   1.235  0.00  0.00     0.210 HD
ENDBRANCH   6  57
BRANCH   2  59
ATOM     59  N2  8VT d   1      25.429 -10.701   1.296  0.00  0.00    -0.345 N 
ATOM     60  C36 8VT d   1      26.556 -10.238   1.889  0.00  0.00     0.252 C 
ATOM     61  O37 8VT d   1      27.218  -9.303   1.471  0.00  0.00    -0.268 OA
ATOM     62  H7  8VT d   1      24.946 -11.496   1.662  0.00  0.00     0.163 HD
BRANCH  60  63
ATOM     63  C38 8VT d   1      26.872 -10.846   3.202  0.00  0.00     0.034 A 
ATOM     64  C39 8VT d   1      26.391 -12.111   3.686  0.00  0.00    -0.068 A 
ATOM     65  C40 8VT d   1      26.753 -12.514   4.997  0.00  0.00    -0.079 A 
ATOM     66  H8  8VT d   1      25.767 -12.742   3.064  0.00  0.00     0.085 H 
ATOM     67  C41 8VT d   1      27.518 -11.619   5.783  0.00  0.00    -0.051 A 
ATOM     68  H9  8VT d   1      26.452 -13.480   5.386  0.00  0.00     0.083 H 
ATOM     69  C42 8VT d   1      27.974 -10.376   5.252  0.00  0.00     0.069 A 
ATOM     70  H10 8VT d   1      27.761 -11.883   6.806  0.00  0.00     0.087 H 
ATOM     71  C43 8VT d   1      27.608  -9.994   3.971  0.00  0.00    -0.036 A 
ATOM     72  H14 8VT d   1      27.904  -9.026   3.584  0.00  0.00     0.089 H 
BRANCH  69  73
ATOM     73  O44 8VT d   1      28.745  -9.430   5.897  0.00  0.00    -0.356 OA
BRANCH  73  74
ATOM     74  C45 8VT d   1      29.305  -8.230   5.252  0.00  0.00     0.010 C 
ATOM     75  H11 8VT d   1      29.876  -7.649   5.991  0.00  0.00     0.066 H 
ATOM     76  H12 8VT d   1      28.487  -7.612   4.854  0.00  0.00     0.066 H 
ATOM     77  H13 8VT d   1      29.970  -8.532   4.430  0.00  0.00     0.066 H 
ENDBRANCH  73  74
ENDBRANCH  69  73
ENDBRANCH  60  63
ENDBRANCH   2  59
BRANCH   1  78
ATOM     78  N1  8VT d   1      26.814 -10.567  -1.334  0.00  0.00    -0.333 N 
ATOM     79  C33 8VT d   1      27.558 -11.594  -1.970  0.00  0.00     0.215 C 
ATOM     80  O35 8VT d   1      27.053 -12.693  -2.249  0.00  0.00    -0.274 OA
ATOM     81  H4  8VT d   1      27.243  -9.720  -1.020  0.00  0.00     0.165 HD
BRANCH  79  82
ATOM     82  C34 8VT d   1      28.957 -11.220  -2.370  0.00  0.00    -0.003 C 
ATOM     83  H1  8VT d   1      29.181 -10.204  -2.014  0.00  0.00     0.040 H 
ATOM     84  H2  8VT d   1      29.046 -11.252  -3.466  0.00  0.00     0.040 H 
ATOM     85  H3  8VT d   1      29.668 -11.930  -1.923  0.00  0.00     0.040 H 
ENDBRANCH  79  82
ENDBRANCH   1  78
TORSDOF 20
