REMARK  7 active torsions:
REMARK  status: ('A' for Active; 'I' for Inactive)
REMARK    1  A    between atoms: CAV_11  and  CAN_12 
REMARK    2  A    between atoms: CAN_12  and  NAP_13 
REMARK    3  A    between atoms: NAP_13  and  CAL_14 
REMARK    4  A    between atoms: CAL_14  and  CAK_15 
REMARK    5  A    between atoms: CAK_15  and  CAM_16 
REMARK    6  A    between atoms: CAM_16  and  NAQ_17 
REMARK    7  A    between atoms: NAQ_17  and  CAW_18 
ROOT
ATOM      1  CAL Q8W d   1     -42.932  11.045   9.670  0.00  0.00     0.084 C 
ATOM      2  H9  Q8W d   1     -42.211  11.861   9.823  0.00  0.00     0.075 H 
ATOM      3  H10 Q8W d   1     -42.652  10.186  10.297  0.00  0.00     0.075 H 
ENDROOT
BRANCH   1   4
ATOM      4  NAP Q8W d   1     -42.902  10.629   8.226  0.00  0.00    -0.070 N 
ATOM      5  H7  Q8W d   1     -42.004  10.201   8.063  0.00  0.00     0.277 HD
ATOM      6  H8  Q8W d   1     -43.629   9.942   8.104  0.00  0.00     0.277 HD
BRANCH   4   7
ATOM      7  CAN Q8W d   1     -43.094  11.664   7.156  0.00  0.00     0.119 C 
ATOM      8  H5  Q8W d   1     -43.183  11.159   6.183  0.00  0.00     0.085 H 
ATOM      9  H6  Q8W d   1     -44.017  12.226   7.364  0.00  0.00     0.085 H 
BRANCH   7  10
ATOM     10  CAV Q8W d   1     -41.916  12.644   7.103  0.00  0.00     0.036 A 
ATOM     11  CAJ Q8W d   1     -42.036  13.982   7.033  0.00  0.00    -0.046 A 
ATOM     12  CBA Q8W d   1     -40.805  14.468   7.069  0.00  0.00     0.014 A 
ATOM     13  H1  Q8W d   1     -42.961  14.552   6.961  0.00  0.00     0.088 H 
ATOM     14  CAU Q8W d   1     -40.377  15.709   7.040  0.00  0.00     0.048 A 
ATOM     15  CAZ Q8W d   1     -39.925  13.437   7.145  0.00  0.00     0.046 A 
ATOM     16 CL1  Q8W d   1     -41.529  16.972   6.973  0.00  0.00    -0.083 Cl
ATOM     17  CAH Q8W d   1     -39.014  15.989   7.074  0.00  0.00    -0.040 A 
ATOM     18  CAT Q8W d   1     -38.128  14.933   7.131  0.00  0.00     0.037 A 
ATOM     19  H2  Q8W d   1     -38.657  17.012   7.056  0.00  0.00     0.088 H 
ATOM     20 CL2  Q8W d   1     -36.547  15.220   7.175  0.00  0.00    -0.084 Cl
ATOM     21  CAI Q8W d   1     -38.601  13.640   7.179  0.00  0.00    -0.035 A 
ATOM     22  H3  Q8W d   1     -37.915  12.803   7.243  0.00  0.00     0.089 H 
ATOM     23  NAR Q8W d   1     -40.618  12.295   7.153  0.00  0.00    -0.357 N 
ATOM     24  H4  Q8W d   1     -40.235  11.339   7.190  0.00  0.00     0.166 HD
ENDBRANCH   7  10
ENDBRANCH   4   7
ENDBRANCH   1   4
BRANCH   1  25
ATOM     25  CAK Q8W d   1     -44.333  11.530  10.080  0.00  0.00    -0.027 C 
ATOM     26  H11 Q8W d   1     -45.083  10.810   9.720  0.00  0.00     0.037 H 
ATOM     27  H12 Q8W d   1     -44.521  12.513   9.624  0.00  0.00     0.037 H 
BRANCH  25  28
ATOM     28  CAM Q8W d   1     -44.448  11.655  11.622  0.00  0.00     0.011 C 
ATOM     29  H13 Q8W d   1     -44.247  10.667  12.063  0.00  0.00     0.064 H 
ATOM     30  H14 Q8W d   1     -45.475  11.963  11.866  0.00  0.00     0.064 H 
BRANCH  28  31
ATOM     31  NAQ Q8W d   1     -43.514  12.633  12.232  0.00  0.00    -0.224 N 
ATOM     32  H15 Q8W d   1     -42.507  12.572  12.023  0.00  0.00     0.177 HD
BRANCH  31  33
ATOM     33  CAW Q8W d   1     -43.958  13.586  13.044  0.00  0.00     0.703 A 
ATOM     34  NAS Q8W d   1     -43.148  14.584  13.411  0.00  0.00    -0.064 NA
ATOM     35  CAY Q8W d   1     -43.576  15.562  14.222  0.00  0.00     0.091 A 
ATOM     36  CAF Q8W d   1     -42.697  16.569  14.584  0.00  0.00    -0.053 A 
ATOM     37  CBB Q8W d   1     -44.903  15.583  14.685  0.00  0.00     0.062 A 
ATOM     38  CAD Q8W d   1     -43.140  17.588  15.398  0.00  0.00    -0.081 A 
ATOM     39  H16 Q8W d   1     -41.672  16.555  14.231  0.00  0.00     0.087 H 
ATOM     40  CAE Q8W d   1     -44.453  17.621  15.863  0.00  0.00    -0.082 A 
ATOM     41  H17 Q8W d   1     -42.455  18.378  15.682  0.00  0.00     0.083 H 
ATOM     42  CAG Q8W d   1     -45.343  16.618  15.506  0.00  0.00    -0.065 A 
ATOM     43  H18 Q8W d   1     -44.780  18.431  16.505  0.00  0.00     0.083 H 
ATOM     44  H19 Q8W d   1     -46.367  16.640  15.861  0.00  0.00     0.085 H 
ATOM     45  CAX Q8W d   1     -45.782  14.555  14.309  0.00  0.00     0.272 A 
ATOM     46  OAA Q8W d   1     -46.958  14.527  14.692  0.00  0.00    -0.267 OA
ATOM     47  NAO Q8W d   1     -45.292  13.539  13.479  0.00  0.00    -0.154 N 
ATOM     48  H20 Q8W d   1     -45.888  12.786  13.198  0.00  0.00     0.187 HD
ENDBRANCH  31  33
ENDBRANCH  28  31
ENDBRANCH  25  28
ENDBRANCH   1  25
TORSDOF 7
