REMARK  2 active torsions:
REMARK  status: ('A' for Active; 'I' for Inactive)
REMARK    1  A    between atoms: C2_2  and  C7_7 
REMARK    2  A    between atoms: C3_3  and  C6_6 
ROOT
ATOM      1  C1  8VN d   1      76.567  91.907  64.359  0.00  0.00     0.109 C 
ATOM      2  C2  8VN d   1      76.530  89.542  64.574  0.00  0.00     0.196 C 
ATOM      3  C3  8VN d   1      77.902  89.534  62.402  0.00  0.00     0.147 A 
ATOM      4  C4  8VN d   1      77.860  89.883  63.856  0.00  0.00     0.063 A 
ATOM      5  C5  8VN d   1      77.889  91.398  63.780  0.00  0.00     0.102 A 
ATOM      6  O1  8VN d   1      77.888  91.725  62.389  0.00  0.00    -0.248 OA
ATOM      7  N1  8VN d   1      75.685  90.741  64.436  0.00  0.00    -0.058 N 
ATOM      8  N2  8VN d   1      77.898  90.537  61.633  0.00  0.00    -0.131 NA
ATOM      9  H1  8VN d   1      76.131  92.673  63.701  0.00  0.00     0.079 H 
ATOM     10  H2  8VN d   1      76.727  92.332  65.361  0.00  0.00     0.079 H 
ATOM     11  H3  8VN d   1      76.061  88.661  64.111  0.00  0.00     0.103 H 
ATOM     12  H4  8VN d   1      78.715  89.453  64.398  0.00  0.00     0.058 H 
ATOM     13  H5  8VN d   1      78.758  91.822  64.305  0.00  0.00     0.091 H 
ATOM     14  H6  8VN d   1      75.131  90.675  63.596  0.00  0.00     0.278 HD
ATOM     15  H7  8VN d   1      75.076  90.825  65.235  0.00  0.00     0.278 HD
ENDROOT
BRANCH   2  16
ATOM     16  C7  8VN d   1      76.717  89.312  66.077  0.00  0.00     0.205 C 
ATOM     17  O4  8VN d   1      75.996  89.979  66.851  0.00  0.00    -0.646 OA
ATOM     18  O5  8VN d   1      77.572  88.493  66.440  0.00  0.00    -0.646 OA
ENDBRANCH   2  16
BRANCH   3  19
ATOM     19  C6  8VN d   1      77.915  88.119  61.873  0.00  0.00     0.227 C 
ATOM     20  O3  8VN d   1      78.202  87.183  62.646  0.00  0.00    -0.643 OA
ATOM     21  O2  8VN d   1      77.670  88.011  60.646  0.00  0.00    -0.643 OA
ENDBRANCH   3  19
TORSDOF 2
