REMARK  5 active torsions:
REMARK  status: ('A' for Active; 'I' for Inactive)
REMARK    1  A    between atoms: CBB_2  and  CBA_4 
REMARK    2  A    between atoms: CAY_9  and  CAW_10 
REMARK    3  A    between atoms: CAW_10  and  NAV_11 
REMARK    4  A    between atoms: CAP_15  and  CAO_16 
REMARK    5  A    between atoms: CAH_26  and  NAE_27 
ROOT
ATOM      1  CAO 8WH d   1      12.648  -8.487  22.785  0.00  0.00     0.024 A 
ATOM      2  CAM 8WH d   1      11.506  -8.912  23.484  0.00  0.00     0.060 A 
ATOM      3  NAK 8WH d   1      10.775  -8.026  24.271  0.00  0.00    -0.344 N 
ATOM      4  CAT 8WH d   1      13.332  -9.424  22.015  0.00  0.00    -0.068 A 
ATOM      5  CAS 8WH d   1      12.894 -10.743  21.931  0.00  0.00    -0.081 A 
ATOM      6  CAN 8WH d   1      11.772 -11.152  22.619  0.00  0.00    -0.067 A 
ATOM      7  CAL 8WH d   1      11.077 -10.238  23.396  0.00  0.00     0.038 A 
ATOM      8  CAJ 8WH d   1       9.951 -10.637  24.098  0.00  0.00     0.168 A 
ATOM      9  OAI 8WH d   1       9.533 -11.789  24.056  0.00  0.00    -0.292 OA
ATOM     10  CAG 8WH d   1       9.245  -9.746  24.870  0.00  0.00     0.048 A 
ATOM     11  CAH 8WH d   1       9.641  -8.422  24.984  0.00  0.00     0.087 A 
ATOM     12  H8  8WH d   1      11.081  -7.044  24.329  0.00  0.00     0.167 HD
ATOM     13  H9  8WH d   1      14.220  -9.122  21.472  0.00  0.00     0.085 H 
ATOM     14  H10 8WH d   1      13.439 -11.453  21.320  0.00  0.00     0.083 H 
ATOM     15  H11 8WH d   1      11.435 -12.180  22.553  0.00  0.00     0.085 H 
ATOM     16  H12 8WH d   1       9.235 -10.157  25.890  0.00  0.00     0.056 H 
ATOM     17  H13 8WH d   1       8.220  -9.731  24.471  0.00  0.00     0.056 H 
ENDROOT
BRANCH   1  18
ATOM     18  CAP 8WH d   1      13.096  -7.241  22.874  0.00  0.00     0.110 A 
ATOM     19  CAU 8WH d   1      14.013  -6.657  22.154  0.00  0.00     0.031 A 
ATOM     20  NAV 8WH d   1      14.091  -5.429  22.677  0.00  0.00    -0.256 N 
ATOM     21  H7  8WH d   1      14.581  -7.072  21.323  0.00  0.00     0.118 H 
ATOM     22  NAR 8WH d   1      13.295  -5.356  23.651  0.00  0.00    -0.066 NA
ATOM     23  NAQ 8WH d   1      12.720  -6.352  23.792  0.00  0.00    -0.130 NA
BRANCH  20  24
ATOM     24  CAW 8WH d   1      15.015  -4.267  22.257  0.00  0.00     0.042 C 
ATOM     25  H5  8WH d   1      14.801  -3.420  22.926  0.00  0.00     0.074 H 
ATOM     26  H6  8WH d   1      16.052  -4.602  22.410  0.00  0.00     0.074 H 
BRANCH  24  27
ATOM     27  CAY 8WH d   1      14.918  -3.789  20.927  0.00  0.00    -0.037 A 
ATOM     28  CAZ 8WH d   1      16.006  -3.820  20.053  0.00  0.00    -0.059 A 
ATOM     29  CBA 8WH d   1      15.881  -3.307  18.752  0.00  0.00     0.041 A 
ATOM     30  H1  8WH d   1      16.950  -4.241  20.380  0.00  0.00     0.086 H 
ATOM     31  CBF 8WH d   1      14.672  -2.744  18.336  0.00  0.00    -0.066 A 
ATOM     32  CBE 8WH d   1      13.595  -2.707  19.205  0.00  0.00    -0.081 A 
ATOM     33  H2  8WH d   1      14.578  -2.337  17.336  0.00  0.00     0.085 H 
ATOM     34  CBD 8WH d   1      13.730  -3.206  20.492  0.00  0.00    -0.075 A 
ATOM     35  H3  8WH d   1      12.649  -2.289  18.881  0.00  0.00     0.083 H 
ATOM     36  H4  8WH d   1      12.891  -3.141  21.175  0.00  0.00     0.084 H 
BRANCH  29  37
ATOM     37  CBB 8WH d   1      16.945  -3.339  17.853  0.00  0.00     0.209 C 
ATOM     38  OAX 8WH d   1      18.052  -3.816  18.157  0.00  0.00    -0.644 OA
ATOM     39  OBC 8WH d   1      16.809  -2.878  16.716  0.00  0.00    -0.644 OA
ENDBRANCH  29  37
ENDBRANCH  24  27
ENDBRANCH  20  24
ENDBRANCH   1  18
BRANCH  11  40
ATOM     40  NAE 8WH d   1       8.992  -7.540  25.737  0.00  0.00    -0.366 N 
ATOM     41  CAF 8WH d   1       9.455  -6.142  25.764  0.00  0.00     0.016 C 
ATOM     42  CAC 8WH d   1       9.192  -5.579  27.094  0.00  0.00     0.034 C 
ATOM     43  H14 8WH d   1       8.915  -5.559  25.003  0.00  0.00     0.067 H 
ATOM     44  H15 8WH d   1      10.534  -6.106  25.555  0.00  0.00     0.067 H 
ATOM     45  OAB 8WH d   1       7.757  -5.708  27.292  0.00  0.00    -0.388 OA
ATOM     46  H16 8WH d   1       9.492  -4.521  27.130  0.00  0.00     0.076 H 
ATOM     47  H17 8WH d   1       9.739  -6.142  27.865  0.00  0.00     0.076 H 
ATOM     48  CAA 8WH d   1       7.371  -7.041  27.604  0.00  0.00     0.034 C 
ATOM     49  CAD 8WH d   1       7.814  -7.924  26.512  0.00  0.00     0.016 C 
ATOM     50  H18 8WH d   1       6.277  -7.096  27.705  0.00  0.00     0.076 H 
ATOM     51  H19 8WH d   1       7.843  -7.353  28.547  0.00  0.00     0.076 H 
ATOM     52  H20 8WH d   1       8.024  -8.908  26.956  0.00  0.00     0.067 H 
ATOM     53  H21 8WH d   1       6.975  -8.012  25.806  0.00  0.00     0.067 H 
ENDBRANCH  11  40
TORSDOF 5
