REMARK  8 active torsions:
REMARK  status: ('A' for Active; 'I' for Inactive)
REMARK    1  A    between atoms: CBB_7  and  NBJ_8 
REMARK    2  A    between atoms: NBH_17  and  CAU_18 
REMARK    3  A    between atoms: CAU_18  and  CBK_19 
REMARK    4  A    between atoms: CBK_19  and  OAC_22 
REMARK       I    between atoms: NBG_25  and  CAY_26 
REMARK    5  A    between atoms: CAY_26  and  CAT_28 
REMARK    6  A    between atoms: CAT_28  and  CBL_29 
REMARK    7  A    between atoms: CBL_29  and  CBF_30 
REMARK    8  A    between atoms: CBL_29  and  NBI_33 
ROOT
ATOM      1  CBK 8WK d   1      67.144 -45.452  90.205  0.00  0.00     0.077 C 
ATOM      2  CAR 8WK d   1      68.508 -45.972  90.378  0.00  0.00    -0.020 C 
ATOM      3  CAP 8WK d   1      69.248 -45.000  91.327  0.00  0.00     0.000 C 
ATOM      4  CAS 8WK d   1      66.411 -45.559  91.563  0.00  0.00    -0.020 C 
ATOM      5  CAQ 8WK d   1      67.171 -44.838  92.677  0.00  0.00     0.000 C 
ATOM      6  NBG 8WK d   1      68.619 -45.186  92.667  0.00  0.00    -0.352 N 
ATOM      7  CAY 8WK d   1      69.350 -45.611  93.754  0.00  0.00     0.222 C 
ATOM      8  OAA 8WK d   1      70.557 -45.851  93.709  0.00  0.00    -0.273 OA
ATOM      9  H9  8WK d   1      69.022 -46.015  89.406  0.00  0.00     0.040 H 
ATOM     10  H10 8WK d   1      68.475 -46.979  90.820  0.00  0.00     0.040 H 
ATOM     11  H11 8WK d   1      69.123 -43.962  90.986  0.00  0.00     0.064 H 
ATOM     12  H12 8WK d   1      70.319 -45.246  91.369  0.00  0.00     0.064 H 
ATOM     13  H14 8WK d   1      66.310 -46.621  91.831  0.00  0.00     0.040 H 
ATOM     14  H15 8WK d   1      65.412 -45.109  91.465  0.00  0.00     0.040 H 
ATOM     15  H16 8WK d   1      66.741 -45.127  93.647  0.00  0.00     0.064 H 
ATOM     16  H17 8WK d   1      67.064 -43.752  92.537  0.00  0.00     0.064 H 
ENDROOT
BRANCH   1  17
ATOM     17  CAU 8WK d   1      66.416 -46.320  89.141  0.00  0.00     0.032 C 
ATOM     18  H7  8WK d   1      66.996 -46.323  88.207  0.00  0.00     0.069 H 
ATOM     19  H8  8WK d   1      66.313 -47.350  89.512  0.00  0.00     0.069 H 
BRANCH  17  20
ATOM     20  NBH 8WK d   1      65.095 -45.753  88.896  0.00  0.00    -0.305 N 
ATOM     21  CBC 8WK d   1      63.955 -46.179  89.552  0.00  0.00     0.264 A 
ATOM     22  CBD 8WK d   1      62.791 -45.555  89.288  0.00  0.00     0.099 A 
ATOM     23  OAB 8WK d   1      63.981 -47.136  90.367  0.00  0.00    -0.267 OA
ATOM     24  CAN 8WK d   1      61.582 -45.772  89.762  0.00  0.00     0.041 A 
ATOM     25  CBE 8WK d   1      62.681 -44.531  88.407  0.00  0.00     0.169 A 
ATOM     26  NAW 8WK d   1      60.731 -44.906  89.204  0.00  0.00    -0.177 NA
ATOM     27  H5  8WK d   1      61.318 -46.535  90.492  0.00  0.00     0.119 H 
ATOM     28  NBJ 8WK d   1      61.394 -44.106  88.359  0.00  0.00    -0.215 N 
ATOM     29  NAV 8WK d   1      63.777 -44.096  87.736  0.00  0.00    -0.223 NA
ATOM     30  CAO 8WK d   1      65.012 -44.720  88.002  0.00  0.00     0.071 A 
ATOM     31  H6  8WK d   1      65.910 -44.377  87.491  0.00  0.00     0.144 H 
BRANCH  28  32
ATOM     32  CBB 8WK d   1      60.899 -43.111  87.568  0.00  0.00     0.060 A 
ATOM     33  CAJ 8WK d   1      59.874 -43.348  86.722  0.00  0.00    -0.052 A 
ATOM     34  CAH 8WK d   1      59.384 -42.357  85.868  0.00  0.00    -0.043 A 
ATOM     35  H1  8WK d   1      59.420 -44.332  86.705  0.00  0.00     0.087 H 
ATOM     36  CAZ 8WK d   1      59.920 -41.069  85.877  0.00  0.00     0.116 A 
ATOM     37  H2  8WK d   1      58.574 -42.593  85.187  0.00  0.00     0.088 H 
ATOM     38  FAD 8WK d   1      59.408 -40.055  84.998  0.00  0.00    -0.206 F 
ATOM     39  CAI 8WK d   1      60.975 -40.810  86.746  0.00  0.00    -0.043 A 
ATOM     40  CAK 8WK d   1      61.442 -41.837  87.566  0.00  0.00    -0.052 A 
ATOM     41  H3  8WK d   1      61.427 -39.825  86.785  0.00  0.00     0.088 H 
ATOM     42  H4  8WK d   1      62.270 -41.628  88.234  0.00  0.00     0.087 H 
ENDBRANCH  28  32
ENDBRANCH  17  20
ENDBRANCH   1  17
BRANCH   1  43
ATOM     43  OAC 8WK d   1      67.307 -44.009  89.817  0.00  0.00    -0.388 OA
ATOM     44  H13 8WK d   1      66.451 -43.617  89.691  0.00  0.00     0.210 HD
ENDBRANCH   1  43
BRANCH   7  45
ATOM     45  CAT 8WK d   1      68.680 -45.786  95.134  0.00  0.00     0.035 C 
ATOM     46  H18 8WK d   1      67.619 -45.503  95.070  0.00  0.00     0.050 H 
ATOM     47  H19 8WK d   1      69.185 -45.149  95.875  0.00  0.00     0.050 H 
BRANCH  45  48
ATOM     48  CBL 8WK d   1      68.798 -47.242  95.545  0.00  0.00     0.098 C 
ATOM     49  H20 8WK d   1      69.856 -47.458  95.754  0.00  0.00     0.085 H 
BRANCH  48  50
ATOM     50  CBF 8WK d   1      67.949 -47.613  96.824  0.00  0.00     0.230 C 
ATOM     51  FAF 8WK d   1      68.266 -48.859  97.265  0.00  0.00    -0.212 F 
ATOM     52  FAG 8WK d   1      68.185 -46.705  97.898  0.00  0.00    -0.212 F 
ATOM     53  H21 8WK d   1      66.883 -47.583  96.555  0.00  0.00     0.148 H 
ENDBRANCH  48  50
BRANCH  48  54
ATOM     54  NBI 8WK d   1      68.351 -48.057  94.467  0.00  0.00    -0.268 N 
ATOM     55  NAX 8WK d   1      67.177 -48.000  93.854  0.00  0.00    -0.141 NA
ATOM     56  CBA 8WK d   1      67.230 -48.996  92.952  0.00  0.00     0.229 A 
ATOM     57  FAE 8WK d   1      66.355 -49.279  92.200  0.00  0.00    -0.183 F 
ATOM     58  CAL 8WK d   1      68.370 -49.666  93.003  0.00  0.00    -0.009 A 
ATOM     59  CAM 8WK d   1      69.076 -49.073  93.966  0.00  0.00     0.004 A 
ATOM     60  H22 8WK d   1      68.667 -50.517  92.391  0.00  0.00     0.092 H 
ATOM     61  H23 8WK d   1      70.074 -49.363  94.293  0.00  0.00     0.114 H 
ENDBRANCH  48  54
ENDBRANCH  45  48
ENDBRANCH   7  45
TORSDOF 8
