REMARK  10 active torsions:
REMARK  status: ('A' for Active; 'I' for Inactive)
REMARK    1  A    between atoms: NBJ_6  and  CAB_7 
REMARK    2  A    between atoms: NBK_11  and  CAW_12 
REMARK    3  A    between atoms: CAW_12  and  CBL_13 
REMARK    4  A    between atoms: CBL_13  and  OAG_16 
REMARK       I    between atoms: NBI_19  and  CBA_20 
REMARK    5  A    between atoms: CBA_20  and  CBB_22 
REMARK    6  A    between atoms: CBC_27  and  CBE_28 
REMARK    7  A    between atoms: CBD_33  and  NAZ_34 
REMARK    8  A    between atoms: NAZ_34  and  SBM_35 
REMARK    9  A    between atoms: SBM_35  and  CAR_38 
REMARK   10  A    between atoms: CAR_38  and  CAA_39 
ROOT
ATOM      1  CBL 8WN d   1      12.377 -29.879  16.503  0.00  0.00     0.077 C 
ATOM      2  CAV 8WN d   1      11.116 -29.834  15.678  0.00  0.00    -0.020 C 
ATOM      3  CAT 8WN d   1      11.273 -29.129  14.372  0.00  0.00     0.001 C 
ATOM      4  CAU 8WN d   1      13.525 -30.570  15.763  0.00  0.00    -0.020 C 
ATOM      5  CAS 8WN d   1      13.731 -29.844  14.317  0.00  0.00     0.001 C 
ATOM      6  NBI 8WN d   1      12.415 -29.749  13.600  0.00  0.00    -0.348 N 
ATOM      7  CBA 8WN d   1      12.137 -30.240  12.360  0.00  0.00     0.253 C 
ATOM      8  OAC 8WN d   1      10.992 -30.114  11.920  0.00  0.00    -0.267 OA
ATOM      9  H8  8WN d   1      10.339 -29.316  16.260  0.00  0.00     0.040 H 
ATOM     10  H9  8WN d   1      10.796 -30.867  15.478  0.00  0.00     0.040 H 
ATOM     11  H10 8WN d   1      11.487 -28.065  14.553  0.00  0.00     0.064 H 
ATOM     12  H11 8WN d   1      10.344 -29.222  13.791  0.00  0.00     0.064 H 
ATOM     13  H13 8WN d   1      13.281 -31.632  15.612  0.00  0.00     0.040 H 
ATOM     14  H14 8WN d   1      14.449 -30.486  16.354  0.00  0.00     0.040 H 
ATOM     15  H15 8WN d   1      14.435 -30.433  13.710  0.00  0.00     0.064 H 
ATOM     16  H16 8WN d   1      14.136 -28.833  14.471  0.00  0.00     0.064 H 
ENDROOT
BRANCH   7  17
ATOM     17  CBB 8WN d   1      13.081 -30.698  11.406  0.00  0.00     0.032 A 
ATOM     18  CAL 8WN d   1      12.930 -31.890  10.672  0.00  0.00    -0.067 A 
ATOM     19  CAO 8WN d   1      13.906 -32.221   9.701  0.00  0.00    -0.071 A 
ATOM     20  H17 8WN d   1      12.082 -32.542  10.847  0.00  0.00     0.085 H 
ATOM     21  CBC 8WN d   1      14.988 -31.382   9.422  0.00  0.00    -0.024 A 
ATOM     22  H18 8WN d   1      13.811 -33.154   9.157  0.00  0.00     0.084 H 
ATOM     23  CAN 8WN d   1      15.127 -30.202  10.117  0.00  0.00    -0.071 A 
ATOM     24  CAK 8WN d   1      14.151 -29.867  11.080  0.00  0.00    -0.067 A 
ATOM     25  H20 8WN d   1      15.968 -29.544   9.929  0.00  0.00     0.084 H 
ATOM     26  H19 8WN d   1      14.238 -28.915  11.592  0.00  0.00     0.085 H 
BRANCH  21  27
ATOM     27  CBE 8WN d   1      15.912 -31.647   8.418  0.00  0.00     0.001 A 
ATOM     28  CAM 8WN d   1      17.278 -31.633   8.704  0.00  0.00    -0.070 A 
ATOM     29  CAI 8WN d   1      18.188 -31.863   7.676  0.00  0.00    -0.082 A 
ATOM     30  H21 8WN d   1      17.626 -31.445   9.713  0.00  0.00     0.084 H 
ATOM     31  CAH 8WN d   1      17.763 -32.077   6.360  0.00  0.00    -0.081 A 
ATOM     32  H22 8WN d   1      19.249 -31.877   7.900  0.00  0.00     0.083 H 
ATOM     33  CAJ 8WN d   1      16.391 -32.035   6.056  0.00  0.00    -0.056 A 
ATOM     34  H23 8WN d   1      18.488 -32.274   5.579  0.00  0.00     0.083 H 
ATOM     35  CBD 8WN d   1      15.476 -31.798   7.062  0.00  0.00     0.053 A 
ATOM     36  H24 8WN d   1      16.054 -32.188   5.037  0.00  0.00     0.087 H 
BRANCH  35  37
ATOM     37  NAZ 8WN d   1      14.155 -31.790   6.757  0.00  0.00    -0.284 N 
ATOM     38  H25 8WN d   1      13.604 -32.600   6.961  0.00  0.00     0.178 HD
BRANCH  37  39
ATOM     39  SBM 8WN d   1      13.360 -30.357   5.992  0.00  0.00     0.230 S 
ATOM     40  OAE 8WN d   1      14.354 -29.441   5.319  0.00  0.00    -0.206 OA
ATOM     41  OAF 8WN d   1      12.278 -30.957   5.102  0.00  0.00    -0.206 OA
BRANCH  39  42
ATOM     42  CAR 8WN d   1      12.495 -29.364   7.208  0.00  0.00     0.043 C 
ATOM     43  H26 8WN d   1      12.488 -29.875   8.182  0.00  0.00     0.058 H 
ATOM     44  H27 8WN d   1      11.460 -29.179   6.883  0.00  0.00     0.058 H 
BRANCH  42  45
ATOM     45  CAA 8WN d   1      13.268 -28.037   7.307  0.00  0.00    -0.062 C 
ATOM     46  H28 8WN d   1      12.780 -27.382   8.044  0.00  0.00     0.028 H 
ATOM     47  H29 8WN d   1      13.275 -27.542   6.325  0.00  0.00     0.028 H 
ATOM     48  H30 8WN d   1      14.302 -28.238   7.623  0.00  0.00     0.028 H 
ENDBRANCH  42  45
ENDBRANCH  39  42
ENDBRANCH  37  39
ENDBRANCH  35  37
ENDBRANCH  21  27
ENDBRANCH   7  17
BRANCH   1  49
ATOM     49  CAW 8WN d   1      11.969 -30.631  17.780  0.00  0.00     0.032 C 
ATOM     50  H6  8WN d   1      11.139 -30.102  18.272  0.00  0.00     0.069 H 
ATOM     51  H7  8WN d   1      11.652 -31.652  17.523  0.00  0.00     0.069 H 
BRANCH  49  52
ATOM     52  NBK 8WN d   1      13.134 -30.685  18.689  0.00  0.00    -0.305 N 
ATOM     53  CBF 8WN d   1      13.928 -31.777  18.724  0.00  0.00     0.264 A 
ATOM     54  OAD 8WN d   1      13.625 -32.748  18.015  0.00  0.00    -0.267 OA
ATOM     55  CBG 8WN d   1      15.001 -31.793  19.525  0.00  0.00     0.099 A 
ATOM     56  CAP 8WN d   1      15.936 -32.734  19.784  0.00  0.00     0.041 A 
ATOM     57  CBH 8WN d   1      15.282 -30.731  20.288  0.00  0.00     0.164 A 
ATOM     58  NAY 8WN d   1      16.783 -32.231  20.667  0.00  0.00    -0.182 NA
ATOM     59  H1  8WN d   1      15.984 -33.729  19.344  0.00  0.00     0.119 H 
ATOM     60  NBJ 8WN d   1      16.378 -31.027  20.991  0.00  0.00    -0.256 N 
ATOM     61  NAX 8WN d   1      14.500 -29.624  20.275  0.00  0.00    -0.224 NA
ATOM     62  CAQ 8WN d   1      13.377 -29.612  19.483  0.00  0.00     0.071 A 
ATOM     63  H5  8WN d   1      12.698 -28.761  19.492  0.00  0.00     0.144 H 
BRANCH  60  64
ATOM     64  CAB 8WN d   1      16.975 -30.103  21.944  0.00  0.00     0.004 C 
ATOM     65  H2  8WN d   1      16.383 -29.176  21.976  0.00  0.00     0.059 H 
ATOM     66  H3  8WN d   1      18.004 -29.870  21.634  0.00  0.00     0.059 H 
ATOM     67  H4  8WN d   1      16.989 -30.564  22.943  0.00  0.00     0.059 H 
ENDBRANCH  60  64
ENDBRANCH  49  52
ENDBRANCH   1  49
BRANCH   1  68
ATOM     68  OAG 8WN d   1      12.834 -28.505  16.788  0.00  0.00    -0.388 OA
ATOM     69  H12 8WN d   1      13.628 -28.538  17.308  0.00  0.00     0.210 HD
ENDBRANCH   1  68
TORSDOF 10
