REMARK  3 active torsions:
REMARK  status: ('A' for Active; 'I' for Inactive)
REMARK    1  A    between atoms: C4_1  and  N2_5 
REMARK    2  A    between atoms: S1_9  and  C1_8 
REMARK    3  A    between atoms: S1_9  and  C2_10 
ROOT
ATOM      1  C4  8WT d   1      -0.832 -11.684  15.279  0.00  0.00     0.153 A 
ATOM      2  C5  8WT d   1      -2.713 -12.413  14.122  0.00  0.00     0.091 A 
ATOM      3  C6  8WT d   1      -2.928 -10.561  15.374  0.00  0.00     0.184 A 
ATOM      4  N1  8WT d   1      -1.337  -9.583  16.628  0.00  0.00    -0.329 N 
ATOM      5  C3  8WT d   1      -1.612 -10.626  15.770  0.00  0.00     0.128 A 
ATOM      6  N3  8WT d   1      -1.425 -12.591  14.457  0.00  0.00    -0.222 NA
ATOM      7  C2  8WT d   1      -2.473  -8.935  16.760  0.00  0.00     0.168 A 
ATOM      8  N4  8WT d   1      -3.524 -11.440  14.541  0.00  0.00    -0.220 NA
ATOM      9  N5  8WT d   1      -3.465  -9.469  15.994  0.00  0.00    -0.203 NA
ATOM     10  H1  8WT d   1      -3.140 -13.137  13.438  0.00  0.00     0.146 H 
ATOM     11  H2  8WT d   1      -0.434  -9.359  17.071  0.00  0.00     0.168 HD
ENDROOT
BRANCH   7  12
ATOM     12  S1  8WT d   1      -2.746  -7.535  17.760  0.00  0.00    -0.096 SA
BRANCH  12  13
ATOM     13  C1  8WT d   1      -1.027  -7.307  18.190  0.00  0.00    -0.027 C 
ATOM     14  H5  8WT d   1      -0.927  -6.435  18.854  0.00  0.00     0.042 H 
ATOM     15  H6  8WT d   1      -0.439  -7.141  17.275  0.00  0.00     0.042 H 
ATOM     16  H7  8WT d   1      -0.656  -8.205  18.706  0.00  0.00     0.042 H 
ENDBRANCH  12  13
ENDBRANCH   7  12
BRANCH   1  17
ATOM     17  N2  8WT d   1       0.444 -11.867  15.616  0.00  0.00    -0.382 N 
ATOM     18  H3  8WT d   1       0.971 -12.661  15.226  0.00  0.00     0.157 HD
ATOM     19  H4  8WT d   1       0.903 -11.214  16.267  0.00  0.00     0.157 HD
ENDBRANCH   1  17
TORSDOF 3
