REMARK  4 active torsions:
REMARK  status: ('A' for Active; 'I' for Inactive)
REMARK    1  A    between atoms: C4_3  and  C5_4 
REMARK    2  A    between atoms: C3_14  and  C4_3 
REMARK    3  A    between atoms: S1_13  and  C2_12 
REMARK    4  A    between atoms: S1_13  and  C3_14 
ROOT
ATOM      1  C3  8WW d   1       1.477  -9.351  15.026  0.00  0.00    -0.014 C 
ATOM      2  H9  8WW d   1       1.454 -10.449  15.090  0.00  0.00     0.050 H 
ATOM      3  H10 8WW d   1       0.888  -9.022  14.157  0.00  0.00     0.050 H 
ENDROOT
BRANCH   1   4
ATOM      4  C4  8WW d   1       2.917  -8.904  14.836  0.00  0.00    -0.033 C 
ATOM      5  H3  8WW d   1       3.331  -9.447  13.974  0.00  0.00     0.041 H 
ATOM      6  H4  8WW d   1       2.913  -7.825  14.622  0.00  0.00     0.041 H 
BRANCH   4   7
ATOM      7  C5  8WW d   1       3.830  -9.144  16.026  0.00  0.00    -0.057 A 
ATOM      8  C6  8WW d   1       4.304 -10.415  16.317  0.00  0.00    -0.077 A 
ATOM      9  C7  8WW d   1       5.146 -10.623  17.398  0.00  0.00    -0.082 A 
ATOM     10  H5  8WW d   1       4.013 -11.253  15.693  0.00  0.00     0.084 H 
ATOM     11  C8  8WW d   1       5.536  -9.563  18.188  0.00  0.00    -0.083 A 
ATOM     12  H6  8WW d   1       5.499 -11.623  17.623  0.00  0.00     0.083 H 
ATOM     13  C9  8WW d   1       5.087  -8.293  17.898  0.00  0.00    -0.082 A 
ATOM     14  H7  8WW d   1       6.193  -9.728  19.034  0.00  0.00     0.083 H 
ATOM     15  C10 8WW d   1       4.237  -8.086  16.827  0.00  0.00    -0.077 A 
ATOM     16  H11 8WW d   1       5.400  -7.455  18.510  0.00  0.00     0.083 H 
ATOM     17  H8  8WW d   1       3.884  -7.084  16.610  0.00  0.00     0.084 H 
ENDBRANCH   4   7
ENDBRANCH   1   4
BRANCH   1  18
ATOM     18  S1  8WW d   1       0.727  -8.666  16.528  0.00  0.00    -0.107 SA
BRANCH  18  19
ATOM     19  C2  8WW d   1      -0.960  -9.080  16.341  0.00  0.00     0.145 A 
ATOM     20  N2  8WW d   1      -1.358  -9.974  15.435  0.00  0.00    -0.054 NA
ATOM     21  C1  8WW d   1      -2.694 -10.234  15.282  0.00  0.00     0.723 A 
ATOM     22  N1  8WW d   1      -3.064 -11.153  14.373  0.00  0.00    -0.231 N 
ATOM     23  N5  8WW d   1      -3.657  -9.656  16.022  0.00  0.00    -0.043 NA
ATOM     24  H1  8WW d   1      -2.353 -11.616  13.789  0.00  0.00     0.174 HD
ATOM     25  H2  8WW d   1      -4.059 -11.395  14.260  0.00  0.00     0.174 HD
ATOM     26  C13 8WW d   1      -3.257  -8.759  16.974  0.00  0.00     0.179 A 
ATOM     27  C11 8WW d   1      -1.910  -8.444  17.152  0.00  0.00     0.140 A 
ATOM     28  N4  8WW d   1      -4.006  -8.032  17.859  0.00  0.00    -0.333 N 
ATOM     29  N3  8WW d   1      -1.865  -7.520  18.166  0.00  0.00    -0.237 NA
ATOM     30  C12 8WW d   1      -3.134  -7.319  18.557  0.00  0.00     0.066 A 
ATOM     31  H12 8WW d   1      -3.416  -6.642  19.362  0.00  0.00     0.143 H 
ATOM     32  H13 8WW d   1      -5.031  -8.038  17.961  0.00  0.00     0.168 HD
ENDBRANCH  18  19
ENDBRANCH   1  18
TORSDOF 4
