REMARK  3 active torsions:
REMARK  status: ('A' for Active; 'I' for Inactive)
REMARK    1  A    between atoms: C02_4  and  C01_3 
REMARK    2  A    between atoms: C04_6  and  C05_7 
REMARK    3  A    between atoms: C12_13  and  N13_14 
ROOT
ATOM      1  C10 8WZ d   1     -14.136 -16.066  11.097  0.00  0.00     0.121 A 
ATOM      2  C15 8WZ d   1     -14.552 -17.386  11.064  0.00  0.00     0.096 A 
ATOM      3  C02 8WZ d   1     -16.222 -16.848   9.447  0.00  0.00    -0.059 A 
ATOM      4  C03 8WZ d   1     -15.748 -15.509   9.436  0.00  0.00    -0.062 A 
ATOM      5  C04 8WZ d   1     -14.720 -15.077  10.279  0.00  0.00     0.035 A 
ATOM      6  O11 8WZ d   1     -13.100 -15.943  11.992  0.00  0.00    -0.275 OA
ATOM      7  C12 8WZ d   1     -12.917 -17.220  12.478  0.00  0.00     0.245 A 
ATOM      8  N14 8WZ d   1     -13.770 -18.073  11.927  0.00  0.00    -0.206 NA
ATOM      9  C16 8WZ d   1     -15.600 -17.802  10.230  0.00  0.00    -0.046 A 
ATOM     10  H4  8WZ d   1     -16.198 -14.799   8.752  0.00  0.00     0.085 H 
ATOM     11  H10 8WZ d   1     -15.912 -18.840  10.200  0.00  0.00     0.088 H 
ENDROOT
BRANCH   5  12
ATOM     12  C05 8WZ d   1     -14.196 -13.753  10.261  0.00  0.00     0.088 A 
ATOM     13  C06 8WZ d   1     -14.793 -12.632   9.701  0.00  0.00    -0.048 A 
ATOM     14  C07 8WZ d   1     -13.927 -11.539   9.825  0.00  0.00    -0.059 A 
ATOM     15  H5  8WZ d   1     -15.779 -12.607   9.239  0.00  0.00     0.087 H 
ATOM     16  C08 8WZ d   1     -12.780 -11.999  10.401  0.00  0.00     0.019 A 
ATOM     17  H6  8WZ d   1     -14.131 -10.514   9.519  0.00  0.00     0.086 H 
ATOM     18  O09 8WZ d   1     -12.949 -13.346  10.653  0.00  0.00    -0.322 OA
ATOM     19  H7  8WZ d   1     -11.891 -11.410  10.622  0.00  0.00     0.123 H 
ENDBRANCH   5  12
BRANCH   3  20
ATOM     20  C01 8WZ d   1     -17.383 -17.263   8.561  0.00  0.00    -0.051 C 
ATOM     21  H1  8WZ d   1     -17.756 -16.386   8.011  0.00  0.00     0.033 H 
ATOM     22  H2  8WZ d   1     -18.190 -17.676   9.184  0.00  0.00     0.033 H 
ATOM     23  H3  8WZ d   1     -17.044 -18.027   7.846  0.00  0.00     0.033 H 
ENDBRANCH   3  20
BRANCH   7  24
ATOM     24  N13 8WZ d   1     -11.941 -17.491  13.473  0.00  0.00    -0.363 N 
ATOM     25  H8  8WZ d   1     -11.817 -18.451  13.825  0.00  0.00     0.159 HD
ATOM     26  H9  8WZ d   1     -11.357 -16.728  13.843  0.00  0.00     0.159 HD
ENDBRANCH   7  24
TORSDOF 3
