REMARK  5 active torsions:
REMARK  status: ('A' for Active; 'I' for Inactive)
REMARK    1  A    between atoms: C8_6  and  N2_24 
REMARK    2  A    between atoms: N2_24  and  C11_9 
REMARK    3  A    between atoms: C14_12  and  C15_13 
REMARK    4  A    between atoms: C5_26  and  N1_27 
REMARK    5  A    between atoms: N_29  and  C_30 
ROOT
ATOM      1  C7  8X2 d   1     -17.790  14.025  43.794  0.00  0.00    -0.055 A 
ATOM      2  C8  8X2 d   1     -18.911  13.779  43.004  0.00  0.00     0.049 A 
ATOM      3  C9  8X2 d   1     -19.954  14.702  43.014  0.00  0.00    -0.055 A 
ATOM      4  C10 8X2 d   1     -19.857  15.855  43.801  0.00  0.00    -0.060 A 
ATOM      5  C6  8X2 d   1     -17.718  15.182  44.566  0.00  0.00    -0.060 A 
ATOM      6  C5  8X2 d   1     -18.735  16.156  44.607  0.00  0.00     0.010 A 
ATOM      7  H8  8X2 d   1     -16.972  13.314  43.808  0.00  0.00     0.087 H 
ATOM      8  H9  8X2 d   1     -20.839  14.527  42.413  0.00  0.00     0.087 H 
ATOM      9  H10 8X2 d   1     -20.686  16.554  43.792  0.00  0.00     0.086 H 
ATOM     10  H20 8X2 d   1     -16.831  15.342  45.168  0.00  0.00     0.086 H 
ENDROOT
BRANCH   2  11
ATOM     11  N2  8X2 d   1     -19.008  12.586  42.186  0.00  0.00    -0.188 N 
ATOM     12  H19 8X2 d   1     -19.910  12.089  42.166  0.00  0.00     0.184 HD
BRANCH  11  13
ATOM     13  C11 8X2 d   1     -17.917  12.045  41.392  0.00  0.00     0.727 A 
ATOM     14  N3  8X2 d   1     -18.184  11.002  40.566  0.00  0.00    -0.075 NA
ATOM     15  C12 8X2 d   1     -17.224  10.446  39.804  0.00  0.00     0.023 A 
ATOM     16  C13 8X2 d   1     -15.926  10.933  39.857  0.00  0.00    -0.035 A 
ATOM     17  H11 8X2 d   1     -17.465   9.617  39.148  0.00  0.00     0.115 H 
ATOM     18  C14 8X2 d   1     -15.650  12.001  40.707  0.00  0.00     0.104 A 
ATOM     19  H12 8X2 d   1     -15.144  10.492  39.250  0.00  0.00     0.089 H 
ATOM     20  N4  8X2 d   1     -16.648  12.540  41.461  0.00  0.00    -0.061 NA
BRANCH  18  21
ATOM     21  C15 8X2 d   1     -14.247  12.501  40.774  0.00  0.00     0.063 A 
ATOM     22  C16 8X2 d   1     -13.088  12.037  40.175  0.00  0.00    -0.038 A 
ATOM     23  C17 8X2 d   1     -12.124  12.895  40.647  0.00  0.00     0.056 A 
ATOM     24  H13 8X2 d   1     -12.969  11.195  39.494  0.00  0.00     0.088 H 
ATOM     25  C21 8X2 d   1     -10.655  12.966  40.438  0.00  0.00     0.253 C 
ATOM     26  C18 8X2 d   1     -12.699  13.835  41.489  0.00  0.00     0.027 A 
ATOM     27  N6  8X2 d   1      -9.857  13.765  41.320  0.00  0.00    -0.356 N 
ATOM     28  O   8X2 d   1     -10.161  12.302  39.541  0.00  0.00    -0.268 OA
ATOM     29  C20 8X2 d   1     -10.462  14.528  42.416  0.00  0.00     0.000 C 
ATOM     30  H7  8X2 d   1      -8.867  13.803  41.185  0.00  0.00     0.162 HD
ATOM     31  C19 8X2 d   1     -11.930  14.936  42.193  0.00  0.00    -0.011 C 
ATOM     32  H16 8X2 d   1      -9.871  15.445  42.560  0.00  0.00     0.064 H 
ATOM     33  H17 8X2 d   1     -10.413  13.913  43.327  0.00  0.00     0.064 H 
ATOM     34  H14 8X2 d   1     -11.961  15.847  41.577  0.00  0.00     0.044 H 
ATOM     35  H15 8X2 d   1     -12.400  15.136  43.167  0.00  0.00     0.044 H 
ATOM     36  N5  8X2 d   1     -14.016  13.571  41.557  0.00  0.00    -0.357 N 
ATOM     37  H18 8X2 d   1     -14.716  14.090  42.105  0.00  0.00     0.166 HD
ENDBRANCH  18  21
ENDBRANCH  11  13
ENDBRANCH   2  11
BRANCH   6  38
ATOM     38  N1  8X2 d   1     -18.610  17.359  45.429  0.00  0.00    -0.280 NA
ATOM     39  C2  8X2 d   1     -19.574  18.402  45.023  0.00  0.00     0.006 C 
ATOM     40  C1  8X2 d   1     -19.403  19.656  45.888  0.00  0.00     0.094 C 
ATOM     41  H3  8X2 d   1     -19.402  18.663  43.968  0.00  0.00     0.058 H 
ATOM     42  H4  8X2 d   1     -20.597  18.016  45.143  0.00  0.00     0.058 H 
ATOM     43  N   8X2 d   1     -18.012  20.153  45.794  0.00  0.00    -0.073 N 
ATOM     44  H1  8X2 d   1     -19.631  19.409  46.935  0.00  0.00     0.077 H 
ATOM     45  H2  8X2 d   1     -20.093  20.437  45.536  0.00  0.00     0.077 H 
ATOM     46  C4  8X2 d   1     -17.064  19.105  46.225  0.00  0.00     0.094 C 
ATOM     47  H23 8X2 d   1     -17.815  20.404  44.838  0.00  0.00     0.279 HD
ATOM     48  C3  8X2 d   1     -17.236  17.885  45.320  0.00  0.00     0.006 C 
ATOM     49  H21 8X2 d   1     -16.034  19.483  46.145  0.00  0.00     0.077 H 
ATOM     50  H22 8X2 d   1     -17.272  18.824  47.268  0.00  0.00     0.077 H 
ATOM     51  H5  8X2 d   1     -17.040  18.176  44.277  0.00  0.00     0.058 H 
ATOM     52  H6  8X2 d   1     -16.523  17.104  45.623  0.00  0.00     0.058 H 
BRANCH  43  53
ATOM     53  C   8X2 d   1     -17.853  21.339  46.649  0.00  0.00     0.066 C 
ATOM     54  H24 8X2 d   1     -18.559  22.119  46.328  0.00  0.00     0.068 H 
ATOM     55  H25 8X2 d   1     -16.824  21.718  46.563  0.00  0.00     0.068 H 
ATOM     56  H26 8X2 d   1     -18.058  21.067  47.695  0.00  0.00     0.068 H 
ENDBRANCH  43  53
ENDBRANCH   6  38
TORSDOF 5
