REMARK  5 active torsions:
REMARK  status: ('A' for Active; 'I' for Inactive)
REMARK    1  A    between atoms: C6_20  and  C3_3 
REMARK    2  A    between atoms: C13_10  and  C12_9 
REMARK    3  A    between atoms: N4_27  and  C16_13 
REMARK    4  A    between atoms: N_19  and  C6_20 
REMARK    5  A    between atoms: N4_27  and  C17_28 
ROOT
ATOM      1  C7  8X5 d   1     -10.977  16.335  41.369  0.00  0.00     0.003 C 
ATOM      2  C8  8X5 d   1     -12.475  16.609  41.407  0.00  0.00    -0.011 C 
ATOM      3  C9  8X5 d   1     -13.102  15.297  41.070  0.00  0.00     0.027 A 
ATOM      4  C10 8X5 d   1     -12.511  14.296  40.319  0.00  0.00     0.057 A 
ATOM      5  C11 8X5 d   1     -13.457  13.233  40.219  0.00  0.00    -0.038 A 
ATOM      6  C12 8X5 d   1     -14.582  13.648  40.904  0.00  0.00     0.063 A 
ATOM      7  C22 8X5 d   1     -11.154  14.436  39.807  0.00  0.00     0.256 C 
ATOM      8  O1  8X5 d   1     -10.582  13.551  39.174  0.00  0.00    -0.267 OA
ATOM      9  N   8X5 d   1     -10.571  15.612  40.153  0.00  0.00    -0.343 N 
ATOM     10  N1  8X5 d   1     -14.363  14.906  41.416  0.00  0.00    -0.357 N 
ATOM     11  H3  8X5 d   1     -10.706  15.730  42.247  0.00  0.00     0.065 H 
ATOM     12  H4  8X5 d   1     -10.441  17.295  41.405  0.00  0.00     0.065 H 
ATOM     13  H5  8X5 d   1     -12.750  17.373  40.665  0.00  0.00     0.044 H 
ATOM     14  H6  8X5 d   1     -12.784  16.942  42.409  0.00  0.00     0.044 H 
ATOM     15  H7  8X5 d   1     -13.319  12.283  39.705  0.00  0.00     0.088 H 
ATOM     16  H21 8X5 d   1     -15.036  15.459  41.967  0.00  0.00     0.166 HD
ENDROOT
BRANCH   6  17
ATOM     17  C13 8X5 d   1     -15.859  12.950  41.112  0.00  0.00     0.104 A 
ATOM     18  C14 8X5 d   1     -16.102  11.680  40.605  0.00  0.00    -0.035 A 
ATOM     19  C15 8X5 d   1     -17.330  11.122  40.905  0.00  0.00     0.023 A 
ATOM     20  H8  8X5 d   1     -15.367  11.154  40.006  0.00  0.00     0.089 H 
ATOM     21  N2  8X5 d   1     -18.282  11.762  41.605  0.00  0.00    -0.075 NA
ATOM     22  H9  8X5 d   1     -17.536  10.116  40.558  0.00  0.00     0.115 H 
ATOM     23  C16 8X5 d   1     -17.945  12.990  42.048  0.00  0.00     0.723 A 
ATOM     24  N3  8X5 d   1     -16.769  13.616  41.840  0.00  0.00    -0.061 NA
BRANCH  23  25
ATOM     25  N4  8X5 d   1     -18.864  13.642  42.789  0.00  0.00    -0.218 N 
ATOM     26  H22 8X5 d   1     -19.786  13.194  42.891  0.00  0.00     0.178 HD
BRANCH  25  27
ATOM     27  C17 8X5 d   1     -18.673  14.928  43.462  0.00  0.00     0.030 C 
ATOM     28  C21 8X5 d   1     -20.004  15.550  43.857  0.00  0.00    -0.026 C 
ATOM     29  C20 8X5 d   1     -19.757  16.826  44.629  0.00  0.00     0.021 C 
ATOM     30  H14 8X5 d   1     -20.585  15.777  42.951  0.00  0.00     0.039 H 
ATOM     31  H15 8X5 d   1     -20.566  14.844  44.486  0.00  0.00     0.039 H 
ATOM     32  O   8X5 d   1     -18.947  16.585  45.788  0.00  0.00    -0.391 OA
ATOM     33  H12 8X5 d   1     -20.723  17.245  44.948  0.00  0.00     0.074 H 
ATOM     34  H13 8X5 d   1     -19.243  17.546  43.976  0.00  0.00     0.074 H 
ATOM     35  C19 8X5 d   1     -17.657  16.098  45.404  0.00  0.00     0.021 C 
ATOM     36  C18 8X5 d   1     -17.767  14.777  44.680  0.00  0.00    -0.026 C 
ATOM     37  H10 8X5 d   1     -17.041  15.963  46.305  0.00  0.00     0.074 H 
ATOM     38  H11 8X5 d   1     -17.179  16.833  44.740  0.00  0.00     0.074 H 
ATOM     39  H24 8X5 d   1     -18.191  14.023  45.359  0.00  0.00     0.039 H 
ATOM     40  H25 8X5 d   1     -16.767  14.455  44.353  0.00  0.00     0.039 H 
ATOM     41  H23 8X5 d   1     -18.179  15.609  42.754  0.00  0.00     0.073 H 
ENDBRANCH  25  27
ENDBRANCH  23  25
ENDBRANCH   6  17
BRANCH   9  42
ATOM     42  C6  8X5 d   1      -9.184  15.868  39.747  0.00  0.00     0.022 C 
ATOM     43  H16 8X5 d   1      -8.824  16.752  40.293  0.00  0.00     0.071 H 
ATOM     44  H17 8X5 d   1      -8.578  14.993  40.025  0.00  0.00     0.071 H 
BRANCH  42  45
ATOM     45  C3  8X5 d   1      -9.000  16.119  38.269  0.00  0.00    -0.040 A 
ATOM     46  C2  8X5 d   1     -10.010  16.695  37.507  0.00  0.00    -0.075 A 
ATOM     47  C1  8X5 d   1      -9.836  16.917  36.149  0.00  0.00    -0.082 A 
ATOM     48  H2  8X5 d   1     -10.945  16.974  37.980  0.00  0.00     0.084 H 
ATOM     49  C   8X5 d   1      -8.640  16.591  35.541  0.00  0.00    -0.083 A 
ATOM     50  H1  8X5 d   1     -10.641  17.347  35.564  0.00  0.00     0.083 H 
ATOM     51  C5  8X5 d   1      -7.621  16.037  36.288  0.00  0.00    -0.082 A 
ATOM     52  H20 8X5 d   1      -8.502  16.770  34.481  0.00  0.00     0.083 H 
ATOM     53  C4  8X5 d   1      -7.800  15.799  37.644  0.00  0.00    -0.075 A 
ATOM     54  H19 8X5 d   1      -6.678  15.787  35.815  0.00  0.00     0.083 H 
ATOM     55  H18 8X5 d   1      -6.995  15.359  38.222  0.00  0.00     0.084 H 
ENDBRANCH  42  45
ENDBRANCH   9  42
TORSDOF 5
