REMARK  7 active torsions:
REMARK  status: ('A' for Active; 'I' for Inactive)
REMARK    1  A    between atoms: C2_2  and  C1_1 
REMARK    2  A    between atoms: C1_1  and  O_17 
REMARK    3  A    between atoms: N_16  and  C2_2 
REMARK    4  A    between atoms: C8_5  and  C9_6 
REMARK    5  A    between atoms: C12_9  and  N4_25 
REMARK    6  A    between atoms: N4_25  and  C13_10 
REMARK    7  A    between atoms: O_17  and  C_18 
ROOT
ATOM      1  C3  8XH d   1     -12.390  15.453  41.503  0.00  0.00     0.003 C 
ATOM      2  C7  8XH d   1     -14.996  12.378  40.238  0.00  0.00    -0.038 A 
ATOM      3  C8  8XH d   1     -16.123  12.783  40.925  0.00  0.00     0.063 A 
ATOM      4  O2  8XH d   1     -12.027  12.324  39.685  0.00  0.00    -0.267 OA
ATOM      5  C18 8XH d   1     -12.533  13.257  40.297  0.00  0.00     0.255 C 
ATOM      6  N   8XH d   1     -11.817  14.309  40.765  0.00  0.00    -0.346 N 
ATOM      7  C6  8XH d   1     -13.927  13.224  40.663  0.00  0.00     0.057 A 
ATOM      8  N1  8XH d   1     -15.776  13.834  41.739  0.00  0.00    -0.357 N 
ATOM      9  C5  8XH d   1     -14.441  14.104  41.572  0.00  0.00     0.027 A 
ATOM     10  C4  8XH d   1     -13.656  15.143  42.292  0.00  0.00    -0.011 C 
ATOM     11  H5  8XH d   1     -12.627  16.244  40.776  0.00  0.00     0.065 H 
ATOM     12  H6  8XH d   1     -11.630  15.819  42.209  0.00  0.00     0.065 H 
ATOM     13  H7  8XH d   1     -14.934  11.569  39.512  0.00  0.00     0.088 H 
ATOM     14  H20 8XH d   1     -16.414  14.337  42.372  0.00  0.00     0.166 HD
ATOM     15  H21 8XH d   1     -14.260  16.057  42.392  0.00  0.00     0.044 H 
ATOM     16  H22 8XH d   1     -13.385  14.772  43.291  0.00  0.00     0.044 H 
ENDROOT
BRANCH   3  17
ATOM     17  C9  8XH d   1     -17.498  12.275  40.944  0.00  0.00     0.104 A 
ATOM     18  C10 8XH d   1     -17.854  11.086  40.317  0.00  0.00    -0.035 A 
ATOM     19  C11 8XH d   1     -19.169  10.679  40.471  0.00  0.00     0.023 A 
ATOM     20  H8  8XH d   1     -17.141  10.509  39.739  0.00  0.00     0.089 H 
ATOM     21  N2  8XH d   1     -20.089  11.390  41.149  0.00  0.00    -0.075 NA
ATOM     22  H9  8XH d   1     -19.473   9.740  40.023  0.00  0.00     0.115 H 
ATOM     23  C12 8XH d   1     -19.648  12.544  41.685  0.00  0.00     0.723 A 
ATOM     24  N3  8XH d   1     -18.382  13.019  41.626  0.00  0.00    -0.061 NA
BRANCH  23  25
ATOM     25  N4  8XH d   1     -20.551  13.280  42.371  0.00  0.00    -0.218 N 
ATOM     26  H23 8XH d   1     -21.493  12.875  42.467  0.00  0.00     0.178 HD
BRANCH  25  27
ATOM     27  C13 8XH d   1     -20.338  14.594  42.996  0.00  0.00     0.030 C 
ATOM     28  C14 8XH d   1     -19.713  14.475  44.381  0.00  0.00    -0.026 C 
ATOM     29  C15 8XH d   1     -19.583  15.853  45.000  0.00  0.00     0.021 C 
ATOM     30  H11 8XH d   1     -18.717  14.017  44.295  0.00  0.00     0.039 H 
ATOM     31  H12 8XH d   1     -20.352  13.846  45.018  0.00  0.00     0.039 H 
ATOM     32  O1  8XH d   1     -20.865  16.499  45.095  0.00  0.00    -0.391 OA
ATOM     33  H13 8XH d   1     -18.917  16.466  44.376  0.00  0.00     0.074 H 
ATOM     34  H14 8XH d   1     -19.154  15.755  46.008  0.00  0.00     0.074 H 
ATOM     35  C16 8XH d   1     -21.427  16.705  43.781  0.00  0.00     0.021 C 
ATOM     36  C17 8XH d   1     -21.639  15.393  43.059  0.00  0.00    -0.026 C 
ATOM     37  H15 8XH d   1     -22.395  17.218  43.882  0.00  0.00     0.074 H 
ATOM     38  H16 8XH d   1     -20.740  17.331  43.192  0.00  0.00     0.074 H 
ATOM     39  H24 8XH d   1     -22.398  14.805  43.595  0.00  0.00     0.039 H 
ATOM     40  H25 8XH d   1     -21.988  15.596  42.036  0.00  0.00     0.039 H 
ATOM     41  H10 8XH d   1     -19.633  15.151  42.361  0.00  0.00     0.073 H 
ENDBRANCH  25  27
ENDBRANCH  23  25
ENDBRANCH   3  17
BRANCH   6  42
ATOM     42  C2  8XH d   1     -10.390  14.415  40.429  0.00  0.00     0.018 C 
ATOM     43  H3  8XH d   1      -9.826  14.582  41.359  0.00  0.00     0.067 H 
ATOM     44  H4  8XH d   1     -10.070  13.467  39.972  0.00  0.00     0.067 H 
BRANCH  42  45
ATOM     45  C1  8XH d   1     -10.070  15.543  39.466  0.00  0.00     0.034 C 
ATOM     46  H1  8XH d   1      -9.043  15.431  39.088  0.00  0.00     0.076 H 
ATOM     47  H2  8XH d   1     -10.168  16.511  39.980  0.00  0.00     0.076 H 
BRANCH  45  48
ATOM     48  O   8XH d   1     -10.986  15.476  38.392  0.00  0.00    -0.394 OA
BRANCH  48  49
ATOM     49  C   8XH d   1     -10.925  16.616  37.567  0.00  0.00     0.004 C 
ATOM     50  H17 8XH d   1     -11.654  16.516  36.749  0.00  0.00     0.066 H 
ATOM     51  H18 8XH d   1      -9.913  16.711  37.147  0.00  0.00     0.066 H 
ATOM     52  H19 8XH d   1     -11.161  17.511  38.161  0.00  0.00     0.066 H 
ENDBRANCH  48  49
ENDBRANCH  45  48
ENDBRANCH  42  45
ENDBRANCH   6  42
TORSDOF 7
