REMARK  8 active torsions:
REMARK  status: ('A' for Active; 'I' for Inactive)
REMARK    1  A    between atoms: N2_24  and  C1_1 
REMARK    2  A    between atoms: N6_4  and  C15_13 
REMARK    3  A    between atoms: C7_5  and  C8_6 
REMARK    4  A    between atoms: C15_13  and  C16_14 
REMARK    5  A    between atoms: C16_14  and  O1_16 
REMARK    6  A    between atoms: O1_16  and  C17_17 
REMARK    7  A    between atoms: C4_23  and  N2_24 
REMARK    8  A    between atoms: N_26  and  C_27 
ROOT
ATOM      1  N6  8XE d   1     -11.834  14.118  40.849  0.00  0.00    -0.346 N 
ATOM      2  C8  8XE d   1     -16.199  12.716  41.091  0.00  0.00     0.063 A 
ATOM      3  C9  8XE d   1     -15.108  12.322  40.327  0.00  0.00    -0.038 A 
ATOM      4  C10 8XE d   1     -13.985  13.076  40.758  0.00  0.00     0.057 A 
ATOM      5  C11 8XE d   1     -14.417  13.893  41.770  0.00  0.00     0.027 A 
ATOM      6  C12 8XE d   1     -13.547  14.850  42.512  0.00  0.00    -0.011 C 
ATOM      7  C13 8XE d   1     -12.406  15.263  41.596  0.00  0.00     0.003 C 
ATOM      8  C14 8XE d   1     -12.582  13.103  40.331  0.00  0.00     0.255 C 
ATOM      9  O   8XE d   1     -12.103  12.176  39.680  0.00  0.00    -0.267 OA
ATOM     10  N5  8XE d   1     -15.752  13.686  41.978  0.00  0.00    -0.357 N 
ATOM     11  H3  8XE d   1     -15.113  11.570  39.539  0.00  0.00     0.088 H 
ATOM     12  H4  8XE d   1     -13.144  14.365  43.413  0.00  0.00     0.044 H 
ATOM     13  H5  8XE d   1     -14.131  15.736  42.802  0.00  0.00     0.044 H 
ATOM     14  H6  8XE d   1     -12.783  16.002  40.874  0.00  0.00     0.065 H 
ATOM     15  H7  8XE d   1     -11.612  15.719  42.206  0.00  0.00     0.065 H 
ATOM     16  H15 8XE d   1     -16.332  14.170  42.678  0.00  0.00     0.166 HD
ENDROOT
BRANCH   2  17
ATOM     17  C7  8XE d   1     -17.609  12.304  41.095  0.00  0.00     0.104 A 
ATOM     18  C6  8XE d   1     -18.076  11.213  40.350  0.00  0.00    -0.035 A 
ATOM     19  C5  8XE d   1     -19.429  10.920  40.452  0.00  0.00     0.023 A 
ATOM     20  H16 8XE d   1     -17.413  10.626  39.724  0.00  0.00     0.089 H 
ATOM     21  N3  8XE d   1     -20.292  11.623  41.219  0.00  0.00    -0.075 NA
ATOM     22  H17 8XE d   1     -19.815  10.081  39.885  0.00  0.00     0.115 H 
ATOM     23  C4  8XE d   1     -19.750  12.654  41.891  0.00  0.00     0.728 A 
ATOM     24  N4  8XE d   1     -18.422  13.041  41.865  0.00  0.00    -0.061 NA
BRANCH  23  25
ATOM     25  N2  8XE d   1     -20.608  13.392  42.689  0.00  0.00    -0.171 N 
ATOM     26  H18 8XE d   1     -21.587  13.074  42.676  0.00  0.00     0.186 HD
BRANCH  25  27
ATOM     27  C1  8XE d   1     -20.367  14.487  43.501  0.00  0.00     0.140 A 
ATOM     28  C2  8XE d   1     -19.314  14.820  44.315  0.00  0.00    -0.020 A 
ATOM     29  C3  8XE d   1     -19.665  16.045  44.856  0.00  0.00     0.025 A 
ATOM     30  H1  8XE d   1     -18.405  14.248  44.495  0.00  0.00     0.091 H 
ATOM     31  N1  8XE d   1     -20.853  16.467  44.425  0.00  0.00    -0.184 NA
ATOM     32  H2  8XE d   1     -19.041  16.601  45.554  0.00  0.00     0.117 H 
ATOM     33  N   8XE d   1     -21.277  15.483  43.580  0.00  0.00    -0.258 N 
BRANCH  33  34
ATOM     34  C   8XE d   1     -22.570  15.621  42.912  0.00  0.00     0.004 C 
ATOM     35  H19 8XE d   1     -23.041  16.567  43.216  0.00  0.00     0.059 H 
ATOM     36  H20 8XE d   1     -23.221  14.780  43.195  0.00  0.00     0.059 H 
ATOM     37  H21 8XE d   1     -22.422  15.619  41.822  0.00  0.00     0.059 H 
ENDBRANCH  33  34
ENDBRANCH  25  27
ENDBRANCH  23  25
ENDBRANCH   2  17
BRANCH   1  38
ATOM     38  C15 8XE d   1     -10.439  14.350  40.377  0.00  0.00     0.018 C 
ATOM     39  H8  8XE d   1      -9.890  13.402  40.474  0.00  0.00     0.067 H 
ATOM     40  H9  8XE d   1      -9.984  15.105  41.035  0.00  0.00     0.067 H 
BRANCH  38  41
ATOM     41  C16 8XE d   1     -10.283  14.834  38.933  0.00  0.00     0.034 C 
ATOM     42  H10 8XE d   1     -10.752  14.110  38.251  0.00  0.00     0.076 H 
ATOM     43  H11 8XE d   1      -9.214  14.927  38.691  0.00  0.00     0.076 H 
BRANCH  41  44
ATOM     44  O1  8XE d   1     -10.878  16.029  38.796  0.00  0.00    -0.394 OA
BRANCH  44  45
ATOM     45  C17 8XE d   1     -10.958  16.458  37.434  0.00  0.00     0.004 C 
ATOM     46  H12 8XE d   1     -11.453  17.439  37.387  0.00  0.00     0.066 H 
ATOM     47  H13 8XE d   1     -11.538  15.726  36.853  0.00  0.00     0.066 H 
ATOM     48  H14 8XE d   1      -9.944  16.539  37.015  0.00  0.00     0.066 H 
ENDBRANCH  44  45
ENDBRANCH  41  44
ENDBRANCH  38  41
ENDBRANCH   1  38
TORSDOF 8
