REMARK  10 active torsions:
REMARK  status: ('A' for Active; 'I' for Inactive)
REMARK    1  A    between atoms: N6_4  and  C18_28 
REMARK    2  A    between atoms: C7_5  and  C8_6 
REMARK    3  A    between atoms: C12_10  and  C11_9 
REMARK    4  A    between atoms: C13_11  and  C14_12 
REMARK    5  A    between atoms: N5_26  and  C15_13 
REMARK    6  A    between atoms: N1_18  and  C4_19 
REMARK    7  A    between atoms: C4_19  and  C5_20 
REMARK    8  A    between atoms: C5_20  and  O2_21 
REMARK    9  A    between atoms: O2_21  and  C6_22 
REMARK   10  A    between atoms: N5_26  and  C17_27 
ROOT
ATOM      1  C1  8XB d   1     -11.976  13.466  40.241  0.00  0.00     0.256 C 
ATOM      2  C2  8XB d   1     -13.365  13.367  40.655  0.00  0.00     0.057 A 
ATOM      3  C3  8XB d   1     -14.349  12.382  40.405  0.00  0.00    -0.038 A 
ATOM      4  C7  8XB d   1     -11.698  15.184  42.079  0.00  0.00     0.016 C 
ATOM      5  C9  8XB d   1     -13.226  15.519  41.971  0.00  0.00    -0.007 C 
ATOM      6  C10 8XB d   1     -13.950  14.323  41.438  0.00  0.00     0.027 A 
ATOM      7  C11 8XB d   1     -15.513  12.776  41.044  0.00  0.00     0.063 A 
ATOM      8  O1  8XB d   1     -11.470  12.614  39.526  0.00  0.00    -0.267 OA
ATOM      9  N1  8XB d   1     -11.234  14.454  40.848  0.00  0.00    -0.341 N 
ATOM     10  N2  8XB d   1     -15.240  13.956  41.705  0.00  0.00    -0.357 N 
ATOM     11  H1  8XB d   1     -14.215  11.476  39.816  0.00  0.00     0.088 H 
ATOM     12  H2  8XB d   1     -11.162  16.144  42.102  0.00  0.00     0.072 H 
ATOM     13  H6  8XB d   1     -13.370  16.371  41.290  0.00  0.00     0.045 H 
ATOM     14  H7  8XB d   1     -13.619  15.775  42.966  0.00  0.00     0.045 H 
ATOM     15  H21 8XB d   1     -15.900  14.475  42.302  0.00  0.00     0.166 HD
ENDROOT
BRANCH   7  16
ATOM     16  C12 8XB d   1     -16.866  12.222  41.150  0.00  0.00     0.110 A 
ATOM     17  C13 8XB d   1     -17.295  11.025  40.556  0.00  0.00    -0.012 A 
ATOM     18  C16 8XB d   1     -18.631  10.702  40.762  0.00  0.00     0.029 A 
ATOM     19  N4  8XB d   1     -19.492  11.436  41.456  0.00  0.00    -0.074 NA
ATOM     20  H11 8XB d   1     -18.997   9.781  40.323  0.00  0.00     0.116 H 
ATOM     21  C15 8XB d   1     -18.985  12.564  41.963  0.00  0.00     0.728 A 
ATOM     22  N3  8XB d   1     -17.707  13.004  41.845  0.00  0.00    -0.060 NA
BRANCH  17  23
ATOM     23  C14 8XB d   1     -16.409  10.110  39.742  0.00  0.00    -0.048 C 
ATOM     24  H8  8XB d   1     -16.995   9.246  39.395  0.00  0.00     0.033 H 
ATOM     25  H9  8XB d   1     -15.573   9.760  40.365  0.00  0.00     0.033 H 
ATOM     26  H10 8XB d   1     -16.015  10.658  38.874  0.00  0.00     0.033 H 
ENDBRANCH  17  23
BRANCH  21  27
ATOM     27  N5  8XB d   1     -19.836  13.296  42.773  0.00  0.00    -0.171 N 
ATOM     28  H22 8XB d   1     -20.831  13.037  42.713  0.00  0.00     0.186 HD
BRANCH  27  29
ATOM     29  C17 8XB d   1     -19.544  14.328  43.654  0.00  0.00     0.140 A 
ATOM     30  N6  8XB d   1     -20.405  15.360  43.786  0.00  0.00    -0.258 N 
ATOM     31  N7  8XB d   1     -19.927  16.282  44.679  0.00  0.00    -0.184 NA
ATOM     32  C19 8XB d   1     -18.730  15.809  45.034  0.00  0.00     0.025 A 
ATOM     33  C20 8XB d   1     -18.448  14.584  44.450  0.00  0.00    -0.020 A 
ATOM     34  H12 8XB d   1     -18.050  16.328  45.708  0.00  0.00     0.117 H 
ATOM     35  H13 8XB d   1     -17.563  13.965  44.588  0.00  0.00     0.091 H 
BRANCH  30  36
ATOM     36  C18 8XB d   1     -21.703  15.567  43.143  0.00  0.00     0.004 C 
ATOM     37  H23 8XB d   1     -22.133  16.521  43.483  0.00  0.00     0.059 H 
ATOM     38  H24 8XB d   1     -22.381  14.743  43.412  0.00  0.00     0.059 H 
ATOM     39  H25 8XB d   1     -21.572  15.592  42.051  0.00  0.00     0.059 H 
ENDBRANCH  30  36
ENDBRANCH  27  29
ENDBRANCH  21  27
ENDBRANCH   7  16
BRANCH   9  40
ATOM     40  C4  8XB d   1      -9.844  14.654  40.406  0.00  0.00     0.018 C 
ATOM     41  H14 8XB d   1      -9.548  13.784  39.802  0.00  0.00     0.067 H 
ATOM     42  H15 8XB d   1      -9.205  14.714  41.300  0.00  0.00     0.067 H 
BRANCH  40  43
ATOM     43  C5  8XB d   1      -9.617  15.905  39.577  0.00  0.00     0.034 C 
ATOM     44  H16 8XB d   1      -8.538  16.115  39.530  0.00  0.00     0.076 H 
ATOM     45  H17 8XB d   1     -10.134  16.751  40.053  0.00  0.00     0.076 H 
BRANCH  43  46
ATOM     46  O2  8XB d   1     -10.123  15.735  38.240  0.00  0.00    -0.394 OA
BRANCH  46  47
ATOM     47  C6  8XB d   1     -10.803  16.931  37.855  0.00  0.00     0.004 C 
ATOM     48  H18 8XB d   1     -11.196  16.817  36.834  0.00  0.00     0.066 H 
ATOM     49  H19 8XB d   1     -10.101  17.778  37.885  0.00  0.00     0.066 H 
ATOM     50  H20 8XB d   1     -11.635  17.119  38.549  0.00  0.00     0.066 H 
ENDBRANCH  46  47
ENDBRANCH  43  46
ENDBRANCH  40  43
ENDBRANCH   9  40
BRANCH   4  51
ATOM     51  C8  8XB d   1     -11.335  14.457  43.372  0.00  0.00    -0.057 C 
ATOM     52  H3  8XB d   1     -11.699  15.037  44.233  0.00  0.00     0.030 H 
ATOM     53  H4  8XB d   1     -10.242  14.349  43.438  0.00  0.00     0.030 H 
ATOM     54  H5  8XB d   1     -11.802  13.461  43.377  0.00  0.00     0.030 H 
ENDBRANCH   4  51
TORSDOF 10
