REMARK  10 active torsions:
REMARK  status: ('A' for Active; 'I' for Inactive)
REMARK    1  A    between atoms: C1_1  and  C_23 
REMARK    2  A    between atoms: C3_3  and  N4_26 
REMARK    3  A    between atoms: N6_4  and  C19_15 
REMARK    4  A    between atoms: C10_8  and  C15_13 
REMARK    5  A    between atoms: C12_10  and  C13_11 
REMARK    6  A    between atoms: N3_18  and  C12_10 
REMARK    7  A    between atoms: C13_11  and  O1_19 
REMARK    8  A    between atoms: O1_19  and  C14_12 
REMARK    9  A    between atoms: N4_26  and  C16_14 
REMARK   10  A    between atoms: C5_21  and  C4_22 
ROOT
ATOM      1  C7  8XN d   1     -13.420  13.087  40.977  0.00  0.00     0.057 A 
ATOM      2  C8  8XN d   1     -13.884  13.752  42.075  0.00  0.00     0.027 A 
ATOM      3  C9  8XN d   1     -13.023  14.653  42.902  0.00  0.00    -0.007 C 
ATOM      4  C10 8XN d   1     -12.000  15.338  41.951  0.00  0.00     0.016 C 
ATOM      5  C11 8XN d   1     -12.046  13.226  40.555  0.00  0.00     0.256 C 
ATOM      6  O   8XN d   1     -11.589  12.491  39.694  0.00  0.00    -0.267 OA
ATOM      7  C6  8XN d   1     -14.499  12.354  40.454  0.00  0.00    -0.038 A 
ATOM      8  N3  8XN d   1     -11.368  14.322  41.053  0.00  0.00    -0.341 N 
ATOM      9  N2  8XN d   1     -15.198  13.460  42.256  0.00  0.00    -0.357 N 
ATOM     10  C5  8XN d   1     -15.596  12.594  41.258  0.00  0.00     0.063 A 
ATOM     11  H2  8XN d   1     -12.490  14.065  43.664  0.00  0.00     0.045 H 
ATOM     12  H3  8XN d   1     -13.644  15.415  43.395  0.00  0.00     0.045 H 
ATOM     13  H4  8XN d   1     -11.206  15.800  42.556  0.00  0.00     0.072 H 
ATOM     14  H18 8XN d   1     -14.475  11.713  39.574  0.00  0.00     0.088 H 
ATOM     15  H19 8XN d   1     -15.797  13.824  43.011  0.00  0.00     0.166 HD
ENDROOT
BRANCH  10  16
ATOM     16  C4  8XN d   1     -16.991  12.137  41.261  0.00  0.00     0.110 A 
ATOM     17  C1  8XN d   1     -17.454  10.998  40.580  0.00  0.00    -0.012 A 
ATOM     18  C2  8XN d   1     -18.802  10.712  40.732  0.00  0.00     0.029 A 
ATOM     19  N   8XN d   1     -19.655  11.445  41.466  0.00  0.00    -0.074 NA
ATOM     20  H1  8XN d   1     -19.194   9.838  40.224  0.00  0.00     0.116 H 
ATOM     21  C3  8XN d   1     -19.107  12.508  42.076  0.00  0.00     0.728 A 
ATOM     22  N1  8XN d   1     -17.802  12.897  42.012  0.00  0.00    -0.060 NA
BRANCH  17  23
ATOM     23  C   8XN d   1     -16.579  10.106  39.737  0.00  0.00    -0.048 C 
ATOM     24  H20 8XN d   1     -17.184   9.289  39.317  0.00  0.00     0.033 H 
ATOM     25  H21 8XN d   1     -15.777   9.684  40.360  0.00  0.00     0.033 H 
ATOM     26  H22 8XN d   1     -16.137  10.693  38.918  0.00  0.00     0.033 H 
ENDBRANCH  17  23
BRANCH  21  27
ATOM     27  N4  8XN d   1     -19.943  13.292  42.855  0.00  0.00    -0.171 N 
ATOM     28  H23 8XN d   1     -20.945  13.076  42.758  0.00  0.00     0.186 HD
BRANCH  27  29
ATOM     29  C16 8XN d   1     -19.656  14.323  43.748  0.00  0.00     0.140 A 
ATOM     30  N6  8XN d   1     -20.511  15.362  43.880  0.00  0.00    -0.258 N 
ATOM     31  N5  8XN d   1     -20.055  16.255  44.807  0.00  0.00    -0.184 NA
ATOM     32  C18 8XN d   1     -18.904  15.739  45.230  0.00  0.00     0.025 A 
ATOM     33  C17 8XN d   1     -18.604  14.540  44.607  0.00  0.00    -0.020 A 
ATOM     34  H24 8XN d   1     -18.270  16.207  45.981  0.00  0.00     0.117 H 
ATOM     35  H25 8XN d   1     -17.730  13.909  44.762  0.00  0.00     0.091 H 
BRANCH  30  36
ATOM     36  C19 8XN d   1     -21.776  15.621  43.197  0.00  0.00     0.004 C 
ATOM     37  H15 8XN d   1     -22.201  16.569  43.559  0.00  0.00     0.059 H 
ATOM     38  H16 8XN d   1     -22.479  14.801  43.404  0.00  0.00     0.059 H 
ATOM     39  H17 8XN d   1     -21.601  15.688  42.113  0.00  0.00     0.059 H 
ENDBRANCH  30  36
ENDBRANCH  27  29
ENDBRANCH  21  27
ENDBRANCH  10  16
BRANCH   8  40
ATOM     40  C12 8XN d   1      -9.942  14.465  40.742  0.00  0.00     0.018 C 
ATOM     41  H5  8XN d   1      -9.407  14.666  41.682  0.00  0.00     0.067 H 
ATOM     42  H6  8XN d   1      -9.589  13.514  40.315  0.00  0.00     0.067 H 
BRANCH  40  43
ATOM     43  C13 8XN d   1      -9.606  15.572  39.764  0.00  0.00     0.034 C 
ATOM     44  H7  8XN d   1      -8.513  15.679  39.701  0.00  0.00     0.076 H 
ATOM     45  H8  8XN d   1     -10.047  16.515  40.120  0.00  0.00     0.076 H 
BRANCH  43  46
ATOM     46  O1  8XN d   1     -10.113  15.279  38.494  0.00  0.00    -0.394 OA
BRANCH  46  47
ATOM     47  C14 8XN d   1     -10.356  16.431  37.762  0.00  0.00     0.004 C 
ATOM     48  H9  8XN d   1     -10.753  16.160  36.773  0.00  0.00     0.066 H 
ATOM     49  H10 8XN d   1      -9.418  16.992  37.640  0.00  0.00     0.066 H 
ATOM     50  H11 8XN d   1     -11.090  17.055  38.293  0.00  0.00     0.066 H 
ENDBRANCH  46  47
ENDBRANCH  43  46
ENDBRANCH  40  43
ENDBRANCH   8  40
BRANCH   4  51
ATOM     51  C15 8XN d   1     -12.722  16.449  41.165  0.00  0.00    -0.057 C 
ATOM     52  H12 8XN d   1     -12.009  16.942  40.488  0.00  0.00     0.030 H 
ATOM     53  H13 8XN d   1     -13.131  17.189  41.868  0.00  0.00     0.030 H 
ATOM     54  H14 8XN d   1     -13.541  16.009  40.577  0.00  0.00     0.030 H 
ENDBRANCH   4  51
TORSDOF 10
