REMARK  9 active torsions:
REMARK  status: ('A' for Active; 'I' for Inactive)
REMARK    1  A    between atoms: N2_25  and  C1_1 
REMARK    2  A    between atoms: N6_4  and  C16_14 
REMARK    3  A    between atoms: C7_5  and  C8_6 
REMARK    4  A    between atoms: N5_19  and  C12_10 
REMARK    5  A    between atoms: C16_14  and  C17_16 
REMARK    6  A    between atoms: C17_16  and  O1_17 
REMARK    7  A    between atoms: O1_17  and  C18_18 
REMARK    8  A    between atoms: C4_24  and  N2_25 
REMARK    9  A    between atoms: N_27  and  C_28 
ROOT
ATOM      1  N6  8XK d   1     -11.033  13.952  40.551  0.00  0.00    -0.346 N 
ATOM      2  C8  8XK d   1     -15.482  12.891  40.844  0.00  0.00     0.065 A 
ATOM      3  C9  8XK d   1     -14.368  12.199  40.405  0.00  0.00    -0.037 A 
ATOM      4  C10 8XK d   1     -13.237  13.065  40.503  0.00  0.00     0.057 A 
ATOM      5  C11 8XK d   1     -13.712  14.260  41.028  0.00  0.00     0.029 A 
ATOM      6  C13 8XK d   1     -12.845  15.437  41.354  0.00  0.00    -0.011 C 
ATOM      7  C14 8XK d   1     -11.438  14.914  41.587  0.00  0.00     0.003 C 
ATOM      8  C15 8XK d   1     -11.813  12.909  40.166  0.00  0.00     0.255 C 
ATOM      9  O   8XK d   1     -11.360  11.874  39.691  0.00  0.00    -0.267 OA
ATOM     10  N5  8XK d   1     -15.065  14.168  41.266  0.00  0.00    -0.352 N 
ATOM     11  H3  8XK d   1     -14.355  11.171  40.046  0.00  0.00     0.088 H 
ATOM     12  H7  8XK d   1     -13.215  15.937  42.261  0.00  0.00     0.044 H 
ATOM     13  H8  8XK d   1     -12.847  16.149  40.516  0.00  0.00     0.044 H 
ATOM     14  H9  8XK d   1     -10.737  15.762  41.579  0.00  0.00     0.065 H 
ATOM     15  H10 8XK d   1     -11.401  14.417  42.568  0.00  0.00     0.065 H 
ENDROOT
BRANCH   2  16
ATOM     16  C7  8XK d   1     -16.854  12.329  40.889  0.00  0.00     0.104 A 
ATOM     17  C6  8XK d   1     -17.167  11.152  40.214  0.00  0.00    -0.035 A 
ATOM     18  C5  8XK d   1     -18.449  10.669  40.386  0.00  0.00     0.023 A 
ATOM     19  H18 8XK d   1     -16.444  10.643  39.588  0.00  0.00     0.089 H 
ATOM     20  N3  8XK d   1     -19.394  11.308  41.103  0.00  0.00    -0.075 NA
ATOM     21  H19 8XK d   1     -18.709   9.726  39.919  0.00  0.00     0.115 H 
ATOM     22  C4  8XK d   1     -18.987  12.435  41.712  0.00  0.00     0.728 A 
ATOM     23  N4  8XK d   1     -17.748  12.966  41.661  0.00  0.00    -0.061 NA
BRANCH  22  24
ATOM     24  N2  8XK d   1     -19.909  13.129  42.481  0.00  0.00    -0.171 N 
ATOM     25  H20 8XK d   1     -20.896  12.848  42.395  0.00  0.00     0.186 HD
BRANCH  24  26
ATOM     26  C1  8XK d   1     -19.615  14.198  43.382  0.00  0.00     0.140 A 
ATOM     27  C2  8XK d   1     -18.497  14.440  44.167  0.00  0.00    -0.020 A 
ATOM     28  C3  8XK d   1     -18.766  15.659  44.782  0.00  0.00     0.025 A 
ATOM     29  H1  8XK d   1     -17.610  13.817  44.277  0.00  0.00     0.091 H 
ATOM     30  N1  8XK d   1     -19.958  16.143  44.454  0.00  0.00    -0.184 NA
ATOM     31  H2  8XK d   1     -18.075  16.161  45.458  0.00  0.00     0.117 H 
ATOM     32  N   8XK d   1     -20.461  15.235  43.573  0.00  0.00    -0.258 N 
BRANCH  32  33
ATOM     33  C   8XK d   1     -21.786  15.468  43.014  0.00  0.00     0.004 C 
ATOM     34  H21 8XK d   1     -22.181  16.422  43.393  0.00  0.00     0.059 H 
ATOM     35  H22 8XK d   1     -22.458  14.649  43.310  0.00  0.00     0.059 H 
ATOM     36  H23 8XK d   1     -21.719  15.509  41.917  0.00  0.00     0.059 H 
ENDBRANCH  32  33
ENDBRANCH  24  26
ENDBRANCH  22  24
ENDBRANCH   2  16
BRANCH  10  37
ATOM     37  C12 8XK d   1     -15.924  15.239  41.798  0.00  0.00    -0.014 C 
ATOM     38  H4  8XK d   1     -16.958  14.873  41.880  0.00  0.00     0.057 H 
ATOM     39  H5  8XK d   1     -15.894  16.104  41.119  0.00  0.00     0.057 H 
ATOM     40  H6  8XK d   1     -15.562  15.540  42.792  0.00  0.00     0.057 H 
ENDBRANCH  10  37
BRANCH   1  41
ATOM     41  C16 8XK d   1      -9.658  14.080  40.041  0.00  0.00     0.018 C 
ATOM     42  H11 8XK d   1      -9.198  13.081  40.043  0.00  0.00     0.067 H 
ATOM     43  H12 8XK d   1      -9.101  14.742  40.721  0.00  0.00     0.067 H 
BRANCH  41  44
ATOM     44  C17 8XK d   1      -9.552  14.642  38.648  0.00  0.00     0.034 C 
ATOM     45  H13 8XK d   1     -10.053  13.968  37.937  0.00  0.00     0.076 H 
ATOM     46  H14 8XK d   1      -8.493  14.747  38.370  0.00  0.00     0.076 H 
BRANCH  44  47
ATOM     47  O1  8XK d   1     -10.175  15.902  38.626  0.00  0.00    -0.394 OA
BRANCH  47  48
ATOM     48  C18 8XK d   1     -10.104  16.503  37.353  0.00  0.00     0.004 C 
ATOM     49  H15 8XK d   1     -10.602  17.483  37.382  0.00  0.00     0.066 H 
ATOM     50  H16 8XK d   1     -10.605  15.859  36.615  0.00  0.00     0.066 H 
ATOM     51  H17 8XK d   1      -9.050  16.636  37.069  0.00  0.00     0.066 H 
ENDBRANCH  47  48
ENDBRANCH  44  47
ENDBRANCH  41  44
ENDBRANCH   1  41
TORSDOF 9
