REMARK  3 active torsions:
REMARK  status: ('A' for Active; 'I' for Inactive)
REMARK    1  A    between atoms: N4_22  and  C2_2 
REMARK    2  A    between atoms: C3_3  and  C4_18 
REMARK    3  A    between atoms: C11_8  and  N4_22 
ROOT
ATOM      1  C1  8QB d   1     -18.150  10.565  40.484  0.00  0.00     0.023 A 
ATOM      2  C2  8QB d   1     -18.603  12.447  41.683  0.00  0.00     0.723 A 
ATOM      3  C3  8QB d   1     -16.445  12.113  40.991  0.00  0.00     0.089 A 
ATOM      4  C   8QB d   1     -16.825  10.937  40.352  0.00  0.00    -0.036 A 
ATOM      5  N1  8QB d   1     -17.322  12.876  41.655  0.00  0.00    -0.062 NA
ATOM      6  N   8QB d   1     -19.065  11.308  41.134  0.00  0.00    -0.075 NA
ATOM      7  H1  8QB d   1     -18.468   9.628  40.042  0.00  0.00     0.115 H 
ATOM      8  H18 8QB d   1     -16.120  10.344  39.781  0.00  0.00     0.089 H 
ENDROOT
BRANCH   2   9
ATOM      9  N4  8QB d   1     -19.483  13.203  42.363  0.00  0.00    -0.218 N 
ATOM     10  H19 8QB d   1     -20.449  12.849  42.416  0.00  0.00     0.178 HD
BRANCH   9  11
ATOM     11  C11 8QB d   1     -19.214  14.478  43.038  0.00  0.00     0.030 C 
ATOM     12  C12 8QB d   1     -18.389  14.293  44.312  0.00  0.00    -0.026 C 
ATOM     13  C13 8QB d   1     -18.183  15.642  44.970  0.00  0.00     0.021 C 
ATOM     14  H8  8QB d   1     -17.413  13.854  44.058  0.00  0.00     0.039 H 
ATOM     15  H9  8QB d   1     -18.923  13.624  45.003  0.00  0.00     0.039 H 
ATOM     16  O1  8QB d   1     -19.436  16.279  45.263  0.00  0.00    -0.391 OA
ATOM     17  H10 8QB d   1     -17.604  16.286  44.292  0.00  0.00     0.074 H 
ATOM     18  H11 8QB d   1     -17.625  15.501  45.908  0.00  0.00     0.074 H 
ATOM     19  C14 8QB d   1     -20.190  16.516  44.065  0.00  0.00     0.021 C 
ATOM     20  C15 8QB d   1     -20.509  15.225  43.341  0.00  0.00    -0.026 C 
ATOM     21  H12 8QB d   1     -21.132  17.019  44.330  0.00  0.00     0.074 H 
ATOM     22  H13 8QB d   1     -19.604  17.164  43.397  0.00  0.00     0.074 H 
ATOM     23  H14 8QB d   1     -21.154  14.599  43.975  0.00  0.00     0.039 H 
ATOM     24  H15 8QB d   1     -21.030  15.452  42.399  0.00  0.00     0.039 H 
ATOM     25  H7  8QB d   1     -18.623  15.098  42.348  0.00  0.00     0.073 H 
ENDBRANCH   9  11
ENDBRANCH   2   9
BRANCH   3  26
ATOM     26  C4  8QB d   1     -15.046  12.582  41.001  0.00  0.00     0.011 A 
ATOM     27  C7  8QB d   1     -14.584  13.718  41.625  0.00  0.00    -0.008 A 
ATOM     28  N2  8QB d   1     -13.252  13.861  41.427  0.00  0.00    -0.350 N 
ATOM     29  H2  8QB d   1     -15.203  14.406  42.198  0.00  0.00     0.113 H 
ATOM     30  C8  8QB d   1     -12.384  14.939  41.921  0.00  0.00     0.014 C 
ATOM     31  C6  8QB d   1     -12.806  12.816  40.638  0.00  0.00     0.103 A 
ATOM     32  C9  8QB d   1     -10.941  14.484  41.935  0.00  0.00     0.011 C 
ATOM     33  H3  8QB d   1     -12.482  15.815  41.263  0.00  0.00     0.067 H 
ATOM     34  H4  8QB d   1     -12.689  15.212  42.942  0.00  0.00     0.067 H 
ATOM     35  N3  8QB d   1     -10.599  13.671  40.754  0.00  0.00    -0.354 N 
ATOM     36  H5  8QB d   1     -10.768  13.883  42.840  0.00  0.00     0.066 H 
ATOM     37  H6  8QB d   1     -10.291  15.371  41.954  0.00  0.00     0.066 H 
ATOM     38  C10 8QB d   1     -11.392  12.708  40.268  0.00  0.00     0.268 C 
ATOM     39  H17 8QB d   1      -9.730  13.848  40.292  0.00  0.00     0.162 HD
ATOM     40  O   8QB d   1     -10.950  11.759  39.625  0.00  0.00    -0.266 OA
ATOM     41  C5  8QB d   1     -13.872  11.980  40.391  0.00  0.00    -0.038 A 
ATOM     42  H16 8QB d   1     -13.841  11.041  39.840  0.00  0.00     0.088 H 
ENDBRANCH   3  26
TORSDOF 3
