REMARK  5 active torsions:
REMARK  status: ('A' for Active; 'I' for Inactive)
REMARK    1  A    between atoms: C2_2  and  C1_1 
REMARK    2  A    between atoms: N1_13  and  C2_2 
REMARK       I    between atoms: C3_3  and  N1_13 
REMARK    3  A    between atoms: C4_15  and  C3_3 
REMARK    4  A    between atoms: C7_4  and  N2_19 
REMARK    5  A    between atoms: C8_5  and  C9_6 
ROOT
ATOM      1  C7  8XT d   1       1.829   9.035  17.659  0.00  0.00     0.046 A 
ATOM      2  C13 8XT d   1       2.845   8.216  18.186  0.00  0.00    -0.039 A 
ATOM      3  C14 8XT d   1       4.133   8.316  17.679  0.00  0.00     0.007 A 
ATOM      4  C15 8XT d   1       3.520   9.921  16.213  0.00  0.00     0.140 A 
ATOM      5  C4  8XT d   1       2.461  11.493  14.952  0.00  0.00     0.103 A 
ATOM      6  C5  8XT d   1       1.524  10.928  15.808  0.00  0.00    -0.036 A 
ATOM      7  N4  8XT d   1       3.649  10.831  15.218  0.00  0.00    -0.336 N 
ATOM      8  C6  8XT d   1       2.168   9.934  16.629  0.00  0.00     0.039 A 
ATOM      9  N3  8XT d   1       4.495   9.139  16.672  0.00  0.00    -0.242 NA
ATOM     10  H16 8XT d   1       2.623   7.513  18.981  0.00  0.00     0.089 H 
ATOM     11  H17 8XT d   1       4.900   7.691  18.122  0.00  0.00     0.114 H 
ATOM     12  H19 8XT d   1       0.469  11.194  15.852  0.00  0.00     0.088 H 
ATOM     13  H20 8XT d   1       4.530  11.011  14.716  0.00  0.00     0.168 HD
ENDROOT
BRANCH   1  14
ATOM     14  N2  8XT d   1       0.525   8.985  18.144  0.00  0.00    -0.372 N 
ATOM     15  C8  8XT d   1      -0.586   9.165  17.186  0.00  0.00     0.029 C 
ATOM     16  C10 8XT d   1      -1.872   9.547  17.940  0.00  0.00     0.038 C 
ATOM     17  H6  8XT d   1      -0.307  10.011  16.540  0.00  0.00     0.075 H 
ATOM     18  O2  8XT d   1      -2.198   8.522  18.885  0.00  0.00    -0.388 OA
ATOM     19  H10 8XT d   1      -2.698   9.659  17.222  0.00  0.00     0.077 H 
ATOM     20  H11 8XT d   1      -1.716  10.498  18.471  0.00  0.00     0.077 H 
ATOM     21  C11 8XT d   1      -1.171   8.317  19.846  0.00  0.00     0.034 C 
ATOM     22  C12 8XT d   1       0.164   7.975  19.154  0.00  0.00     0.015 C 
ATOM     23  H12 8XT d   1      -1.045   9.234  20.441  0.00  0.00     0.076 H 
ATOM     24  H13 8XT d   1      -1.457   7.487  20.509  0.00  0.00     0.076 H 
ATOM     25  H14 8XT d   1       0.071   6.996  18.662  0.00  0.00     0.067 H 
ATOM     26  H15 8XT d   1       0.959   7.930  19.913  0.00  0.00     0.067 H 
BRANCH  15  27
ATOM     27  C9  8XT d   1      -0.887   7.976  16.253  0.00  0.00    -0.055 C 
ATOM     28  H7  8XT d   1      -1.728   8.232  15.592  0.00  0.00     0.030 H 
ATOM     29  H8  8XT d   1      -1.149   7.094  16.856  0.00  0.00     0.030 H 
ATOM     30  H9  8XT d   1       0.002   7.753  15.645  0.00  0.00     0.030 H 
ENDBRANCH  15  27
ENDBRANCH   1  14
BRANCH   5  31
ATOM     31  C3  8XT d   1       2.267  12.580  14.006  0.00  0.00     0.268 C 
ATOM     32  N1  8XT d   1       3.323  12.998  13.278  0.00  0.00    -0.356 N 
ATOM     33  H18 8XT d   1       4.201  12.547  13.441  0.00  0.00     0.162 HD
ATOM     34  O1  8XT d   1       1.143  13.070  13.844  0.00  0.00    -0.266 OA
BRANCH  32  35
ATOM     35  C2  8XT d   1       3.288  14.059  12.268  0.00  0.00    -0.008 C 
ATOM     36  H4  8XT d   1       2.423  13.886  11.611  0.00  0.00     0.063 H 
ATOM     37  H5  8XT d   1       3.172  15.025  12.781  0.00  0.00     0.063 H 
BRANCH  35  38
ATOM     38  C1  8XT d   1       4.552  14.116  11.404  0.00  0.00    -0.061 C 
ATOM     39  H1  8XT d   1       4.459  14.931  10.671  0.00  0.00     0.029 H 
ATOM     40  H2  8XT d   1       4.678  13.160  10.875  0.00  0.00     0.029 H 
ATOM     41  H3  8XT d   1       5.427  14.299  12.046  0.00  0.00     0.029 H 
ENDBRANCH  35  38
ENDBRANCH  32  35
ENDBRANCH   5  31
TORSDOF 5
