REMARK  9 active torsions:
REMARK  status: ('A' for Active; 'I' for Inactive)
REMARK    1  A    between atoms: CAA_1  and  CAB_2 
REMARK    2  A    between atoms: CAB_2  and  SAD_4 
REMARK    3  A    between atoms: SAD_4  and  CAE_5 
REMARK    4  A    between atoms: CAE_5  and  CAF_6 
REMARK    5  A    between atoms: CAF_6  and  PAP_7 
REMARK    6  A    between atoms: CAF_6  and  CAG_11 
REMARK    7  A    between atoms: CAG_11  and  CAH_12 
REMARK    8  A    between atoms: CAH_12  and  CAI_13 
REMARK    9  A    between atoms: CAI_13  and  CAJ_14 
ROOT
ATOM      1  CAG 8XZ d   1     -11.388   9.880 -18.780  0.00  0.00    -0.049 C 
ATOM      2  H7  8XZ d   1     -12.100   9.528 -18.019  0.00  0.00     0.034 H 
ATOM      3  H8  8XZ d   1     -10.463  10.215 -18.289  0.00  0.00     0.034 H 
ENDROOT
BRANCH   1   4
ATOM      4  CAF 8XZ d   1     -12.005  11.063 -19.510  0.00  0.00     0.063 C 
ATOM      5  H6  8XZ d   1     -12.383  10.709 -20.480  0.00  0.00     0.062 H 
BRANCH   4   6
ATOM      6  CAE 8XZ d   1     -10.917  12.076 -19.724  0.00  0.00    -0.001 C 
ATOM      7  H4  8XZ d   1     -11.323  13.086 -19.881  0.00  0.00     0.051 H 
ATOM      8  H5  8XZ d   1     -10.204  12.094 -18.887  0.00  0.00     0.051 H 
BRANCH   6   9
ATOM      9  SAD 8XZ d   1     -10.197  11.433 -21.175  0.00  0.00    -0.092 SA
BRANCH   9  10
ATOM     10  CAB 8XZ d   1      -8.611  10.627 -21.156  0.00  0.00     0.182 C 
ATOM     11  OAC 8XZ d   1      -7.706  11.009 -20.448  0.00  0.00    -0.286 OA
BRANCH  10  12
ATOM     12  CAA 8XZ d   1      -8.370   9.487 -22.138  0.00  0.00    -0.011 C 
ATOM     13  H1  8XZ d   1      -7.351   9.096 -22.003  0.00  0.00     0.038 H 
ATOM     14  H2  8XZ d   1      -8.487   9.858 -23.167  0.00  0.00     0.038 H 
ATOM     15  H3  8XZ d   1      -9.098   8.684 -21.953  0.00  0.00     0.038 H 
ENDBRANCH  10  12
ENDBRANCH   9  10
ENDBRANCH   6   9
ENDBRANCH   4   6
BRANCH   4  16
ATOM     16  PAP 8XZ d   1     -13.364  11.900 -18.641  0.00  0.00     0.264 P 
ATOM     17  OAQ 8XZ d   1     -12.991  13.080 -17.860  0.00  0.00    -0.639 OA
ATOM     18  OAR 8XZ d   1     -14.036  11.078 -17.638  0.00  0.00    -0.639 OA
ATOM     19  OAS 8XZ d   1     -14.455  12.354 -19.555  0.00  0.00    -0.639 OA
ENDBRANCH   4  16
ENDBRANCH   1   4
BRANCH   1  20
ATOM     20  CAH 8XZ d   1     -11.052   8.717 -19.705  0.00  0.00    -0.060 C 
ATOM     21  H9  8XZ d   1     -10.602   9.102 -20.632  0.00  0.00     0.033 H 
ATOM     22  H10 8XZ d   1     -11.970   8.160 -19.946  0.00  0.00     0.033 H 
BRANCH  20  23
ATOM     23  CAI 8XZ d   1     -10.073   7.802 -19.010  0.00  0.00    -0.041 C 
ATOM     24  H11 8XZ d   1     -10.521   7.444 -18.072  0.00  0.00     0.040 H 
ATOM     25  H12 8XZ d   1      -9.154   8.363 -18.787  0.00  0.00     0.040 H 
BRANCH  23  26
ATOM     26  CAJ 8XZ d   1      -9.725   6.608 -19.880  0.00  0.00    -0.058 A 
ATOM     27  CAK 8XZ d   1      -8.413   6.160 -19.903  0.00  0.00    -0.077 A 
ATOM     28  CAL 8XZ d   1      -8.053   5.078 -20.687  0.00  0.00    -0.082 A 
ATOM     29  H13 8XZ d   1      -7.663   6.662 -19.302  0.00  0.00     0.084 H 
ATOM     30  CAM 8XZ d   1      -9.008   4.444 -21.456  0.00  0.00    -0.083 A 
ATOM     31  H14 8XZ d   1      -7.026   4.730 -20.697  0.00  0.00     0.083 H 
ATOM     32  CAN 8XZ d   1     -10.316   4.888 -21.433  0.00  0.00    -0.082 A 
ATOM     33  H15 8XZ d   1      -8.732   3.599 -22.077  0.00  0.00     0.083 H 
ATOM     34  CAO 8XZ d   1     -10.680   5.972 -20.650  0.00  0.00    -0.077 A 
ATOM     35  H16 8XZ d   1     -11.065   4.384 -22.033  0.00  0.00     0.083 H 
ATOM     36  H17 8XZ d   1     -11.707   6.319 -20.642  0.00  0.00     0.084 H 
ENDBRANCH  23  26
ENDBRANCH  20  23
ENDBRANCH   1  20
TORSDOF 9
