REMARK  10 active torsions:
REMARK  status: ('A' for Active; 'I' for Inactive)
REMARK    1  A    between atoms: CAA_1  and  CAB_2 
REMARK    2  A    between atoms: CAB_2  and  SAD_4 
REMARK    3  A    between atoms: SAD_4  and  CAE_5 
REMARK    4  A    between atoms: CAE_5  and  CAF_6 
REMARK    5  A    between atoms: CAF_6  and  PAQ_7 
REMARK    6  A    between atoms: CAF_6  and  CAG_11 
REMARK    7  A    between atoms: CAG_11  and  CAH_12 
REMARK    8  A    between atoms: CAH_12  and  CAI_13 
REMARK    9  A    between atoms: CAI_13  and  CAJ_14 
REMARK   10  A    between atoms: CAJ_14  and  CAK_15 
ROOT
ATOM      1  CAH 8XW d   1     -10.965   8.818 -19.582  0.00  0.00    -0.064 C 
ATOM      2  H9  8XW d   1     -10.058   9.423 -19.728  0.00  0.00     0.033 H 
ATOM      3  H10 8XW d   1     -11.469   8.674 -20.549  0.00  0.00     0.033 H 
ENDROOT
BRANCH   1   4
ATOM      4  CAG 8XW d   1     -11.905   9.604 -18.684  0.00  0.00    -0.049 C 
ATOM      5  H7  8XW d   1     -12.791   8.997 -18.447  0.00  0.00     0.034 H 
ATOM      6  H8  8XW d   1     -11.389   9.880 -17.752  0.00  0.00     0.034 H 
BRANCH   4   7
ATOM      7  CAF 8XW d   1     -12.325  10.862 -19.436  0.00  0.00     0.063 C 
ATOM      8  H6  8XW d   1     -12.894  10.564 -20.329  0.00  0.00     0.062 H 
BRANCH   7   9
ATOM      9  CAE 8XW d   1     -11.110  11.642 -19.825  0.00  0.00    -0.001 C 
ATOM     10  H4  8XW d   1     -11.350  12.715 -19.795  0.00  0.00     0.051 H 
ATOM     11  H5  8XW d   1     -10.303  11.427 -19.109  0.00  0.00     0.051 H 
BRANCH   9  12
ATOM     12  SAD 8XW d   1     -10.554  11.219 -21.468  0.00  0.00    -0.092 SA
BRANCH  12  13
ATOM     13  CAB 8XW d   1      -8.961  10.370 -21.438  0.00  0.00     0.182 C 
ATOM     14  OAC 8XW d   1      -8.570   9.440 -22.163  0.00  0.00    -0.286 OA
BRANCH  13  15
ATOM     15  CAA 8XW d   1      -8.086  10.956 -20.412  0.00  0.00    -0.011 C 
ATOM     16  H1  8XW d   1      -7.121  10.428 -20.407  0.00  0.00     0.038 H 
ATOM     17  H2  8XW d   1      -8.562  10.859 -19.425  0.00  0.00     0.038 H 
ATOM     18  H3  8XW d   1      -7.920  12.020 -20.636  0.00  0.00     0.038 H 
ENDBRANCH  13  15
ENDBRANCH  12  13
ENDBRANCH   9  12
ENDBRANCH   7   9
BRANCH   7  19
ATOM     19  PAQ 8XW d   1     -13.321  12.032 -18.433  0.00  0.00     0.264 P 
ATOM     20  OAS 8XW d   1     -14.495  11.172 -17.775  0.00  0.00    -0.639 OA
ATOM     21  OAT 8XW d   1     -14.041  12.942 -19.559  0.00  0.00    -0.639 OA
ATOM     22  OAR 8XW d   1     -12.521  12.828 -17.477  0.00  0.00    -0.639 OA
ENDBRANCH   7  19
ENDBRANCH   4   7
ENDBRANCH   1   4
BRANCH   1  23
ATOM     23  CAI 8XW d   1     -10.535   7.463 -19.084  0.00  0.00    -0.061 C 
ATOM     24  H11 8XW d   1     -11.366   6.951 -18.578  0.00  0.00     0.033 H 
ATOM     25  H12 8XW d   1      -9.684   7.553 -18.393  0.00  0.00     0.033 H 
BRANCH  23  26
ATOM     26  CAJ 8XW d   1     -10.123   6.705 -20.366  0.00  0.00    -0.041 C 
ATOM     27  H13 8XW d   1      -9.682   7.429 -21.067  0.00  0.00     0.040 H 
ATOM     28  H14 8XW d   1     -11.027   6.266 -20.812  0.00  0.00     0.040 H 
BRANCH  26  29
ATOM     29  CAK 8XW d   1      -9.206   5.690 -20.158  0.00  0.00    -0.058 A 
ATOM     30  CAL 8XW d   1      -9.350   4.518 -20.892  0.00  0.00    -0.077 A 
ATOM     31  CAM 8XW d   1      -8.450   3.477 -20.702  0.00  0.00    -0.082 A 
ATOM     32  H15 8XW d   1     -10.158   4.417 -21.607  0.00  0.00     0.084 H 
ATOM     33  CAN 8XW d   1      -7.407   3.635 -19.796  0.00  0.00    -0.083 A 
ATOM     34  H16 8XW d   1      -8.560   2.551 -21.255  0.00  0.00     0.083 H 
ATOM     35  CAO 8XW d   1      -7.247   4.811 -19.079  0.00  0.00    -0.082 A 
ATOM     36  H17 8XW d   1      -6.705   2.822 -19.647  0.00  0.00     0.083 H 
ATOM     37  CAP 8XW d   1      -8.148   5.844 -19.268  0.00  0.00    -0.077 A 
ATOM     38  H18 8XW d   1      -6.426   4.920 -18.379  0.00  0.00     0.083 H 
ATOM     39  H19 8XW d   1      -8.029   6.773 -18.723  0.00  0.00     0.084 H 
ENDBRANCH  26  29
ENDBRANCH  23  26
ENDBRANCH   1  23
TORSDOF 10
