REMARK  8 active torsions:
REMARK  status: ('A' for Active; 'I' for Inactive)
REMARK    1  A    between atoms: C2_2  and  C1_1 
REMARK    2  A    between atoms: S3_23  and  C2_2 
REMARK    3  A    between atoms: C12_10  and  C9_7 
REMARK    4  A    between atoms: C13_11  and  C12_10 
REMARK       I    between atoms: N15_26  and  C13_11 
REMARK    5  A    between atoms: C16_12  and  N15_26 
REMARK    6  A    between atoms: C21_14  and  C19_13 
REMARK    7  A    between atoms: C23_31  and  C21_14 
REMARK    8  A    between atoms: C6_24  and  S3_23 
ROOT
ATOM      1  C16 8YB d   1     -28.638   4.004 -13.822  0.00  0.00     0.174 A 
ATOM      2  C19 8YB d   1     -27.741   6.127 -14.426  0.00  0.00     0.089 A 
ATOM      3  C30 8YB d   1     -29.381   6.439 -16.274  0.00  0.00    -0.004 A 
ATOM      4  C31 8YB d   1     -29.569   7.805 -16.326  0.00  0.00    -0.071 A 
ATOM      5  C32 8YB d   1     -30.030   8.396 -17.481  0.00  0.00    -0.081 A 
ATOM      6  C33 8YB d   1     -30.329   7.609 -18.575  0.00  0.00    -0.062 A 
ATOM      7  C34 8YB d   1     -30.184   6.236 -18.512  0.00  0.00     0.035 A 
ATOM      8  C35 8YB d   1     -29.695   5.662 -17.363  0.00  0.00    -0.050 A 
ATOM      9  N17 8YB d   1     -29.343   4.515 -14.797  0.00  0.00    -0.222 NA
ATOM     10  C18 8YB d   1     -28.838   5.732 -15.154  0.00  0.00     0.091 A 
ATOM     11  S20 8YB d   1     -27.330   4.963 -13.255  0.00  0.00    -0.046 SA
ATOM     12 CL3  8YB d   1     -30.601   5.165 -19.813  0.00  0.00    -0.084 Cl
ATOM     13  H14 8YB d   1     -29.353   8.414 -15.456  0.00  0.00     0.084 H 
ATOM     14  H15 8YB d   1     -30.157   9.471 -17.531  0.00  0.00     0.083 H 
ATOM     15  H16 8YB d   1     -30.680   8.071 -19.490  0.00  0.00     0.086 H 
ATOM     16  H17 8YB d   1     -29.556   4.588 -17.315  0.00  0.00     0.087 H 
ENDROOT
BRANCH   1  17
ATOM     17  N15 8YB d   1     -28.913   2.781 -13.257  0.00  0.00    -0.305 N 
ATOM     18  C13 8YB d   1     -27.994   2.085 -12.522  0.00  0.00     0.227 C 
ATOM     19  O14 8YB d   1     -26.937   2.466 -12.102  0.00  0.00    -0.273 OA
ATOM     20  H18 8YB d   1     -29.822   2.385 -13.389  0.00  0.00     0.171 HD
BRANCH  18  21
ATOM     21  C12 8YB d   1     -28.427   0.714 -12.179  0.00  0.00     0.033 C 
ATOM     22  H10 8YB d   1     -28.093   0.449 -11.165  0.00  0.00     0.054 H 
ATOM     23  H11 8YB d   1     -29.522   0.632 -12.238  0.00  0.00     0.054 H 
BRANCH  21  24
ATOM     24  C9  8YB d   1     -27.797  -0.160 -13.167  0.00  0.00    -0.049 A 
ATOM     25  C8  8YB d   1     -26.662  -0.842 -12.810  0.00  0.00    -0.075 A 
ATOM     26  C7  8YB d   1     -26.075  -1.694 -13.724  0.00  0.00    -0.062 A 
ATOM     27  H7  8YB d   1     -26.232  -0.714 -11.823  0.00  0.00     0.084 H 
ATOM     28  C6  8YB d   1     -26.601  -1.806 -14.986  0.00  0.00     0.059 A 
ATOM     29  H6  8YB d   1     -25.202  -2.272 -13.445  0.00  0.00     0.085 H 
ATOM     30  C11 8YB d   1     -27.694  -1.065 -15.367  0.00  0.00    -0.062 A 
ATOM     31  C10 8YB d   1     -28.309  -0.246 -14.447  0.00  0.00    -0.075 A 
ATOM     32  H9  8YB d   1     -28.068  -1.125 -16.383  0.00  0.00     0.085 H 
ATOM     33  H8  8YB d   1     -29.187   0.326 -14.725  0.00  0.00     0.084 H 
BRANCH  28  34
ATOM     34  S3  8YB d   1     -25.875  -2.955 -16.133  0.00  0.00     0.175 S 
ATOM     35  O4  8YB d   1     -26.736  -3.004 -17.301  0.00  0.00    -0.223 OA
ATOM     36  O5  8YB d   1     -25.625  -4.172 -15.380  0.00  0.00    -0.223 OA
BRANCH  34  37
ATOM     37  C2  8YB d   1     -24.282  -2.274 -16.548  0.00  0.00     0.030 C 
ATOM     38  H4  8YB d   1     -23.604  -2.410 -15.693  0.00  0.00     0.056 H 
ATOM     39  H5  8YB d   1     -23.883  -2.811 -17.421  0.00  0.00     0.056 H 
BRANCH  37  40
ATOM     40  C1  8YB d   1     -24.363  -0.800 -16.877  0.00  0.00    -0.064 C 
ATOM     41  H1  8YB d   1     -23.360  -0.424 -17.126  0.00  0.00     0.028 H 
ATOM     42  H2  8YB d   1     -24.755  -0.251 -16.008  0.00  0.00     0.028 H 
ATOM     43  H3  8YB d   1     -25.034  -0.652 -17.736  0.00  0.00     0.028 H 
ENDBRANCH  37  40
ENDBRANCH  34  37
ENDBRANCH  28  34
ENDBRANCH  21  24
ENDBRANCH  18  21
ENDBRANCH   1  17
BRANCH   2  44
ATOM     44  C21 8YB d   1     -26.902   7.250 -14.456  0.00  0.00     0.203 C 
ATOM     45  O22 8YB d   1     -26.484   7.784 -13.454  0.00  0.00    -0.286 OA
BRANCH  44  46
ATOM     46  C23 8YB d   1     -26.433   7.630 -15.772  0.00  0.00     0.037 A 
ATOM     47  C24 8YB d   1     -26.074   6.585 -16.602  0.00  0.00    -0.068 A 
ATOM     48  C25 8YB d   1     -25.643   6.871 -17.867  0.00  0.00    -0.082 A 
ATOM     49  H12 8YB d   1     -26.133   5.559 -16.257  0.00  0.00     0.085 H 
ATOM     50  C26 8YB d   1     -25.564   8.191 -18.263  0.00  0.00    -0.081 A 
ATOM     51  H19 8YB d   1     -25.368   6.074 -18.548  0.00  0.00     0.083 H 
ATOM     52  C27 8YB d   1     -25.921   9.236 -17.435  0.00  0.00    -0.061 A 
ATOM     53  H20 8YB d   1     -25.208   8.415 -19.262  0.00  0.00     0.083 H 
ATOM     54  C28 8YB d   1     -26.374   8.959 -16.164  0.00  0.00     0.048 A 
ATOM     55  H13 8YB d   1     -25.846  10.261 -17.780  0.00  0.00     0.086 H 
ATOM     56 CL2  8YB d   1     -26.813  10.293 -15.144  0.00  0.00    -0.083 Cl
ENDBRANCH  44  46
ENDBRANCH   2  44
TORSDOF 8
