REMARK  9 active torsions:
REMARK  status: ('A' for Active; 'I' for Inactive)
REMARK    1  A    between atoms: C13_13  and  C12_12 
REMARK    2  A    between atoms: C14_14  and  C21_21 
REMARK    3  A    between atoms: C15_15  and  O28_28 
REMARK    4  A    between atoms: S30_30  and  C16_16 
REMARK    5  A    between atoms: N24_24  and  C17_17 
REMARK    6  A    between atoms: C21_21  and  C18_18 
REMARK       I    between atoms: C18_18  and  N24_24 
REMARK    7  A    between atoms: C22_22  and  C19_19 
REMARK    8  A    between atoms: O28_28  and  C20_20 
REMARK    9  A    between atoms: C22_22  and  S30_30 
ROOT
ATOM      1  C1  8Y8 d   1     -30.549   6.010 -19.307  0.00  0.00     0.099 C 
ATOM      2  C2  8Y8 d   1     -30.001   8.189 -18.311  0.00  0.00    -0.060 A 
ATOM      3  C5  8Y8 d   1     -29.440   8.907 -17.272  0.00  0.00    -0.049 A 
ATOM      4  C8  8Y8 d   1     -29.477   6.129 -17.192  0.00  0.00    -0.050 A 
ATOM      5  C11 8Y8 d   1     -30.015   6.802 -18.264  0.00  0.00     0.045 A 
ATOM      6  C12 8Y8 d   1     -28.935   6.841 -16.147  0.00  0.00     0.009 A 
ATOM      7  C15 8Y8 d   1     -28.914   8.235 -16.181  0.00  0.00     0.079 A 
ATOM      8  N23 8Y8 d   1     -30.953   5.340 -20.163  0.00  0.00    -0.191 NA
ATOM      9  H1  8Y8 d   1     -30.429   8.708 -19.161  0.00  0.00     0.086 H 
ATOM     10  H4  8Y8 d   1     -29.412   9.990 -17.311  0.00  0.00     0.087 H 
ATOM     11  H7  8Y8 d   1     -29.480   5.045 -17.171  0.00  0.00     0.087 H 
ENDROOT
BRANCH   6  12
ATOM     12  C13 8Y8 d   1     -28.456   6.032 -15.058  0.00  0.00    -0.014 A 
ATOM     13  C9  8Y8 d   1     -28.970   4.752 -14.701  0.00  0.00    -0.039 A 
ATOM     14  C17 8Y8 d   1     -28.321   4.182 -13.627  0.00  0.00     0.077 A 
ATOM     15  H8  8Y8 d   1     -29.795   4.271 -15.225  0.00  0.00     0.089 H 
ATOM     16  S29 8Y8 d   1     -27.094   5.235 -13.040  0.00  0.00    -0.083 SA
ATOM     17  C10 8Y8 d   1     -27.412   6.422 -14.240  0.00  0.00    -0.032 A 
ATOM     18  H9  8Y8 d   1     -26.864   7.357 -14.343  0.00  0.00     0.096 H 
BRANCH  14  19
ATOM     19  N24 8Y8 d   1     -28.592   2.958 -13.036  0.00  0.00    -0.321 N 
ATOM     20  C18 8Y8 d   1     -27.739   2.239 -12.226  0.00  0.00     0.226 C 
ATOM     21  O25 8Y8 d   1     -26.650   2.600 -11.809  0.00  0.00    -0.273 OA
ATOM     22  H20 8Y8 d   1     -29.491   2.559 -13.214  0.00  0.00     0.169 HD
BRANCH  20  23
ATOM     23  C21 8Y8 d   1     -28.281   0.859 -11.941  0.00  0.00     0.033 C 
ATOM     24  H16 8Y8 d   1     -28.059   0.583 -10.899  0.00  0.00     0.054 H 
ATOM     25  H17 8Y8 d   1     -29.370   0.851 -12.098  0.00  0.00     0.054 H 
BRANCH  23  26
ATOM     26  C14 8Y8 d   1     -27.631  -0.121 -12.870  0.00  0.00    -0.049 A 
ATOM     27  C3  8Y8 d   1     -28.035  -0.176 -14.181  0.00  0.00    -0.075 A 
ATOM     28  C6  8Y8 d   1     -27.437  -1.050 -15.060  0.00  0.00    -0.062 A 
ATOM     29  H2  8Y8 d   1     -28.831   0.474 -14.526  0.00  0.00     0.084 H 
ATOM     30  C16 8Y8 d   1     -26.428  -1.869 -14.621  0.00  0.00     0.059 A 
ATOM     31  H5  8Y8 d   1     -27.762  -1.091 -16.093  0.00  0.00     0.085 H 
ATOM     32  C7  8Y8 d   1     -26.002  -1.838 -13.312  0.00  0.00    -0.062 A 
ATOM     33  C4  8Y8 d   1     -26.616  -0.955 -12.444  0.00  0.00    -0.075 A 
ATOM     34  H6  8Y8 d   1     -25.206  -2.489 -12.971  0.00  0.00     0.085 H 
ATOM     35  H3  8Y8 d   1     -26.295  -0.916 -11.409  0.00  0.00     0.084 H 
BRANCH  30  36
ATOM     36  S30 8Y8 d   1     -25.652  -2.959 -15.790  0.00  0.00     0.175 S 
ATOM     37  O26 8Y8 d   1     -26.450  -2.951 -16.997  0.00  0.00    -0.223 OA
ATOM     38  O27 8Y8 d   1     -25.400  -4.182 -15.059  0.00  0.00    -0.223 OA
BRANCH  36  39
ATOM     39  C22 8Y8 d   1     -24.099  -2.154 -16.136  0.00  0.00     0.030 C 
ATOM     40  H18 8Y8 d   1     -23.482  -2.157 -15.225  0.00  0.00     0.056 H 
ATOM     41  H19 8Y8 d   1     -23.578  -2.705 -16.933  0.00  0.00     0.056 H 
BRANCH  39  42
ATOM     42  C19 8Y8 d   1     -24.316  -0.708 -16.588  0.00  0.00    -0.064 C 
ATOM     43  H10 8Y8 d   1     -23.343  -0.238 -16.794  0.00  0.00     0.028 H 
ATOM     44  H11 8Y8 d   1     -24.832  -0.149 -15.794  0.00  0.00     0.028 H 
ATOM     45  H12 8Y8 d   1     -24.929  -0.697 -17.502  0.00  0.00     0.028 H 
ENDBRANCH  39  42
ENDBRANCH  36  39
ENDBRANCH  30  36
ENDBRANCH  23  26
ENDBRANCH  20  23
ENDBRANCH  14  19
ENDBRANCH   6  12
BRANCH   7  46
ATOM     46  O28 8Y8 d   1     -28.370   8.930 -15.092  0.00  0.00    -0.355 OA
BRANCH  46  47
ATOM     47  C20 8Y8 d   1     -28.446  10.360 -15.220  0.00  0.00     0.010 C 
ATOM     48  H13 8Y8 d   1     -28.001  10.832 -14.331  0.00  0.00     0.066 H 
ATOM     49  H14 8Y8 d   1     -29.499  10.665 -15.309  0.00  0.00     0.066 H 
ATOM     50  H15 8Y8 d   1     -27.896  10.678 -16.118  0.00  0.00     0.066 H 
ENDBRANCH  46  47
ENDBRANCH   7  46
TORSDOF 9
