REMARK  10 active torsions:
REMARK  status: ('A' for Active; 'I' for Inactive)
REMARK    1  A    between atoms: C16_13  and  C15_12 
REMARK    2  A    between atoms: S34_34  and  C19_14 
REMARK    3  A    between atoms: C20_15  and  O32_32 
REMARK    4  A    between atoms: N28_28  and  C21_16 
REMARK    5  A    between atoms: C24_18  and  C22_17 
REMARK       I    between atoms: C22_17  and  N28_28 
REMARK    6  A    between atoms: C17_22  and  C24_18 
REMARK    7  A    between atoms: C25_25  and  C18_23 
REMARK    8  A    between atoms: C26_26  and  C23_24 
REMARK    9  A    between atoms: O32_32  and  C25_25 
REMARK   10  A    between atoms: C26_26  and  S34_34 
ROOT
ATOM      1  C12 8Y2 d   1     -28.894   4.822 -14.663  0.00  0.00    -0.039 A 
ATOM      2  C14 8Y2 d   1     -27.149   6.292 -14.388  0.00  0.00    -0.032 A 
ATOM      3  C16 8Y2 d   1     -28.297   6.036 -15.108  0.00  0.00    -0.012 A 
ATOM      4  C21 8Y2 d   1     -28.209   4.188 -13.653  0.00  0.00     0.077 A 
ATOM      5  S33 8Y2 d   1     -26.816   5.090 -13.207  0.00  0.00    -0.083 SA
ATOM      6  H9  8Y2 d   1     -29.817   4.428 -15.087  0.00  0.00     0.089 H 
ATOM      7  H11 8Y2 d   1     -26.519   7.165 -14.551  0.00  0.00     0.096 H 
ENDROOT
BRANCH   4   8
ATOM      8  N28 8Y2 d   1     -28.553   3.011 -13.010  0.00  0.00    -0.321 N 
ATOM      9  C22 8Y2 d   1     -27.676   2.157 -12.369  0.00  0.00     0.226 C 
ATOM     10  O29 8Y2 d   1     -26.541   2.373 -11.979  0.00  0.00    -0.273 OA
ATOM     11  H24 8Y2 d   1     -29.520   2.757 -13.009  0.00  0.00     0.169 HD
BRANCH   9  12
ATOM     12  C24 8Y2 d   1     -28.308   0.809 -12.163  0.00  0.00     0.033 C 
ATOM     13  H12 8Y2 d   1     -29.395   0.883 -12.318  0.00  0.00     0.054 H 
ATOM     14  H13 8Y2 d   1     -28.106   0.459 -11.140  0.00  0.00     0.054 H 
BRANCH  12  15
ATOM     15  C17 8Y2 d   1     -27.729  -0.149 -13.141  0.00  0.00    -0.049 A 
ATOM     16  C8  8Y2 d   1     -28.170  -0.132 -14.450  0.00  0.00    -0.075 A 
ATOM     17  C10 8Y2 d   1     -27.640  -1.010 -15.372  0.00  0.00    -0.062 A 
ATOM     18  H5  8Y2 d   1     -28.935   0.574 -14.753  0.00  0.00     0.084 H 
ATOM     19  C19 8Y2 d   1     -26.668  -1.896 -14.961  0.00  0.00     0.059 A 
ATOM     20  H7  8Y2 d   1     -27.982  -1.003 -16.401  0.00  0.00     0.085 H 
ATOM     21  C11 8Y2 d   1     -26.200  -1.913 -13.660  0.00  0.00    -0.062 A 
ATOM     22  C9  8Y2 d   1     -26.737  -1.027 -12.746  0.00  0.00    -0.075 A 
ATOM     23  H8  8Y2 d   1     -25.425  -2.610 -13.362  0.00  0.00     0.085 H 
ATOM     24  H6  8Y2 d   1     -26.381  -1.020 -11.722  0.00  0.00     0.084 H 
BRANCH  19  25
ATOM     25  S34 8Y2 d   1     -25.979  -3.038 -16.137  0.00  0.00     0.175 S 
ATOM     26  O30 8Y2 d   1     -25.780  -4.266 -15.391  0.00  0.00    -0.223 OA
ATOM     27  O31 8Y2 d   1     -26.777  -3.030 -17.351  0.00  0.00    -0.223 OA
BRANCH  25  28
ATOM     28  C26 8Y2 d   1     -24.366  -2.379 -16.524  0.00  0.00     0.030 C 
ATOM     29  H22 8Y2 d   1     -23.734  -2.443 -15.626  0.00  0.00     0.056 H 
ATOM     30  H23 8Y2 d   1     -23.922  -2.984 -17.329  0.00  0.00     0.056 H 
BRANCH  28  31
ATOM     31  C23 8Y2 d   1     -24.421  -0.929 -16.978  0.00  0.00    -0.064 C 
ATOM     32  H17 8Y2 d   1     -23.404  -0.576 -17.202  0.00  0.00     0.028 H 
ATOM     33  H18 8Y2 d   1     -24.856  -0.311 -16.179  0.00  0.00     0.028 H 
ATOM     34  H19 8Y2 d   1     -25.044  -0.851 -17.882  0.00  0.00     0.028 H 
ENDBRANCH  28  31
ENDBRANCH  25  28
ENDBRANCH  19  25
ENDBRANCH  12  15
ENDBRANCH   9  12
ENDBRANCH   4   8
BRANCH   3  35
ATOM     35  C15 8Y2 d   1     -28.809   6.896 -16.156  0.00  0.00     0.028 A 
ATOM     36  C20 8Y2 d   1     -28.595   8.267 -16.259  0.00  0.00     0.175 A 
ATOM     37  N27 8Y2 d   1     -29.150   9.034 -17.217  0.00  0.00    -0.236 NA
ATOM     38  C13 8Y2 d   1     -29.951   8.415 -18.100  0.00  0.00     0.005 A 
ATOM     39  C4  8Y2 d   1     -30.222   7.062 -18.088  0.00  0.00    -0.065 A 
ATOM     40  H10 8Y2 d   1     -30.415   9.018 -18.872  0.00  0.00     0.114 H 
ATOM     41  C5  8Y2 d   1     -29.636   6.307 -17.098  0.00  0.00    -0.067 A 
ATOM     42  H14 8Y2 d   1     -30.871   6.611 -18.830  0.00  0.00     0.085 H 
ATOM     43  H15 8Y2 d   1     -29.824   5.240 -17.055  0.00  0.00     0.085 H 
BRANCH  36  44
ATOM     44  O32 8Y2 d   1     -27.801   8.934 -15.325  0.00  0.00    -0.329 OA
BRANCH  44  45
ATOM     45  C25 8Y2 d   1     -26.762   9.549 -16.083  0.00  0.00     0.051 C 
ATOM     46  H20 8Y2 d   1     -26.188   8.763 -16.596  0.00  0.00     0.082 H 
ATOM     47  H21 8Y2 d   1     -27.219  10.215 -16.829  0.00  0.00     0.082 H 
BRANCH  45  48
ATOM     48  C18 8Y2 d   1     -25.826  10.349 -15.239  0.00  0.00    -0.034 A 
ATOM     49  C7  8Y2 d   1     -24.702   9.748 -14.704  0.00  0.00    -0.075 A 
ATOM     50  C3  8Y2 d   1     -23.811  10.477 -13.940  0.00  0.00    -0.082 A 
ATOM     51  H4  8Y2 d   1     -24.518   8.695 -14.886  0.00  0.00     0.084 H 
ATOM     52  C1  8Y2 d   1     -24.038  11.822 -13.723  0.00  0.00    -0.083 A 
ATOM     53  H3  8Y2 d   1     -22.938   9.996 -13.513  0.00  0.00     0.083 H 
ATOM     54  C2  8Y2 d   1     -25.158  12.424 -14.262  0.00  0.00    -0.082 A 
ATOM     55  H1  8Y2 d   1     -23.340  12.403 -13.132  0.00  0.00     0.083 H 
ATOM     56  C6  8Y2 d   1     -26.055  11.692 -15.016  0.00  0.00    -0.075 A 
ATOM     57  H2  8Y2 d   1     -25.335  13.480 -14.092  0.00  0.00     0.083 H 
ATOM     58  H16 8Y2 d   1     -26.935  12.170 -15.431  0.00  0.00     0.084 H 
ENDBRANCH  45  48
ENDBRANCH  44  45
ENDBRANCH  36  44
ENDBRANCH   3  35
TORSDOF 10
