REMARK  10 active torsions:
REMARK  status: ('A' for Active; 'I' for Inactive)
REMARK    1  A    between atoms: C16_13  and  C17_24 
REMARK    2  A    between atoms: C26_28  and  C19_14 
REMARK    3  A    between atoms: C20_15  and  S36_36 
REMARK    4  A    between atoms: O34_34  and  C21_16 
REMARK    5  A    between atoms: C22_17  and  N30_30 
REMARK    6  A    between atoms: C27_19  and  C24_18 
REMARK    7  A    between atoms: S36_36  and  C27_19 
REMARK    8  A    between atoms: C25_27  and  C18_25 
REMARK    9  A    between atoms: C23_26  and  C25_27 
REMARK       I    between atoms: N30_30  and  C23_26 
REMARK   10  A    between atoms: C26_28  and  O34_34 
ROOT
ATOM      1  C1  8Y5 d   1     -24.118  10.885 -17.878  0.00  0.00     0.099 C 
ATOM      2  C2  8Y5 d   1     -25.003  12.436 -14.660  0.00  0.00    -0.081 A 
ATOM      3  C11 8Y5 d   1     -26.037  10.555 -16.426  0.00  0.00    -0.055 A 
ATOM      4  C15 8Y5 d   1     -24.837  11.185 -16.688  0.00  0.00     0.045 A 
ATOM      5  C19 8Y5 d   1     -26.731  10.867 -15.272  0.00  0.00    -0.033 A 
ATOM      6  C4  8Y5 d   1     -24.322  12.123 -15.815  0.00  0.00    -0.063 A 
ATOM      7  C6  8Y5 d   1     -26.201  11.801 -14.403  0.00  0.00    -0.075 A 
ATOM      8  N28 8Y5 d   1     -23.535  10.666 -18.856  0.00  0.00    -0.191 NA
ATOM      9  H1  8Y5 d   1     -24.606  13.167 -13.966  0.00  0.00     0.083 H 
ATOM     10  H7  8Y5 d   1     -26.432   9.822 -17.120  0.00  0.00     0.086 H 
ATOM     11  H16 8Y5 d   1     -23.381  12.613 -16.039  0.00  0.00     0.085 H 
ATOM     12  H18 8Y5 d   1     -26.741  12.042 -13.494  0.00  0.00     0.084 H 
ENDROOT
BRANCH   5  13
ATOM     13  C26 8Y5 d   1     -28.035  10.207 -14.946  0.00  0.00     0.051 C 
ATOM     14  H21 8Y5 d   1     -28.805  10.542 -15.657  0.00  0.00     0.082 H 
ATOM     15  H22 8Y5 d   1     -28.338  10.477 -13.924  0.00  0.00     0.082 H 
BRANCH  13  16
ATOM     16  O34 8Y5 d   1     -27.883   8.794 -15.040  0.00  0.00    -0.329 OA
BRANCH  16  17
ATOM     17  C21 8Y5 d   1     -28.627   8.239 -16.077  0.00  0.00     0.175 A 
ATOM     18  C16 8Y5 d   1     -28.838   6.863 -16.040  0.00  0.00     0.028 A 
ATOM     19  C5  8Y5 d   1     -29.575   6.300 -17.066  0.00  0.00    -0.067 A 
ATOM     20  C3  8Y5 d   1     -30.060   7.090 -18.087  0.00  0.00    -0.065 A 
ATOM     21  H17 8Y5 d   1     -29.772   5.234 -17.068  0.00  0.00     0.085 H 
ATOM     22  C13 8Y5 d   1     -29.788   8.444 -18.034  0.00  0.00     0.005 A 
ATOM     23  H2  8Y5 d   1     -30.634   6.664 -18.902  0.00  0.00     0.085 H 
ATOM     24  N29 8Y5 d   1     -29.086   9.039 -17.058  0.00  0.00    -0.236 NA
ATOM     25  H9  8Y5 d   1     -30.168   9.067 -18.835  0.00  0.00     0.114 H 
BRANCH  18  26
ATOM     26  C17 8Y5 d   1     -28.330   5.977 -15.003  0.00  0.00    -0.012 A 
ATOM     27  C12 8Y5 d   1     -28.901   4.735 -14.615  0.00  0.00    -0.039 A 
ATOM     28  C22 8Y5 d   1     -28.211   4.102 -13.606  0.00  0.00     0.077 A 
ATOM     29  H8  8Y5 d   1     -29.799   4.323 -15.072  0.00  0.00     0.089 H 
ATOM     30  S35 8Y5 d   1     -26.826   4.997 -13.097  0.00  0.00    -0.083 SA
ATOM     31  C14 8Y5 d   1     -27.201   6.231 -14.240  0.00  0.00    -0.032 A 
ATOM     32  H10 8Y5 d   1     -26.602   7.133 -14.353  0.00  0.00     0.096 H 
BRANCH  28  33
ATOM     33  N30 8Y5 d   1     -28.558   2.909 -13.015  0.00  0.00    -0.321 N 
ATOM     34  C23 8Y5 d   1     -27.679   2.101 -12.334  0.00  0.00     0.226 C 
ATOM     35  O31 8Y5 d   1     -26.563   2.397 -11.945  0.00  0.00    -0.273 OA
ATOM     36  H23 8Y5 d   1     -29.510   2.611 -13.085  0.00  0.00     0.169 HD
BRANCH  34  37
ATOM     37  C25 8Y5 d   1     -28.278   0.737 -12.128  0.00  0.00     0.033 C 
ATOM     38  H19 8Y5 d   1     -28.064   0.394 -11.105  0.00  0.00     0.054 H 
ATOM     39  H20 8Y5 d   1     -29.366   0.789 -12.277  0.00  0.00     0.054 H 
BRANCH  37  40
ATOM     40  C18 8Y5 d   1     -27.687  -0.225 -13.108  0.00  0.00    -0.049 A 
ATOM     41  C7  8Y5 d   1     -28.057  -0.184 -14.439  0.00  0.00    -0.075 A 
ATOM     42  C9  8Y5 d   1     -27.473  -1.047 -15.350  0.00  0.00    -0.062 A 
ATOM     43  H3  8Y5 d   1     -28.806   0.526 -14.770  0.00  0.00     0.084 H 
ATOM     44  C20 8Y5 d   1     -26.539  -1.958 -14.910  0.00  0.00     0.059 A 
ATOM     45  H5  8Y5 d   1     -27.748  -1.006 -16.398  0.00  0.00     0.085 H 
ATOM     46  C10 8Y5 d   1     -26.148  -2.007 -13.584  0.00  0.00    -0.062 A 
ATOM     47  C8  8Y5 d   1     -26.722  -1.121 -12.689  0.00  0.00    -0.075 A 
ATOM     48  H6  8Y5 d   1     -25.407  -2.725 -13.252  0.00  0.00     0.085 H 
ATOM     49  H4  8Y5 d   1     -26.412  -1.130 -11.650  0.00  0.00     0.084 H 
BRANCH  44  50
ATOM     50  S36 8Y5 d   1     -25.798  -3.089 -16.072  0.00  0.00     0.175 S 
ATOM     51  O32 8Y5 d   1     -26.602  -3.028 -17.283  0.00  0.00    -0.223 OA
ATOM     52  O33 8Y5 d   1     -25.561  -4.330 -15.352  0.00  0.00    -0.223 OA
BRANCH  50  53
ATOM     53  C27 8Y5 d   1     -24.165  -2.421 -16.348  0.00  0.00     0.030 C 
ATOM     54  H14 8Y5 d   1     -23.580  -2.541 -15.424  0.00  0.00     0.056 H 
ATOM     55  H15 8Y5 d   1     -23.689  -2.991 -17.160  0.00  0.00     0.056 H 
BRANCH  53  56
ATOM     56  C24 8Y5 d   1     -24.163  -0.958 -16.728  0.00  0.00    -0.064 C 
ATOM     57  H11 8Y5 d   1     -23.127  -0.620 -16.881  0.00  0.00     0.028 H 
ATOM     58  H12 8Y5 d   1     -24.626  -0.369 -15.922  0.00  0.00     0.028 H 
ATOM     59  H13 8Y5 d   1     -24.735  -0.820 -17.658  0.00  0.00     0.028 H 
ENDBRANCH  53  56
ENDBRANCH  50  53
ENDBRANCH  44  50
ENDBRANCH  37  40
ENDBRANCH  34  37
ENDBRANCH  28  33
ENDBRANCH  18  26
ENDBRANCH  16  17
ENDBRANCH  13  16
ENDBRANCH   5  13
TORSDOF 10
