REMARK WARNING: 32 MAX_TORS EXCEEDED!!!
REMARK  52 active torsions:
REMARK  status: ('A' for Active; 'I' for Inactive)
REMARK    1  A    between atoms: N_1  and  CA_2 
REMARK    2  A    between atoms: CA_2  and  C_3 
REMARK    3  A    between atoms: CA_2  and  CB_5 
REMARK       I    between atoms: C_3  and  N_6 
REMARK    4  A    between atoms: N_6  and  CA_7 
REMARK    5  A    between atoms: CA_7  and  C_8 
REMARK    6  A    between atoms: CA_7  and  CB_10 
REMARK       I    between atoms: C_8  and  N_20 
REMARK    7  A    between atoms: CB_10  and  CG_11 
REMARK    8  A    between atoms: N_20  and  CA_21 
REMARK    9  A    between atoms: CA_21  and  C_22 
REMARK   10  A    between atoms: CA_21  and  CB_24 
REMARK       I    between atoms: C_22  and  N_25 
REMARK   11  A    between atoms: N_25  and  CA_26 
REMARK   12  A    between atoms: CA_26  and  C_27 
REMARK   13  A    between atoms: CA_26  and  CB_29 
REMARK       I    between atoms: C_27  and  N_31 
REMARK   14  A    between atoms: CB_29  and  OG_30 
REMARK   15  A    between atoms: N_31  and  CA_32 
REMARK   16  A    between atoms: CA_32  and  C_33 
REMARK   17  A    between atoms: CA_32  and  CB_35 
REMARK       I    between atoms: C_33  and  N_39 
REMARK   18  A    between atoms: CB_35  and  CG_36 
REMARK   19  A    between atoms: CG_36  and  CD1_37 
REMARK   20  A    between atoms: CG_36  and  CD2_38 
REMARK   21  A    between atoms: N_39  and  CA_40 
REMARK   22  A    between atoms: CA_40  and  C_41 
REMARK   23  A    between atoms: CA_40  and  CB_43 
REMARK       I    between atoms: C_41  and  N_48 
REMARK   24  A    between atoms: CB_43  and  CG_44 
REMARK   25  A    between atoms: CG_44  and  CD_45 
REMARK   26  A    between atoms: CD_45  and  CE_46 
REMARK   27  A    between atoms: CE_46  and  NZ_47 
REMARK   28  A    between atoms: N_48  and  CA_49 
REMARK   29  A    between atoms: CA_49  and  C_50 
REMARK   30  A    between atoms: CA_49  and  CB_52 
REMARK       I    between atoms: C_50  and  N_59 
REMARK   31  A    between atoms: CB_52  and  CG_53 
REMARK   32  A    between atoms: CG_53  and  CD_54 
REMARK   33  A    between atoms: CD_54  and  NE_55 
REMARK       I    between atoms: NE_55  and  CZ_56 
REMARK       I    between atoms: CZ_56  and  NH1_57 
REMARK   34  A    between atoms: N_59  and  CA_60 
REMARK   35  A    between atoms: CA_60  and  C_61 
REMARK   36  A    between atoms: CA_60  and  CB_63 
REMARK       I    between atoms: C_61  and  N_67 
REMARK   37  A    between atoms: CB_63  and  CG_64 
REMARK   38  A    between atoms: CG_64  and  CD1_65 
REMARK   39  A    between atoms: CG_64  and  CD2_66 
REMARK   40  A    between atoms: N_67  and  CA_68 
REMARK   41  A    between atoms: CA_68  and  C_69 
REMARK   42  A    between atoms: CA_68  and  CB_71 
REMARK       I    between atoms: C_69  and  N_74 
REMARK   43  A    between atoms: CB_71  and  CG1_72 
REMARK   44  A    between atoms: CB_71  and  CG2_73 
REMARK   45  A    between atoms: N_74  and  CA_75 
REMARK   46  A    between atoms: CA_75  and  C_76 
REMARK   47  A    between atoms: CA_75  and  CB_78 
REMARK       I    between atoms: C_76  and  N_81 
REMARK   48  A    between atoms: CB_78  and  OG1_79 
REMARK   49  A    between atoms: CB_78  and  CG2_80 
REMARK   50  A    between atoms: N_81  and  CA_82 
REMARK   51  A    between atoms: CA_82  and  C_83 
REMARK   52  A    between atoms: CA_82  and  CB_85 
ROOT
ATOM      1  CA  LYS d   1       4.769 -28.442 -15.058  0.00  0.00     0.089 C 
ATOM      2  H40 LYS d   1       4.748 -27.651 -14.294  0.00  0.00     0.087 H 
ENDROOT
BRANCH   1   3
ATOM      3  N   LYS d   1       3.482 -28.455 -15.748  0.00  0.00    -0.346 N 
ATOM      4  C   LEU d   1       3.034 -27.363 -16.358  0.00  0.00     0.241 C 
ATOM      5  O   LEU d   1       3.706 -26.318 -16.416  0.00  0.00    -0.271 OA
ATOM      6  H39 LYS d   1       2.934 -29.291 -15.761  0.00  0.00     0.163 HD
BRANCH   4   7
ATOM      7  CA  LEU d   1       1.679 -27.453 -17.052  0.00  0.00     0.089 C 
ATOM      8  H29 LEU d   1       1.664 -26.700 -17.853  0.00  0.00     0.087 H 
BRANCH   7   9
ATOM      9  N   LEU d   1       1.471 -28.758 -17.664  0.00  0.00    -0.346 N 
ATOM     10  C   SER d   1       2.032 -29.007 -18.863  0.00  0.00     0.243 C 
ATOM     11  O   SER d   1       2.607 -28.124 -19.499  0.00  0.00    -0.271 OA
ATOM     12  H28 LEU d   1       0.922 -29.456 -17.203  0.00  0.00     0.163 HD
BRANCH  10  13
ATOM     13  CA  SER d   1       1.976 -30.419 -19.441  0.00  0.00     0.109 C 
ATOM     14  H24 SER d   1       2.923 -30.597 -19.972  0.00  0.00     0.090 H 
BRANCH  13  15
ATOM     15  N   SER d   1       1.853 -31.432 -18.407  0.00  0.00    -0.344 N 
ATOM     16  C   ALA d   1       2.904 -31.698 -17.643  0.00  0.00     0.240 C 
ATOM     17  O   ALA d   1       3.964 -31.071 -17.752  0.00  0.00    -0.271 OA
ATOM     18  H23 SER d   1       0.991 -31.920 -18.274  0.00  0.00     0.163 HD
BRANCH  16  19
ATOM     19  CA  ALA d   1       2.760 -32.810 -16.615  0.00  0.00     0.086 C 
ATOM     20  H19 ALA d   1       3.513 -32.650 -15.829  0.00  0.00     0.086 H 
BRANCH  19  21
ATOM     21  N   ALA d   1       1.443 -32.797 -15.994  0.00  0.00    -0.346 N 
ATOM     22  C   TRP d   1       1.054 -31.745 -15.274  0.00  0.00     0.241 C 
ATOM     23  O   TRP d   1       1.699 -30.695 -15.243  0.00  0.00    -0.271 OA
ATOM     24  H18 ALA d   1       0.830 -33.578 -16.108  0.00  0.00     0.163 HD
BRANCH  22  25
ATOM     25  CA  TRP d   1      -0.254 -31.841 -14.506  0.00  0.00     0.093 C 
ATOM     26  H9  TRP d   1      -0.955 -31.123 -14.956  0.00  0.00     0.088 H 
BRANCH  25  27
ATOM     27  N   TRP d   1      -0.865 -33.161 -14.565  0.00  0.00    -0.346 N 
ATOM     28  C   ALA d   1      -1.896 -33.410 -15.362  0.00  0.00     0.248 C 
ATOM     29  O   ALA d   1      -2.329 -32.574 -16.132  0.00  0.00    -0.271 OA
ATOM     30  H8  TRP d   1      -0.500 -33.895 -13.993  0.00  0.00     0.163 HD
BRANCH  28  31
ATOM     31  CA  ALA d   1      -2.505 -34.821 -15.308  0.00  0.00     0.172 C 
ATOM     32  H4  ALA d   1      -2.852 -35.079 -16.319  0.00  0.00     0.098 H 
BRANCH  31  33
ATOM     33  N   ALA d   1      -1.528 -35.823 -14.896  0.00  0.00    -0.067 N 
ATOM     34  H1  ALA d   1      -1.966 -36.730 -14.874  0.00  0.00     0.275 HD
ATOM     35  H2  ALA d   1      -1.180 -35.595 -13.978  0.00  0.00     0.275 HD
ATOM     36  H3  ALA d   1      -0.763 -35.836 -15.552  0.00  0.00     0.275 HD
ENDBRANCH  31  33
BRANCH  31  37
ATOM     37  CB  ALA d   1      -3.705 -34.846 -14.367  0.00  0.00    -0.042 C 
ATOM     38  H5  ALA d   1      -4.436 -34.088 -14.685  0.00  0.00     0.030 H 
ATOM     39  H6  ALA d   1      -3.372 -34.627 -13.342  0.00  0.00     0.030 H 
ATOM     40  H7  ALA d   1      -4.173 -35.841 -14.396  0.00  0.00     0.030 H 
ENDBRANCH  31  37
ENDBRANCH  28  31
ENDBRANCH  25  27
BRANCH  25  41
ATOM     41  CB  TRP d   1      -0.053 -31.467 -13.045  0.00  0.00    -0.012 C 
ATOM     42  H10 TRP d   1       0.735 -30.703 -12.975  0.00  0.00     0.044 H 
ATOM     43  H11 TRP d   1       0.254 -32.362 -12.484  0.00  0.00     0.044 H 
BRANCH  41  44
ATOM     44  CG  TRP d   1      -1.297 -30.932 -12.455  0.00  0.00    -0.028 A 
ATOM     45  CD1 TRP d   1      -2.400 -31.646 -12.039  0.00  0.00    -0.015 A 
ATOM     46  NE1 TRP d   1      -3.352 -30.792 -11.554  0.00  0.00    -0.365 N 
ATOM     47  H12 TRP d   1      -2.499 -32.729 -12.089  0.00  0.00     0.112 H 
ATOM     48  CE2 TRP d   1      -2.881 -29.509 -11.651  0.00  0.00     0.042 A 
ATOM     49  H13 TRP d   1      -4.271 -31.068 -11.178  0.00  0.00     0.165 HD
ATOM     50  CD2 TRP d   1      -1.597 -29.568 -12.230  0.00  0.00    -0.002 A 
ATOM     51  CZ2 TRP d   1      -3.475 -28.313 -11.288  0.00  0.00    -0.056 A 
ATOM     52  CE3 TRP d   1      -0.884 -28.379 -12.413  0.00  0.00    -0.070 A 
ATOM     53  CZ3 TRP d   1      -1.480 -27.192 -12.046  0.00  0.00    -0.082 A 
ATOM     54  H14 TRP d   1       0.115 -28.391 -12.834  0.00  0.00     0.084 H 
ATOM     55  CH2 TRP d   1      -2.757 -27.164 -11.496  0.00  0.00    -0.081 A 
ATOM     56  H16 TRP d   1      -0.943 -26.261 -12.189  0.00  0.00     0.083 H 
ATOM     57  H17 TRP d   1      -3.195 -26.210 -11.225  0.00  0.00     0.083 H 
ATOM     58  H15 TRP d   1      -4.469 -28.286 -10.856  0.00  0.00     0.086 H 
ENDBRANCH  41  44
ENDBRANCH  25  41
ENDBRANCH  22  25
ENDBRANCH  19  21
BRANCH  19  59
ATOM     59  CB  ALA d   1       3.018 -34.173 -17.265  0.00  0.00    -0.049 C 
ATOM     60  H20 ALA d   1       4.014 -34.174 -17.731  0.00  0.00     0.030 H 
ATOM     61  H21 ALA d   1       2.254 -34.364 -18.033  0.00  0.00     0.030 H 
ATOM     62  H22 ALA d   1       2.971 -34.960 -16.498  0.00  0.00     0.030 H 
ENDBRANCH  19  59
ENDBRANCH  16  19
ENDBRANCH  13  15
BRANCH  13  63
ATOM     63  CB  SER d   1       0.833 -30.556 -20.455  0.00  0.00     0.044 C 
ATOM     64  H25 SER d   1       0.779 -31.599 -20.799  0.00  0.00     0.077 H 
ATOM     65  H26 SER d   1       1.031 -29.897 -21.313  0.00  0.00     0.077 H 
BRANCH  63  66
ATOM     66  OG  SER d   1      -0.378 -30.204 -19.882  0.00  0.00    -0.398 OA
ATOM     67  H27 SER d   1      -0.554 -30.773 -19.142  0.00  0.00     0.209 HD
ENDBRANCH  63  66
ENDBRANCH  13  63
ENDBRANCH  10  13
ENDBRANCH   7   9
BRANCH   7  68
ATOM     68  CB  LEU d   1       0.541 -27.132 -16.082  0.00  0.00    -0.035 C 
ATOM     69  H30 LEU d   1       0.739 -26.148 -15.632  0.00  0.00     0.037 H 
ATOM     70  H31 LEU d   1       0.532 -27.900 -15.295  0.00  0.00     0.037 H 
BRANCH  68  71
ATOM     71  CG  LEU d   1      -0.845 -27.093 -16.731  0.00  0.00    -0.059 C 
ATOM     72  H32 LEU d   1      -1.105 -28.104 -17.077  0.00  0.00     0.038 H 
BRANCH  71  73
ATOM     73  CD1 LEU d   1      -1.854 -26.639 -15.714  0.00  0.00    -0.073 C 
ATOM     74  H33 LEU d   1      -2.852 -26.609 -16.176  0.00  0.00     0.028 H 
ATOM     75  H34 LEU d   1      -1.586 -25.634 -15.355  0.00  0.00     0.028 H 
ATOM     76  H35 LEU d   1      -1.863 -27.341 -14.867  0.00  0.00     0.028 H 
ENDBRANCH  71  73
BRANCH  71  77
ATOM     77  CD2 LEU d   1      -0.875 -26.141 -17.920  0.00  0.00    -0.073 C 
ATOM     78  H36 LEU d   1      -0.139 -26.467 -18.669  0.00  0.00     0.028 H 
ATOM     79  H37 LEU d   1      -0.628 -25.124 -17.582  0.00  0.00     0.028 H 
ATOM     80  H38 LEU d   1      -1.880 -26.145 -18.368  0.00  0.00     0.028 H 
ENDBRANCH  71  77
ENDBRANCH  68  71
ENDBRANCH   7  68
ENDBRANCH   4   7
ENDBRANCH   1   3
BRANCH   1  81
ATOM     81  C   LYS d   1       5.901 -28.147 -16.024  0.00  0.00     0.241 C 
ATOM     82  O   LYS d   1       6.872 -27.479 -15.654  0.00  0.00    -0.271 OA
ATOM     83  N   ARG d   1       5.777 -28.615 -17.276  0.00  0.00    -0.346 N 
ATOM     84  H52 ARG d   1       4.962 -29.146 -17.509  0.00  0.00     0.163 HD
BRANCH  83  85
ATOM     85  CA  ARG d   1       6.778 -28.383 -18.312  0.00  0.00     0.089 C 
ATOM     86  H53 ARG d   1       7.752 -28.715 -17.924  0.00  0.00     0.087 H 
BRANCH  85  87
ATOM     87  C   ARG d   1       6.894 -26.917 -18.705  0.00  0.00     0.241 C 
ATOM     88  O   ARG d   1       7.823 -26.556 -19.428  0.00  0.00    -0.271 OA
ATOM     89  N   LEU d   1       5.952 -26.076 -18.298  0.00  0.00    -0.346 N 
ATOM     90  H65 LEU d   1       5.193 -26.424 -17.748  0.00  0.00     0.163 HD
BRANCH  89  91
ATOM     91  CA  LEU d   1       5.996 -24.654 -18.633  0.00  0.00     0.089 C 
ATOM     92  H66 LEU d   1       6.356 -24.565 -19.669  0.00  0.00     0.087 H 
BRANCH  91  93
ATOM     93  C   LEU d   1       6.933 -23.836 -17.749  0.00  0.00     0.241 C 
ATOM     94  O   LEU d   1       7.183 -22.667 -18.071  0.00  0.00    -0.271 OA
ATOM     95  N   VAL d   1       7.481 -24.416 -16.679  0.00  0.00    -0.346 N 
ATOM     96  H76 VAL d   1       7.250 -25.368 -16.480  0.00  0.00     0.163 HD
BRANCH  95  97
ATOM     97  CA  VAL d   1       8.400 -23.724 -15.789  0.00  0.00     0.092 C 
ATOM     98  H77 VAL d   1       8.751 -22.812 -16.295  0.00  0.00     0.088 H 
BRANCH  97  99
ATOM     99  C   VAL d   1       9.594 -24.636 -15.529  0.00  0.00     0.241 C 
ATOM    100  O   VAL d   1       9.559 -25.834 -15.794  0.00  0.00    -0.271 OA
ATOM    101  N   THR d   1      10.657 -24.052 -14.985  0.00  0.00    -0.344 N 
ATOM    102  H85 THR d   1      10.675 -23.055 -14.912  0.00  0.00     0.163 HD
BRANCH 101 103
ATOM    103  CA  THR d   1      11.799 -24.813 -14.490  0.00  0.00     0.113 C 
ATOM    104  H86 THR d   1      11.795 -25.807 -14.962  0.00  0.00     0.091 H 
BRANCH 103 105
ATOM    105  C   THR d   1      11.685 -24.979 -12.977  0.00  0.00     0.243 C 
ATOM    106  O   THR d   1      10.923 -24.277 -12.308  0.00  0.00    -0.271 OA
ATOM    107  N   ARG d   1      12.455 -25.917 -12.436  0.00  0.00    -0.345 N 
ATOM    108  H92 ARG d   1      13.051 -26.463 -13.024  0.00  0.00     0.163 HD
BRANCH 107 109
ATOM    109  CA  ARG d   1      12.444 -26.164 -10.987  0.00  0.00     0.093 C 
ATOM    110  H93 ARG d   1      11.483 -25.805 -10.590  0.00  0.00     0.089 H 
BRANCH 109 111
ATOM    111  C   ARG d   1      13.568 -25.413 -10.256  0.00  0.00     0.196 C 
ATOM    112  O   ARG d   1      14.684 -25.318 -10.769  0.00  0.00    -0.646 OA
ATOM    113  OXT ARG d   1      13.357 -24.903  -9.154  0.00  0.00    -0.646 OA
ENDBRANCH 109 111
BRANCH 109 114
ATOM    114  CB  ARG d   1      12.552 -27.665 -10.707  0.00  0.00    -0.048 C 
ATOM    115  H94 ARG d   1      12.543 -27.837  -9.621  0.00  0.00     0.030 H 
ATOM    116  H95 ARG d   1      13.491 -28.050 -11.131  0.00  0.00     0.030 H 
ATOM    117  H96 ARG d   1      11.700 -28.186 -11.168  0.00  0.00     0.030 H 
ENDBRANCH 109 114
ENDBRANCH 107 109
ENDBRANCH 103 105
BRANCH 103 118
ATOM    118  CB  THR d   1      13.116 -24.108 -14.834  0.00  0.00     0.060 C 
ATOM    119  H87 THR d   1      13.959 -24.763 -14.568  0.00  0.00     0.086 H 
BRANCH 118 120
ATOM    120  OG1 THR d   1      13.199 -22.891 -14.083  0.00  0.00    -0.393 OA
ATOM    121  H88 THR d   1      14.013 -22.447 -14.290  0.00  0.00     0.210 HD
ENDBRANCH 118 120
BRANCH 118 122
ATOM    122  CG2 THR d   1      13.182 -23.787 -16.322  0.00  0.00    -0.050 C 
ATOM    123  H89 THR d   1      14.133 -23.282 -16.546  0.00  0.00     0.031 H 
ATOM    124  H90 THR d   1      12.344 -23.127 -16.592  0.00  0.00     0.031 H 
ATOM    125  H91 THR d   1      13.116 -24.720 -16.902  0.00  0.00     0.031 H 
ENDBRANCH 118 122
ENDBRANCH 103 118
ENDBRANCH 101 103
ENDBRANCH  97  99
BRANCH  97 126
ATOM    126  CB  VAL d   1       7.749 -23.306 -14.451  0.00  0.00    -0.033 C 
ATOM    127  H78 VAL d   1       8.462 -22.663 -13.913  0.00  0.00     0.042 H 
BRANCH 126 128
ATOM    128  CG1 VAL d   1       6.502 -22.505 -14.695  0.00  0.00    -0.071 C 
ATOM    129  H79 VAL d   1       6.056 -22.218 -13.731  0.00  0.00     0.028 H 
ATOM    130  H80 VAL d   1       5.783 -23.111 -15.266  0.00  0.00     0.028 H 
ATOM    131  H81 VAL d   1       6.754 -21.599 -15.266  0.00  0.00     0.028 H 
ENDBRANCH 126 128
BRANCH 126 132
ATOM    132  CG2 VAL d   1       7.470 -24.534 -13.572  0.00  0.00    -0.071 C 
ATOM    133  H82 VAL d   1       8.404 -25.093 -13.416  0.00  0.00     0.028 H 
ATOM    134  H83 VAL d   1       6.734 -25.182 -14.070  0.00  0.00     0.028 H 
ATOM    135  H84 VAL d   1       7.072 -24.206 -12.600  0.00  0.00     0.028 H 
ENDBRANCH 126 132
ENDBRANCH  97 126
ENDBRANCH  95  97
ENDBRANCH  91  93
BRANCH  91 136
ATOM    136  CB  LEU d   1       4.575 -24.084 -18.561  0.00  0.00    -0.035 C 
ATOM    137  H67 LEU d   1       4.618 -23.011 -18.800  0.00  0.00     0.037 H 
ATOM    138  H68 LEU d   1       4.199 -24.216 -17.536  0.00  0.00     0.037 H 
BRANCH 136 139
ATOM    139  CG  LEU d   1       3.596 -24.755 -19.525  0.00  0.00    -0.059 C 
ATOM    140  H69 LEU d   1       3.542 -25.818 -19.247  0.00  0.00     0.038 H 
BRANCH 139 141
ATOM    141  CD1 LEU d   1       2.202 -24.172 -19.384  0.00  0.00    -0.073 C 
ATOM    142  H70 LEU d   1       1.522 -24.673 -20.088  0.00  0.00     0.028 H 
ATOM    143  H71 LEU d   1       2.231 -23.095 -19.606  0.00  0.00     0.028 H 
ATOM    144  H72 LEU d   1       1.843 -24.325 -18.356  0.00  0.00     0.028 H 
ENDBRANCH 139 141
BRANCH 139 145
ATOM    145  CD2 LEU d   1       4.067 -24.688 -20.994  0.00  0.00    -0.073 C 
ATOM    146  H73 LEU d   1       5.078 -25.115 -21.075  0.00  0.00     0.028 H 
ATOM    147  H74 LEU d   1       4.084 -23.640 -21.326  0.00  0.00     0.028 H 
ATOM    148  H75 LEU d   1       3.375 -25.262 -21.628  0.00  0.00     0.028 H 
ENDBRANCH 139 145
ENDBRANCH 136 139
ENDBRANCH  91 136
ENDBRANCH  89  91
ENDBRANCH  85  87
BRANCH  85 149
ATOM    149  CB  ARG d   1       6.438 -29.202 -19.572  0.00  0.00    -0.036 C 
ATOM    150  H54 ARG d   1       6.924 -28.722 -20.434  0.00  0.00     0.036 H 
ATOM    151  H55 ARG d   1       5.347 -29.183 -19.709  0.00  0.00     0.036 H 
BRANCH 149 152
ATOM    152  CG  ARG d   1       6.880 -30.641 -19.526  0.00  0.00    -0.048 C 
ATOM    153  H56 ARG d   1       6.270 -31.186 -18.790  0.00  0.00     0.035 H 
ATOM    154  H57 ARG d   1       7.939 -30.687 -19.231  0.00  0.00     0.035 H 
BRANCH 152 155
ATOM    155  CD  ARG d   1       6.708 -31.290 -20.909  0.00  0.00     0.009 C 
ATOM    156  H58 ARG d   1       7.263 -32.240 -20.913  0.00  0.00     0.064 H 
ATOM    157  H59 ARG d   1       7.137 -30.612 -21.661  0.00  0.00     0.064 H 
BRANCH 155 158
ATOM    158  NE  ARG d   1       5.326 -31.570 -21.285  0.00  0.00    -0.227 N 
ATOM    159  CZ  ARG d   1       4.680 -32.695 -21.021  0.00  0.00     0.665 C 
ATOM    160  NH1 ARG d   1       5.255 -33.675 -20.334  0.00  0.00    -0.235 N 
ATOM    161  NH2 ARG d   1       3.430 -32.838 -21.422  0.00  0.00    -0.235 N 
ATOM    162  H61 ARG d   1       4.734 -34.542 -20.140  0.00  0.00     0.174 HD
ATOM    163  H62 ARG d   1       6.222 -33.568 -19.995  0.00  0.00     0.174 HD
ATOM    164  H63 ARG d   1       2.971 -32.086 -21.956  0.00  0.00     0.174 HD
ATOM    165  H64 ARG d   1       2.914 -33.702 -21.201  0.00  0.00     0.174 HD
ATOM    166  H60 ARG d   1       4.814 -30.836 -21.795  0.00  0.00     0.177 HD
ENDBRANCH 155 158
ENDBRANCH 152 155
ENDBRANCH 149 152
ENDBRANCH  85 149
ENDBRANCH  83  85
ENDBRANCH   1  81
BRANCH   1 167
ATOM    167  CB  LYS d   1       4.998 -29.784 -14.367  0.00  0.00    -0.038 C 
ATOM    168  H41 LYS d   1       6.054 -29.835 -14.062  0.00  0.00     0.036 H 
ATOM    169  H42 LYS d   1       4.788 -30.582 -15.094  0.00  0.00     0.036 H 
BRANCH 167 170
ATOM    170  CG  LYS d   1       4.151 -30.027 -13.152  0.00  0.00    -0.061 C 
ATOM    171  H43 LYS d   1       3.085 -30.011 -13.423  0.00  0.00     0.033 H 
ATOM    172  H44 LYS d   1       4.348 -29.257 -12.392  0.00  0.00     0.033 H 
BRANCH 170 173
ATOM    173  CD  LYS d   1       4.535 -31.393 -12.623  0.00  0.00    -0.043 C 
ATOM    174  H45 LYS d   1       5.553 -31.335 -12.211  0.00  0.00     0.035 H 
ATOM    175  H46 LYS d   1       4.517 -32.110 -13.457  0.00  0.00     0.035 H 
BRANCH 173 176
ATOM    176  CE  LYS d   1       3.615 -31.886 -11.552  0.00  0.00     0.080 C 
ATOM    177  H47 LYS d   1       2.594 -31.977 -11.951  0.00  0.00     0.075 H 
ATOM    178  H48 LYS d   1       3.617 -31.182 -10.707  0.00  0.00     0.075 H 
BRANCH 176 179
ATOM    179  NZ  LYS d   1       4.101 -33.220 -11.099  0.00  0.00    -0.079 N 
ATOM    180  H49 LYS d   1       3.493 -33.571 -10.375  0.00  0.00     0.274 HD
ATOM    181  H50 LYS d   1       5.038 -33.131 -10.737  0.00  0.00     0.274 HD
ATOM    182  H51 LYS d   1       4.101 -33.860 -11.878  0.00  0.00     0.274 HD
ENDBRANCH 176 179
ENDBRANCH 173 176
ENDBRANCH 170 173
ENDBRANCH 167 170
ENDBRANCH   1 167
TORSDOF 52
