REMARK  11 active torsions:
REMARK  status: ('A' for Active; 'I' for Inactive)
REMARK    1  A    between atoms: PG_1  and  N3B_5 
REMARK    2  A    between atoms: N3B_5  and  PB_6 
REMARK    3  A    between atoms: PB_6  and  O3A_9 
REMARK    4  A    between atoms: O3A_9  and  PA_10 
REMARK    5  A    between atoms: PA_10  and  O5'_13 
REMARK    6  A    between atoms: O5'_13  and  C5'_14 
REMARK    7  A    between atoms: C5'_14  and  C4'_15 
REMARK    8  A    between atoms: C3'_17  and  O3'_18 
REMARK    9  A    between atoms: C2'_19  and  O2'_20 
REMARK   10  A    between atoms: C1'_21  and  N9_22 
REMARK   11  A    between atoms: C2_29  and  N2_30 
ROOT
ATOM      1  C4' GNP d   1      -7.979  -3.147   8.784  0.00  0.00     0.089 C 
ATOM      2  O4' GNP d   1      -8.067  -4.391   9.497  0.00  0.00    -0.353 OA
ATOM      3  C3' GNP d   1      -9.079  -2.337   9.440  0.00  0.00     0.091 C 
ATOM      4  C2' GNP d   1      -8.705  -2.585  10.888  0.00  0.00     0.105 C 
ATOM      5  C1' GNP d   1      -8.583  -4.096  10.781  0.00  0.00     0.139 C 
ATOM      6  H4  GNP d   1      -8.149  -3.256   7.703  0.00  0.00     0.090 H 
ATOM      7  H5  GNP d   1      -9.053  -1.271   9.168  0.00  0.00     0.091 H 
ATOM      8  H7  GNP d   1      -7.762  -2.091  11.165  0.00  0.00     0.093 H 
ATOM      9  H9  GNP d   1      -9.581  -4.546  10.886  0.00  0.00     0.122 H 
ENDROOT
BRANCH   1  10
ATOM     10  C5' GNP d   1      -6.595  -2.615   9.055  0.00  0.00     0.058 C 
ATOM     11  H2  GNP d   1      -6.664  -1.556   9.345  0.00  0.00     0.079 H 
ATOM     12  H3  GNP d   1      -6.139  -3.191   9.874  0.00  0.00     0.079 H 
BRANCH  10  13
ATOM     13  O5' GNP d   1      -5.795  -2.728   7.911  0.00  0.00    -0.287 OA
BRANCH  13  14
ATOM     14  PA  GNP d   1      -4.944  -1.456   7.566  0.00  0.00     0.417 P 
ATOM     15  O1A GNP d   1      -5.896  -0.461   7.014  0.00  0.00    -0.624 OA
ATOM     16  O2A GNP d   1      -4.234  -1.095   8.815  0.00  0.00    -0.624 OA
BRANCH  14  17
ATOM     17  O3A GNP d   1      -3.944  -1.842   6.488  0.00  0.00    -0.186 OA
BRANCH  17  18
ATOM     18  PB  GNP d   1      -3.243  -0.712   5.757  0.00  0.00     0.379 P 
ATOM     19  O1B GNP d   1      -2.307  -1.293   4.779  0.00  0.00    -0.629 OA
ATOM     20  O2B GNP d   1      -2.654   0.145   6.806  0.00  0.00    -0.629 OA
BRANCH  18  21
ATOM     21  N3B GNP d   1      -4.355   0.185   5.058  0.00  0.00    -0.218 N 
ATOM     22  H1  GNP d   1      -4.623   1.025   5.530  0.00  0.00     0.179 HD
BRANCH  21  23
ATOM     23  PG  GNP d   1      -5.081  -0.130   3.675  0.00  0.00     0.381 P 
ATOM     24  O1G GNP d   1      -4.092  -0.869   2.798  0.00  0.00    -0.622 OA
ATOM     25  O2G GNP d   1      -5.569   1.184   3.111  0.00  0.00    -0.622 OA
ATOM     26  O3G GNP d   1      -6.340  -0.887   4.030  0.00  0.00    -0.622 OA
ENDBRANCH  21  23
ENDBRANCH  18  21
ENDBRANCH  17  18
ENDBRANCH  14  17
ENDBRANCH  13  14
ENDBRANCH  10  13
ENDBRANCH   1  10
BRANCH   3  27
ATOM     27  O3' GNP d   1     -10.349  -2.903   9.129  0.00  0.00    -0.390 OA
ATOM     28  H6  GNP d   1     -10.383  -3.797   9.450  0.00  0.00     0.210 HD
ENDBRANCH   3  27
BRANCH   5  29
ATOM     29  N9  GNP d   1      -7.722  -4.644  11.807  0.00  0.00    -0.295 N 
ATOM     30  C8  GNP d   1      -6.394  -4.382  12.072  0.00  0.00     0.071 A 
ATOM     31  N7  GNP d   1      -5.953  -5.056  13.090  0.00  0.00    -0.234 NA
ATOM     32  H10 GNP d   1      -5.785  -3.689  11.493  0.00  0.00     0.144 H 
ATOM     33  C5  GNP d   1      -7.055  -5.802  13.517  0.00  0.00     0.171 A 
ATOM     34  C6  GNP d   1      -7.220  -6.730  14.574  0.00  0.00     0.292 A 
ATOM     35  C4  GNP d   1      -8.150  -5.546  12.732  0.00  0.00     0.161 A 
ATOM     36  O6  GNP d   1      -6.388  -7.105  15.386  0.00  0.00    -0.265 OA
ATOM     37  N1  GNP d   1      -8.512  -7.249  14.645  0.00  0.00    -0.154 N 
ATOM     38  C2  GNP d   1      -9.533  -6.911  13.790  0.00  0.00     0.680 A 
ATOM     39  H11 GNP d   1      -8.709  -7.912  15.367  0.00  0.00     0.187 HD
ATOM     40  N3  GNP d   1      -9.406  -6.050  12.796  0.00  0.00    -0.174 N 
ATOM     41  H14 GNP d   1     -10.167  -5.794  12.150  0.00  0.00     0.186 HD
BRANCH  38  42
ATOM     42  N2  GNP d   1     -10.715  -7.505  13.994  0.00  0.00    -0.234 N 
ATOM     43  H12 GNP d   1     -11.514  -7.287  13.381  0.00  0.00     0.174 HD
ATOM     44  H13 GNP d   1     -10.826  -8.180  14.764  0.00  0.00     0.174 HD
ENDBRANCH  38  42
ENDBRANCH   5  29
BRANCH   4  45
ATOM     45  O2' GNP d   1      -9.712  -2.248  11.823  0.00  0.00    -0.388 OA
ATOM     46  H8  GNP d   1      -9.401  -2.432  12.702  0.00  0.00     0.210 HD
ENDBRANCH   4  45
TORSDOF 11
