REMARK WARNING: 32 MAX_TORS EXCEEDED!!!
REMARK  44 active torsions:
REMARK  status: ('A' for Active; 'I' for Inactive)
REMARK    1  A    between atoms: N_1  and  CA_2 
REMARK    2  A    between atoms: CA_2  and  C_3 
REMARK    3  A    between atoms: CA_2  and  CB_5 
REMARK       I    between atoms: C_3  and  N_9 
REMARK    4  A    between atoms: CB_5  and  CG_6 
REMARK    5  A    between atoms: N_9  and  CA_10 
REMARK    6  A    between atoms: CA_10  and  C_11 
REMARK    7  A    between atoms: CA_10  and  CB_13 
REMARK       I    between atoms: C_11  and  N_16 
REMARK    8  A    between atoms: CB_13  and  OG1_14 
REMARK    9  A    between atoms: CB_13  and  CG2_15 
REMARK   10  A    between atoms: N_16  and  CA_17 
REMARK   11  A    between atoms: CA_17  and  C_18 
REMARK   12  A    between atoms: CA_17  and  CB_20 
REMARK       I    between atoms: C_18  and  N_22 
REMARK   13  A    between atoms: CB_20  and  OG_21 
REMARK   14  A    between atoms: N_22  and  CA_23 
REMARK   15  A    between atoms: CA_23  and  C_24 
REMARK   16  A    between atoms: CA_23  and  CB_26 
REMARK       I    between atoms: C_24  and  N_33 
REMARK   17  A    between atoms: CB_26  and  CG_27 
REMARK   18  A    between atoms: CG_27  and  CD_28 
REMARK   19  A    between atoms: CD_28  and  NE_29 
REMARK       I    between atoms: NE_29  and  CZ_30 
REMARK       I    between atoms: CZ_30  and  NH1_31 
REMARK   20  A    between atoms: N_33  and  CA_34 
REMARK   21  A    between atoms: CA_34  and  C_35 
REMARK   22  A    between atoms: CA_34  and  CB_37 
REMARK       I    between atoms: C_35  and  N_41 
REMARK   23  A    between atoms: CB_37  and  CG_38 
REMARK   24  A    between atoms: CG_38  and  SD_39 
REMARK   25  A    between atoms: SD_39  and  CE_40 
REMARK   26  A    between atoms: N_41  and  CA_42 
REMARK   27  A    between atoms: CA_42  and  C_43 
REMARK   28  A    between atoms: CA_42  and  CB_45 
REMARK       I    between atoms: C_43  and  N_50 
REMARK   29  A    between atoms: CB_45  and  CG_46 
REMARK   30  A    between atoms: CG_46  and  CD_47 
REMARK   31  A    between atoms: N_50  and  CA_51 
REMARK   32  A    between atoms: CA_51  and  C_52 
REMARK   33  A    between atoms: CA_51  and  CB_54 
REMARK       I    between atoms: C_52  and  N_59 
REMARK   34  A    between atoms: CB_54  and  CG_55 
REMARK   35  A    between atoms: CG_55  and  CD_56 
REMARK   36  A    between atoms: N_59  and  CA_60 
REMARK   37  A    between atoms: CA_60  and  C_61 
REMARK   38  A    between atoms: CA_60  and  CB_63 
REMARK       I    between atoms: C_61  and  N_66 
REMARK   39  A    between atoms: CB_63  and  CG1_64 
REMARK   40  A    between atoms: CB_63  and  CG2_65 
REMARK   41  A    between atoms: N_66  and  CA_67 
REMARK   42  A    between atoms: CA_67  and  C_68 
REMARK   43  A    between atoms: CA_67  and  CB_70 
REMARK   44  A    between atoms: CB_70  and  CG_71 
ROOT
ATOM      1  CA  MET d   1      -9.560  17.996  -7.366  0.00  0.00     0.090 C 
ATOM      2  H33 MET d   1     -10.066  17.794  -6.410  0.00  0.00     0.087 H 
ENDROOT
BRANCH   1   3
ATOM      3  N   MET d   1      -9.087  16.722  -7.906  0.00  0.00    -0.346 N 
ATOM      4  C   ARG d   1      -9.820  15.603  -8.040  0.00  0.00     0.241 C 
ATOM      5  O   ARG d   1     -11.015  15.542  -7.771  0.00  0.00    -0.271 OA
ATOM      6  H32 MET d   1      -8.133  16.679  -8.202  0.00  0.00     0.163 HD
BRANCH   4   7
ATOM      7  CA  ARG d   1      -9.100  14.391  -8.608  0.00  0.00     0.089 C 
ATOM      8  H20 ARG d   1      -9.836  13.732  -9.092  0.00  0.00     0.087 H 
BRANCH   7   9
ATOM      9  N   ARG d   1      -8.125  14.824  -9.611  0.00  0.00    -0.346 N 
ATOM     10  C   SER d   1      -8.422  15.482 -10.750  0.00  0.00     0.243 C 
ATOM     11  O   SER d   1      -9.575  15.757 -11.091  0.00  0.00    -0.271 OA
ATOM     12  H19 ARG d   1      -7.162  14.615  -9.438  0.00  0.00     0.163 HD
BRANCH  10  13
ATOM     13  CA  SER d   1      -7.248  15.895 -11.637  0.00  0.00     0.109 C 
ATOM     14  H15 SER d   1      -7.215  16.994 -11.676  0.00  0.00     0.090 H 
BRANCH  13  15
ATOM     15  N   SER d   1      -5.978  15.417 -11.090  0.00  0.00    -0.344 N 
ATOM     16  C   THR d   1      -5.237  15.989 -10.105  0.00  0.00     0.243 C 
ATOM     17  O   THR d   1      -5.587  17.012  -9.504  0.00  0.00    -0.271 OA
ATOM     18  H14 SER d   1      -5.614  14.574 -11.486  0.00  0.00     0.163 HD
BRANCH  16  19
ATOM     19  CA  THR d   1      -3.920  15.232  -9.722  0.00  0.00     0.113 C 
ATOM     20  H8  THR d   1      -4.218  14.284  -9.250  0.00  0.00     0.091 H 
BRANCH  19  21
ATOM     21  N   THR d   1      -3.199  14.917 -10.964  0.00  0.00    -0.344 N 
ATOM     22  C   ASP d   1      -3.518  13.853 -11.734  0.00  0.00     0.249 C 
ATOM     23  O   ASP d   1      -4.452  13.089 -11.460  0.00  0.00    -0.271 OA
ATOM     24  H7  THR d   1      -2.446  15.511 -11.249  0.00  0.00     0.163 HD
BRANCH  22  25
ATOM     25  CA  ASP d   1      -2.708  13.634 -13.025  0.00  0.00     0.185 C 
ATOM     26  H4  ASP d   1      -3.419  13.534 -13.858  0.00  0.00     0.100 H 
BRANCH  25  27
ATOM     27  N   ASP d   1      -1.839  14.778 -13.310  0.00  0.00    -0.066 N 
ATOM     28  H1  ASP d   1      -1.323  14.605 -14.159  0.00  0.00     0.275 HD
ATOM     29  H2  ASP d   1      -1.194  14.909 -12.546  0.00  0.00     0.275 HD
ATOM     30  H3  ASP d   1      -2.401  15.607 -13.421  0.00  0.00     0.275 HD
ENDBRANCH  25  27
BRANCH  25  31
ATOM     31  CB  ASP d   1      -1.889  12.325 -12.936  0.00  0.00     0.050 C 
ATOM     32  H5  ASP d   1      -1.283  12.361 -12.019  0.00  0.00     0.052 H 
ATOM     33  H6  ASP d   1      -1.226  12.275 -13.812  0.00  0.00     0.052 H 
BRANCH  31  34
ATOM     34  CG  ASP d   1      -2.729  11.053 -12.902  0.00  0.00     0.175 C 
ATOM     35  OD1 ASP d   1      -3.146  10.584 -13.987  0.00  0.00    -0.648 OA
ATOM     36  OD2 ASP d   1      -2.981  10.535 -11.787  0.00  0.00    -0.648 OA
ENDBRANCH  31  34
ENDBRANCH  25  31
ENDBRANCH  22  25
ENDBRANCH  19  21
BRANCH  19  37
ATOM     37  CB  THR d   1      -2.990  15.958  -8.708  0.00  0.00     0.060 C 
ATOM     38  H9  THR d   1      -2.831  16.988  -9.060  0.00  0.00     0.086 H 
BRANCH  37  39
ATOM     39  OG1 THR d   1      -1.727  15.282  -8.642  0.00  0.00    -0.393 OA
ATOM     40  H10 THR d   1      -1.162  15.728  -8.022  0.00  0.00     0.210 HD
ENDBRANCH  37  39
BRANCH  37  41
ATOM     41  CG2 THR d   1      -3.579  16.010  -7.302  0.00  0.00    -0.050 C 
ATOM     42  H11 THR d   1      -2.881  16.532  -6.631  0.00  0.00     0.031 H 
ATOM     43  H12 THR d   1      -3.743  14.986  -6.935  0.00  0.00     0.031 H 
ATOM     44  H13 THR d   1      -4.537  16.549  -7.326  0.00  0.00     0.031 H 
ENDBRANCH  37  41
ENDBRANCH  19  37
ENDBRANCH  16  19
ENDBRANCH  13  15
BRANCH  13  45
ATOM     45  CB  SER d   1      -7.446  15.367 -13.056  0.00  0.00     0.044 C 
ATOM     46  H16 SER d   1      -6.583  15.660 -13.672  0.00  0.00     0.077 H 
ATOM     47  H17 SER d   1      -8.363  15.805 -13.477  0.00  0.00     0.077 H 
BRANCH  45  48
ATOM     48  OG  SER d   1      -7.562  13.954 -13.064  0.00  0.00    -0.398 OA
ATOM     49  H18 SER d   1      -7.684  13.652 -13.957  0.00  0.00     0.209 HD
ENDBRANCH  45  48
ENDBRANCH  13  45
ENDBRANCH  10  13
ENDBRANCH   7   9
BRANCH   7  50
ATOM     50  CB  ARG d   1      -8.410  13.609  -7.468  0.00  0.00    -0.036 C 
ATOM     51  H21 ARG d   1      -9.168  13.366  -6.709  0.00  0.00     0.036 H 
ATOM     52  H22 ARG d   1      -7.639  14.256  -7.023  0.00  0.00     0.036 H 
BRANCH  50  53
ATOM     53  CG  ARG d   1      -7.750  12.319  -7.912  0.00  0.00    -0.048 C 
ATOM     54  H23 ARG d   1      -7.146  12.525  -8.808  0.00  0.00     0.035 H 
ATOM     55  H24 ARG d   1      -8.536  11.591  -8.160  0.00  0.00     0.035 H 
BRANCH  53  56
ATOM     56  CD  ARG d   1      -6.848  11.714  -6.849  0.00  0.00     0.009 C 
ATOM     57  H25 ARG d   1      -6.713  10.646  -7.074  0.00  0.00     0.064 H 
ATOM     58  H26 ARG d   1      -7.340  11.824  -5.872  0.00  0.00     0.064 H 
BRANCH  56  59
ATOM     59  NE  ARG d   1      -5.524  12.343  -6.775  0.00  0.00    -0.227 N 
ATOM     60  CZ  ARG d   1      -4.509  12.094  -7.605  0.00  0.00     0.665 C 
ATOM     61  NH1 ARG d   1      -4.666  11.261  -8.630  0.00  0.00    -0.235 N 
ATOM     62  NH2 ARG d   1      -3.338  12.693  -7.429  0.00  0.00    -0.235 N 
ATOM     63  H28 ARG d   1      -3.878  11.073  -9.267  0.00  0.00     0.174 HD
ATOM     64  H29 ARG d   1      -5.575  10.803  -8.787  0.00  0.00     0.174 HD
ATOM     65  H30 ARG d   1      -3.204  13.340  -6.639  0.00  0.00     0.174 HD
ATOM     66  H31 ARG d   1      -2.563  12.511  -8.082  0.00  0.00     0.174 HD
ATOM     67  H27 ARG d   1      -5.366  13.030  -6.024  0.00  0.00     0.177 HD
ENDBRANCH  56  59
ENDBRANCH  53  56
ENDBRANCH  50  53
ENDBRANCH   7  50
ENDBRANCH   4   7
ENDBRANCH   1   3
BRANCH   1  68
ATOM     68  C   MET d   1     -10.575  18.667  -8.306  0.00  0.00     0.241 C 
ATOM     69  O   MET d   1     -11.103  19.734  -7.983  0.00  0.00    -0.271 OA
ATOM     70  N   GLU d   1     -10.844  18.028  -9.458  0.00  0.00    -0.346 N 
ATOM     71  H41 GLU d   1     -10.340  17.184  -9.639  0.00  0.00     0.163 HD
BRANCH  70  72
ATOM     72  CA  GLU d   1     -11.806  18.457 -10.466  0.00  0.00     0.090 C 
ATOM     73  H42 GLU d   1     -12.177  19.458 -10.202  0.00  0.00     0.087 H 
BRANCH  72  74
ATOM     74  C   GLU d   1     -12.991  17.483 -10.479  0.00  0.00     0.241 C 
ATOM     75  O   GLU d   1     -14.075  17.835 -10.949  0.00  0.00    -0.271 OA
ATOM     76  N   GLU d   1     -12.783  16.265  -9.931  0.00  0.00    -0.346 N 
ATOM     77  H47 GLU d   1     -11.874  16.068  -9.562  0.00  0.00     0.163 HD
BRANCH  76  78
ATOM     78  CA  GLU d   1     -13.798  15.215  -9.841  0.00  0.00     0.090 C 
ATOM     79  H48 GLU d   1     -14.258  15.105 -10.834  0.00  0.00     0.087 H 
BRANCH  78  80
ATOM     80  C   GLU d   1     -14.893  15.572  -8.841  0.00  0.00     0.241 C 
ATOM     81  O   GLU d   1     -14.624  16.015  -7.728  0.00  0.00    -0.271 OA
ATOM     82  N   VAL d   1     -16.122  15.315  -9.234  0.00  0.00    -0.346 N 
ATOM     83  H53 VAL d   1     -16.247  14.936 -10.151  0.00  0.00     0.163 HD
BRANCH  82  84
ATOM     84  CA  VAL d   1     -17.306  15.542  -8.434  0.00  0.00     0.092 C 
ATOM     85  H54 VAL d   1     -17.131  16.375  -7.737  0.00  0.00     0.088 H 
BRANCH  84  86
ATOM     86  C   VAL d   1     -17.578  14.256  -7.590  0.00  0.00     0.241 C 
ATOM     87  O   VAL d   1     -17.024  13.194  -7.897  0.00  0.00    -0.271 OA
ATOM     88  N   ASP d   1     -18.370  14.380  -6.492  0.00  0.00    -0.344 N 
ATOM     89  H62 ASP d   1     -18.738  15.287  -6.290  0.00  0.00     0.163 HD
BRANCH  88  90
ATOM     90  CA  ASP d   1     -18.728  13.284  -5.578  0.00  0.00     0.105 C 
ATOM     91  H63 ASP d   1     -18.165  12.390  -5.886  0.00  0.00     0.090 H 
BRANCH  90  92
ATOM     92  C   ASP d   1     -20.241  12.937  -5.635  0.00  0.00     0.197 C 
ATOM     93  O   ASP d   1     -20.653  11.929  -5.020  0.00  0.00    -0.646 OA
ATOM     94  OXT ASP d   1     -21.010  13.655  -6.307  0.00  0.00    -0.646 OA
ENDBRANCH  90  92
BRANCH  90  95
ATOM     95  CB  ASP d   1     -18.319  13.640  -4.138  0.00  0.00     0.044 C 
ATOM     96  H64 ASP d   1     -18.585  12.799  -3.480  0.00  0.00     0.053 H 
ATOM     97  H65 ASP d   1     -18.874  14.538  -3.828  0.00  0.00     0.053 H 
BRANCH  95  98
ATOM     98  CG  ASP d   1     -16.839  13.915  -3.994  0.00  0.00     0.175 C 
ATOM     99  OD1 ASP d   1     -16.053  12.943  -3.988  0.00  0.00    -0.648 OA
ATOM    100  OD2 ASP d   1     -16.462  15.105  -3.919  0.00  0.00    -0.648 OA
ENDBRANCH  95  98
ENDBRANCH  90  95
ENDBRANCH  88  90
ENDBRANCH  84  86
BRANCH  84 101
ATOM    101  CB  VAL d   1     -18.434  15.960  -9.419  0.00  0.00    -0.033 C 
ATOM    102  H55 VAL d   1     -18.027  15.826 -10.432  0.00  0.00     0.042 H 
BRANCH 101 103
ATOM    103  CG1 VAL d   1     -19.681  15.083  -9.340  0.00  0.00    -0.071 C 
ATOM    104  H56 VAL d   1     -20.428  15.442 -10.064  0.00  0.00     0.028 H 
ATOM    105  H57 VAL d   1     -20.101  15.133  -8.325  0.00  0.00     0.028 H 
ATOM    106  H58 VAL d   1     -19.413  14.042  -9.575  0.00  0.00     0.028 H 
ENDBRANCH 101 103
BRANCH 101 107
ATOM    107  CG2 VAL d   1     -18.767  17.439  -9.271  0.00  0.00    -0.071 C 
ATOM    108  H59 VAL d   1     -17.842  18.031  -9.334  0.00  0.00     0.028 H 
ATOM    109  H60 VAL d   1     -19.247  17.611  -8.296  0.00  0.00     0.028 H 
ATOM    110  H61 VAL d   1     -19.452  17.743 -10.076  0.00  0.00     0.028 H 
ENDBRANCH 101 107
ENDBRANCH  84 101
ENDBRANCH  82  84
ENDBRANCH  78  80
BRANCH  78 111
ATOM    111  CB  GLU d   1     -13.181  13.864  -9.438  0.00  0.00    -0.029 C 
ATOM    112  H49 GLU d   1     -14.005  13.189  -9.165  0.00  0.00     0.037 H 
ATOM    113  H50 GLU d   1     -12.543  14.037  -8.559  0.00  0.00     0.037 H 
BRANCH 111 114
ATOM    114  CG  GLU d   1     -12.337  13.161 -10.489  0.00  0.00     0.018 C 
ATOM    115  H51 GLU d   1     -11.575  13.867 -10.851  0.00  0.00     0.049 H 
ATOM    116  H52 GLU d   1     -12.993  12.870 -11.323  0.00  0.00     0.049 H 
BRANCH 114 117
ATOM    117  CD  GLU d   1     -11.631  11.914  -9.977  0.00  0.00     0.172 C 
ATOM    118  OE1 GLU d   1     -12.290  11.075  -9.317  0.00  0.00    -0.648 OA
ATOM    119  OE2 GLU d   1     -10.417  11.767 -10.250  0.00  0.00    -0.648 OA
ENDBRANCH 114 117
ENDBRANCH 111 114
ENDBRANCH  78 111
ENDBRANCH  76  78
ENDBRANCH  72  74
BRANCH  72 120
ATOM    120  CB  GLU d   1     -11.129  18.537 -11.842  0.00  0.00    -0.029 C 
ATOM    121  H43 GLU d   1     -11.469  17.681 -12.443  0.00  0.00     0.037 H 
ATOM    122  H44 GLU d   1     -10.041  18.473 -11.695  0.00  0.00     0.037 H 
BRANCH 120 123
ATOM    123  CG  GLU d   1     -11.431  19.813 -12.617  0.00  0.00     0.018 C 
ATOM    124  H45 GLU d   1     -12.517  19.978 -12.562  0.00  0.00     0.049 H 
ATOM    125  H46 GLU d   1     -11.140  19.636 -13.663  0.00  0.00     0.049 H 
BRANCH 123 126
ATOM    126  CD  GLU d   1     -10.756  21.102 -12.174  0.00  0.00     0.172 C 
ATOM    127  OE1 GLU d   1     -11.180  22.177 -12.657  0.00  0.00    -0.648 OA
ATOM    128  OE2 GLU d   1      -9.803  21.046 -11.362  0.00  0.00    -0.648 OA
ENDBRANCH 123 126
ENDBRANCH 120 123
ENDBRANCH  72 120
ENDBRANCH  70  72
ENDBRANCH   1  68
BRANCH   1 129
ATOM    129  CB  MET d   1      -8.366  18.931  -7.091  0.00  0.00    -0.030 C 
ATOM    130  H34 MET d   1      -8.740  19.820  -6.562  0.00  0.00     0.037 H 
ATOM    131  H35 MET d   1      -7.936  19.233  -8.057  0.00  0.00     0.037 H 
BRANCH 129 132
ATOM    132  CG  MET d   1      -7.259  18.307  -6.251  0.00  0.00    -0.021 C 
ATOM    133  H36 MET d   1      -6.433  19.029  -6.169  0.00  0.00     0.049 H 
ATOM    134  H37 MET d   1      -6.903  17.399  -6.760  0.00  0.00     0.049 H 
BRANCH 132 135
ATOM    135  SD  MET d   1      -7.797  17.859  -4.587  0.00  0.00    -0.173 SA
BRANCH 135 136
ATOM    136  CE  MET d   1      -7.776  16.097  -4.715  0.00  0.00    -0.035 C 
ATOM    137  H38 MET d   1      -8.088  15.656  -3.757  0.00  0.00     0.041 H 
ATOM    138  H39 MET d   1      -6.758  15.759  -4.960  0.00  0.00     0.041 H 
ATOM    139  H40 MET d   1      -8.469  15.779  -5.508  0.00  0.00     0.041 H 
ENDBRANCH 135 136
ENDBRANCH 132 135
ENDBRANCH 129 132
ENDBRANCH   1 129
TORSDOF 44
