REMARK  9 active torsions:
REMARK  status: ('A' for Active; 'I' for Inactive)
REMARK    1  A    between atoms: PB_1  and  O3A_5 
REMARK    2  A    between atoms: O3A_5  and  PA_6 
REMARK    3  A    between atoms: PA_6  and  O5'_9 
REMARK    4  A    between atoms: O5'_9  and  C5'_10 
REMARK    5  A    between atoms: C5'_10  and  C4'_11 
REMARK    6  A    between atoms: C3'_13  and  O3'_14 
REMARK    7  A    between atoms: C2'_15  and  O2'_16 
REMARK    8  A    between atoms: C1'_17  and  N9_18 
REMARK    9  A    between atoms: C2_25  and  N2_26 
ROOT
ATOM      1  C4' GDP d   1     108.995 294.213 372.692  0.00  0.00     0.089 C 
ATOM      2  O4' GDP d   1     107.620 294.257 372.304  0.00  0.00    -0.353 OA
ATOM      3  C3' GDP d   1     109.801 294.783 371.536  0.00  0.00     0.091 C 
ATOM      4  C2' GDP d   1     108.828 294.957 370.387  0.00  0.00     0.105 C 
ATOM      5  C1' GDP d   1     107.505 294.397 370.885  0.00  0.00     0.139 C 
ATOM      6  H3  GDP d   1     109.300 293.175 372.889  0.00  0.00     0.090 H 
ATOM      7  H4  GDP d   1     110.238 295.752 371.817  0.00  0.00     0.091 H 
ATOM      8  H6  GDP d   1     108.722 296.021 370.129  0.00  0.00     0.093 H 
ATOM      9  H8  GDP d   1     107.320 293.414 370.428  0.00  0.00     0.122 H 
ENDROOT
BRANCH   5  10
ATOM     10  N9  GDP d   1     106.391 295.314 370.531  0.00  0.00    -0.295 N 
ATOM     11  C8  GDP d   1     105.728 295.323 369.359  0.00  0.00     0.071 A 
ATOM     12  N7  GDP d   1     104.764 296.280 369.346  0.00  0.00    -0.234 NA
ATOM     13  H9  GDP d   1     105.938 294.650 368.529  0.00  0.00     0.144 H 
ATOM     14  C5  GDP d   1     104.803 296.906 370.536  0.00  0.00     0.171 A 
ATOM     15  C6  GDP d   1     104.059 298.011 371.183  0.00  0.00     0.292 A 
ATOM     16  C4  GDP d   1     105.875 296.267 371.314  0.00  0.00     0.161 A 
ATOM     17  O6  GDP d   1     103.135 298.602 370.585  0.00  0.00    -0.265 OA
ATOM     18  N1  GDP d   1     104.407 298.358 372.428  0.00  0.00    -0.154 N 
ATOM     19  C2  GDP d   1     105.399 297.739 373.096  0.00  0.00     0.680 A 
ATOM     20  H10 GDP d   1     103.913 299.103 372.878  0.00  0.00     0.187 HD
ATOM     21  N3  GDP d   1     106.122 296.719 372.566  0.00  0.00    -0.174 N 
ATOM     22  H13 GDP d   1     106.869 296.283 373.125  0.00  0.00     0.186 HD
BRANCH  19  23
ATOM     23  N2  GDP d   1     105.688 298.153 374.354  0.00  0.00    -0.234 N 
ATOM     24  H11 GDP d   1     106.442 297.696 374.886  0.00  0.00     0.174 HD
ATOM     25  H12 GDP d   1     105.153 298.925 374.778  0.00  0.00     0.174 HD
ENDBRANCH  19  23
ENDBRANCH   5  10
BRANCH   4  26
ATOM     26  O2' GDP d   1     109.283 294.230 369.243  0.00  0.00    -0.388 OA
ATOM     27  H7  GDP d   1     109.347 293.308 369.461  0.00  0.00     0.210 HD
ENDBRANCH   4  26
BRANCH   1  28
ATOM     28  C5' GDP d   1     109.207 295.050 373.945  0.00  0.00     0.058 C 
ATOM     29  H1  GDP d   1     109.831 295.921 373.696  0.00  0.00     0.079 H 
ATOM     30  H2  GDP d   1     108.231 295.393 374.319  0.00  0.00     0.079 H 
BRANCH  28  31
ATOM     31  O5' GDP d   1     109.855 294.286 374.960  0.00  0.00    -0.287 OA
BRANCH  31  32
ATOM     32  PA  GDP d   1     110.905 294.999 375.953  0.00  0.00     0.418 P 
ATOM     33  O1A GDP d   1     112.319 294.598 375.604  0.00  0.00    -0.624 OA
ATOM     34  O2A GDP d   1     110.766 296.499 375.887  0.00  0.00    -0.624 OA
BRANCH  32  35
ATOM     35  O3A GDP d   1     110.504 294.446 377.413  0.00  0.00    -0.173 OA
BRANCH  35  36
ATOM     36  PB  GDP d   1     111.291 294.970 378.717  0.00  0.00     0.431 P 
ATOM     37  O1B GDP d   1     111.472 296.458 378.610  0.00  0.00    -0.616 OA
ATOM     38  O2B GDP d   1     110.505 294.684 379.972  0.00  0.00    -0.616 OA
ATOM     39  O3B GDP d   1     112.643 294.302 378.799  0.00  0.00    -0.616 OA
ENDBRANCH  35  36
ENDBRANCH  32  35
ENDBRANCH  31  32
ENDBRANCH  28  31
ENDBRANCH   1  28
BRANCH   3  40
ATOM     40  O3' GDP d   1     110.844 293.879 371.162  0.00  0.00    -0.390 OA
ATOM     41  H5  GDP d   1     110.463 293.050 370.895  0.00  0.00     0.210 HD
ENDBRANCH   3  40
TORSDOF 9
