REMARK  10 active torsions:
REMARK  status: ('A' for Active; 'I' for Inactive)
REMARK    1  A    between atoms: C12_2  and  C13_3 
REMARK       I    between atoms: C12_2  and  N1_4 
REMARK    2  A    between atoms: N1_4  and  C11_5 
REMARK    3  A    between atoms: C5_12  and  O3_19 
REMARK    4  A    between atoms: C3_13  and  O2_17 
REMARK    5  A    between atoms: C1_14  and  O1_15 
REMARK    6  A    between atoms: O1_15  and  C2_16 
REMARK    7  A    between atoms: O2_17  and  C4_18 
REMARK    8  A    between atoms: O3_19  and  C6_20 
REMARK    9  A    between atoms: C17_25  and  O6_28 
REMARK   10  A    between atoms: O6_28  and  C18_29 
ROOT
ATOM      1  C11 LOC d   1     -11.622  16.092 -21.871  0.00  0.00     0.039 C 
ATOM      2  C14 LOC d   1     -12.229  14.709 -21.962  0.00  0.00    -0.020 A 
ATOM      3  C15 LOC d   1     -12.877  14.409 -23.101  0.00  0.00    -0.023 A 
ATOM      4  C10 LOC d   1     -12.593  16.996 -21.106  0.00  0.00    -0.038 C 
ATOM      5  C9  LOC d   1     -12.957  16.498 -19.700  0.00  0.00    -0.038 C 
ATOM      6  C8  LOC d   1     -11.852  15.726 -19.000  0.00  0.00    -0.041 A 
ATOM      7  C7  LOC d   1     -11.254  16.247 -17.843  0.00  0.00    -0.041 A 
ATOM      8  C5  LOC d   1     -10.226  15.578 -17.162  0.00  0.00     0.104 A 
ATOM      9  C3  LOC d   1      -9.747  14.273 -17.654  0.00  0.00     0.136 A 
ATOM     10  C1  LOC d   1     -10.348  13.675 -18.855  0.00  0.00     0.116 A 
ATOM     11  C22 LOC d   1     -11.418  14.416 -19.560  0.00  0.00     0.017 A 
ATOM     12  C21 LOC d   1     -12.091  13.859 -20.781  0.00  0.00    -0.014 A 
ATOM     13  C20 LOC d   1     -12.594  12.632 -20.588  0.00  0.00    -0.069 A 
ATOM     14  C19 LOC d   1     -13.318  11.753 -21.481  0.00  0.00    -0.046 A 
ATOM     15  C17 LOC d   1     -13.736  11.964 -22.728  0.00  0.00     0.118 A 
ATOM     16  C16 LOC d   1     -13.569  13.177 -23.494  0.00  0.00     0.205 A 
ATOM     17  O5  LOC d   1     -14.079  13.196 -24.604  0.00  0.00    -0.285 OA
ATOM     18  H5  LOC d   1     -10.699  16.005 -21.279  0.00  0.00     0.080 H 
ATOM     19  H6  LOC d   1     -12.890  15.203 -23.846  0.00  0.00     0.090 H 
ATOM     20  H7  LOC d   1     -13.520  17.077 -21.692  0.00  0.00     0.036 H 
ATOM     21  H8  LOC d   1     -12.132  17.990 -21.009  0.00  0.00     0.036 H 
ATOM     22  H9  LOC d   1     -13.835  15.841 -19.785  0.00  0.00     0.040 H 
ATOM     23  H10 LOC d   1     -13.211  17.371 -19.081  0.00  0.00     0.040 H 
ATOM     24  H11 LOC d   1     -11.599  17.201 -17.461  0.00  0.00     0.088 H 
ATOM     25  H21 LOC d   1     -12.430  12.228 -19.590  0.00  0.00     0.085 H 
ATOM     26  H22 LOC d   1     -13.557  10.772 -21.072  0.00  0.00     0.087 H 
ENDROOT
BRANCH   1  27
ATOM     27  N1  LOC d   1     -11.246  16.687 -23.151  0.00  0.00    -0.353 N 
ATOM     28  C12 LOC d   1     -10.071  16.437 -23.743  0.00  0.00     0.214 C 
ATOM     29  O4  LOC d   1      -9.207  15.718 -23.258  0.00  0.00    -0.274 OA
ATOM     30  H4  LOC d   1     -11.890  17.304 -23.602  0.00  0.00     0.163 HD
BRANCH  28  31
ATOM     31  C13 LOC d   1      -9.862  17.108 -25.069  0.00  0.00    -0.003 C 
ATOM     32  H1  LOC d   1     -10.751  17.704 -25.322  0.00  0.00     0.040 H 
ATOM     33  H2  LOC d   1      -9.699  16.345 -25.844  0.00  0.00     0.040 H 
ATOM     34  H3  LOC d   1      -8.983  17.767 -25.012  0.00  0.00     0.040 H 
ENDBRANCH  28  31
ENDBRANCH   1  27
BRANCH  15  35
ATOM     35  O6  LOC d   1     -14.455  10.901 -23.421  0.00  0.00    -0.352 OA
BRANCH  35  36
ATOM     36  C18 LOC d   1     -14.375   9.508 -23.098  0.00  0.00     0.011 C 
ATOM     37  H23 LOC d   1     -15.020   8.936 -23.781  0.00  0.00     0.067 H 
ATOM     38  H24 LOC d   1     -14.709   9.352 -22.062  0.00  0.00     0.067 H 
ATOM     39  H25 LOC d   1     -13.335   9.166 -23.203  0.00  0.00     0.067 H 
ENDBRANCH  35  36
ENDBRANCH  15  35
BRANCH  10  40
ATOM     40  O1  LOC d   1      -9.883  12.472 -19.296  0.00  0.00    -0.352 OA
BRANCH  40  41
ATOM     41  C2  LOC d   1      -8.727  12.457 -20.135  0.00  0.00     0.011 C 
ATOM     42  H12 LOC d   1      -8.482  11.419 -20.403  0.00  0.00     0.067 H 
ATOM     43  H13 LOC d   1      -7.879  12.908 -19.599  0.00  0.00     0.067 H 
ATOM     44  H14 LOC d   1      -8.930  13.033 -21.050  0.00  0.00     0.067 H 
ENDBRANCH  40  41
ENDBRANCH  10  40
BRANCH   9  45
ATOM     45  O2  LOC d   1      -8.775  13.595 -16.980  0.00  0.00    -0.351 OA
BRANCH  45  46
ATOM     46  C4  LOC d   1      -9.202  12.609 -16.045  0.00  0.00     0.011 C 
ATOM     47  H15 LOC d   1      -8.323  12.143 -15.576  0.00  0.00     0.067 H 
ATOM     48  H16 LOC d   1      -9.791  11.840 -16.566  0.00  0.00     0.067 H 
ATOM     49  H17 LOC d   1      -9.822  13.083 -15.270  0.00  0.00     0.067 H 
ENDBRANCH  45  46
ENDBRANCH   9  45
BRANCH   8  50
ATOM     50  O3  LOC d   1      -9.613  16.052 -16.025  0.00  0.00    -0.353 OA
BRANCH  50  51
ATOM     51  C6  LOC d   1      -9.827  17.351 -15.473  0.00  0.00     0.010 C 
ATOM     52  H18 LOC d   1      -9.215  17.470 -14.567  0.00  0.00     0.066 H 
ATOM     53  H19 LOC d   1     -10.890  17.469 -15.215  0.00  0.00     0.066 H 
ATOM     54  H20 LOC d   1      -9.541  18.115 -16.211  0.00  0.00     0.066 H 
ENDBRANCH  50  51
ENDBRANCH   8  50
TORSDOF 10
