REMARK WARNING: 32 MAX_TORS EXCEEDED!!!
REMARK  43 active torsions:
REMARK  status: ('A' for Active; 'I' for Inactive)
REMARK    1  A    between atoms: N_1  and  CA_2 
REMARK    2  A    between atoms: CA_2  and  C_3 
REMARK    3  A    between atoms: CA_2  and  CB_5 
REMARK       I    between atoms: C_3  and  N_7 
REMARK    4  A    between atoms: CB_5  and  OG_6 
REMARK    5  A    between atoms: N_7  and  CA_8 
REMARK    6  A    between atoms: CA_8  and  C_9 
REMARK    7  A    between atoms: CA_8  and  CB_11 
REMARK       I    between atoms: C_9  and  N_15 
REMARK    8  A    between atoms: CB_11  and  CG_12 
REMARK    9  A    between atoms: CG_12  and  CD1_13 
REMARK   10  A    between atoms: CG_12  and  CD2_14 
REMARK   11  A    between atoms: N_15  and  CA_16 
REMARK   12  A    between atoms: CA_16  and  C_17 
REMARK   13  A    between atoms: CA_16  and  CB_19 
REMARK       I    between atoms: C_17  and  N_27 
REMARK   14  A    between atoms: CB_19  and  CG_20 
REMARK   15  A    between atoms: CZ_25  and  OH_26 
REMARK   16  A    between atoms: N_27  and  CA_28 
REMARK   17  A    between atoms: CA_28  and  C_29 
REMARK   18  A    between atoms: CA_28  and  CB_31 
REMARK       I    between atoms: C_29  and  N_35 
REMARK   19  A    between atoms: CB_31  and  CG_32 
REMARK       I    between atoms: CG_32  and  ND2_34 
REMARK   20  A    between atoms: N_35  and  CA_36 
REMARK   21  A    between atoms: CA_36  and  C_37 
REMARK   22  A    between atoms: CA_36  and  CB_39 
REMARK       I    between atoms: C_37  and  N_42 
REMARK   23  A    between atoms: CB_39  and  OG1_40 
REMARK   24  A    between atoms: CB_39  and  CG2_41 
REMARK   25  A    between atoms: N_42  and  CA_43 
REMARK   26  A    between atoms: CA_43  and  C_44 
REMARK   27  A    between atoms: CA_43  and  CB_46 
REMARK       I    between atoms: C_44  and  N_49 
REMARK   28  A    between atoms: CB_46  and  CG1_47 
REMARK   29  A    between atoms: CB_46  and  CG2_48 
REMARK   30  A    between atoms: N_49  and  CA_50 
REMARK   31  A    between atoms: CA_50  and  C_51 
REMARK   32  A    between atoms: CA_50  and  CB_53 
REMARK       I    between atoms: C_51  and  N_54 
REMARK   33  A    between atoms: N_54  and  CA_55 
REMARK   34  A    between atoms: CA_55  and  C_56 
REMARK   35  A    between atoms: CA_55  and  CB_58 
REMARK       I    between atoms: C_56  and  N_61 
REMARK   36  A    between atoms: CB_58  and  OG1_59 
REMARK   37  A    between atoms: CB_58  and  CG2_60 
REMARK   38  A    between atoms: N_61  and  CA_62 
REMARK   39  A    between atoms: CA_62  and  C_63 
REMARK   40  A    between atoms: CA_62  and  CB_65 
REMARK   41  A    between atoms: CB_65  and  CG_66 
REMARK   42  A    between atoms: CG_66  and  CD1_67 
REMARK   43  A    between atoms: CG_66  and  CD2_68 
ROOT
ATOM      1  CA  THR d   1      58.518  35.567  25.341  0.00  0.00     0.113 C 
ATOM      2  H35 THR d   1      57.628  36.210  25.404  0.00  0.00     0.091 H 
ENDROOT
BRANCH   1   3
ATOM      3  N   THR d   1      58.985  35.346  26.706  0.00  0.00    -0.344 N 
ATOM      4  C   ASN d   1      58.177  35.365  27.765  0.00  0.00     0.241 C 
ATOM      5  O   ASN d   1      56.963  35.284  27.666  0.00  0.00    -0.271 OA
ATOM      6  H34 THR d   1      59.959  35.172  26.853  0.00  0.00     0.163 HD
BRANCH   4   7
ATOM      7  CA  ASN d   1      58.816  35.460  29.157  0.00  0.00     0.097 C 
ATOM      8  H29 ASN d   1      57.993  35.446  29.887  0.00  0.00     0.088 H 
BRANCH   7   9
ATOM      9  N   ASN d   1      59.669  34.315  29.486  0.00  0.00    -0.346 N 
ATOM     10  C   TYR d   1      59.142  33.168  29.873  0.00  0.00     0.241 C 
ATOM     11  O   TYR d   1      57.946  33.063  30.135  0.00  0.00    -0.271 OA
ATOM     12  H28 ASN d   1      60.663  34.403  29.417  0.00  0.00     0.163 HD
BRANCH  10  13
ATOM     13  CA  TYR d   1      60.111  32.002  30.149  0.00  0.00     0.093 C 
ATOM     14  H20 TYR d   1      61.108  32.428  30.335  0.00  0.00     0.088 H 
BRANCH  13  15
ATOM     15  N   TYR d   1      59.701  31.226  31.309  0.00  0.00    -0.346 N 
ATOM     16  C   LEU d   1      59.853  31.717  32.531  0.00  0.00     0.241 C 
ATOM     17  O   LEU d   1      60.141  32.886  32.769  0.00  0.00    -0.271 OA
ATOM     18  H19 TYR d   1      59.302  30.317  31.184  0.00  0.00     0.163 HD
BRANCH  16  19
ATOM     19  CA  LEU d   1      59.642  30.802  33.657  0.00  0.00     0.089 C 
ATOM     20  H9  LEU d   1      59.596  29.754  33.326  0.00  0.00     0.087 H 
BRANCH  19  21
ATOM     21  N   LEU d   1      60.803  31.024  34.501  0.00  0.00    -0.346 N 
ATOM     22  C   SER d   1      60.846  30.393  35.642  0.00  0.00     0.251 C 
ATOM     23  O   SER d   1      60.125  29.493  35.846  0.00  0.00    -0.271 OA
ATOM     24  H8  LEU d   1      61.541  31.637  34.218  0.00  0.00     0.163 HD
BRANCH  22  25
ATOM     25  CA  SER d   1      61.873  30.698  36.668  0.00  0.00     0.195 C 
ATOM     26  H4  SER d   1      61.658  30.186  37.617  0.00  0.00     0.102 H 
BRANCH  25  27
ATOM     27  N   SER d   1      63.035  30.106  35.988  0.00  0.00    -0.064 N 
ATOM     28  H1  SER d   1      63.856  30.224  36.561  0.00  0.00     0.275 HD
ATOM     29  H2  SER d   1      63.175  30.565  35.102  0.00  0.00     0.275 HD
ATOM     30  H3  SER d   1      62.870  29.123  35.835  0.00  0.00     0.275 HD
ENDBRANCH  25  27
BRANCH  25  31
ATOM     31  CB  SER d   1      62.028  32.183  36.945  0.00  0.00     0.051 C 
ATOM     32  H5  SER d   1      62.704  32.627  36.199  0.00  0.00     0.077 H 
ATOM     33  H6  SER d   1      62.447  32.327  37.952  0.00  0.00     0.077 H 
BRANCH  31  34
ATOM     34  OG  SER d   1      60.771  32.803  36.867  0.00  0.00    -0.398 OA
ATOM     35  H7  SER d   1      60.189  32.418  37.511  0.00  0.00     0.209 HD
ENDBRANCH  31  34
ENDBRANCH  25  31
ENDBRANCH  22  25
ENDBRANCH  19  21
BRANCH  19  36
ATOM     36  CB  LEU d   1      58.315  31.193  34.355  0.00  0.00    -0.035 C 
ATOM     37  H10 LEU d   1      58.274  32.292  34.346  0.00  0.00     0.037 H 
ATOM     38  H11 LEU d   1      58.396  30.837  35.393  0.00  0.00     0.037 H 
BRANCH  36  39
ATOM     39  CG  LEU d   1      56.950  30.706  33.837  0.00  0.00    -0.059 C 
ATOM     40  H12 LEU d   1      56.863  30.995  32.779  0.00  0.00     0.038 H 
BRANCH  39  41
ATOM     41  CD1 LEU d   1      56.757  29.227  33.954  0.00  0.00    -0.073 C 
ATOM     42  H13 LEU d   1      55.764  28.955  33.566  0.00  0.00     0.028 H 
ATOM     43  H14 LEU d   1      56.832  28.930  35.010  0.00  0.00     0.028 H 
ATOM     44  H15 LEU d   1      57.533  28.709  33.371  0.00  0.00     0.028 H 
ENDBRANCH  39  41
BRANCH  39  45
ATOM     45  CD2 LEU d   1      55.818  31.344  34.636  0.00  0.00    -0.073 C 
ATOM     46  H16 LEU d   1      55.907  32.439  34.587  0.00  0.00     0.028 H 
ATOM     47  H17 LEU d   1      55.880  31.017  35.685  0.00  0.00     0.028 H 
ATOM     48  H18 LEU d   1      54.851  31.035  34.212  0.00  0.00     0.028 H 
ENDBRANCH  39  45
ENDBRANCH  36  39
ENDBRANCH  19  36
ENDBRANCH  16  19
ENDBRANCH  13  15
BRANCH  13  49
ATOM     49  CB  TYR d   1      60.201  31.040  28.999  0.00  0.00    -0.014 C 
ATOM     50  H21 TYR d   1      59.200  30.618  28.830  0.00  0.00     0.043 H 
ATOM     51  H22 TYR d   1      60.895  30.235  29.282  0.00  0.00     0.043 H 
BRANCH  49  52
ATOM     52  CG  TYR d   1      60.665  31.613  27.744  0.00  0.00    -0.056 A 
ATOM     53  CD1 TYR d   1      61.743  32.446  27.675  0.00  0.00    -0.074 A 
ATOM     54  CE1 TYR d   1      62.154  32.948  26.468  0.00  0.00    -0.051 A 
ATOM     55  H23 TYR d   1      62.277  32.712  28.580  0.00  0.00     0.084 H 
ATOM     56  CZ  TYR d   1      61.503  32.602  25.332  0.00  0.00     0.065 A 
ATOM     57  H25 TYR d   1      63.001  33.623  26.422  0.00  0.00     0.087 H 
ATOM     58  CE2 TYR d   1      60.470  31.761  25.370  0.00  0.00    -0.051 A 
ATOM     59  CD2 TYR d   1      60.061  31.262  26.590  0.00  0.00    -0.074 A 
ATOM     60  H26 TYR d   1      59.959  31.474  24.458  0.00  0.00     0.087 H 
ATOM     61  H24 TYR d   1      59.230  30.567  26.622  0.00  0.00     0.084 H 
BRANCH  56  62
ATOM     62  OH  TYR d   1      61.841  33.041  24.117  0.00  0.00    -0.361 OA
ATOM     63  H27 TYR d   1      61.105  33.502  23.732  0.00  0.00     0.217 HD
ENDBRANCH  56  62
ENDBRANCH  49  52
ENDBRANCH  13  49
ENDBRANCH  10  13
ENDBRANCH   7   9
BRANCH   7  64
ATOM     64  CB  ASN d   1      59.514  36.805  29.305  0.00  0.00     0.036 C 
ATOM     65  H30 ASN d   1      59.688  36.987  30.376  0.00  0.00     0.051 H 
ATOM     66  H31 ASN d   1      58.849  37.584  28.904  0.00  0.00     0.051 H 
BRANCH  64  67
ATOM     67  CG  ASN d   1      60.855  36.902  28.580  0.00  0.00     0.217 C 
ATOM     68  OD1 ASN d   1      61.294  37.995  28.300  0.00  0.00    -0.274 OA
ATOM     69  ND2 ASN d   1      61.524  35.797  28.339  0.00  0.00    -0.370 N 
ATOM     70  H32 ASN d   1      62.404  35.838  27.866  0.00  0.00     0.159 HD
ATOM     71  H33 ASN d   1      61.153  34.915  28.629  0.00  0.00     0.159 HD
ENDBRANCH  64  67
ENDBRANCH   7  64
ENDBRANCH   4   7
ENDBRANCH   1   3
BRANCH   1  72
ATOM     72  C   THR d   1      58.090  34.277  24.586  0.00  0.00     0.243 C 
ATOM     73  O   THR d   1      58.582  33.990  23.498  0.00  0.00    -0.271 OA
ATOM     74  N   VAL d   1      57.121  33.568  25.177  0.00  0.00    -0.346 N 
ATOM     75  H41 VAL d   1      56.725  33.936  26.018  0.00  0.00     0.163 HD
BRANCH  74  76
ATOM     76  CA  VAL d   1      56.604  32.308  24.689  0.00  0.00     0.092 C 
ATOM     77  H42 VAL d   1      57.450  31.679  24.374  0.00  0.00     0.088 H 
BRANCH  76  78
ATOM     78  C   VAL d   1      55.699  32.549  23.541  0.00  0.00     0.241 C 
ATOM     79  O   VAL d   1      54.776  33.323  23.659  0.00  0.00    -0.271 OA
ATOM     80  N   ALA d   1      55.913  31.801  22.471  0.00  0.00    -0.346 N 
ATOM     81  H50 ALA d   1      56.446  30.960  22.560  0.00  0.00     0.163 HD
BRANCH  80  82
ATOM     82  CA  ALA d   1      55.402  32.168  21.200  0.00  0.00     0.086 C 
ATOM     83  H51 ALA d   1      55.161  33.241  21.226  0.00  0.00     0.086 H 
BRANCH  82  84
ATOM     84  C   ALA d   1      54.150  31.427  20.868  0.00  0.00     0.240 C 
ATOM     85  O   ALA d   1      54.011  30.234  21.198  0.00  0.00    -0.271 OA
ATOM     86  N   THR d   1      53.271  32.120  20.141  0.00  0.00    -0.344 N 
ATOM     87  H55 THR d   1      53.438  33.093  19.981  0.00  0.00     0.163 HD
BRANCH  86  88
ATOM     88  CA  THR d   1      52.074  31.507  19.571  0.00  0.00     0.113 C 
ATOM     89  H56 THR d   1      51.652  30.809  20.309  0.00  0.00     0.091 H 
BRANCH  88  90
ATOM     90  C   THR d   1      52.408  30.807  18.325  0.00  0.00     0.243 C 
ATOM     91  O   THR d   1      53.416  31.087  17.724  0.00  0.00    -0.271 OA
ATOM     92  N   LEU d   1      51.478  29.948  17.925  0.00  0.00    -0.345 N 
ATOM     93  H62 LEU d   1      50.707  29.773  18.537  0.00  0.00     0.163 HD
BRANCH  92  94
ATOM     94  CA  LEU d   1      51.514  29.229  16.619  0.00  0.00     0.096 C 
ATOM     95  H63 LEU d   1      52.509  28.762  16.575  0.00  0.00     0.089 H 
BRANCH  94  96
ATOM     96  C   LEU d   1      51.412  30.108  15.304  0.00  0.00     0.196 C 
ATOM     97  O   LEU d   1      51.368  31.350  15.400  0.00  0.00    -0.646 OA
ATOM     98  OXT LEU d   1      51.440  29.539  14.145  0.00  0.00    -0.646 OA
ENDBRANCH  94  96
BRANCH  94  99
ATOM     99  CB  LEU d   1      50.472  28.052  16.596  0.00  0.00    -0.034 C 
ATOM    100  H64 LEU d   1      50.102  27.973  15.563  0.00  0.00     0.037 H 
ATOM    101  H65 LEU d   1      49.645  28.344  17.261  0.00  0.00     0.037 H 
BRANCH  99 102
ATOM    102  CG  LEU d   1      50.909  26.649  17.020  0.00  0.00    -0.059 C 
ATOM    103  H66 LEU d   1      51.402  26.163  16.165  0.00  0.00     0.038 H 
BRANCH 102 104
ATOM    104  CD1 LEU d   1      51.855  26.661  18.180  0.00  0.00    -0.073 C 
ATOM    105  H67 LEU d   1      52.132  25.628  18.438  0.00  0.00     0.028 H 
ATOM    106  H68 LEU d   1      51.369  27.137  19.045  0.00  0.00     0.028 H 
ATOM    107  H69 LEU d   1      52.759  27.227  17.910  0.00  0.00     0.028 H 
ENDBRANCH 102 104
BRANCH 102 108
ATOM    108  CD2 LEU d   1      49.700  25.856  17.420  0.00  0.00    -0.073 C 
ATOM    109  H70 LEU d   1      48.985  25.830  16.584  0.00  0.00     0.028 H 
ATOM    110  H71 LEU d   1      49.225  26.326  18.294  0.00  0.00     0.028 H 
ATOM    111  H72 LEU d   1      50.003  24.830  17.675  0.00  0.00     0.028 H 
ENDBRANCH 102 108
ENDBRANCH  99 102
ENDBRANCH  94  99
ENDBRANCH  92  94
ENDBRANCH  88  90
BRANCH  88 112
ATOM    112  CB  THR d   1      51.008  32.511  19.136  0.00  0.00     0.060 C 
ATOM    113  H57 THR d   1      50.318  32.021  18.434  0.00  0.00     0.086 H 
BRANCH 112 114
ATOM    114  OG1 THR d   1      51.641  33.605  18.472  0.00  0.00    -0.393 OA
ATOM    115  H58 THR d   1      52.252  34.024  19.067  0.00  0.00     0.210 HD
ENDBRANCH 112 114
BRANCH 112 116
ATOM    116  CG2 THR d   1      50.241  32.972  20.307  0.00  0.00    -0.050 C 
ATOM    117  H59 THR d   1      49.477  33.694  19.984  0.00  0.00     0.031 H 
ATOM    118  H60 THR d   1      50.921  33.455  21.024  0.00  0.00     0.031 H 
ATOM    119  H61 THR d   1      49.752  32.111  20.787  0.00  0.00     0.031 H 
ENDBRANCH 112 116
ENDBRANCH  88 112
ENDBRANCH  86  88
ENDBRANCH  82  84
BRANCH  82 120
ATOM    120  CB  ALA d   1      56.468  31.943  20.134  0.00  0.00    -0.049 C 
ATOM    121  H52 ALA d   1      56.068  32.229  19.150  0.00  0.00     0.030 H 
ATOM    122  H53 ALA d   1      56.754  30.881  20.119  0.00  0.00     0.030 H 
ATOM    123  H54 ALA d   1      57.351  32.557  20.363  0.00  0.00     0.030 H 
ENDBRANCH  82 120
ENDBRANCH  80  82
ENDBRANCH  76  78
BRANCH  76 124
ATOM    124  CB  VAL d   1      55.761  31.541  25.765  0.00  0.00    -0.033 C 
ATOM    125  H43 VAL d   1      56.412  31.385  26.638  0.00  0.00     0.042 H 
BRANCH 124 126
ATOM    126  CG1 VAL d   1      54.519  32.314  26.257  0.00  0.00    -0.071 C 
ATOM    127  H44 VAL d   1      53.985  31.711  27.006  0.00  0.00     0.028 H 
ATOM    128  H45 VAL d   1      53.852  32.516  25.406  0.00  0.00     0.028 H 
ATOM    129  H46 VAL d   1      54.835  33.265  26.710  0.00  0.00     0.028 H 
ENDBRANCH 124 126
BRANCH 124 130
ATOM    130  CG2 VAL d   1      55.354  30.165  25.228  0.00  0.00    -0.071 C 
ATOM    131  H47 VAL d   1      56.249  29.627  24.882  0.00  0.00     0.028 H 
ATOM    132  H48 VAL d   1      54.654  30.291  24.389  0.00  0.00     0.028 H 
ATOM    133  H49 VAL d   1      54.867  29.589  26.028  0.00  0.00     0.028 H 
ENDBRANCH 124 130
ENDBRANCH  76 124
ENDBRANCH  74  76
ENDBRANCH   1  72
BRANCH   1 134
ATOM    134  CB  THR d   1      59.582  36.319  24.555  0.00  0.00     0.060 C 
ATOM    135  H36 THR d   1      59.341  36.295  23.482  0.00  0.00     0.086 H 
BRANCH 134 136
ATOM    136  OG1 THR d   1      60.877  35.765  24.784  0.00  0.00    -0.393 OA
ATOM    137  H37 THR d   1      60.884  34.855  24.512  0.00  0.00     0.210 HD
ENDBRANCH 134 136
BRANCH 134 138
ATOM    138  CG2 THR d   1      59.635  37.687  25.042  0.00  0.00    -0.050 C 
ATOM    139  H38 THR d   1      60.401  38.246  24.483  0.00  0.00     0.031 H 
ATOM    140  H39 THR d   1      59.890  37.686  26.112  0.00  0.00     0.031 H 
ATOM    141  H40 THR d   1      58.655  38.165  24.899  0.00  0.00     0.031 H 
ENDBRANCH 134 138
ENDBRANCH   1 134
TORSDOF 43
