REMARK WARNING: 32 MAX_TORS EXCEEDED!!!
REMARK  44 active torsions:
REMARK  status: ('A' for Active; 'I' for Inactive)
REMARK    1  A    between atoms: N_1  and  CA_2 
REMARK    2  A    between atoms: CA_2  and  C_3 
REMARK    3  A    between atoms: CA_2  and  CB_5 
REMARK       I    between atoms: C_3  and  N_7 
REMARK    4  A    between atoms: CB_5  and  OG_6 
REMARK    5  A    between atoms: N_7  and  CA_8 
REMARK    6  A    between atoms: CA_8  and  C_9 
REMARK    7  A    between atoms: CA_8  and  CB_11 
REMARK       I    between atoms: C_9  and  N_15 
REMARK    8  A    between atoms: CB_11  and  CG_12 
REMARK    9  A    between atoms: CG_12  and  CD1_13 
REMARK   10  A    between atoms: CG_12  and  CD2_14 
REMARK   11  A    between atoms: N_15  and  CA_16 
REMARK   12  A    between atoms: CA_16  and  C_17 
REMARK   13  A    between atoms: CA_16  and  CB_19 
REMARK       I    between atoms: C_17  and  N_27 
REMARK   14  A    between atoms: CB_19  and  CG_20 
REMARK   15  A    between atoms: CZ_25  and  OH_26 
REMARK   16  A    between atoms: N_27  and  CA_28 
REMARK   17  A    between atoms: CA_28  and  C_29 
REMARK   18  A    between atoms: CA_28  and  CB_31 
REMARK       I    between atoms: C_29  and  N_35 
REMARK   19  A    between atoms: CB_31  and  CG_32 
REMARK       I    between atoms: CG_32  and  ND2_34 
REMARK   20  A    between atoms: N_35  and  CA_36 
REMARK   21  A    between atoms: CA_36  and  C_37 
REMARK   22  A    between atoms: CA_36  and  CB_39 
REMARK       I    between atoms: C_37  and  N_42 
REMARK   23  A    between atoms: CB_39  and  OG1_40 
REMARK   24  A    between atoms: CB_39  and  CG2_41 
REMARK   25  A    between atoms: N_42  and  CA_43 
REMARK   26  A    between atoms: CA_43  and  C_44 
REMARK   27  A    between atoms: CA_43  and  CB_46 
REMARK       I    between atoms: C_44  and  N_50 
REMARK   28  A    between atoms: CB_46  and  CG1_47 
REMARK   29  A    between atoms: CB_46  and  CG2_48 
REMARK   30  A    between atoms: CG1_47  and  CD1_49 
REMARK   31  A    between atoms: N_50  and  CA_51 
REMARK   32  A    between atoms: CA_51  and  C_52 
REMARK   33  A    between atoms: CA_51  and  CB_54 
REMARK       I    between atoms: C_52  and  N_55 
REMARK   34  A    between atoms: N_55  and  CA_56 
REMARK   35  A    between atoms: CA_56  and  C_57 
REMARK   36  A    between atoms: CA_56  and  CB_59 
REMARK       I    between atoms: C_57  and  N_62 
REMARK   37  A    between atoms: CB_59  and  OG1_60 
REMARK   38  A    between atoms: CB_59  and  CG2_61 
REMARK   39  A    between atoms: N_62  and  CA_63 
REMARK   40  A    between atoms: CA_63  and  C_64 
REMARK   41  A    between atoms: CA_63  and  CB_66 
REMARK   42  A    between atoms: CB_66  and  CG_67 
REMARK   43  A    between atoms: CG_67  and  CD1_68 
REMARK   44  A    between atoms: CG_67  and  CD2_69 
ROOT
ATOM      1  CA  THR d   1       7.803  25.362  -3.570  0.00  0.00     0.113 C 
ATOM      2  H35 THR d   1       8.444  24.850  -4.303  0.00  0.00     0.091 H 
ENDROOT
BRANCH   1   3
ATOM      3  N   THR d   1       7.204  24.365  -2.669  0.00  0.00    -0.344 N 
ATOM      4  C   ASN d   1       7.644  23.115  -2.506  0.00  0.00     0.241 C 
ATOM      5  O   ASN d   1       8.779  22.759  -2.791  0.00  0.00    -0.271 OA
ATOM      6  H34 THR d   1       6.405  24.645  -2.137  0.00  0.00     0.163 HD
BRANCH   4   7
ATOM      7  CA  ASN d   1       6.671  22.138  -1.842  0.00  0.00     0.097 C 
ATOM      8  H29 ASN d   1       7.292  21.279  -1.548  0.00  0.00     0.088 H 
BRANCH   7   9
ATOM      9  N   ASN d   1       6.032  22.573  -0.588  0.00  0.00    -0.346 N 
ATOM     10  C   TYR d   1       6.608  22.373   0.587  0.00  0.00     0.241 C 
ATOM     11  O   TYR d   1       7.643  21.809   0.686  0.00  0.00    -0.271 OA
ATOM     12  H28 ASN d   1       5.143  23.030  -0.625  0.00  0.00     0.163 HD
BRANCH  10  13
ATOM     13  CA  TYR d   1       5.914  22.811   1.866  0.00  0.00     0.093 C 
ATOM     14  H20 TYR d   1       4.824  22.774   1.720  0.00  0.00     0.088 H 
BRANCH  13  15
ATOM     15  N   TYR d   1       6.311  21.893   2.945  0.00  0.00    -0.346 N 
ATOM     16  C   LEU d   1       5.789  20.690   3.073  0.00  0.00     0.241 C 
ATOM     17  O   LEU d   1       5.001  20.230   2.234  0.00  0.00    -0.271 OA
ATOM     18  H19 TYR d   1       7.001  22.192   3.604  0.00  0.00     0.163 HD
BRANCH  16  19
ATOM     19  CA  LEU d   1       6.220  19.897   4.329  0.00  0.00     0.089 C 
ATOM     20  H9  LEU d   1       6.362  20.601   5.162  0.00  0.00     0.087 H 
BRANCH  19  21
ATOM     21  N   LEU d   1       5.227  18.920   4.675  0.00  0.00    -0.346 N 
ATOM     22  C   SER d   1       4.147  19.139   5.414  0.00  0.00     0.251 C 
ATOM     23  O   SER d   1       3.687  20.255   5.652  0.00  0.00    -0.271 OA
ATOM     24  H8  LEU d   1       5.361  17.992   4.328  0.00  0.00     0.163 HD
BRANCH  22  25
ATOM     25  CA  SER d   1       3.444  17.840   5.843  0.00  0.00     0.195 C 
ATOM     26  H4  SER d   1       4.166  17.021   5.710  0.00  0.00     0.102 H 
BRANCH  25  27
ATOM     27  N   SER d   1       3.044  17.834   7.264  0.00  0.00    -0.064 N 
ATOM     28  H1  SER d   1       2.591  16.960   7.482  0.00  0.00     0.275 HD
ATOM     29  H2  SER d   1       2.406  18.595   7.437  0.00  0.00     0.275 HD
ATOM     30  H3  SER d   1       3.861  17.942   7.844  0.00  0.00     0.275 HD
ENDBRANCH  25  27
BRANCH  25  31
ATOM     31  CB  SER d   1       2.247  17.554   4.928  0.00  0.00     0.051 C 
ATOM     32  H5  SER d   1       1.555  18.409   4.962  0.00  0.00     0.077 H 
ATOM     33  H6  SER d   1       1.730  16.650   5.282  0.00  0.00     0.077 H 
BRANCH  31  34
ATOM     34  OG  SER d   1       2.673  17.352   3.587  0.00  0.00    -0.398 OA
ATOM     35  H7  SER d   1       3.268  16.613   3.553  0.00  0.00     0.209 HD
ENDBRANCH  31  34
ENDBRANCH  25  31
ENDBRANCH  22  25
ENDBRANCH  19  21
BRANCH  19  36
ATOM     36  CB  LEU d   1       7.499  19.119   4.091  0.00  0.00    -0.035 C 
ATOM     37  H10 LEU d   1       7.688  19.079   3.008  0.00  0.00     0.037 H 
ATOM     38  H11 LEU d   1       7.364  18.098   4.477  0.00  0.00     0.037 H 
BRANCH  36  39
ATOM     39  CG  LEU d   1       8.699  19.731   4.764  0.00  0.00    -0.059 C 
ATOM     40  H12 LEU d   1       8.366  20.561   5.404  0.00  0.00     0.038 H 
BRANCH  39  41
ATOM     41  CD1 LEU d   1       9.443  18.720   5.621  0.00  0.00    -0.073 C 
ATOM     42  H13 LEU d   1      10.309  19.206   6.093  0.00  0.00     0.028 H 
ATOM     43  H14 LEU d   1       9.788  17.888   4.990  0.00  0.00     0.028 H 
ATOM     44  H15 LEU d   1       8.770  18.334   6.401  0.00  0.00     0.028 H 
ENDBRANCH  39  41
BRANCH  39  45
ATOM     45  CD2 LEU d   1       9.621  20.258   3.699  0.00  0.00    -0.073 C 
ATOM     46  H16 LEU d   1       9.084  20.990   3.078  0.00  0.00     0.028 H 
ATOM     47  H17 LEU d   1       9.966  19.426   3.068  0.00  0.00     0.028 H 
ATOM     48  H18 LEU d   1      10.487  20.744   4.172  0.00  0.00     0.028 H 
ENDBRANCH  39  45
ENDBRANCH  36  39
ENDBRANCH  19  36
ENDBRANCH  16  19
ENDBRANCH  13  15
BRANCH  13  49
ATOM     49  CB  TYR d   1       6.322  24.218   2.278  0.00  0.00    -0.014 C 
ATOM     50  H21 TYR d   1       7.399  24.203   2.499  0.00  0.00     0.043 H 
ATOM     51  H22 TYR d   1       5.764  24.475   3.190  0.00  0.00     0.043 H 
BRANCH  49  52
ATOM     52  CG  TYR d   1       6.078  25.302   1.274  0.00  0.00    -0.056 A 
ATOM     53  CD1 TYR d   1       4.898  25.403   0.557  0.00  0.00    -0.074 A 
ATOM     54  CE1 TYR d   1       4.713  26.437  -0.350  0.00  0.00    -0.051 A 
ATOM     55  H23 TYR d   1       4.114  24.670   0.705  0.00  0.00     0.084 H 
ATOM     56  CZ  TYR d   1       5.686  27.382  -0.518  0.00  0.00     0.065 A 
ATOM     57  H25 TYR d   1       3.796  26.495  -0.925  0.00  0.00     0.087 H 
ATOM     58  CE2 TYR d   1       6.820  27.304   0.188  0.00  0.00    -0.051 A 
ATOM     59  CD2 TYR d   1       7.014  26.280   1.088  0.00  0.00    -0.074 A 
ATOM     60  H26 TYR d   1       7.592  28.053   0.050  0.00  0.00     0.087 H 
ATOM     61  H24 TYR d   1       7.932  26.249   1.663  0.00  0.00     0.084 H 
BRANCH  56  62
ATOM     62  OH  TYR d   1       5.589  28.433  -1.366  0.00  0.00    -0.361 OA
ATOM     63  H27 TYR d   1       6.295  28.392  -2.001  0.00  0.00     0.217 HD
ENDBRANCH  56  62
ENDBRANCH  49  52
ENDBRANCH  13  49
ENDBRANCH  10  13
ENDBRANCH   7   9
BRANCH   7  64
ATOM     64  CB  ASN d   1       5.662  21.587  -2.879  0.00  0.00     0.036 C 
ATOM     65  H30 ASN d   1       5.218  20.670  -2.464  0.00  0.00     0.051 H 
ATOM     66  H31 ASN d   1       6.220  21.342  -3.795  0.00  0.00     0.051 H 
BRANCH  64  67
ATOM     67  CG  ASN d   1       4.516  22.532  -3.264  0.00  0.00     0.217 C 
ATOM     68  OD1 ASN d   1       3.742  22.180  -4.143  0.00  0.00    -0.274 OA
ATOM     69  ND2 ASN d   1       4.378  23.682  -2.625  0.00  0.00    -0.370 N 
ATOM     70  H32 ASN d   1       3.634  24.304  -2.870  0.00  0.00     0.159 HD
ATOM     71  H33 ASN d   1       5.018  23.930  -1.897  0.00  0.00     0.159 HD
ENDBRANCH  64  67
ENDBRANCH   7  64
ENDBRANCH   4   7
ENDBRANCH   1   3
BRANCH   1  72
ATOM     72  C   THR d   1       8.626  26.340  -2.760  0.00  0.00     0.243 C 
ATOM     73  O   THR d   1       8.408  27.569  -2.809  0.00  0.00    -0.271 OA
ATOM     74  N   ILE d   1       9.562  25.770  -1.994  0.00  0.00    -0.346 N 
ATOM     75  H41 ILE d   1       9.670  24.777  -2.034  0.00  0.00     0.163 HD
BRANCH  74  76
ATOM     76  CA  ILE d   1      10.439  26.533  -1.096  0.00  0.00     0.092 C 
ATOM     77  H42 ILE d   1       9.839  27.233  -0.497  0.00  0.00     0.088 H 
BRANCH  76  78
ATOM     78  C   ILE d   1      11.360  27.312  -2.003  0.00  0.00     0.241 C 
ATOM     79  O   ILE d   1      11.834  26.736  -2.967  0.00  0.00    -0.271 OA
ATOM     80  N   ALA d   1      11.548  28.609  -1.761  0.00  0.00    -0.346 N 
ATOM     81  H52 ALA d   1      11.187  29.011  -0.920  0.00  0.00     0.163 HD
BRANCH  80  82
ATOM     82  CA  ALA d   1      12.278  29.456  -2.712  0.00  0.00     0.086 C 
ATOM     83  H53 ALA d   1      12.223  28.968  -3.696  0.00  0.00     0.086 H 
BRANCH  82  84
ATOM     84  C   ALA d   1      13.761  29.620  -2.367  0.00  0.00     0.240 C 
ATOM     85  O   ALA d   1      14.162  29.628  -1.188  0.00  0.00    -0.271 OA
ATOM     86  N   THR d   1      14.571  29.788  -3.394  0.00  0.00    -0.344 N 
ATOM     87  H57 THR d   1      14.229  29.653  -4.324  0.00  0.00     0.163 HD
BRANCH  86  88
ATOM     88  CA  THR d   1      15.957  30.168  -3.181  0.00  0.00     0.113 C 
ATOM     89  H58 THR d   1      16.288  29.666  -2.260  0.00  0.00     0.091 H 
BRANCH  88  90
ATOM     90  C   THR d   1      16.126  31.686  -2.962  0.00  0.00     0.243 C 
ATOM     91  O   THR d   1      15.290  32.500  -3.369  0.00  0.00    -0.271 OA
ATOM     92  N   LEU d   1      17.245  32.049  -2.336  0.00  0.00    -0.345 N 
ATOM     93  H64 LEU d   1      17.874  31.332  -2.036  0.00  0.00     0.163 HD
BRANCH  92  94
ATOM     94  CA  LEU d   1      17.605  33.461  -2.062  0.00  0.00     0.096 C 
ATOM     95  H65 LEU d   1      16.717  33.943  -1.627  0.00  0.00     0.089 H 
BRANCH  94  96
ATOM     96  C   LEU d   1      17.995  34.266  -3.321  0.00  0.00     0.196 C 
ATOM     97  O   LEU d   1      18.182  35.504  -3.252  0.00  0.00    -0.646 OA
ATOM     98  OXT LEU d   1      18.147  33.705  -4.415  0.00  0.00    -0.646 OA
ENDBRANCH  94  96
BRANCH  94  99
ATOM     99  CB  LEU d   1      18.742  33.539  -1.028  0.00  0.00    -0.034 C 
ATOM    100  H66 LEU d   1      19.370  34.400  -1.299  0.00  0.00     0.037 H 
ATOM    101  H67 LEU d   1      19.329  32.614  -1.119  0.00  0.00     0.037 H 
BRANCH  99 102
ATOM    102  CG  LEU d   1      18.372  33.695   0.439  0.00  0.00    -0.059 C 
ATOM    103  H68 LEU d   1      17.956  34.703   0.579  0.00  0.00     0.038 H 
BRANCH 102 104
ATOM    104  CD1 LEU d   1      17.337  32.699   0.931  0.00  0.00    -0.073 C 
ATOM    105  H69 LEU d   1      17.129  32.882   1.996  0.00  0.00     0.028 H 
ATOM    106  H70 LEU d   1      17.722  31.677   0.803  0.00  0.00     0.028 H 
ATOM    107  H71 LEU d   1      16.410  32.817   0.351  0.00  0.00     0.028 H 
ENDBRANCH 102 104
BRANCH 102 108
ATOM    108  CD2 LEU d   1      19.643  33.572   1.260  0.00  0.00    -0.073 C 
ATOM    109  H72 LEU d   1      20.386  34.297   0.896  0.00  0.00     0.028 H 
ATOM    110  H73 LEU d   1      20.046  32.553   1.161  0.00  0.00     0.028 H 
ATOM    111  H74 LEU d   1      19.418  33.777   2.317  0.00  0.00     0.028 H 
ENDBRANCH 102 108
ENDBRANCH  99 102
ENDBRANCH  94  99
ENDBRANCH  92  94
ENDBRANCH  88  90
BRANCH  88 112
ATOM    112  CB  THR d   1      16.888  29.681  -4.334  0.00  0.00     0.060 C 
ATOM    113  H59 THR d   1      17.929  29.897  -4.052  0.00  0.00     0.086 H 
BRANCH 112 114
ATOM    114  OG1 THR d   1      16.601  30.359  -5.573  0.00  0.00    -0.393 OA
ATOM    115  H60 THR d   1      17.185  30.039  -6.251  0.00  0.00     0.210 HD
ENDBRANCH 112 114
BRANCH 112 116
ATOM    116  CG2 THR d   1      16.737  28.179  -4.532  0.00  0.00    -0.050 C 
ATOM    117  H61 THR d   1      17.398  27.848  -5.347  0.00  0.00     0.031 H 
ATOM    118  H62 THR d   1      15.693  27.946  -4.789  0.00  0.00     0.031 H 
ATOM    119  H63 THR d   1      17.011  27.657  -3.603  0.00  0.00     0.031 H 
ENDBRANCH 112 116
ENDBRANCH  88 112
ENDBRANCH  86  88
ENDBRANCH  82  84
BRANCH  82 120
ATOM    120  CB  ALA d   1      11.603  30.813  -2.823  0.00  0.00    -0.049 C 
ATOM    121  H54 ALA d   1      12.156  31.440  -3.537  0.00  0.00     0.030 H 
ATOM    122  H55 ALA d   1      11.595  31.300  -1.837  0.00  0.00     0.030 H 
ATOM    123  H56 ALA d   1      10.569  30.681  -3.175  0.00  0.00     0.030 H 
ENDBRANCH  82 120
ENDBRANCH  80  82
ENDBRANCH  76  78
BRANCH  76 124
ATOM    124  CB  ILE d   1      11.201  25.593  -0.126  0.00  0.00    -0.030 C 
ATOM    125  H43 ILE d   1      10.467  24.887   0.290  0.00  0.00     0.043 H 
BRANCH 124 126
ATOM    126  CG1 ILE d   1      11.794  26.387   1.024  0.00  0.00    -0.063 C 
ATOM    127  H44 ILE d   1      12.375  27.225   0.611  0.00  0.00     0.033 H 
ATOM    128  H45 ILE d   1      12.460  25.728   1.601  0.00  0.00     0.033 H 
BRANCH 126 129
ATOM    129  CD1 ILE d   1      10.732  26.944   1.958  0.00  0.00    -0.076 C 
ATOM    130  H49 ILE d   1      11.216  27.508   2.769  0.00  0.00     0.027 H 
ATOM    131  H50 ILE d   1      10.148  26.115   2.385  0.00  0.00     0.027 H 
ATOM    132  H51 ILE d   1      10.063  27.612   1.396  0.00  0.00     0.027 H 
ENDBRANCH 126 129
ENDBRANCH 124 126
BRANCH 124 133
ATOM    133  CG2 ILE d   1      12.285  24.773  -0.804  0.00  0.00    -0.071 C 
ATOM    134  H46 ILE d   1      11.847  24.201  -1.635  0.00  0.00     0.028 H 
ATOM    135  H47 ILE d   1      12.729  24.078  -0.076  0.00  0.00     0.028 H 
ATOM    136  H48 ILE d   1      13.065  25.445  -1.192  0.00  0.00     0.028 H 
ENDBRANCH 124 133
ENDBRANCH  76 124
ENDBRANCH  74  76
ENDBRANCH   1  72
BRANCH   1 137
ATOM    137  CB  THR d   1       6.706  26.169  -4.311  0.00  0.00     0.060 C 
ATOM    138  H36 THR d   1       7.178  27.040  -4.790  0.00  0.00     0.086 H 
BRANCH 137 139
ATOM    139  OG1 THR d   1       5.730  26.627  -3.376  0.00  0.00    -0.393 OA
ATOM    140  H37 THR d   1       6.149  27.184  -2.730  0.00  0.00     0.210 HD
ENDBRANCH 137 139
BRANCH 137 141
ATOM    141  CG2 THR d   1       6.030  25.345  -5.376  0.00  0.00    -0.050 C 
ATOM    142  H38 THR d   1       5.261  25.952  -5.876  0.00  0.00     0.031 H 
ATOM    143  H39 THR d   1       5.559  24.465  -4.915  0.00  0.00     0.031 H 
ATOM    144  H40 THR d   1       6.776  25.017  -6.115  0.00  0.00     0.031 H 
ENDBRANCH 137 141
ENDBRANCH   1 137
TORSDOF 44
