REMARK WARNING: 32 MAX_TORS EXCEEDED!!!
REMARK  43 active torsions:
REMARK  status: ('A' for Active; 'I' for Inactive)
REMARK    1  A    between atoms: N_1  and  CA_2 
REMARK    2  A    between atoms: CA_2  and  C_3 
REMARK    3  A    between atoms: CA_2  and  CB_5 
REMARK       I    between atoms: C_3  and  N_7 
REMARK    4  A    between atoms: CB_5  and  OG_6 
REMARK    5  A    between atoms: N_7  and  CA_8 
REMARK    6  A    between atoms: CA_8  and  C_9 
REMARK    7  A    between atoms: CA_8  and  CB_11 
REMARK       I    between atoms: C_9  and  N_15 
REMARK    8  A    between atoms: CB_11  and  CG_12 
REMARK    9  A    between atoms: CG_12  and  CD1_13 
REMARK   10  A    between atoms: CG_12  and  CD2_14 
REMARK   11  A    between atoms: N_15  and  CA_16 
REMARK   12  A    between atoms: CA_16  and  C_17 
REMARK   13  A    between atoms: CA_16  and  CB_19 
REMARK       I    between atoms: C_17  and  N_26 
REMARK   14  A    between atoms: CB_19  and  CG_20 
REMARK   15  A    between atoms: N_26  and  CA_27 
REMARK   16  A    between atoms: CA_27  and  C_28 
REMARK   17  A    between atoms: CA_27  and  CB_30 
REMARK       I    between atoms: C_28  and  N_34 
REMARK   18  A    between atoms: CB_30  and  CG_31 
REMARK       I    between atoms: CG_31  and  ND2_33 
REMARK   19  A    between atoms: N_34  and  CA_35 
REMARK   20  A    between atoms: CA_35  and  C_36 
REMARK   21  A    between atoms: CA_35  and  CB_38 
REMARK       I    between atoms: C_36  and  N_41 
REMARK   22  A    between atoms: CB_38  and  OG1_39 
REMARK   23  A    between atoms: CB_38  and  CG2_40 
REMARK   24  A    between atoms: N_41  and  CA_42 
REMARK   25  A    between atoms: CA_42  and  C_43 
REMARK   26  A    between atoms: CA_42  and  CB_45 
REMARK       I    between atoms: C_43  and  N_49 
REMARK   27  A    between atoms: CB_45  and  CG1_46 
REMARK   28  A    between atoms: CB_45  and  CG2_47 
REMARK   29  A    between atoms: CG1_46  and  CD1_48 
REMARK   30  A    between atoms: N_49  and  CA_50 
REMARK   31  A    between atoms: CA_50  and  C_51 
REMARK   32  A    between atoms: CA_50  and  CB_53 
REMARK       I    between atoms: C_51  and  N_54 
REMARK   33  A    between atoms: N_54  and  CA_55 
REMARK   34  A    between atoms: CA_55  and  C_56 
REMARK   35  A    between atoms: CA_55  and  CB_58 
REMARK       I    between atoms: C_56  and  N_61 
REMARK   36  A    between atoms: CB_58  and  CG1_59 
REMARK   37  A    between atoms: CB_58  and  CG2_60 
REMARK   38  A    between atoms: N_61  and  CA_62 
REMARK   39  A    between atoms: CA_62  and  C_63 
REMARK   40  A    between atoms: CA_62  and  CB_65 
REMARK   41  A    between atoms: CB_65  and  CG_66 
REMARK   42  A    between atoms: CG_66  and  CD1_67 
REMARK   43  A    between atoms: CG_66  and  CD2_68 
ROOT
ATOM      1  CA  THR d   1      47.382  49.394  25.616  0.00  0.00     0.113 C 
ATOM      2  H35 THR d   1      48.296  48.785  25.678  0.00  0.00     0.091 H 
ENDROOT
BRANCH   1   3
ATOM      3  N   THR d   1      46.880  49.607  26.980  0.00  0.00    -0.344 N 
ATOM      4  C   ASN d   1      47.683  49.600  28.044  0.00  0.00     0.241 C 
ATOM      5  O   ASN d   1      48.929  49.657  27.968  0.00  0.00    -0.271 OA
ATOM      6  H34 THR d   1      45.901  49.763  27.115  0.00  0.00     0.163 HD
BRANCH   4   7
ATOM      7  CA  ASN d   1      47.009  49.536  29.413  0.00  0.00     0.097 C 
ATOM      8  H29 ASN d   1      47.817  49.656  30.150  0.00  0.00     0.088 H 
BRANCH   7   9
ATOM      9  N   ASN d   1      46.072  50.643  29.685  0.00  0.00    -0.346 N 
ATOM     10  C   PHE d   1      46.487  51.814  30.194  0.00  0.00     0.241 C 
ATOM     11  O   PHE d   1      47.618  51.988  30.569  0.00  0.00    -0.271 OA
ATOM     12  H28 ASN d   1      45.100  50.517  29.485  0.00  0.00     0.163 HD
BRANCH  10  13
ATOM     13  CA  PHE d   1      45.469  52.944  30.399  0.00  0.00     0.093 C 
ATOM     14  H20 PHE d   1      44.471  52.503  30.542  0.00  0.00     0.088 H 
BRANCH  13  15
ATOM     15  N   PHE d   1      45.850  53.706  31.575  0.00  0.00    -0.346 N 
ATOM     16  C   LEU d   1      45.829  53.273  32.836  0.00  0.00     0.241 C 
ATOM     17  O   LEU d   1      45.333  52.203  33.226  0.00  0.00    -0.271 OA
ATOM     18  H19 PHE d   1      46.158  54.646  31.425  0.00  0.00     0.163 HD
BRANCH  16  19
ATOM     19  CA  LEU d   1      46.567  54.211  33.810  0.00  0.00     0.089 C 
ATOM     20  H9  LEU d   1      46.568  55.232  33.401  0.00  0.00     0.087 H 
BRANCH  19  21
ATOM     21  N   LEU d   1      46.029  54.240  35.135  0.00  0.00    -0.346 N 
ATOM     22  C   SER d   1      44.746  54.303  35.459  0.00  0.00     0.251 C 
ATOM     23  O   SER d   1      43.831  54.608  34.687  0.00  0.00    -0.271 OA
ATOM     24  H8  LEU d   1      46.685  54.210  35.889  0.00  0.00     0.163 HD
BRANCH  22  25
ATOM     25  CA  SER d   1      44.537  53.974  36.951  0.00  0.00     0.195 C 
ATOM     26  H4  SER d   1      45.422  54.347  37.487  0.00  0.00     0.102 H 
BRANCH  25  27
ATOM     27  N   SER d   1      43.368  54.651  37.562  0.00  0.00    -0.064 N 
ATOM     28  H1  SER d   1      43.297  54.388  38.533  0.00  0.00     0.275 HD
ATOM     29  H2  SER d   1      42.529  54.375  37.077  0.00  0.00     0.275 HD
ATOM     30  H3  SER d   1      43.484  55.650  37.492  0.00  0.00     0.275 HD
ENDBRANCH  25  27
BRANCH  25  31
ATOM     31  CB  SER d   1      44.505  52.447  37.137  0.00  0.00     0.051 C 
ATOM     32  H5  SER d   1      44.757  52.214  38.182  0.00  0.00     0.077 H 
ATOM     33  H6  SER d   1      45.254  51.995  36.470  0.00  0.00     0.077 H 
BRANCH  31  34
ATOM     34  OG  SER d   1      43.264  51.899  36.847  0.00  0.00    -0.398 OA
ATOM     35  H7  SER d   1      43.296  50.959  36.977  0.00  0.00     0.209 HD
ENDBRANCH  31  34
ENDBRANCH  25  31
ENDBRANCH  22  25
ENDBRANCH  19  21
BRANCH  19  36
ATOM     36  CB  LEU d   1      47.995  53.665  33.916  0.00  0.00    -0.035 C 
ATOM     37  H10 LEU d   1      48.353  53.495  32.890  0.00  0.00     0.037 H 
ATOM     38  H11 LEU d   1      47.935  52.704  34.447  0.00  0.00     0.037 H 
BRANCH  36  39
ATOM     39  CG  LEU d   1      49.036  54.490  34.615  0.00  0.00    -0.059 C 
ATOM     40  H12 LEU d   1      48.676  54.754  35.620  0.00  0.00     0.038 H 
BRANCH  39  41
ATOM     41  CD1 LEU d   1      50.295  53.678  34.747  0.00  0.00    -0.073 C 
ATOM     42  H13 LEU d   1      51.064  54.275  35.259  0.00  0.00     0.028 H 
ATOM     43  H14 LEU d   1      50.655  53.395  33.747  0.00  0.00     0.028 H 
ATOM     44  H15 LEU d   1      50.086  52.770  35.332  0.00  0.00     0.028 H 
ENDBRANCH  39  41
BRANCH  39  45
ATOM     45  CD2 LEU d   1      49.273  55.755  33.837  0.00  0.00    -0.073 C 
ATOM     46  H16 LEU d   1      48.333  56.321  33.761  0.00  0.00     0.028 H 
ATOM     47  H17 LEU d   1      49.631  55.503  32.828  0.00  0.00     0.028 H 
ATOM     48  H18 LEU d   1      50.028  56.366  34.352  0.00  0.00     0.028 H 
ENDBRANCH  39  45
ENDBRANCH  36  39
ENDBRANCH  19  36
ENDBRANCH  16  19
ENDBRANCH  13  15
BRANCH  13  49
ATOM     49  CB  PHE d   1      45.423  53.936  29.210  0.00  0.00    -0.014 C 
ATOM     50  H21 PHE d   1      46.435  54.343  29.067  0.00  0.00     0.043 H 
ATOM     51  H22 PHE d   1      44.734  54.752  29.474  0.00  0.00     0.043 H 
BRANCH  49  52
ATOM     52  CG  PHE d   1      44.980  53.362  27.935  0.00  0.00    -0.056 A 
ATOM     53  CD1 PHE d   1      43.930  52.504  27.859  0.00  0.00    -0.077 A 
ATOM     54  CE1 PHE d   1      43.537  51.929  26.660  0.00  0.00    -0.082 A 
ATOM     55  H23 PHE d   1      43.383  52.261  28.763  0.00  0.00     0.084 H 
ATOM     56  CZ  PHE d   1      44.156  52.298  25.499  0.00  0.00    -0.083 A 
ATOM     57  H25 PHE d   1      42.743  51.191  26.644  0.00  0.00     0.083 H 
ATOM     58  CE2 PHE d   1      45.199  53.209  25.538  0.00  0.00    -0.082 A 
ATOM     59  H27 PHE d   1      43.833  51.880  24.552  0.00  0.00     0.083 H 
ATOM     60  CD2 PHE d   1      45.600  53.728  26.771  0.00  0.00    -0.077 A 
ATOM     61  H26 PHE d   1      45.697  53.514  24.625  0.00  0.00     0.083 H 
ATOM     62  H24 PHE d   1      46.420  54.436  26.807  0.00  0.00     0.084 H 
ENDBRANCH  49  52
ENDBRANCH  13  49
ENDBRANCH  10  13
ENDBRANCH   7   9
BRANCH   7  63
ATOM     63  CB  ASN d   1      46.408  48.120  29.667  0.00  0.00     0.036 C 
ATOM     64  H30 ASN d   1      46.235  48.013  30.748  0.00  0.00     0.051 H 
ATOM     65  H31 ASN d   1      47.146  47.374  29.338  0.00  0.00     0.051 H 
BRANCH  63  66
ATOM     66  CG  ASN d   1      45.075  47.827  28.939  0.00  0.00     0.217 C 
ATOM     67  OD1 ASN d   1      44.477  48.686  28.355  0.00  0.00    -0.274 OA
ATOM     68  ND2 ASN d   1      44.619  46.565  29.018  0.00  0.00    -0.370 N 
ATOM     69  H32 ASN d   1      43.762  46.314  28.568  0.00  0.00     0.159 HD
ATOM     70  H33 ASN d   1      45.137  45.877  29.527  0.00  0.00     0.159 HD
ENDBRANCH  63  66
ENDBRANCH   7  63
ENDBRANCH   4   7
ENDBRANCH   1   3
BRANCH   1  71
ATOM     71  C   THR d   1      47.711  50.706  24.948  0.00  0.00     0.243 C 
ATOM     72  O   THR d   1      47.081  51.130  23.959  0.00  0.00    -0.271 OA
ATOM     73  N   ILE d   1      48.736  51.334  25.498  0.00  0.00    -0.346 N 
ATOM     74  H41 ILE d   1      49.159  50.939  26.314  0.00  0.00     0.163 HD
BRANCH  73  75
ATOM     75  CA  ILE d   1      49.270  52.565  24.971  0.00  0.00     0.092 C 
ATOM     76  H42 ILE d   1      48.415  53.202  24.700  0.00  0.00     0.088 H 
BRANCH  75  77
ATOM     77  C   ILE d   1      50.109  52.374  23.709  0.00  0.00     0.241 C 
ATOM     78  O   ILE d   1      51.067  51.605  23.680  0.00  0.00    -0.271 OA
ATOM     79  N   ALA d   1      49.756  53.123  22.673  0.00  0.00    -0.346 N 
ATOM     80  H52 ALA d   1      49.103  53.868  22.806  0.00  0.00     0.163 HD
BRANCH  79  81
ATOM     81  CA  ALA d   1      50.291  52.885  21.370  0.00  0.00     0.086 C 
ATOM     82  H53 ALA d   1      50.699  51.863  21.383  0.00  0.00     0.086 H 
BRANCH  81  83
ATOM     83  C   ALA d   1      51.433  53.804  20.991  0.00  0.00     0.240 C 
ATOM     84  O   ALA d   1      51.445  55.023  21.237  0.00  0.00    -0.271 OA
ATOM     85  N   VAL d   1      52.311  53.169  20.246  0.00  0.00    -0.346 N 
ATOM     86  H57 VAL d   1      52.062  52.239  19.976  0.00  0.00     0.163 HD
BRANCH  85  87
ATOM     87  CA  VAL d   1      53.571  53.635  19.775  0.00  0.00     0.092 C 
ATOM     88  H58 VAL d   1      54.055  54.309  20.497  0.00  0.00     0.088 H 
BRANCH  87  89
ATOM     89  C   VAL d   1      53.201  54.432  18.518  0.00  0.00     0.241 C 
ATOM     90  O   VAL d   1      52.126  54.217  17.944  0.00  0.00    -0.271 OA
ATOM     91  N   LEU d   1      54.051  55.409  18.170  0.00  0.00    -0.345 N 
ATOM     92  H66 LEU d   1      54.805  55.598  18.799  0.00  0.00     0.163 HD
BRANCH  91  93
ATOM     93  CA  LEU d   1      53.977  56.257  16.909  0.00  0.00     0.096 C 
ATOM     94  H67 LEU d   1      52.930  56.580  16.808  0.00  0.00     0.089 H 
BRANCH  93  95
ATOM     95  C   LEU d   1      54.400  55.565  15.552  0.00  0.00     0.196 C 
ATOM     96  O   LEU d   1      54.975  54.451  15.507  0.00  0.00    -0.646 OA
ATOM     97  OXT LEU d   1      54.205  56.189  14.426  0.00  0.00    -0.646 OA
ENDBRANCH  93  95
BRANCH  93  98
ATOM     98  CB  LEU d   1      54.886  57.517  17.024  0.00  0.00    -0.034 C 
ATOM     99  H68 LEU d   1      55.146  57.800  15.993  0.00  0.00     0.037 H 
ATOM    100  H69 LEU d   1      55.793  57.191  17.555  0.00  0.00     0.037 H 
BRANCH  98 101
ATOM    101  CG  LEU d   1      54.435  58.797  17.710  0.00  0.00    -0.059 C 
ATOM    102  H70 LEU d   1      53.894  59.400  16.966  0.00  0.00     0.038 H 
BRANCH 101 103
ATOM    103  CD1 LEU d   1      53.505  58.499  18.844  0.00  0.00    -0.073 C 
ATOM    104  H71 LEU d   1      53.195  59.440  19.321  0.00  0.00     0.028 H 
ATOM    105  H72 LEU d   1      54.018  57.865  19.582  0.00  0.00     0.028 H 
ATOM    106  H73 LEU d   1      52.618  57.972  18.462  0.00  0.00     0.028 H 
ENDBRANCH 101 103
BRANCH 101 107
ATOM    107  CD2 LEU d   1      55.581  59.620  18.231  0.00  0.00    -0.073 C 
ATOM    108  H74 LEU d   1      56.274  59.847  17.407  0.00  0.00     0.028 H 
ATOM    109  H75 LEU d   1      56.112  59.056  19.012  0.00  0.00     0.028 H 
ATOM    110  H76 LEU d   1      55.195  60.559  18.655  0.00  0.00     0.028 H 
ENDBRANCH 101 107
ENDBRANCH  98 101
ENDBRANCH  93  98
ENDBRANCH  91  93
ENDBRANCH  87  89
BRANCH  87 111
ATOM    111  CB  VAL d   1      54.457  52.342  19.622  0.00  0.00    -0.033 C 
ATOM    112  H59 VAL d   1      53.944  51.574  20.219  0.00  0.00     0.042 H 
BRANCH 111 113
ATOM    113  CG1 VAL d   1      54.531  51.782  18.236  0.00  0.00    -0.071 C 
ATOM    114  H60 VAL d   1      55.170  50.886  18.236  0.00  0.00     0.028 H 
ATOM    115  H61 VAL d   1      54.957  52.536  17.558  0.00  0.00     0.028 H 
ATOM    116  H62 VAL d   1      53.521  51.512  17.895  0.00  0.00     0.028 H 
ENDBRANCH 111 113
BRANCH 111 117
ATOM    117  CG2 VAL d   1      55.821  52.485  20.229  0.00  0.00    -0.071 C 
ATOM    118  H63 VAL d   1      55.729  52.898  21.244  0.00  0.00     0.028 H 
ATOM    119  H64 VAL d   1      56.428  53.163  19.611  0.00  0.00     0.028 H 
ATOM    120  H65 VAL d   1      56.306  51.499  20.277  0.00  0.00     0.028 H 
ENDBRANCH 111 117
ENDBRANCH  87 111
ENDBRANCH  85  87
ENDBRANCH  81  83
BRANCH  81 121
ATOM    121  CB  ALA d   1      49.193  52.924  20.291  0.00  0.00    -0.049 C 
ATOM    122  H54 ALA d   1      49.642  52.737  19.304  0.00  0.00     0.030 H 
ATOM    123  H55 ALA d   1      48.712  53.913  20.293  0.00  0.00     0.030 H 
ATOM    124  H56 ALA d   1      48.441  52.150  20.505  0.00  0.00     0.030 H 
ENDBRANCH  81 121
ENDBRANCH  79  81
ENDBRANCH  75  77
BRANCH  75 125
ATOM    125  CB  ILE d   1      50.073  53.293  26.041  0.00  0.00    -0.030 C 
ATOM    126  H43 ILE d   1      49.398  53.468  26.892  0.00  0.00     0.043 H 
BRANCH 125 127
ATOM    127  CG1 ILE d   1      50.501  54.629  25.524  0.00  0.00    -0.063 C 
ATOM    128  H44 ILE d   1      50.748  54.550  24.455  0.00  0.00     0.033 H 
ATOM    129  H45 ILE d   1      51.385  54.974  26.080  0.00  0.00     0.033 H 
BRANCH 127 130
ATOM    130  CD1 ILE d   1      49.363  55.616  25.712  0.00  0.00    -0.076 C 
ATOM    131  H49 ILE d   1      49.668  56.603  25.334  0.00  0.00     0.027 H 
ATOM    132  H50 ILE d   1      49.117  55.692  26.781  0.00  0.00     0.027 H 
ATOM    133  H51 ILE d   1      48.480  55.268  25.156  0.00  0.00     0.027 H 
ENDBRANCH 127 130
ENDBRANCH 125 127
BRANCH 125 134
ATOM    134  CG2 ILE d   1      51.243  52.488  26.571  0.00  0.00    -0.071 C 
ATOM    135  H46 ILE d   1      50.883  51.516  26.939  0.00  0.00     0.028 H 
ATOM    136  H47 ILE d   1      51.723  53.037  27.394  0.00  0.00     0.028 H 
ATOM    137  H48 ILE d   1      51.972  52.326  25.764  0.00  0.00     0.028 H 
ENDBRANCH 125 134
ENDBRANCH  75 125
ENDBRANCH  73  75
ENDBRANCH   1  71
BRANCH   1 138
ATOM    138  CB  THR d   1      46.366  48.666  24.744  0.00  0.00     0.060 C 
ATOM    139  H36 THR d   1      46.763  48.603  23.720  0.00  0.00     0.086 H 
BRANCH 138 140
ATOM    140  OG1 THR d   1      45.102  49.381  24.702  0.00  0.00    -0.393 OA
ATOM    141  H37 THR d   1      45.242  50.250  24.344  0.00  0.00     0.210 HD
ENDBRANCH 138 140
BRANCH 138 142
ATOM    142  CG2 THR d   1      46.167  47.253  25.281  0.00  0.00    -0.050 C 
ATOM    143  H38 THR d   1      45.434  46.723  24.655  0.00  0.00     0.031 H 
ATOM    144  H39 THR d   1      45.797  47.303  26.316  0.00  0.00     0.031 H 
ATOM    145  H40 THR d   1      47.126  46.714  25.259  0.00  0.00     0.031 H 
ENDBRANCH 138 142
ENDBRANCH   1 138
TORSDOF 43
