REMARK  9 active torsions:
REMARK  status: ('A' for Active; 'I' for Inactive)
REMARK    1  A    between atoms: NAB_31  and  CAA_1 
REMARK    2  A    between atoms: CAD_3  and  CAC_2 
REMARK    3  A    between atoms: CAC_2  and  NAB_31 
REMARK    4  A    between atoms: NAE_32  and  CAD_3 
REMARK    5  A    between atoms: CAF_4  and  CAG_5 
REMARK    6  A    between atoms: NAE_32  and  CAF_4 
REMARK    7  A    between atoms: NAK_33  and  CAL_9 
REMARK    8  A    between atoms: NAB_31  and  CAV_19 
REMARK    9  A    between atoms: CAW_20  and  CAX_21 
REMARK       I    between atoms: CAW_20  and  NAE_32 
ROOT
ATOM      1  CAF 92H d   1      -9.026  36.910  35.979  0.00  0.00     0.003 C 
ATOM      2  H8  92H d   1      -9.307  37.926  36.294  0.00  0.00     0.065 H 
ATOM      3  H9  92H d   1      -8.386  36.967  35.086  0.00  0.00     0.065 H 
ENDROOT
BRANCH   1   4
ATOM      4  CAG 92H d   1     -10.302  36.162  35.600  0.00  0.00    -0.015 C 
ATOM      5  CAH 92H d   1     -10.572  36.354  34.093  0.00  0.00    -0.057 C 
ATOM      6  CAI 92H d   1     -11.547  37.518  33.873  0.00  0.00    -0.042 C 
ATOM      7  H11 92H d   1     -11.008  35.432  33.682  0.00  0.00     0.033 H 
ATOM      8  H12 92H d   1      -9.624  36.572  33.579  0.00  0.00     0.033 H 
ATOM      9  CAJ 92H d   1     -12.888  37.060  34.478  0.00  0.00     0.084 C 
ATOM     10  H13 92H d   1     -11.662  37.724  32.799  0.00  0.00     0.035 H 
ATOM     11  H14 92H d   1     -11.185  38.423  34.383  0.00  0.00     0.035 H 
ATOM     12  NAK 92H d   1     -12.752  36.360  35.784  0.00  0.00    -0.066 N 
ATOM     13  H15 92H d   1     -13.373  36.375  33.767  0.00  0.00     0.076 H 
ATOM     14  H16 92H d   1     -13.523  37.946  34.624  0.00  0.00     0.076 H 
ATOM     15  CAU 92H d   1     -11.478  36.721  36.422  0.00  0.00     0.089 C 
ATOM     16  H39 92H d   1     -12.705  35.371  35.595  0.00  0.00     0.280 HD
ATOM     17  H26 92H d   1     -11.396  37.816  36.478  0.00  0.00     0.076 H 
ATOM     18  H27 92H d   1     -11.446  36.299  37.437  0.00  0.00     0.076 H 
ATOM     19  H10 92H d   1     -10.180  35.090  35.817  0.00  0.00     0.045 H 
BRANCH  12  20
ATOM     20  CAL 92H d   1     -13.980  36.574  36.607  0.00  0.00     0.111 C 
ATOM     21  CAM 92H d   1     -13.801  36.917  38.098  0.00  0.00    -0.013 C 
ATOM     22  CAN 92H d   1     -15.119  37.421  38.339  0.00  0.00    -0.050 A 
ATOM     23  H18 92H d   1     -13.026  37.680  38.261  0.00  0.00     0.043 H 
ATOM     24  H19 92H d   1     -13.575  36.029  38.707  0.00  0.00     0.043 H 
ATOM     25  CAO 92H d   1     -15.859  37.449  39.452  0.00  0.00    -0.076 A 
ATOM     26  CAS 92H d   1     -15.644  37.930  37.204  0.00  0.00    -0.050 A 
ATOM     27  CAP 92H d   1     -17.145  37.990  39.474  0.00  0.00    -0.082 A 
ATOM     28  H20 92H d   1     -15.447  37.038  40.367  0.00  0.00     0.084 H 
ATOM     29  CAQ 92H d   1     -17.671  38.510  38.302  0.00  0.00    -0.082 A 
ATOM     30  H21 92H d   1     -17.722  38.003  40.391  0.00  0.00     0.083 H 
ATOM     31  CAR 92H d   1     -16.871  38.462  37.169  0.00  0.00    -0.076 A 
ATOM     32  H22 92H d   1     -18.667  38.937  38.272  0.00  0.00     0.083 H 
ATOM     33  H23 92H d   1     -17.248  38.864  36.236  0.00  0.00     0.084 H 
ATOM     34  CAT 92H d   1     -14.720  37.803  36.181  0.00  0.00    -0.013 C 
ATOM     35  H24 92H d   1     -15.213  37.660  35.208  0.00  0.00     0.043 H 
ATOM     36  H25 92H d   1     -14.054  38.677  36.129  0.00  0.00     0.043 H 
ATOM     37  H17 92H d   1     -14.606  35.676  36.503  0.00  0.00     0.085 H 
ENDBRANCH  12  20
ENDBRANCH   1   4
BRANCH   1  38
ATOM     38  NAE 92H d   1      -8.238  36.291  37.072  0.00  0.00    -0.346 N 
ATOM     39  CAW 92H d   1      -7.220  35.428  36.891  0.00  0.00     0.253 C 
ATOM     40  OAY 92H d   1      -6.592  34.952  37.829  0.00  0.00    -0.267 OA
BRANCH  38  41
ATOM     41  CAD 92H d   1      -8.574  36.746  38.424  0.00  0.00     0.021 C 
ATOM     42  H6  92H d   1      -9.647  36.985  38.466  0.00  0.00     0.067 H 
ATOM     43  H7  92H d   1      -8.349  35.941  39.140  0.00  0.00     0.067 H 
BRANCH  41  44
ATOM     44  CAC 92H d   1      -7.774  37.985  38.802  0.00  0.00     0.097 C 
ATOM     45  H4  92H d   1      -8.147  38.846  38.227  0.00  0.00     0.078 H 
ATOM     46  H5  92H d   1      -6.713  37.817  38.564  0.00  0.00     0.078 H 
BRANCH  44  47
ATOM     47  NAB 92H d   1      -7.908  38.269  40.241  0.00  0.00    -0.077 N 
ATOM     48  H38 92H d   1      -8.798  38.709  40.414  0.00  0.00     0.279 HD
BRANCH  47  49
ATOM     49  CAA 92H d   1      -6.822  39.176  40.641  0.00  0.00     0.066 C 
ATOM     50  H1  92H d   1      -6.907  39.399  41.715  0.00  0.00     0.068 H 
ATOM     51  H2  92H d   1      -6.894  40.111  40.066  0.00  0.00     0.068 H 
ATOM     52  H3  92H d   1      -5.852  38.697  40.442  0.00  0.00     0.068 H 
ENDBRANCH  47  49
BRANCH  47  53
ATOM     53  CAV 92H d   1      -7.821  37.025  41.026  0.00  0.00     0.066 C 
ATOM     54  H28 92H d   1      -7.923  37.259  42.096  0.00  0.00     0.068 H 
ATOM     55  H29 92H d   1      -6.847  36.546  40.847  0.00  0.00     0.068 H 
ATOM     56  H30 92H d   1      -8.628  36.342  40.721  0.00  0.00     0.068 H 
ENDBRANCH  47  53
ENDBRANCH  44  47
ENDBRANCH  41  44
ENDBRANCH  38  41
BRANCH  39  57
ATOM     57  CAX 92H d   1      -6.975  34.972  35.601  0.00  0.00     0.033 A 
ATOM     58  CAZ 92H d   1      -7.399  33.677  35.330  0.00  0.00    -0.057 A 
ATOM     59  CBA 92H d   1      -7.209  33.125  34.073  0.00  0.00    -0.025 A 
ATOM     60  H31 92H d   1      -7.881  33.095  36.107  0.00  0.00     0.086 H 
ATOM     61  CBB 92H d   1      -6.586  33.871  33.078  0.00  0.00    -0.026 A 
ATOM     62  CBE 92H d   1      -7.642  31.830  33.825  0.00  0.00    -0.072 A 
ATOM     63  CBC 92H d   1      -6.147  35.167  33.344  0.00  0.00    -0.071 A 
ATOM     64  CBH 92H d   1      -6.394  33.312  31.822  0.00  0.00    -0.072 A 
ATOM     65  CBD 92H d   1      -6.334  35.719  34.611  0.00  0.00    -0.067 A 
ATOM     66  H32 92H d   1      -5.661  35.745  32.567  0.00  0.00     0.084 H 
ATOM     67  H33 92H d   1      -5.984  36.722  34.826  0.00  0.00     0.085 H 
ATOM     68  CBG 92H d   1      -6.828  32.013  31.570  0.00  0.00    -0.082 A 
ATOM     69  H37 92H d   1      -5.908  33.885  31.040  0.00  0.00     0.084 H 
ATOM     70  CBF 92H d   1      -7.452  31.269  32.566  0.00  0.00    -0.082 A 
ATOM     71  H36 92H d   1      -6.678  31.578  30.589  0.00  0.00     0.083 H 
ATOM     72  H35 92H d   1      -7.788  30.259  32.363  0.00  0.00     0.083 H 
ATOM     73  H34 92H d   1      -8.126  31.258  34.608  0.00  0.00     0.084 H 
ENDBRANCH  39  57
ENDBRANCH   1  38
TORSDOF 9
