REMARK  5 active torsions:
REMARK  status: ('A' for Active; 'I' for Inactive)
REMARK    1  A    between atoms: CA_4  and  C_1 
REMARK    2  A    between atoms: CA_4  and  CB_2 
REMARK    3  A    between atoms: CB_2  and  SG_10 
REMARK       I    between atoms: N_5  and  CT_3 
REMARK    4  A    between atoms: CT_3  and  CM_9 
REMARK    5  A    between atoms: CA_4  and  N_5 
ROOT
ATOM      1  CA  SC2 d   1      -8.763  -4.716 102.672  0.00  0.00     0.104 C 
ATOM      2  H3  SC2 d   1      -8.278  -3.806 102.288  0.00  0.00     0.090 H 
ENDROOT
BRANCH   1   3
ATOM      3  C   SC2 d   1     -10.144  -4.815 102.056  0.00  0.00     0.197 C 
ATOM      4  OXT SC2 d   1     -11.088  -4.274 102.668  0.00  0.00    -0.646 OA
ATOM      5  O   SC2 d   1     -10.343  -5.434 100.978  0.00  0.00    -0.646 OA
ENDBRANCH   1   3
BRANCH   1   6
ATOM      6  CB  SC2 d   1      -7.901  -5.927 102.320  0.00  0.00     0.003 C 
ATOM      7  H1  SC2 d   1      -6.907  -5.796 102.771  0.00  0.00     0.052 H 
ATOM      8  H2  SC2 d   1      -7.803  -5.984 101.226  0.00  0.00     0.052 H 
BRANCH   6   9
ATOM      9  SG  SC2 d   1      -8.612  -7.482 102.922  0.00  0.00    -0.180 SA
ATOM     10  H8  SC2 d   1      -8.008  -8.248 102.665  0.00  0.00     0.101 HD
ENDBRANCH   6   9
ENDBRANCH   1   6
BRANCH   1  11
ATOM     11  N   SC2 d   1      -8.840  -4.640 104.126  0.00  0.00    -0.346 N 
ATOM     12  CT  SC2 d   1      -8.023  -3.955 104.934  0.00  0.00     0.214 C 
ATOM     13  OT  SC2 d   1      -8.175  -3.978 106.150  0.00  0.00    -0.274 OA
ATOM     14  H4  SC2 d   1      -9.579  -5.152 104.564  0.00  0.00     0.163 HD
BRANCH  12  15
ATOM     15  CM  SC2 d   1      -6.918  -3.165 104.328  0.00  0.00    -0.003 C 
ATOM     16  H5  SC2 d   1      -6.345  -2.666 105.123  0.00  0.00     0.040 H 
ATOM     17  H6  SC2 d   1      -7.338  -2.408 103.649  0.00  0.00     0.040 H 
ATOM     18  H7  SC2 d   1      -6.254  -3.836 103.764  0.00  0.00     0.040 H 
ENDBRANCH  12  15
ENDBRANCH   1  11
TORSDOF 5
