REMARK WARNING: 32 MAX_TORS EXCEEDED!!!
REMARK  50 active torsions:
REMARK  status: ('A' for Active; 'I' for Inactive)
REMARK    1  A    between atoms: CA_2  and  N_1 
REMARK    2  A    between atoms: C_3  and  CA_2 
REMARK       I    between atoms: N_5  and  C_3 
REMARK    3  A    between atoms: CA_6  and  N_5 
REMARK    4  A    between atoms: C_7  and  CA_6 
REMARK    5  A    between atoms: CA_6  and  CB_9 
REMARK       I    between atoms: N_14  and  C_7 
REMARK    6  A    between atoms: CB_9  and  CG_10 
REMARK    7  A    between atoms: CG_10  and  CD_11 
REMARK    8  A    between atoms: CD_11  and  CE_12 
REMARK    9  A    between atoms: CE_12  and  NZ_13 
REMARK   10  A    between atoms: CA_15  and  N_14 
REMARK   11  A    between atoms: C_16  and  CA_15 
REMARK   12  A    between atoms: CA_15  and  CB_18 
REMARK       I    between atoms: N_28  and  C_16 
REMARK   13  A    between atoms: CH_20  and  CH3_21 
REMARK       I    between atoms: NZ_22  and  CH_20 
REMARK   14  A    between atoms: CE_23  and  NZ_22 
REMARK   15  A    between atoms: CD_24  and  CE_23 
REMARK   16  A    between atoms: CG_25  and  CD_24 
REMARK   17  A    between atoms: CB_26  and  CG_25 
REMARK   18  A    between atoms: CA_27  and  CB_26 
REMARK   19  A    between atoms: CA_27  and  N_28 
REMARK   20  A    between atoms: C_29  and  CA_27 
REMARK       I    between atoms: N_31  and  C_29 
REMARK   21  A    between atoms: CA_32  and  N_31 
REMARK   22  A    between atoms: C_33  and  CA_32 
REMARK       I    between atoms: N_35  and  C_33 
REMARK   23  A    between atoms: CA_36  and  N_35 
REMARK   24  A    between atoms: C_37  and  CA_36 
REMARK   25  A    between atoms: CA_36  and  CB_39 
REMARK       I    between atoms: N_53  and  C_37 
REMARK   26  A    between atoms: CB_39  and  CG_40 
REMARK   27  A    between atoms: CG_40  and  CD_41 
REMARK   28  A    between atoms: CD_41  and  CE_42 
REMARK   29  A    between atoms: CE_42  and  NZ_43 
REMARK   30  A    between atoms: CH_45  and  CH3_46 
REMARK       I    between atoms: NZ_47  and  CH_45 
REMARK   31  A    between atoms: CE_48  and  NZ_47 
REMARK   32  A    between atoms: CD_49  and  CE_48 
REMARK   33  A    between atoms: CG_50  and  CD_49 
REMARK   34  A    between atoms: CB_51  and  CG_50 
REMARK   35  A    between atoms: CA_52  and  CB_51 
REMARK   36  A    between atoms: CA_52  and  N_53 
REMARK   37  A    between atoms: CA_52  and  C_54 
REMARK       I    between atoms: C_54  and  N_56 
REMARK   38  A    between atoms: N_56  and  CA_57 
REMARK   39  A    between atoms: CA_57  and  C_58 
REMARK   40  A    between atoms: CA_57  and  CB_60 
REMARK       I    between atoms: C_58  and  N_63 
REMARK   41  A    between atoms: CB_60  and  OG1_61 
REMARK   42  A    between atoms: CB_60  and  CG2_62 
REMARK   43  A    between atoms: N_63  and  CA_64 
REMARK   44  A    between atoms: CA_64  and  C_65 
REMARK   45  A    between atoms: CA_64  and  CB_67 
REMARK       I    between atoms: C_65  and  N_72 
REMARK   46  A    between atoms: CB_67  and  CG_68 
REMARK   47  A    between atoms: CG_68  and  CD_69 
REMARK       I    between atoms: CD_69  and  NE2_71 
REMARK   48  A    between atoms: N_72  and  CA_73 
REMARK   49  A    between atoms: CA_73  and  C_74 
REMARK   50  A    between atoms: CA_73  and  CB_76 
ROOT
ATOM      1  CA  LYS d   1      42.099  11.885  29.382  0.00  0.00     0.089 C 
ATOM      2  H42 LYS d   1      42.867  12.618  29.670  0.00  0.00     0.087 H 
ENDROOT
BRANCH   1   3
ATOM      3  N   LYS d   1      41.174  12.483  28.391  0.00  0.00    -0.346 N 
ATOM      4  C   GLY d   1      41.623  13.229  27.414  0.00  0.00     0.236 C 
ATOM      5  O   GLY d   1      42.819  13.451  27.289  0.00  0.00    -0.272 OA
ATOM      6  H41 LYS d   1      40.191  12.314  28.470  0.00  0.00     0.163 HD
BRANCH   4   7
ATOM      7  CA  GLY d   1      40.542  13.775  26.487  0.00  0.00     0.069 C 
ATOM      8  H39 GLY d   1      39.906  12.932  26.179  0.00  0.00     0.078 H 
ATOM      9  H40 GLY d   1      39.942  14.498  27.059  0.00  0.00     0.078 H 
BRANCH   7  10
ATOM     10  N   GLY d   1      41.007  14.433  25.298  0.00  0.00    -0.351 N 
ATOM     11  C   ALY d   1      41.666  15.575  25.339  0.00  0.00     0.240 C 
ATOM     12  O   ALY d   1      41.860  16.229  26.422  0.00  0.00    -0.271 OA
ATOM     13  H38 GLY d   1      40.825  14.011  24.410  0.00  0.00     0.163 HD
BRANCH  11  14
ATOM     14  CA  ALY d   1      42.141  16.072  23.973  0.00  0.00     0.089 C 
ATOM     15  H36 ALY d   1      41.302  16.000  23.266  0.00  0.00     0.087 H 
BRANCH  14  16
ATOM     16  CB  ALY d   1      43.306  15.224  23.398  0.00  0.00    -0.038 C 
ATOM     17  H34 ALY d   1      44.201  15.393  24.015  0.00  0.00     0.036 H 
ATOM     18  H35 ALY d   1      43.023  14.162  23.444  0.00  0.00     0.036 H 
BRANCH  16  19
ATOM     19  CG  ALY d   1      43.644  15.584  21.924  0.00  0.00    -0.061 C 
ATOM     20  H32 ALY d   1      42.732  15.463  21.322  0.00  0.00     0.033 H 
ATOM     21  H33 ALY d   1      43.968  16.635  21.892  0.00  0.00     0.033 H 
BRANCH  19  22
ATOM     22  CD  ALY d   1      44.752  14.719  21.300  0.00  0.00    -0.050 C 
ATOM     23  H30 ALY d   1      45.681  14.910  21.857  0.00  0.00     0.035 H 
ATOM     24  H31 ALY d   1      44.463  13.665  21.419  0.00  0.00     0.035 H 
BRANCH  22  25
ATOM     25  CE  ALY d   1      45.045  14.966  19.782  0.00  0.00    -0.005 C 
ATOM     26  H28 ALY d   1      44.123  14.807  19.203  0.00  0.00     0.064 H 
ATOM     27  H29 ALY d   1      45.392  16.001  19.642  0.00  0.00     0.064 H 
BRANCH  25  28
ATOM     28  NZ  ALY d   1      46.087  14.034  19.306  0.00  0.00    -0.361 N 
ATOM     29  CH  ALY d   1      47.371  14.343  19.092  0.00  0.00     0.213 C 
ATOM     30  OH  ALY d   1      47.813  15.503  19.249  0.00  0.00    -0.274 OA
ATOM     31  H27 ALY d   1      45.809  13.090  19.128  0.00  0.00     0.162 HD
BRANCH  29  32
ATOM     32  CH3 ALY d   1      48.282  13.239  18.640  0.00  0.00    -0.003 C 
ATOM     33  H24 ALY d   1      47.712  12.302  18.562  0.00  0.00     0.040 H 
ATOM     34  H25 ALY d   1      49.096  13.113  19.370  0.00  0.00     0.040 H 
ATOM     35  H26 ALY d   1      48.706  13.493  17.657  0.00  0.00     0.040 H 
ENDBRANCH  29  32
ENDBRANCH  25  28
ENDBRANCH  22  25
ENDBRANCH  19  22
ENDBRANCH  16  19
ENDBRANCH  14  16
BRANCH  14  36
ATOM     36  N   ALY d   1      42.498  17.478  24.126  0.00  0.00    -0.346 N 
ATOM     37  C   ALA d   1      41.574  18.430  24.270  0.00  0.00     0.240 C 
ATOM     38  O   ALA d   1      40.368  18.225  24.114  0.00  0.00    -0.271 OA
ATOM     39  H37 ALY d   1      43.464  17.736  24.123  0.00  0.00     0.163 HD
BRANCH  37  40
ATOM     40  CA  ALA d   1      42.086  19.809  24.665  0.00  0.00     0.086 C 
ATOM     41  H20 ALA d   1      43.107  19.927  24.273  0.00  0.00     0.086 H 
BRANCH  40  42
ATOM     42  N   ALA d   1      41.247  20.863  24.099  0.00  0.00    -0.346 N 
ATOM     43  C   LYS d   1      41.160  21.084  22.790  0.00  0.00     0.241 C 
ATOM     44  O   LYS d   1      41.847  20.473  21.946  0.00  0.00    -0.271 OA
ATOM     45  H19 ALA d   1      40.717  21.441  24.720  0.00  0.00     0.163 HD
BRANCH  43  46
ATOM     46  CA  LYS d   1      40.150  22.157  22.371  0.00  0.00     0.089 C 
ATOM     47  H7  LYS d   1      39.969  22.784  23.256  0.00  0.00     0.087 H 
BRANCH  46  48
ATOM     48  N   LYS d   1      40.623  23.043  21.308  0.00  0.00    -0.346 N 
ATOM     49  C   GLY d   1      41.836  23.595  21.270  0.00  0.00     0.243 C 
ATOM     50  O   GLY d   1      42.686  23.444  22.150  0.00  0.00    -0.272 OA
ATOM     51  H6  LYS d   1      39.994  23.249  20.559  0.00  0.00     0.163 HD
BRANCH  49  52
ATOM     52  CA  GLY d   1      42.120  24.452  20.050  0.00  0.00     0.152 C 
ATOM     53  H4  GLY d   1      42.302  23.793  19.189  0.00  0.00     0.090 H 
ATOM     54  H5  GLY d   1      41.242  25.084  19.849  0.00  0.00     0.090 H 
BRANCH  52  55
ATOM     55  N   GLY d   1      43.305  25.326  20.242  0.00  0.00    -0.071 N 
ATOM     56  H1  GLY d   1      43.456  25.875  19.410  0.00  0.00     0.274 HD
ATOM     57  H2  GLY d   1      44.117  24.756  20.420  0.00  0.00     0.274 HD
ATOM     58  H3  GLY d   1      43.146  25.940  21.026  0.00  0.00     0.274 HD
ENDBRANCH  52  55
ENDBRANCH  49  52
ENDBRANCH  46  48
BRANCH  46  59
ATOM     59  CB  LYS d   1      38.798  21.527  21.961  0.00  0.00    -0.038 C 
ATOM     60  H8  LYS d   1      38.959  20.942  21.044  0.00  0.00     0.036 H 
ATOM     61  H9  LYS d   1      38.090  22.344  21.755  0.00  0.00     0.036 H 
BRANCH  59  62
ATOM     62  CG  LYS d   1      38.165  20.604  23.006  0.00  0.00    -0.061 C 
ATOM     63  H10 LYS d   1      38.438  20.976  24.005  0.00  0.00     0.033 H 
ATOM     64  H11 LYS d   1      38.576  19.593  22.867  0.00  0.00     0.033 H 
BRANCH  62  65
ATOM     65  CD  LYS d   1      36.643  20.517  22.927  0.00  0.00    -0.043 C 
ATOM     66  H12 LYS d   1      36.262  21.470  22.531  0.00  0.00     0.035 H 
ATOM     67  H13 LYS d   1      36.252  20.360  23.943  0.00  0.00     0.035 H 
BRANCH  65  68
ATOM     68  CE  LYS d   1      36.135  19.397  22.043  0.00  0.00     0.080 C 
ATOM     69  H14 LYS d   1      36.548  19.549  21.035  0.00  0.00     0.075 H 
ATOM     70  H15 LYS d   1      35.038  19.468  22.005  0.00  0.00     0.075 H 
BRANCH  68  71
ATOM     71  NZ  LYS d   1      36.489  18.014  22.479  0.00  0.00    -0.079 N 
ATOM     72  H16 LYS d   1      36.106  17.348  21.827  0.00  0.00     0.274 HD
ATOM     73  H17 LYS d   1      36.108  17.843  23.397  0.00  0.00     0.274 HD
ATOM     74  H18 LYS d   1      37.492  17.917  22.508  0.00  0.00     0.274 HD
ENDBRANCH  68  71
ENDBRANCH  65  68
ENDBRANCH  62  65
ENDBRANCH  59  62
ENDBRANCH  46  59
ENDBRANCH  43  46
ENDBRANCH  40  42
BRANCH  40  75
ATOM     75  CB  ALA d   1      42.127  19.936  26.185  0.00  0.00    -0.049 C 
ATOM     76  H21 ALA d   1      42.760  19.139  26.602  0.00  0.00     0.030 H 
ATOM     77  H22 ALA d   1      41.108  19.843  26.588  0.00  0.00     0.030 H 
ATOM     78  H23 ALA d   1      42.543  20.917  26.460  0.00  0.00     0.030 H 
ENDBRANCH  40  75
ENDBRANCH  37  40
ENDBRANCH  14  36
ENDBRANCH  11  14
ENDBRANCH   7  10
ENDBRANCH   4   7
ENDBRANCH   1   3
BRANCH   1  79
ATOM     79  C   LYS d   1      42.770  10.708  28.696  0.00  0.00     0.241 C 
ATOM     80  O   LYS d   1      42.120   9.971  27.956  0.00  0.00    -0.271 OA
ATOM     81  N   ALY d   1      44.077  10.546  28.918  0.00  0.00    -0.346 N 
ATOM     82  H67 ALY d   1      44.543  11.178  29.537  0.00  0.00     0.163 HD
BRANCH  81  83
ATOM     83  CA  ALY d   1      44.864   9.458  28.276  0.00  0.00     0.089 C 
ATOM     84  H66 ALY d   1      44.117   8.824  27.776  0.00  0.00     0.087 H 
BRANCH  83  85
ATOM     85  CB  ALY d   1      45.822   9.944  27.236  0.00  0.00    -0.038 C 
ATOM     86  H64 ALY d   1      46.740  10.292  27.732  0.00  0.00     0.036 H 
ATOM     87  H65 ALY d   1      46.064   9.113  26.558  0.00  0.00     0.036 H 
BRANCH  85  88
ATOM     88  CG  ALY d   1      45.243  11.072  26.436  0.00  0.00    -0.061 C 
ATOM     89  H62 ALY d   1      44.195  11.219  26.735  0.00  0.00     0.033 H 
ATOM     90  H63 ALY d   1      45.816  11.988  26.646  0.00  0.00     0.033 H 
BRANCH  88  91
ATOM     91  CD  ALY d   1      45.293  10.798  24.977  0.00  0.00    -0.050 C 
ATOM     92  H60 ALY d   1      46.338  10.853  24.637  0.00  0.00     0.035 H 
ATOM     93  H61 ALY d   1      44.898   9.789  24.787  0.00  0.00     0.035 H 
BRANCH  91  94
ATOM     94  CE  ALY d   1      44.464  11.810  24.201  0.00  0.00    -0.005 C 
ATOM     95  H58 ALY d   1      43.971  12.500  24.902  0.00  0.00     0.064 H 
ATOM     96  H59 ALY d   1      45.116  12.380  23.523  0.00  0.00     0.064 H 
BRANCH  94  97
ATOM     97  NZ  ALY d   1      43.450  11.088  23.422  0.00  0.00    -0.361 N 
ATOM     98  CH  ALY d   1      43.724  10.699  22.156  0.00  0.00     0.213 C 
ATOM     99  OH  ALY d   1      44.771  11.013  21.644  0.00  0.00    -0.274 OA
ATOM    100  H57 ALY d   1      42.559  10.884  23.827  0.00  0.00     0.162 HD
BRANCH  98 101
ATOM    101  CH3 ALY d   1      42.707   9.923  21.379  0.00  0.00    -0.003 C 
ATOM    102  H54 ALY d   1      41.828   9.734  22.012  0.00  0.00     0.040 H 
ATOM    103  H55 ALY d   1      43.142   8.964  21.061  0.00  0.00     0.040 H 
ATOM    104  H56 ALY d   1      42.404  10.500  20.493  0.00  0.00     0.040 H 
ENDBRANCH  98 101
ENDBRANCH  94  97
ENDBRANCH  91  94
ENDBRANCH  88  91
ENDBRANCH  85  88
ENDBRANCH  83  85
BRANCH  83 105
ATOM    105  C   ALY d   1      45.689   8.555  29.138  0.00  0.00     0.241 C 
ATOM    106  O   ALY d   1      46.130   7.492  28.680  0.00  0.00    -0.271 OA
ATOM    107  N   THR d   1      46.030   9.003  30.319  0.00  0.00    -0.344 N 
ATOM    108  H68 THR d   1      45.839   9.949  30.581  0.00  0.00     0.163 HD
BRANCH 107 109
ATOM    109  CA  THR d   1      46.681   8.112  31.228  0.00  0.00     0.113 C 
ATOM    110  H69 THR d   1      46.609   7.096  30.814  0.00  0.00     0.091 H 
BRANCH 109 111
ATOM    111  C   THR d   1      46.035   8.120  32.551  0.00  0.00     0.243 C 
ATOM    112  O   THR d   1      45.191   8.992  32.862  0.00  0.00    -0.271 OA
ATOM    113  N   GLN d   1      46.433   7.075  33.275  0.00  0.00    -0.346 N 
ATOM    114  H75 GLN d   1      47.118   6.471  32.868  0.00  0.00     0.163 HD
BRANCH 113 115
ATOM    115  CA  GLN d   1      45.971   6.750  34.563  0.00  0.00     0.090 C 
ATOM    116  H76 GLN d   1      45.004   7.234  34.763  0.00  0.00     0.087 H 
BRANCH 115 117
ATOM    117  C   GLN d   1      46.997   7.194  35.566  0.00  0.00     0.241 C 
ATOM    118  O   GLN d   1      48.133   6.733  35.543  0.00  0.00    -0.271 OA
ATOM    119  N   MET d   1      46.590   8.133  36.408  0.00  0.00    -0.345 N 
ATOM    120  H83 MET d   1      45.697   8.554  36.250  0.00  0.00     0.163 HD
BRANCH 119 121
ATOM    121  CA  MET d   1      47.370   8.584  37.547  0.00  0.00     0.093 C 
ATOM    122  H84 MET d   1      48.364   8.114  37.526  0.00  0.00     0.089 H 
BRANCH 121 123
ATOM    123  C   MET d   1      46.634   8.164  38.805  0.00  0.00     0.196 C 
ATOM    124  O   MET d   1      45.617   8.761  39.155  0.00  0.00    -0.646 OA
ATOM    125  OXT MET d   1      47.051   7.225  39.481  0.00  0.00    -0.646 OA
ENDBRANCH 121 123
BRANCH 121 126
ATOM    126  CB  MET d   1      47.532  10.108  37.502  0.00  0.00    -0.048 C 
ATOM    127  H85 MET d   1      48.124  10.440  38.368  0.00  0.00     0.030 H 
ATOM    128  H86 MET d   1      46.540  10.583  37.532  0.00  0.00     0.030 H 
ATOM    129  H87 MET d   1      48.048  10.395  36.574  0.00  0.00     0.030 H 
ENDBRANCH 121 126
ENDBRANCH 119 121
ENDBRANCH 115 117
BRANCH 115 130
ATOM    130  CB  GLN d   1      45.838   5.244  34.634  0.00  0.00    -0.030 C 
ATOM    131  H77 GLN d   1      45.337   4.975  35.576  0.00  0.00     0.037 H 
ATOM    132  H78 GLN d   1      46.843   4.796  34.611  0.00  0.00     0.037 H 
BRANCH 130 133
ATOM    133  CG  GLN d   1      45.032   4.697  33.477  0.00  0.00     0.011 C 
ATOM    134  H79 GLN d   1      44.799   3.643  33.686  0.00  0.00     0.047 H 
ATOM    135  H80 GLN d   1      45.646   4.763  32.566  0.00  0.00     0.047 H 
BRANCH 133 136
ATOM    136  CD  GLN d   1      43.731   5.431  33.228  0.00  0.00     0.215 C 
ATOM    137  OE1 GLN d   1      43.643   6.273  32.323  0.00  0.00    -0.274 OA
ATOM    138  NE2 GLN d   1      42.716   5.139  34.040  0.00  0.00    -0.370 N 
ATOM    139  H81 GLN d   1      41.834   5.594  33.921  0.00  0.00     0.159 HD
ATOM    140  H82 GLN d   1      42.837   4.465  34.769  0.00  0.00     0.159 HD
ENDBRANCH 133 136
ENDBRANCH 130 133
ENDBRANCH 115 130
ENDBRANCH 113 115
ENDBRANCH 109 111
BRANCH 109 141
ATOM    141  CB  THR d   1      48.152   8.459  31.394  0.00  0.00     0.060 C 
ATOM    142  H70 THR d   1      48.572   7.840  32.200  0.00  0.00     0.086 H 
BRANCH 141 143
ATOM    143  OG1 THR d   1      48.282   9.826  31.751  0.00  0.00    -0.393 OA
ATOM    144  H71 THR d   1      47.905  10.368  31.068  0.00  0.00     0.210 HD
ENDBRANCH 141 143
BRANCH 141 145
ATOM    145  CG2 THR d   1      48.897   8.184  30.155  0.00  0.00    -0.050 C 
ATOM    146  H72 THR d   1      49.956   8.442  30.299  0.00  0.00     0.031 H 
ATOM    147  H73 THR d   1      48.481   8.788  29.335  0.00  0.00     0.031 H 
ATOM    148  H74 THR d   1      48.811   7.116  29.905  0.00  0.00     0.031 H 
ENDBRANCH 141 145
ENDBRANCH 109 141
ENDBRANCH 107 109
ENDBRANCH  83 105
ENDBRANCH  81  83
ENDBRANCH   1  79
BRANCH   1 149
ATOM    149  CB  LYS d   1      41.307  11.496  30.625  0.00  0.00    -0.038 C 
ATOM    150  H43 LYS d   1      40.367  11.037  30.285  0.00  0.00     0.036 H 
ATOM    151  H44 LYS d   1      41.084  12.422  31.176  0.00  0.00     0.036 H 
BRANCH 149 152
ATOM    152  CG  LYS d   1      41.962  10.521  31.614  0.00  0.00    -0.061 C 
ATOM    153  H45 LYS d   1      42.859  10.987  32.047  0.00  0.00     0.033 H 
ATOM    154  H46 LYS d   1      42.246   9.599  31.085  0.00  0.00     0.033 H 
BRANCH 152 155
ATOM    155  CD  LYS d   1      40.979  10.185  32.726  0.00  0.00    -0.043 C 
ATOM    156  H47 LYS d   1      40.038   9.855  32.261  0.00  0.00     0.035 H 
ATOM    157  H48 LYS d   1      40.799  11.100  33.309  0.00  0.00     0.035 H 
BRANCH 155 158
ATOM    158  CE  LYS d   1      41.440   9.090  33.692  0.00  0.00     0.080 C 
ATOM    159  H49 LYS d   1      42.420   9.377  34.100  0.00  0.00     0.075 H 
ATOM    160  H50 LYS d   1      41.538   8.150  33.130  0.00  0.00     0.075 H 
BRANCH 158 161
ATOM    161  NZ  LYS d   1      40.504   8.861  34.832  0.00  0.00    -0.079 N 
ATOM    162  H51 LYS d   1      40.868   8.131  35.424  0.00  0.00     0.274 HD
ATOM    163  H52 LYS d   1      39.602   8.586  34.476  0.00  0.00     0.274 HD
ATOM    164  H53 LYS d   1      40.410   9.711  35.365  0.00  0.00     0.274 HD
ENDBRANCH 158 161
ENDBRANCH 155 158
ENDBRANCH 152 155
ENDBRANCH 149 152
ENDBRANCH   1 149
TORSDOF 50
