REMARK  3 active torsions:
REMARK  status: ('A' for Active; 'I' for Inactive)
REMARK    1  A    between atoms: CAN_15  and  NAU_14 
REMARK    2  A    between atoms: CAE_19  and  CAH_18 
REMARK    3  A    between atoms: NAA_27  and  CAG_28 
ROOT
ATOM      1  OBD 92T d   1      30.199  -0.817 -26.887  0.00  0.00    -0.246 OA
ATOM      2  CAY 92T d   1      31.013  -0.158 -27.521  0.00  0.00     0.328 A 
ATOM      3  NAX 92T d   1      32.182  -0.602 -27.925  0.00  0.00    -0.306 N 
ATOM      4  CAW 92T d   1      32.762   0.408 -28.559  0.00  0.00     0.065 A 
ATOM      5  CBC 92T d   1      33.962   0.462 -29.162  0.00  0.00    -0.035 A 
ATOM      6  CBB 92T d   1      34.349   1.657 -29.770  0.00  0.00     0.046 A 
ATOM      7  CBE 92T d   1      35.584   1.748 -30.414  0.00  0.00     0.099 C 
ATOM      8  NBF 92T d   1      36.560   1.909 -30.935  0.00  0.00    -0.191 NA
ATOM      9  CBA 92T d   1      33.502   2.763 -29.728  0.00  0.00    -0.061 A 
ATOM     10  CAZ 92T d   1      32.270   2.645 -29.084  0.00  0.00    -0.053 A 
ATOM     11  CAV 92T d   1      31.931   1.476 -28.517  0.00  0.00     0.066 A 
ATOM     12  NAU 92T d   1      30.839   1.112 -27.849  0.00  0.00    -0.293 N 
ATOM     13  H2  92T d   1      32.559  -1.518 -27.783  0.00  0.00     0.171 HD
ATOM     14  H3  92T d   1      34.615  -0.403 -29.176  0.00  0.00     0.089 H 
ATOM     15  H4  92T d   1      33.796   3.700 -30.188  0.00  0.00     0.086 H 
ATOM     16  H5  92T d   1      31.592   3.490 -29.042  0.00  0.00     0.087 H 
ENDROOT
BRANCH  12  17
ATOM     17  CAN 92T d   1      29.532   1.761 -27.457  0.00  0.00     0.023 A 
ATOM     18  CBH 92T d   1      28.756   2.122 -28.727  0.00  0.00    -0.035 A 
ATOM     19  CAH 92T d   1      28.763   3.588 -28.295  0.00  0.00     0.010 A 
ATOM     20  H7  92T d   1      27.753   1.674 -28.786  0.00  0.00     0.037 H 
ATOM     21  H8  92T d   1      29.302   1.924 -29.661  0.00  0.00     0.037 H 
ATOM     22  CBG 92T d   1      29.602   3.226 -27.052  0.00  0.00    -0.035 A 
ATOM     23  H11 92T d   1      29.239   4.281 -29.004  0.00  0.00     0.052 H 
ATOM     24  H9  92T d   1      30.618   3.648 -27.054  0.00  0.00     0.037 H 
ATOM     25  H10 92T d   1      29.112   3.454 -26.094  0.00  0.00     0.037 H 
ATOM     26  H6  92T d   1      28.992   1.129 -26.737  0.00  0.00     0.073 H 
BRANCH  19  27
ATOM     27  CAE 92T d   1      27.355   4.094 -27.873  0.00  0.00     0.139 A 
ATOM     28  NAD 92T d   1      26.365   3.359 -27.364  0.00  0.00    -0.134 NA
ATOM     29  NAC 92T d   1      25.353   4.129 -27.126  0.00  0.00    -0.127 NA
ATOM     30  CAB 92T d   1      25.701   5.367 -27.486  0.00  0.00     0.187 A 
ATOM     31  C4  92T d   1      24.881   6.412 -27.348  0.00  0.00     0.107 A 
ATOM     32  NAA 92T d   1      26.963   5.364 -27.950  0.00  0.00    -0.277 N 
ATOM     33  N3  92T d   1      25.233   7.430 -26.529  0.00  0.00    -0.238 NA
ATOM     34  C5  92T d   1      23.644   6.423 -28.001  0.00  0.00    -0.034 A 
ATOM     35  C2  92T d   1      24.372   8.528 -26.324  0.00  0.00     0.087 A 
ATOM     36  N1  92T d   1      23.140   8.541 -26.988  0.00  0.00    -0.254 NA
ATOM     37  H1  92T d   1      24.657   9.342 -25.668  0.00  0.00     0.146 H 
ATOM     38  C6  92T d   1      22.770   7.484 -27.824  0.00  0.00     0.006 A 
ATOM     39  H12 92T d   1      21.811   7.494 -28.328  0.00  0.00     0.114 H 
ATOM     40  H13 92T d   1      23.368   5.598 -28.648  0.00  0.00     0.089 H 
BRANCH  32  41
ATOM     41  CAG 92T d   1      27.713   6.371 -28.411  0.00  0.00     0.064 A 
ATOM     42  CAI 92T d   1      27.439   6.914 -29.666  0.00  0.00     0.061 A 
ATOM     43 CL1  92T d   1      26.077   6.326 -30.608  0.00  0.00    -0.082 Cl
ATOM     44  CAJ 92T d   1      28.223   7.952 -30.162  0.00  0.00    -0.060 A 
ATOM     45  CAK 92T d   1      29.286   8.431 -29.398  0.00  0.00    -0.081 A 
ATOM     46  H14 92T d   1      28.009   8.384 -31.133  0.00  0.00     0.086 H 
ATOM     47  CAL 92T d   1      29.580   7.881 -28.149  0.00  0.00    -0.081 A 
ATOM     48  H15 92T d   1      29.894   9.243 -29.780  0.00  0.00     0.083 H 
ATOM     49  CAM 92T d   1      28.792   6.845 -27.653  0.00  0.00    -0.055 A 
ATOM     50  H16 92T d   1      30.415   8.257 -27.570  0.00  0.00     0.083 H 
ATOM     51  H17 92T d   1      29.012   6.408 -26.686  0.00  0.00     0.087 H 
ENDBRANCH  32  41
ENDBRANCH  19  27
ENDBRANCH  12  17
TORSDOF 3
