REMARK  6 active torsions:
REMARK  status: ('A' for Active; 'I' for Inactive)
REMARK    1  A    between atoms: CAS_7  and  CAT_8 
REMARK    2  A    between atoms: CAR_12  and  CAB_13 
REMARK    3  A    between atoms: CAP_16  and  CAA_17 
REMARK    4  A    between atoms: CAU_18  and  CAL_19 
REMARK    5  A    between atoms: CAL_19  and  CAK_20 
REMARK    6  A    between atoms: CAK_20  and  CAO_21 
ROOT
ATOM      1  CAT MOL d   1       4.640   5.278  28.561  0.00  0.00     0.091 A 
ATOM      2  CAJ MOL d   1       4.804   4.216  27.723  0.00  0.00    -0.006 A 
ATOM      3  NAN MOL d   1       4.837   4.819  29.831  0.00  0.00    -0.165 NA
ATOM      4  NAW MOL d   1       5.067   3.592  29.874  0.00  0.00    -0.219 N 
ATOM      5  CAR MOL d   1       5.331   2.685  30.961  0.00  0.00     0.043 A 
ATOM      6  CAV MOL d   1       5.059   3.131  28.509  0.00  0.00     0.153 A 
ATOM      7  NAM MOL d   1       5.293   1.815  28.298  0.00  0.00    -0.234 NA
ATOM      8  CAP MOL d   1       5.531   0.944  29.331  0.00  0.00     0.041 A 
ATOM      9  CAU MOL d   1       5.580   1.334  30.685  0.00  0.00    -0.009 A 
ATOM     10  H5  MOL d   1       4.743   4.231  26.636  0.00  0.00     0.093 H 
ENDROOT
BRANCH   1  11
ATOM     11  CAS MOL d   1       4.359   6.641  28.281  0.00  0.00    -0.005 A 
ATOM     12  CAH MOL d   1       4.267   7.536  29.344  0.00  0.00    -0.069 A 
ATOM     13  CAF MOL d   1       4.032   8.891  29.141  0.00  0.00    -0.065 A 
ATOM     14  H1  MOL d   1       4.382   7.166  30.357  0.00  0.00     0.085 H 
ATOM     15  CAQ MOL d   1       3.805   9.363  27.890  0.00  0.00     0.011 A 
ATOM     16  H2  MOL d   1       4.030   9.572  29.985  0.00  0.00     0.085 H 
ATOM     17 BR   MOL d   1       3.469  11.230  27.611  0.00  0.00    -0.051 Br
ATOM     18  CAG MOL d   1       3.879   8.449  26.799  0.00  0.00    -0.065 A 
ATOM     19  CAI MOL d   1       4.174   7.119  26.989  0.00  0.00    -0.069 A 
ATOM     20  H3  MOL d   1       3.698   8.811  25.794  0.00  0.00     0.085 H 
ATOM     21  H4  MOL d   1       4.261   6.451  26.140  0.00  0.00     0.085 H 
ENDBRANCH   1  11
BRANCH   5  22
ATOM     22  CAB MOL d   1       5.341   3.195  32.424  0.00  0.00    -0.035 C 
ATOM     23  H6  MOL d   1       5.560   2.357  33.103  0.00  0.00     0.035 H 
ATOM     24  H7  MOL d   1       4.357   3.619  32.671  0.00  0.00     0.035 H 
ATOM     25  H8  MOL d   1       6.113   3.970  32.537  0.00  0.00     0.035 H 
ENDBRANCH   5  22
BRANCH   8  26
ATOM     26  CAA MOL d   1       5.769  -0.552  29.045  0.00  0.00    -0.035 C 
ATOM     27  H9  MOL d   1       5.941  -1.084  29.993  0.00  0.00     0.035 H 
ATOM     28  H10 MOL d   1       6.650  -0.666  28.396  0.00  0.00     0.035 H 
ATOM     29  H11 MOL d   1       4.886  -0.974  28.542  0.00  0.00     0.035 H 
ENDBRANCH   8  26
BRANCH   9  30
ATOM     30  CAL MOL d   1       5.846   0.251  31.778  0.00  0.00    -0.028 C 
ATOM     31  H12 MOL d   1       5.909  -0.719  31.263  0.00  0.00     0.041 H 
ATOM     32  H13 MOL d   1       4.977   0.253  32.452  0.00  0.00     0.041 H 
BRANCH  30  33
ATOM     33  CAK MOL d   1       7.118   0.378  32.671  0.00  0.00     0.019 C 
ATOM     34  H14 MOL d   1       7.285  -0.595  33.156  0.00  0.00     0.049 H 
ATOM     35  H15 MOL d   1       6.913   1.139  33.438  0.00  0.00     0.049 H 
BRANCH  33  36
ATOM     36  CAO MOL d   1       8.432   0.777  31.949  0.00  0.00     0.172 C 
ATOM     37  OAD MOL d   1       8.762   0.109  30.938  0.00  0.00    -0.648 OA
ATOM     38  OAC MOL d   1       9.088   1.736  32.449  0.00  0.00    -0.648 OA
ENDBRANCH  33  36
ENDBRANCH  30  33
ENDBRANCH   9  30
TORSDOF 6
