REMARK  7 active torsions:
REMARK  status: ('A' for Active; 'I' for Inactive)
REMARK    1  A    between atoms: C4_1  and  O10_10 
REMARK    2  A    between atoms: C5_2  and  C8_7 
REMARK    3  A    between atoms: C6_3  and  O7_8 
REMARK    4  A    between atoms: C3_4  and  O11_11 
REMARK    5  A    between atoms: C2_5  and  O12_12 
REMARK    6  A    between atoms: C8_7  and  O9_9 
REMARK    7  A    between atoms: O7_8  and  S13_13 
ROOT
ATOM      1  C4  93Z d   1      82.892  15.604  37.101  0.00  0.00     0.070 C 
ATOM      2  C5  93Z d   1      83.693  14.288  37.010  0.00  0.00     0.020 C 
ATOM      3  C6  93Z d   1      83.510  13.549  35.667  0.00  0.00     0.070 C 
ATOM      4  C3  93Z d   1      83.220  16.445  35.869  0.00  0.00     0.085 C 
ATOM      5  C2  93Z d   1      82.604  15.780  34.637  0.00  0.00     0.065 C 
ATOM      6  C1  93Z d   1      82.648  14.248  34.624  0.00  0.00    -0.013 C 
ATOM      7  H1  93Z d   1      81.814  15.385  37.124  0.00  0.00     0.087 H 
ATOM      8  H2  93Z d   1      84.754  14.574  37.063  0.00  0.00     0.051 H 
ATOM      9  H3  93Z d   1      82.988  12.612  35.911  0.00  0.00     0.086 H 
ATOM     10  H4  93Z d   1      84.312  16.514  35.756  0.00  0.00     0.090 H 
ATOM     11  H5  93Z d   1      81.541  16.061  34.636  0.00  0.00     0.087 H 
ATOM     12  H6  93Z d   1      81.617  13.890  34.759  0.00  0.00     0.040 H 
ATOM     13  H7  93Z d   1      83.017  13.940  33.635  0.00  0.00     0.040 H 
ENDROOT
BRANCH   2  14
ATOM     14  C8  93Z d   1      83.436  13.351  38.201  0.00  0.00     0.025 C 
ATOM     15  H8  93Z d   1      83.640  13.905  39.129  0.00  0.00     0.074 H 
ATOM     16  H9  93Z d   1      84.124  12.496  38.125  0.00  0.00     0.074 H 
BRANCH  14  17
ATOM     17  O9  93Z d   1      82.104  12.851  38.260  0.00  0.00    -0.400 OA
ATOM     18  H10 93Z d   1      81.916  12.361  37.468  0.00  0.00     0.209 HD
ENDBRANCH  14  17
ENDBRANCH   2  14
BRANCH   1  19
ATOM     19  O10 93Z d   1      83.261  16.301  38.291  0.00  0.00    -0.392 OA
ATOM     20  H11 93Z d   1      83.051  15.766  39.048  0.00  0.00     0.210 HD
ENDBRANCH   1  19
BRANCH   3  21
ATOM     21  O7  93Z d   1      84.787  13.184  35.093  0.00  0.00    -0.251 OA
BRANCH  21  22
ATOM     22  S13 93Z d   1      85.366  11.775  35.495  0.00  0.00     0.252 S 
ATOM     23  O14 93Z d   1      86.034  11.332  34.249  0.00  0.00    -0.572 OA
ATOM     24  O15 93Z d   1      84.325  10.806  35.976  0.00  0.00    -0.572 OA
ATOM     25  O16 93Z d   1      86.296  11.982  36.635  0.00  0.00    -0.572 OA
ENDBRANCH  21  22
ENDBRANCH   3  21
BRANCH   4  26
ATOM     26  O11 93Z d   1      82.659  17.768  35.966  0.00  0.00    -0.390 OA
ATOM     27  H12 93Z d   1      82.870  18.259  35.181  0.00  0.00     0.210 HD
ENDBRANCH   4  26
BRANCH   5  28
ATOM     28  O12 93Z d   1      83.183  16.292  33.424  0.00  0.00    -0.393 OA
ATOM     29  H13 93Z d   1      84.086  16.003  33.359  0.00  0.00     0.210 HD
ENDBRANCH   5  28
TORSDOF 7
