REMARK  5 active torsions:
REMARK  status: ('A' for Active; 'I' for Inactive)
REMARK    1  A    between atoms: C3_2  and  O3_12 
REMARK    2  A    between atoms: C2_4  and  O2_13 
REMARK    3  A    between atoms: C4_5  and  O4_11 
REMARK    4  A    between atoms: C5_6  and  C7_7 
REMARK    5  A    between atoms: C7_7  and  O7_10 
ROOT
ATOM      1  C1  94E d   1      29.986  80.401  34.969  0.00  0.00     0.113 C 
ATOM      2  C3  94E d   1      27.622  80.331  35.974  0.00  0.00     0.088 C 
ATOM      3  C6  94E d   1      30.633  79.863  36.232  0.00  0.00     0.096 C 
ATOM      4  C2  94E d   1      28.535  79.902  34.832  0.00  0.00     0.091 C 
ATOM      5  C4  94E d   1      28.194  79.651  37.213  0.00  0.00     0.070 C 
ATOM      6  C5  94E d   1      29.704  79.943  37.465  0.00  0.00     0.023 C 
ATOM      7  O6  94E d   1      31.841  80.644  36.441  0.00  0.00    -0.245 OA
ATOM      8  O1  94E d   1      30.208  81.808  35.127  0.00  0.00    -0.243 OA
ATOM      9  S14 94E d   1      31.588  82.058  35.821  0.00  0.00     0.403 S 
ATOM     10  O15 94E d   1      32.547  82.466  34.830  0.00  0.00    -0.169 OA
ATOM     11  O16 94E d   1      31.542  83.079  36.868  0.00  0.00    -0.169 OA
ATOM     12  H1  94E d   1      30.531  80.052  34.080  0.00  0.00     0.093 H 
ATOM     13  H2  94E d   1      27.678  81.423  36.091  0.00  0.00     0.091 H 
ATOM     14  H3  94E d   1      30.903  78.808  36.075  0.00  0.00     0.090 H 
ATOM     15  H4  94E d   1      28.604  78.805  34.886  0.00  0.00     0.091 H 
ATOM     16  H5  94E d   1      28.091  78.562  37.099  0.00  0.00     0.087 H 
ATOM     17  H6  94E d   1      29.759  80.974  37.843  0.00  0.00     0.051 H 
ENDROOT
BRANCH   6  18
ATOM     18  C7  94E d   1      30.286  79.011  38.540  0.00  0.00     0.025 C 
ATOM     19  H7  94E d   1      29.809  79.236  39.505  0.00  0.00     0.074 H 
ATOM     20  H8  94E d   1      31.369  79.185  38.617  0.00  0.00     0.074 H 
BRANCH  18  21
ATOM     21  O7  94E d   1      30.056  77.632  38.215  0.00  0.00    -0.400 OA
ATOM     22  H9  94E d   1      30.469  77.430  37.384  0.00  0.00     0.209 HD
ENDBRANCH  18  21
ENDBRANCH   6  18
BRANCH   5  23
ATOM     23  O4  94E d   1      27.358  80.084  38.268  0.00  0.00    -0.392 OA
ATOM     24  H10 94E d   1      27.606  79.640  39.070  0.00  0.00     0.210 HD
ENDBRANCH   5  23
BRANCH   2  25
ATOM     25  O3  94E d   1      26.224  79.970  35.776  0.00  0.00    -0.390 OA
ATOM     26  H11 94E d   1      25.892  80.406  35.000  0.00  0.00     0.210 HD
ENDBRANCH   2  25
BRANCH   4  27
ATOM     27  O2  94E d   1      27.899  80.193  33.596  0.00  0.00    -0.390 OA
ATOM     28  H12 94E d   1      27.732  81.126  33.539  0.00  0.00     0.210 HD
ENDBRANCH   4  27
TORSDOF 5
