REMARK  5 active torsions:
REMARK  status: ('A' for Active; 'I' for Inactive)
REMARK    1  A    between atoms: C2_2  and  O2_9 
REMARK    2  A    between atoms: C3_3  and  O3_10 
REMARK    3  A    between atoms: C4_4  and  O4_11 
REMARK    4  A    between atoms: C5_5  and  C6_6 
REMARK    5  A    between atoms: C6_6  and  O6_12 
ROOT
ATOM      1  C1  948 d   1      29.553  80.057  34.746  0.00  0.00     0.157 A 
ATOM      2  C2  948 d   1      28.065  79.712  34.668  0.00  0.00     0.092 C 
ATOM      3  C3  948 d   1      27.373  80.291  35.928  0.00  0.00     0.087 C 
ATOM      4  C4  948 d   1      27.977  79.600  37.154  0.00  0.00     0.070 C 
ATOM      5  C5  948 d   1      29.482  79.923  37.381  0.00  0.00     0.023 C 
ATOM      6  C7  948 d   1      30.298  80.101  36.079  0.00  0.00     0.140 A 
ATOM      7  N8  948 d   1      30.454  78.943  35.190  0.00  0.00    -0.059 N 
ATOM      8  H1  948 d   1      29.831  80.746  33.935  0.00  0.00     0.091 H 
ATOM      9  H2  948 d   1      27.954  78.618  34.685  0.00  0.00     0.090 H 
ATOM     10  H3  948 d   1      27.583  81.369  35.992  0.00  0.00     0.091 H 
ATOM     11  H4  948 d   1      27.838  78.513  37.061  0.00  0.00     0.087 H 
ATOM     12  H5  948 d   1      29.462  80.925  37.835  0.00  0.00     0.050 H 
ATOM     13  H8  948 d   1      31.128  80.805  36.238  0.00  0.00     0.088 H 
ATOM     14  H9  948 d   1      31.331  78.792  34.717  0.00  0.00     0.278 HD
ATOM     15  H10 948 d   1      30.057  78.055  35.453  0.00  0.00     0.278 HD
ENDROOT
BRANCH   5  16
ATOM     16  C6  948 d   1      30.256  79.058  38.414  0.00  0.00     0.024 C 
ATOM     17  H6  948 d   1      29.975  79.388  39.425  0.00  0.00     0.074 H 
ATOM     18  H7  948 d   1      31.334  79.216  38.263  0.00  0.00     0.074 H 
BRANCH  16  19
ATOM     19  O6  948 d   1      29.985  77.673  38.302  0.00  0.00    -0.400 OA
ATOM     20  H14 948 d   1      29.057  77.521  38.439  0.00  0.00     0.209 HD
ENDBRANCH  16  19
ENDBRANCH   5  16
BRANCH   4  21
ATOM     21  O4  948 d   1      27.325  80.100  38.313  0.00  0.00    -0.392 OA
ATOM     22  H13 948 d   1      27.669  79.662  39.083  0.00  0.00     0.210 HD
ENDBRANCH   4  21
BRANCH   3  23
ATOM     23  O3  948 d   1      25.938  80.114  35.839  0.00  0.00    -0.390 OA
ATOM     24  H12 948 d   1      25.613  80.559  35.065  0.00  0.00     0.210 HD
ENDBRANCH   3  23
BRANCH   2  25
ATOM     25  O2  948 d   1      27.498  80.187  33.449  0.00  0.00    -0.391 OA
ATOM     26  H11 948 d   1      27.577  81.133  33.412  0.00  0.00     0.210 HD
ENDBRANCH   2  25
TORSDOF 5
