REMARK  7 active torsions:
REMARK  status: ('A' for Active; 'I' for Inactive)
REMARK    1  A    between atoms: C5_1  and  C7_7 
REMARK    2  A    between atoms: C4_2  and  O4_12 
REMARK    3  A    between atoms: C2_3  and  O2_10 
REMARK    4  A    between atoms: C6_4  and  O6_9 
REMARK    5  A    between atoms: C3_6  and  O3_11 
REMARK    6  A    between atoms: C7_7  and  O7_8 
REMARK    7  A    between atoms: O6_9  and  S13_13 
ROOT
ATOM      1  C5  945 d   1      59.786  67.055  60.670  0.00  0.00     0.020 C 
ATOM      2  C4  945 d   1      59.219  66.835  59.270  0.00  0.00     0.070 C 
ATOM      3  C2  945 d   1      57.046  65.875  60.272  0.00  0.00     0.065 C 
ATOM      4  C6  945 d   1      58.607  67.131  61.668  0.00  0.00     0.070 C 
ATOM      5  C1  945 d   1      57.682  65.825  61.656  0.00  0.00    -0.013 C 
ATOM      6  C3  945 d   1      58.192  65.691  59.242  0.00  0.00     0.085 C 
ATOM      7  H1  945 d   1      60.361  66.156  60.936  0.00  0.00     0.051 H 
ATOM      8  H2  945 d   1      58.722  67.759  58.938  0.00  0.00     0.087 H 
ATOM      9  H3  945 d   1      56.551  66.843  60.107  0.00  0.00     0.087 H 
ATOM     10  H4  945 d   1      59.018  67.214  62.685  0.00  0.00     0.086 H 
ATOM     11  H5  945 d   1      58.283  64.913  61.783  0.00  0.00     0.040 H 
ATOM     12  H6  945 d   1      56.917  65.874  62.445  0.00  0.00     0.040 H 
ATOM     13  H7  945 d   1      58.708  64.746  59.468  0.00  0.00     0.090 H 
ENDROOT
BRANCH   1  14
ATOM     14  C7  945 d   1      60.794  68.222  60.706  0.00  0.00     0.025 C 
ATOM     15  H8  945 d   1      60.250  69.176  60.637  0.00  0.00     0.074 H 
ATOM     16  H9  945 d   1      61.486  68.132  59.856  0.00  0.00     0.074 H 
BRANCH  14  17
ATOM     17  O7  945 d   1      61.554  68.186  61.957  0.00  0.00    -0.400 OA
ATOM     18  H10 945 d   1      62.025  67.363  62.017  0.00  0.00     0.209 HD
ENDBRANCH  14  17
ENDBRANCH   1  14
BRANCH   2  19
ATOM     19  O4  945 d   1      60.330  66.532  58.363  0.00  0.00    -0.392 OA
ATOM     20  H13 945 d   1      59.997  66.431  57.479  0.00  0.00     0.210 HD
ENDBRANCH   2  19
BRANCH   4  21
ATOM     21  O6  945 d   1      57.941  68.330  61.369  0.00  0.00    -0.251 OA
BRANCH  21  22
ATOM     22  S13 945 d   1      57.100  69.054  62.446  0.00  0.00     0.252 S 
ATOM     23  O14 945 d   1      58.150  69.559  63.394  0.00  0.00    -0.572 OA
ATOM     24  O15 945 d   1      56.337  68.064  63.193  0.00  0.00    -0.572 OA
ATOM     25  O16 945 d   1      56.341  70.000  61.650  0.00  0.00    -0.572 OA
ENDBRANCH  21  22
ENDBRANCH   4  21
BRANCH   6  26
ATOM     26  O3  945 d   1      57.663  65.635  57.929  0.00  0.00    -0.390 OA
ATOM     27  H12 945 d   1      58.373  65.522  57.307  0.00  0.00     0.210 HD
ENDBRANCH   6  26
BRANCH   3  28
ATOM     28  O2  945 d   1      56.105  64.853  60.206  0.00  0.00    -0.393 OA
ATOM     29  H11 945 d   1      56.529  64.022  60.383  0.00  0.00     0.210 HD
ENDBRANCH   3  28
TORSDOF 7
