REMARK WARNING: 32 MAX_TORS EXCEEDED!!!
REMARK  42 active torsions:
REMARK  status: ('A' for Active; 'I' for Inactive)
REMARK    1  A    between atoms: C_1  and  CH3_3 
REMARK       I    between atoms: N_4  and  C_1 
REMARK    2  A    between atoms: CA_5  and  N_4 
REMARK    3  A    between atoms: C_6  and  CA_5 
REMARK    4  A    between atoms: CA_5  and  CB_8 
REMARK       I    between atoms: N_11  and  C_6 
REMARK    5  A    between atoms: CB_8  and  CG1_9 
REMARK    6  A    between atoms: CB_8  and  CG2_10 
REMARK    7  A    between atoms: CA_12  and  N_11 
REMARK    8  A    between atoms: C_13  and  CA_12 
REMARK    9  A    between atoms: CA_12  and  CB_15 
REMARK       I    between atoms: N_18  and  C_13 
REMARK   10  A    between atoms: CB_15  and  OG1_16 
REMARK   11  A    between atoms: CB_15  and  CG2_17 
REMARK   12  A    between atoms: C_20  and  CA_19 
REMARK       I    between atoms: N_25  and  C_20 
REMARK   13  A    between atoms: CA_26  and  N_25 
REMARK   14  A    between atoms: C_27  and  CA_26 
REMARK   15  A    between atoms: CA_26  and  CB_29 
REMARK       I    between atoms: N_32  and  C_27 
REMARK   16  A    between atoms: CB_29  and  CG1_30 
REMARK   17  A    between atoms: CB_29  and  CG2_31 
REMARK   18  A    between atoms: CA_33  and  N_32 
REMARK   19  A    between atoms: CA_33  and  C_34 
REMARK   20  A    between atoms: CB_36  and  CA_33 
REMARK       I    between atoms: C_34  and  N_38 
REMARK   21  A    between atoms: SG_37  and  CB_36 
REMARK   22  A    between atoms: CBH_78  and  SG_37 
REMARK   23  A    between atoms: N_38  and  CA_39 
REMARK   24  A    between atoms: CA_39  and  C_40 
REMARK   25  A    between atoms: CA_39  and  CB_42 
REMARK       I    between atoms: C_40  and  N_45 
REMARK   26  A    between atoms: CB_42  and  OG1_43 
REMARK   27  A    between atoms: CB_42  and  CG2_44 
REMARK   28  A    between atoms: N_45  and  CA_46 
REMARK   29  A    between atoms: CA_46  and  C_47 
REMARK   30  A    between atoms: CA_46  and  CB_49 
REMARK   31  A    between atoms: C1'_59  and  N1_55 
REMARK   32  A    between atoms: C2'_61  and  O2'_62 
REMARK   33  A    between atoms: C3'_63  and  O3'_64 
REMARK   34  A    between atoms: C5'_66  and  C4'_65 
REMARK   35  A    between atoms: O5'_67  and  C5'_66 
REMARK   36  A    between atoms: PCS_68  and  O5'_67 
REMARK   37  A    between atoms: OCV_71  and  PCS_68 
REMARK   38  A    between atoms: PCW_72  and  OCV_71 
REMARK   39  A    between atoms: OCZ_75  and  PCW_72 
REMARK   40  A    between atoms: CBF_76  and  OCZ_75 
REMARK   41  A    between atoms: CBG_77  and  CBF_76 
REMARK   42  A    between atoms: CBG_77  and  CBH_78 
ROOT
ATOM      1  CA  CYS d   1     -22.906 -10.923  15.537  0.00  0.00     0.097 C 
ATOM      2  H37 CYS d   1     -22.032 -11.090  14.890  0.00  0.00     0.088 H 
ENDROOT
BRANCH   1   3
ATOM      3  N   CYS d   1     -22.873  -9.519  16.028  0.00  0.00    -0.345 N 
ATOM      4  C   VAL d   1     -22.497  -8.528  15.204  0.00  0.00     0.241 C 
ATOM      5  O   VAL d   1     -22.114  -8.721  14.053  0.00  0.00    -0.271 OA
ATOM      6  H36 CYS d   1     -23.131  -9.313  16.972  0.00  0.00     0.163 HD
BRANCH   4   7
ATOM      7  CA  VAL d   1     -22.612  -7.071  15.698  0.00  0.00     0.092 C 
ATOM      8  H28 VAL d   1     -22.275  -7.012  16.743  0.00  0.00     0.088 H 
BRANCH   7   9
ATOM      9  N   VAL d   1     -21.872  -6.196  14.783  0.00  0.00    -0.346 N 
ATOM     10  C   PRO d   1     -21.182  -5.124  15.191  0.00  0.00     0.241 C 
ATOM     11  O   PRO d   1     -20.963  -4.849  16.386  0.00  0.00    -0.271 OA
ATOM     12  H27 VAL d   1     -21.883  -6.411  13.806  0.00  0.00     0.163 HD
BRANCH  10  13
ATOM     13  CA  PRO d   1     -20.679  -4.324  14.110  0.00  0.00     0.091 C 
ATOM     14  N   PRO d   1     -20.727  -2.884  14.485  0.00  0.00    -0.337 N 
ATOM     15  C   THR d   1     -21.902  -2.226  14.521  0.00  0.00     0.245 C 
ATOM     16  CD  PRO d   1     -19.328  -2.413  14.650  0.00  0.00    -0.001 C 
ATOM     17  O   THR d   1     -22.982  -2.771  14.334  0.00  0.00    -0.271 OA
ATOM     18  CG  PRO d   1     -18.533  -3.683  14.696  0.00  0.00    -0.048 C 
ATOM     19  H25 PRO d   1     -19.213  -1.843  15.584  0.00  0.00     0.064 H 
ATOM     20  H26 PRO d   1     -19.021  -1.788  13.799  0.00  0.00     0.064 H 
ATOM     21  CB  PRO d   1     -19.227  -4.655  13.752  0.00  0.00    -0.036 C 
ATOM     22  H23 PRO d   1     -17.501  -3.499  14.362  0.00  0.00     0.035 H 
ATOM     23  H24 PRO d   1     -18.521  -4.088  15.719  0.00  0.00     0.035 H 
ATOM     24  H21 PRO d   1     -19.001  -4.440  12.697  0.00  0.00     0.036 H 
ATOM     25  H22 PRO d   1     -18.974  -5.702  13.976  0.00  0.00     0.036 H 
ATOM     26  H20 PRO d   1     -21.312  -4.495  13.227  0.00  0.00     0.087 H 
BRANCH  15  27
ATOM     27  CA  THR d   1     -21.864  -0.741  14.934  0.00  0.00     0.114 C 
ATOM     28  H14 THR d   1     -20.864  -0.519  15.335  0.00  0.00     0.091 H 
BRANCH  27  29
ATOM     29  N   THR d   1     -22.085   0.135  13.778  0.00  0.00    -0.344 N 
ATOM     30  C   VAL d   1     -21.021   0.701  13.138  0.00  0.00     0.241 C 
ATOM     31  O   VAL d   1     -19.856   0.534  13.494  0.00  0.00    -0.271 OA
ATOM     32  H13 THR d   1     -23.015   0.317  13.459  0.00  0.00     0.163 HD
BRANCH  30  33
ATOM     33  CA  VAL d   1     -21.274   1.621  11.910  0.00  0.00     0.092 C 
ATOM     34  H5  VAL d   1     -20.326   1.675  11.355  0.00  0.00     0.088 H 
BRANCH  33  35
ATOM     35  N   VAL d   1     -22.262   1.011  10.995  0.00  0.00    -0.348 N 
ATOM     36  C   ACE d   1     -22.424   1.454   9.739  0.00  0.00     0.214 C 
ATOM     37  O   ACE d   1     -21.808   2.410   9.264  0.00  0.00    -0.274 OA
ATOM     38  H4  VAL d   1     -22.823   0.250  11.320  0.00  0.00     0.163 HD
BRANCH  36  39
ATOM     39  CH3 ACE d   1     -23.479   0.697   8.904  0.00  0.00    -0.003 C 
ATOM     40  H1  ACE d   1     -23.910  -0.116   9.507  0.00  0.00     0.040 H 
ATOM     41  H2  ACE d   1     -23.003   0.275   8.007  0.00  0.00     0.040 H 
ATOM     42  H3  ACE d   1     -24.276   1.392   8.603  0.00  0.00     0.040 H 
ENDBRANCH  36  39
ENDBRANCH  33  35
BRANCH  33  43
ATOM     43  CB  VAL d   1     -21.623   3.103  12.325  0.00  0.00    -0.033 C 
ATOM     44  H6  VAL d   1     -21.679   3.699  11.402  0.00  0.00     0.042 H 
BRANCH  43  45
ATOM     45  CG1 VAL d   1     -22.975   3.261  13.064  0.00  0.00    -0.071 C 
ATOM     46  H7  VAL d   1     -23.135   4.320  13.313  0.00  0.00     0.028 H 
ATOM     47  H8  VAL d   1     -22.959   2.665  13.989  0.00  0.00     0.028 H 
ATOM     48  H9  VAL d   1     -23.791   2.910  12.415  0.00  0.00     0.028 H 
ENDBRANCH  43  45
BRANCH  43  49
ATOM     49  CG2 VAL d   1     -20.497   3.669  13.203  0.00  0.00    -0.071 C 
ATOM     50  H10 VAL d   1     -19.535   3.559  12.681  0.00  0.00     0.028 H 
ATOM     51  H11 VAL d   1     -20.463   3.119  14.155  0.00  0.00     0.028 H 
ATOM     52  H12 VAL d   1     -20.687   4.734  13.401  0.00  0.00     0.028 H 
ENDBRANCH  43  49
ENDBRANCH  33  43
ENDBRANCH  30  33
ENDBRANCH  27  29
BRANCH  27  53
ATOM     53  CB  THR d   1     -22.879  -0.506  16.042  0.00  0.00     0.060 C 
ATOM     54  H15 THR d   1     -23.908  -0.638  15.676  0.00  0.00     0.086 H 
BRANCH  53  55
ATOM     55  OG1 THR d   1     -22.661   0.815  16.511  0.00  0.00    -0.393 OA
ATOM     56  H16 THR d   1     -21.773   0.890  16.840  0.00  0.00     0.210 HD
ENDBRANCH  53  55
BRANCH  53  57
ATOM     57  CG2 THR d   1     -22.575  -1.482  17.206  0.00  0.00    -0.050 C 
ATOM     58  H17 THR d   1     -23.302  -1.324  18.016  0.00  0.00     0.031 H 
ATOM     59  H18 THR d   1     -21.559  -1.297  17.584  0.00  0.00     0.031 H 
ATOM     60  H19 THR d   1     -22.649  -2.518  16.844  0.00  0.00     0.031 H 
ENDBRANCH  53  57
ENDBRANCH  27  53
ENDBRANCH  15  27
ENDBRANCH  10  13
ENDBRANCH   7   9
BRANCH   7  61
ATOM     61  CB  VAL d   1     -23.988  -6.346  15.478  0.00  0.00    -0.033 C 
ATOM     62  H29 VAL d   1     -23.720  -5.460  14.883  0.00  0.00     0.042 H 
BRANCH  61  63
ATOM     63  CG1 VAL d   1     -25.026  -7.062  14.579  0.00  0.00    -0.071 C 
ATOM     64  H30 VAL d   1     -25.937  -6.449  14.511  0.00  0.00     0.028 H 
ATOM     65  H31 VAL d   1     -25.275  -8.041  15.014  0.00  0.00     0.028 H 
ATOM     66  H32 VAL d   1     -24.604  -7.205  13.573  0.00  0.00     0.028 H 
ENDBRANCH  61  63
BRANCH  61  67
ATOM     67  CG2 VAL d   1     -24.524  -5.772  16.755  0.00  0.00    -0.071 C 
ATOM     68  H33 VAL d   1     -23.707  -5.290  17.312  0.00  0.00     0.028 H 
ATOM     69  H34 VAL d   1     -24.958  -6.577  17.365  0.00  0.00     0.028 H 
ATOM     70  H35 VAL d   1     -25.300  -5.027  16.525  0.00  0.00     0.028 H 
ENDBRANCH  61  67
ENDBRANCH   7  61
ENDBRANCH   4   7
ENDBRANCH   1   3
BRANCH   1  71
ATOM     71  C   CYS d   1     -24.183 -11.069  14.721  0.00  0.00     0.242 C 
ATOM     72  O   CYS d   1     -25.230 -10.628  15.163  0.00  0.00    -0.271 OA
ATOM     73  N   THR d   1     -24.057 -11.581  13.505  0.00  0.00    -0.344 N 
ATOM     74  H40 THR d   1     -23.155 -11.857  13.174  0.00  0.00     0.163 HD
BRANCH  73  75
ATOM     75  CA  THR d   1     -25.236 -11.746  12.637  0.00  0.00     0.113 C 
ATOM     76  H41 THR d   1     -26.142 -11.730  13.260  0.00  0.00     0.091 H 
BRANCH  75  77
ATOM     77  C   THR d   1     -25.181 -13.119  11.932  0.00  0.00     0.243 C 
ATOM     78  O   THR d   1     -24.098 -13.680  11.737  0.00  0.00    -0.271 OA
ATOM     79  N   ALA d   1     -26.383 -13.638  11.597  0.00  0.00    -0.347 N 
ATOM     80  H47 ALA d   1     -27.209 -13.109  11.789  0.00  0.00     0.163 HD
BRANCH  79  81
ATOM     81  CA  ALA d   1     -26.515 -14.965  10.955  0.00  0.00     0.073 C 
ATOM     82  H48 ALA d   1     -26.046 -15.720  11.603  0.00  0.00     0.085 H 
BRANCH  81  83
ATOM     83  C   ALA d   1     -25.846 -14.989   9.595  0.00  0.00     0.171 C 
ATOM     84  O   ALA d   1     -26.000 -13.896   8.817  0.00  0.00    -0.175 OA
ATOM     85  N   NH2 d   1     -25.150 -16.085   9.297  0.00  0.00    -0.379 N 
ATOM     86  H52 NH2 d   1     -24.686 -16.158   8.414  0.00  0.00     0.158 HD
ATOM     87  H53 NH2 d   1     -25.091 -16.834   9.956  0.00  0.00     0.158 HD
ENDBRANCH  81  83
BRANCH  81  88
ATOM     88  CB  ALA d   1     -27.993 -15.309  10.759  0.00  0.00    -0.050 C 
ATOM     89  H49 ALA d   1     -28.079 -16.296  10.282  0.00  0.00     0.030 H 
ATOM     90  H50 ALA d   1     -28.465 -14.549  10.118  0.00  0.00     0.030 H 
ATOM     91  H51 ALA d   1     -28.498 -15.329  11.736  0.00  0.00     0.030 H 
ENDBRANCH  81  88
ENDBRANCH  79  81
ENDBRANCH  75  77
BRANCH  75  92
ATOM     92  CB  THR d   1     -25.293 -10.547  11.694  0.00  0.00     0.060 C 
ATOM     93  H42 THR d   1     -25.167  -9.622  12.276  0.00  0.00     0.086 H 
BRANCH  92  94
ATOM     94  OG1 THR d   1     -26.556 -10.573  11.104  0.00  0.00    -0.393 OA
ATOM     95  H43 THR d   1     -27.221 -10.508  11.779  0.00  0.00     0.210 HD
ENDBRANCH  92  94
BRANCH  92  96
ATOM     96  CG2 THR d   1     -24.227 -10.587  10.604  0.00  0.00    -0.050 C 
ATOM     97  H44 THR d   1     -24.324  -9.698   9.963  0.00  0.00     0.031 H 
ATOM     98  H45 THR d   1     -24.358 -11.494   9.996  0.00  0.00     0.031 H 
ATOM     99  H46 THR d   1     -23.229 -10.598  11.067  0.00  0.00     0.031 H 
ENDBRANCH  92  96
ENDBRANCH  75  92
ENDBRANCH  73  75
ENDBRANCH   1  71
BRANCH   1 100
ATOM    100  CB  CYS d   1     -22.886 -11.964  16.630  0.00  0.00     0.004 C 
ATOM    101  H38 CYS d   1     -23.234 -12.929  16.233  0.00  0.00     0.052 H 
ATOM    102  H39 CYS d   1     -23.541 -11.650  17.456  0.00  0.00     0.052 H 
BRANCH 100 103
ATOM    103  SG  CYS d   1     -21.189 -12.121  17.220  0.00  0.00    -0.167 SA
BRANCH 103 104
ATOM    104  CBH 94T d   1     -21.294 -12.465  19.011  0.00  0.00    -0.021 C 
ATOM    105  H69 CYS d   1     -20.315 -12.806  19.379  0.00  0.00     0.049 H 
ATOM    106  H70 CYS d   1     -22.047 -13.246  19.193  0.00  0.00     0.049 H 
BRANCH 104 107
ATOM    107  CBG 94T d   1     -21.696 -11.190  19.737  0.00  0.00    -0.037 C 
ATOM    108  H67 CYS d   1     -21.030 -10.369  19.431  0.00  0.00     0.037 H 
ATOM    109  H68 CYS d   1     -22.735 -10.934  19.481  0.00  0.00     0.037 H 
BRANCH 107 110
ATOM    110  CBF 94T d   1     -21.584 -11.399  21.216  0.00  0.00     0.032 C 
ATOM    111  H65 CYS d   1     -22.203 -12.254  21.525  0.00  0.00     0.075 H 
ATOM    112  H66 CYS d   1     -20.536 -11.586  21.493  0.00  0.00     0.075 H 
BRANCH 110 113
ATOM    113  OCZ 94T d   1     -22.039 -10.234  21.825  0.00  0.00    -0.290 OA
BRANCH 113 114
ATOM    114  PCW 94T d   1     -23.498  -9.796  22.040  0.00  0.00     0.417 P 
ATOM    115  OCX 94T d   1     -23.695  -9.335  23.426  0.00  0.00    -0.624 OA
ATOM    116  OCY 94T d   1     -24.463 -10.722  21.439  0.00  0.00    -0.624 OA
BRANCH 114 117
ATOM    117  OCV 94T d   1     -23.477  -8.485  21.161  0.00  0.00    -0.180 OA
BRANCH 117 118
ATOM    118  PCS 94T d   1     -24.064  -8.227  19.639  0.00  0.00     0.417 P 
ATOM    119  OCT 94T d   1     -25.435  -7.723  19.792  0.00  0.00    -0.624 OA
ATOM    120  OCU 94T d   1     -23.797  -9.346  18.713  0.00  0.00    -0.624 OA
BRANCH 118 121
ATOM    121  O5' 94T d   1     -23.102  -7.007  19.311  0.00  0.00    -0.287 OA
BRANCH 121 122
ATOM    122  C5' 94T d   1     -23.132  -5.778  20.006  0.00  0.00     0.058 C 
ATOM    123  H63 94T d   1     -23.950  -5.155  19.614  0.00  0.00     0.079 H 
ATOM    124  H64 94T d   1     -23.296  -5.967  21.077  0.00  0.00     0.079 H 
BRANCH 122 125
ATOM    125  C4' 94T d   1     -21.808  -5.054  19.816  0.00  0.00     0.089 C 
ATOM    126  O4' 94T d   1     -22.179  -3.660  19.850  0.00  0.00    -0.353 OA
ATOM    127  C1' 94T d   1     -21.293  -3.023  20.802  0.00  0.00     0.141 C 
ATOM    128  C2' 94T d   1     -21.055  -4.073  21.855  0.00  0.00     0.105 C 
ATOM    129  H57 94T d   1     -20.335  -2.718  20.355  0.00  0.00     0.123 H 
ATOM    130  C3' 94T d   1     -20.816  -5.275  20.981  0.00  0.00     0.091 C 
ATOM    131  H58 94T d   1     -21.923  -4.206  22.518  0.00  0.00     0.093 H 
ATOM    132  H60 94T d   1     -21.049  -6.203  21.524  0.00  0.00     0.091 H 
ATOM    133  H62 94T d   1     -21.341  -5.337  18.861  0.00  0.00     0.090 H 
BRANCH 127 134
ATOM    134  N1  94T d   1     -22.077  -1.814  21.223  0.00  0.00    -0.280 N 
ATOM    135  C2  94T d   1     -21.621  -0.578  20.919  0.00  0.00     0.331 A 
ATOM    136  O2  94T d   1     -20.544  -0.404  20.361  0.00  0.00    -0.246 OA
ATOM    137  N3  94T d   1     -22.359   0.541  21.257  0.00  0.00    -0.275 N 
ATOM    138  C4  94T d   1     -23.569   0.412  21.938  0.00  0.00     0.250 A 
ATOM    139  H56 94T d   1     -22.023   1.450  21.011  0.00  0.00     0.173 HD
ATOM    140  C5  94T d   1     -24.033  -0.856  22.246  0.00  0.00    -0.002 A 
ATOM    141  O4  94T d   1     -24.224   1.421  22.256  0.00  0.00    -0.268 OA
ATOM    142  C6  94T d   1     -23.274  -1.943  21.881  0.00  0.00    -0.008 A 
ATOM    143  H54 94T d   1     -24.980  -0.990  22.767  0.00  0.00     0.094 H 
ATOM    144  H55 94T d   1     -23.636  -2.941  22.123  0.00  0.00     0.112 H 
ENDBRANCH 127 134
BRANCH 128 145
ATOM    145  O2' 94T d   1     -19.889  -3.753  22.624  0.00  0.00    -0.388 OA
ATOM    146  H59 94T d   1     -19.752  -4.423  23.283  0.00  0.00     0.210 HD
ENDBRANCH 128 145
BRANCH 130 147
ATOM    147  O3' 94T d   1     -19.438  -5.339  20.498  0.00  0.00    -0.390 OA
ATOM    148  H61 94T d   1     -18.846  -5.389  21.239  0.00  0.00     0.210 HD
ENDBRANCH 130 147
ENDBRANCH 122 125
ENDBRANCH 121 122
ENDBRANCH 118 121
ENDBRANCH 117 118
ENDBRANCH 114 117
ENDBRANCH 113 114
ENDBRANCH 110 113
ENDBRANCH 107 110
ENDBRANCH 104 107
ENDBRANCH 103 104
ENDBRANCH 100 103
ENDBRANCH   1 100
TORSDOF 42
