REMARK WARNING: 32 MAX_TORS EXCEEDED!!!
REMARK  42 active torsions:
REMARK  status: ('A' for Active; 'I' for Inactive)
REMARK    1  A    between atoms: C_1  and  CH3_3 
REMARK       I    between atoms: N_4  and  C_1 
REMARK    2  A    between atoms: CA_5  and  N_4 
REMARK    3  A    between atoms: C_6  and  CA_5 
REMARK    4  A    between atoms: CA_5  and  CB_8 
REMARK       I    between atoms: N_11  and  C_6 
REMARK    5  A    between atoms: CB_8  and  CG1_9 
REMARK    6  A    between atoms: CB_8  and  CG2_10 
REMARK    7  A    between atoms: CA_12  and  N_11 
REMARK    8  A    between atoms: C_13  and  CA_12 
REMARK    9  A    between atoms: CA_12  and  CB_15 
REMARK       I    between atoms: N_18  and  C_13 
REMARK   10  A    between atoms: CB_15  and  OG1_16 
REMARK   11  A    between atoms: CB_15  and  CG2_17 
REMARK   12  A    between atoms: C_20  and  CA_19 
REMARK       I    between atoms: N_25  and  C_20 
REMARK   13  A    between atoms: CA_26  and  N_25 
REMARK   14  A    between atoms: C_27  and  CA_26 
REMARK   15  A    between atoms: CA_26  and  CB_29 
REMARK       I    between atoms: N_32  and  C_27 
REMARK   16  A    between atoms: CB_29  and  CG1_30 
REMARK   17  A    between atoms: CB_29  and  CG2_31 
REMARK   18  A    between atoms: CA_33  and  N_32 
REMARK   19  A    between atoms: CA_33  and  C_34 
REMARK   20  A    between atoms: CB_36  and  CA_33 
REMARK       I    between atoms: C_34  and  N_38 
REMARK   21  A    between atoms: OG_37  and  CB_36 
REMARK   22  A    between atoms: CBH_78  and  OG_37 
REMARK   23  A    between atoms: N_38  and  CA_39 
REMARK   24  A    between atoms: CA_39  and  C_40 
REMARK   25  A    between atoms: CA_39  and  CB_42 
REMARK       I    between atoms: C_40  and  N_45 
REMARK   26  A    between atoms: CB_42  and  OG1_43 
REMARK   27  A    between atoms: CB_42  and  CG2_44 
REMARK   28  A    between atoms: N_45  and  CA_46 
REMARK   29  A    between atoms: CA_46  and  C_47 
REMARK   30  A    between atoms: CA_46  and  CB_49 
REMARK   31  A    between atoms: C1'_59  and  N1_55 
REMARK   32  A    between atoms: C2'_61  and  O2'_62 
REMARK   33  A    between atoms: C3'_63  and  O3'_64 
REMARK   34  A    between atoms: C5'_66  and  C4'_65 
REMARK   35  A    between atoms: O5'_67  and  C5'_66 
REMARK   36  A    between atoms: PCS_68  and  O5'_67 
REMARK   37  A    between atoms: OCV_71  and  PCS_68 
REMARK   38  A    between atoms: PCW_72  and  OCV_71 
REMARK   39  A    between atoms: OCZ_75  and  PCW_72 
REMARK   40  A    between atoms: CBF_76  and  OCZ_75 
REMARK   41  A    between atoms: CBG_77  and  CBF_76 
REMARK   42  A    between atoms: CBG_77  and  CBH_78 
ROOT
ATOM      1  CA  SER d   1     -11.776 -48.731  34.484  0.00  0.00     0.110 C 
ATOM      2  H37 SER d   1     -12.619 -48.901  35.169  0.00  0.00     0.090 H 
ENDROOT
BRANCH   1   3
ATOM      3  N   SER d   1     -11.717 -47.305  34.094  0.00  0.00    -0.344 N 
ATOM      4  C   VAL d   1     -11.991 -46.350  34.979  0.00  0.00     0.241 C 
ATOM      5  O   VAL d   1     -12.376 -46.570  36.135  0.00  0.00    -0.271 OA
ATOM      6  H36 SER d   1     -11.469 -47.057  33.157  0.00  0.00     0.163 HD
BRANCH   4   7
ATOM      7  CA  VAL d   1     -11.814 -44.911  34.470  0.00  0.00     0.092 C 
ATOM      8  H28 VAL d   1     -12.287 -44.820  33.481  0.00  0.00     0.088 H 
BRANCH   7   9
ATOM      9  N   VAL d   1     -12.458 -43.981  35.396  0.00  0.00    -0.346 N 
ATOM     10  C   PRO d   1     -13.240 -42.956  35.001  0.00  0.00     0.241 C 
ATOM     11  O   PRO d   1     -13.488 -42.711  33.813  0.00  0.00    -0.271 OA
ATOM     12  H27 VAL d   1     -12.310 -44.112  36.376  0.00  0.00     0.163 HD
BRANCH  10  13
ATOM     13  CA  PRO d   1     -13.747 -42.123  36.062  0.00  0.00     0.091 C 
ATOM     14  N   PRO d   1     -13.702 -40.690  35.671  0.00  0.00    -0.337 N 
ATOM     15  C   THR d   1     -12.537 -40.039  35.625  0.00  0.00     0.245 C 
ATOM     16  CD  PRO d   1     -15.078 -40.222  35.460  0.00  0.00    -0.001 C 
ATOM     17  O   THR d   1     -11.469 -40.574  35.882  0.00  0.00    -0.271 OA
ATOM     18  CG  PRO d   1     -15.917 -41.477  35.485  0.00  0.00    -0.048 C 
ATOM     19  H25 PRO d   1     -15.170 -39.713  34.489  0.00  0.00     0.064 H 
ATOM     20  H26 PRO d   1     -15.382 -39.536  36.264  0.00  0.00     0.064 H 
ATOM     21  CB  PRO d   1     -15.189 -42.406  36.429  0.00  0.00    -0.036 C 
ATOM     22  H23 PRO d   1     -16.929 -41.260  35.858  0.00  0.00     0.035 H 
ATOM     23  H24 PRO d   1     -15.984 -41.919  34.480  0.00  0.00     0.035 H 
ATOM     24  H21 PRO d   1     -15.395 -42.155  37.480  0.00  0.00     0.036 H 
ATOM     25  H22 PRO d   1     -15.454 -43.458  36.244  0.00  0.00     0.036 H 
ATOM     26  H20 PRO d   1     -13.116 -42.282  36.949  0.00  0.00     0.087 H 
BRANCH  15  27
ATOM     27  CA  THR d   1     -12.585 -38.570  35.189  0.00  0.00     0.114 C 
ATOM     28  H14 THR d   1     -13.575 -38.354  34.762  0.00  0.00     0.091 H 
BRANCH  27  29
ATOM     29  N   THR d   1     -12.380 -37.705  36.364  0.00  0.00    -0.344 N 
ATOM     30  C   VAL d   1     -13.432 -37.090  36.975  0.00  0.00     0.241 C 
ATOM     31  O   VAL d   1     -14.593 -37.188  36.588  0.00  0.00    -0.271 OA
ATOM     32  H13 THR d   1     -11.455 -37.567  36.719  0.00  0.00     0.163 HD
BRANCH  30  33
ATOM     33  CA  VAL d   1     -13.154 -36.203  38.219  0.00  0.00     0.092 C 
ATOM     34  H5  VAL d   1     -14.091 -36.141  38.792  0.00  0.00     0.088 H 
BRANCH  33  35
ATOM     35  N   VAL d   1     -12.150 -36.851  39.099  0.00  0.00    -0.348 N 
ATOM     36  C   ACY d   1     -11.924 -36.421  40.350  0.00  0.00     0.214 C 
ATOM     37  O   ACY d   1     -12.493 -35.455  40.855  0.00  0.00    -0.274 OA
ATOM     38  H4  VAL d   1     -11.628 -37.629  38.750  0.00  0.00     0.163 HD
BRANCH  36  39
ATOM     39  CH3 ACY d   1     -10.866 -37.218  41.138  0.00  0.00    -0.003 C 
ATOM     40  H1  ACY d   1     -10.481 -38.036  40.511  0.00  0.00     0.040 H 
ATOM     41  H2  ACY d   1     -11.324 -37.636  42.047  0.00  0.00     0.040 H 
ATOM     42  H3  ACY d   1     -10.038 -36.550  41.418  0.00  0.00     0.040 H 
ENDBRANCH  36  39
ENDBRANCH  33  35
BRANCH  33  43
ATOM     43  CB  VAL d   1     -12.775 -34.741  37.818  0.00  0.00    -0.033 C 
ATOM     44  H6  VAL d   1     -12.576 -34.180  38.743  0.00  0.00     0.042 H 
BRANCH  43  45
ATOM     45  CG1 VAL d   1     -11.511 -34.667  36.939  0.00  0.00    -0.071 C 
ATOM     46  H7  VAL d   1     -11.297 -33.617  36.691  0.00  0.00     0.028 H 
ATOM     47  H8  VAL d   1     -11.675 -35.236  36.012  0.00  0.00     0.028 H 
ATOM     48  H9  VAL d   1     -10.658 -35.095  37.486  0.00  0.00     0.028 H 
ENDBRANCH  43  45
BRANCH  43  49
ATOM     49  CG2 VAL d   1     -13.952 -34.073  37.087  0.00  0.00    -0.071 C 
ATOM     50  H10 VAL d   1     -14.853 -34.127  37.716  0.00  0.00     0.028 H 
ATOM     51  H11 VAL d   1     -14.137 -34.595  36.136  0.00  0.00     0.028 H 
ATOM     52  H12 VAL d   1     -13.708 -33.019  36.886  0.00  0.00     0.028 H 
ENDBRANCH  43  49
ENDBRANCH  33  43
ENDBRANCH  30  33
ENDBRANCH  27  29
BRANCH  27  53
ATOM     53  CB  THR d   1     -11.522 -38.322  34.112  0.00  0.00     0.060 C 
ATOM     54  H15 THR d   1     -10.512 -38.487  34.516  0.00  0.00     0.086 H 
BRANCH  53  55
ATOM     55  OG1 THR d   1     -11.686 -36.985  33.686  0.00  0.00    -0.393 OA
ATOM     56  H16 THR d   1     -12.560 -36.871  33.333  0.00  0.00     0.210 HD
ENDBRANCH  53  55
BRANCH  53  57
ATOM     57  CG2 THR d   1     -11.775 -39.249  32.902  0.00  0.00    -0.050 C 
ATOM     58  H17 THR d   1     -11.009 -39.066  32.134  0.00  0.00     0.031 H 
ATOM     59  H18 THR d   1     -12.771 -39.042  32.484  0.00  0.00     0.031 H 
ATOM     60  H19 THR d   1     -11.725 -40.299  33.227  0.00  0.00     0.031 H 
ENDBRANCH  53  57
ENDBRANCH  27  53
ENDBRANCH  15  27
ENDBRANCH  10  13
ENDBRANCH   7   9
BRANCH   7  61
ATOM     61  CB  VAL d   1     -10.309 -44.569  34.341  0.00  0.00    -0.033 C 
ATOM     62  H29 VAL d   1      -9.853 -45.296  33.653  0.00  0.00     0.042 H 
BRANCH  61  63
ATOM     63  CG1 VAL d   1     -10.146 -43.165  33.748  0.00  0.00    -0.071 C 
ATOM     64  H30 VAL d   1      -9.076 -42.927  33.658  0.00  0.00     0.028 H 
ATOM     65  H31 VAL d   1     -10.631 -42.430  34.407  0.00  0.00     0.028 H 
ATOM     66  H32 VAL d   1     -10.614 -43.131  32.753  0.00  0.00     0.028 H 
ENDBRANCH  61  63
BRANCH  61  67
ATOM     67  CG2 VAL d   1      -9.556 -44.655  35.702  0.00  0.00    -0.071 C 
ATOM     68  H33 VAL d   1      -9.675 -45.664  36.124  0.00  0.00     0.028 H 
ATOM     69  H34 VAL d   1      -9.973 -43.914  36.400  0.00  0.00     0.028 H 
ATOM     70  H35 VAL d   1      -8.487 -44.448  35.544  0.00  0.00     0.028 H 
ENDBRANCH  61  67
ENDBRANCH   7  61
ENDBRANCH   4   7
ENDBRANCH   1   3
BRANCH   1  71
ATOM     71  C   SER d   1     -10.456 -48.981  35.193  0.00  0.00     0.243 C 
ATOM     72  O   SER d   1      -9.409 -48.696  34.615  0.00  0.00    -0.271 OA
ATOM     73  N   THR d   1     -10.529 -49.434  36.456  0.00  0.00    -0.344 N 
ATOM     74  H40 THR d   1     -11.423 -49.629  36.860  0.00  0.00     0.163 HD
BRANCH  73  75
ATOM     75  CA  THR d   1      -9.307 -49.647  37.253  0.00  0.00     0.113 C 
ATOM     76  H41 THR d   1      -8.454 -49.730  36.563  0.00  0.00     0.091 H 
BRANCH  75  77
ATOM     77  C   THR d   1      -9.365 -50.957  38.068  0.00  0.00     0.243 C 
ATOM     78  O   THR d   1     -10.452 -51.441  38.396  0.00  0.00    -0.271 OA
ATOM     79  N   ALA d   1      -8.154 -51.492  38.350  0.00  0.00    -0.347 N 
ATOM     80  H47 ALA d   1      -7.335 -51.002  38.052  0.00  0.00     0.163 HD
BRANCH  79  81
ATOM     81  CA  ALA d   1      -7.986 -52.772  39.080  0.00  0.00     0.073 C 
ATOM     82  H48 ALA d   1      -8.451 -53.574  38.488  0.00  0.00     0.085 H 
BRANCH  81  83
ATOM     83  C   ALA d   1      -8.632 -52.737  40.455  0.00  0.00     0.171 C 
ATOM     84  O   ALA d   1      -8.500 -51.593  41.173  0.00  0.00    -0.175 OA
ATOM     85  N   NH2 d   1      -9.272 -53.851  40.827  0.00  0.00    -0.379 N 
ATOM     86  H52 NH2 d   1      -9.720 -53.896  41.720  0.00  0.00     0.158 HD
ATOM     87  H53 NH2 d   1      -9.303 -54.639  40.212  0.00  0.00     0.158 HD
ENDBRANCH  81  83
BRANCH  81  88
ATOM     88  CB  ALA d   1      -6.497 -53.078  39.267  0.00  0.00    -0.050 C 
ATOM     89  H49 ALA d   1      -6.383 -54.028  39.809  0.00  0.00     0.030 H 
ATOM     90  H50 ALA d   1      -6.026 -52.268  39.844  0.00  0.00     0.030 H 
ATOM     91  H51 ALA d   1      -6.012 -53.157  38.283  0.00  0.00     0.030 H 
ENDBRANCH  81  88
ENDBRANCH  79  81
ENDBRANCH  75  77
BRANCH  75  92
ATOM     92  CB  THR d   1      -9.096 -48.403  38.124  0.00  0.00     0.060 C 
ATOM     93  H42 THR d   1      -9.112 -47.514  37.476  0.00  0.00     0.086 H 
BRANCH  92  94
ATOM     94  OG1 THR d   1      -7.817 -48.514  38.736  0.00  0.00    -0.393 OA
ATOM     95  H43 THR d   1      -7.148 -48.563  38.063  0.00  0.00     0.210 HD
ENDBRANCH  92  94
BRANCH  92  96
ATOM     96  CG2 THR d   1     -10.178 -48.231  39.201  0.00  0.00    -0.050 C 
ATOM     97  H44 THR d   1      -9.970 -47.325  39.788  0.00  0.00     0.031 H 
ATOM     98  H45 THR d   1     -10.176 -49.107  39.866  0.00  0.00     0.031 H 
ATOM     99  H46 THR d   1     -11.163 -48.138  38.720  0.00  0.00     0.031 H 
ENDBRANCH  92  96
ENDBRANCH  75  92
ENDBRANCH  73  75
ENDBRANCH   1  71
BRANCH   1 100
ATOM    100  CB  SER d   1     -11.922 -49.653  33.288  0.00  0.00     0.046 C 
ATOM    101  H38 SER d   1     -12.001 -50.696  33.628  0.00  0.00     0.078 H 
ATOM    102  H39 SER d   1     -11.049 -49.548  32.627  0.00  0.00     0.078 H 
BRANCH 100 103
ATOM    103  OG  SER d   1     -13.111 -49.279  32.586  0.00  0.00    -0.389 OA
BRANCH 103 104
ATOM    104  CBH 94T d   1     -13.407 -50.150  31.475  0.00  0.00     0.021 C 
ATOM    105  H69 SER d   1     -14.469 -50.049  31.206  0.00  0.00     0.074 H 
ATOM    106  H70 SER d   1     -13.200 -51.191  31.764  0.00  0.00     0.074 H 
BRANCH 104 107
ATOM    107  CBG 94T d   1     -12.540 -49.777  30.265  0.00  0.00    -0.025 C 
ATOM    108  H67 SER d   1     -11.492 -49.673  30.583  0.00  0.00     0.039 H 
ATOM    109  H68 SER d   1     -12.616 -50.566  29.503  0.00  0.00     0.039 H 
BRANCH 107 110
ATOM    110  CBF 94T d   1     -13.024 -48.462  29.681  0.00  0.00     0.033 C 
ATOM    111  H65 SER d   1     -14.118 -48.483  29.573  0.00  0.00     0.075 H 
ATOM    112  H66 SER d   1     -12.737 -47.632  30.343  0.00  0.00     0.075 H 
BRANCH 110 113
ATOM    113  OCZ 94T d   1     -12.408 -48.291  28.387  0.00  0.00    -0.289 OA
BRANCH 113 114
ATOM    114  PCW 94T d   1     -10.990 -47.602  28.137  0.00  0.00     0.417 P 
ATOM    115  OCX 94T d   1      -9.931 -48.476  28.691  0.00  0.00    -0.624 OA
ATOM    116  OCY 94T d   1     -10.906 -47.193  26.716  0.00  0.00    -0.624 OA
BRANCH 114 117
ATOM    117  OCV 94T d   1     -11.021 -46.257  28.967  0.00  0.00    -0.180 OA
BRANCH 117 118
ATOM    118  PCS 94T d   1     -10.390 -45.982  30.472  0.00  0.00     0.417 P 
ATOM    119  OCT 94T d   1     -10.674 -47.058  31.426  0.00  0.00    -0.624 OA
ATOM    120  OCU 94T d   1      -9.022 -45.463  30.368  0.00  0.00    -0.624 OA
BRANCH 118 121
ATOM    121  O5' 94T d   1     -11.367 -44.777  30.788  0.00  0.00    -0.287 OA
BRANCH 121 122
ATOM    122  C5' 94T d   1     -11.282 -43.549  30.109  0.00  0.00     0.058 C 
ATOM    123  H63 94T d   1     -10.447 -42.956  30.511  0.00  0.00     0.079 H 
ATOM    124  H64 94T d   1     -11.123 -43.725  29.035  0.00  0.00     0.079 H 
BRANCH 122 125
ATOM    125  C4' 94T d   1     -12.587 -42.814  30.323  0.00  0.00     0.089 C 
ATOM    126  O4' 94T d   1     -12.279 -41.411  30.308  0.00  0.00    -0.353 OA
ATOM    127  C1' 94T d   1     -13.179 -40.810  29.330  0.00  0.00     0.141 C 
ATOM    128  C2' 94T d   1     -13.421 -41.869  28.299  0.00  0.00     0.105 C 
ATOM    129  H57 94T d   1     -14.140 -40.504  29.770  0.00  0.00     0.123 H 
ATOM    130  C3' 94T d   1     -13.607 -43.078  29.195  0.00  0.00     0.091 C 
ATOM    131  H58 94T d   1     -12.578 -41.995  27.604  0.00  0.00     0.093 H 
ATOM    132  H60 94T d   1     -13.394 -44.014  28.658  0.00  0.00     0.091 H 
ATOM    133  H62 94T d   1     -13.023 -43.107  31.290  0.00  0.00     0.090 H 
BRANCH 127 134
ATOM    134  N1  94T d   1     -12.408 -39.622  28.918  0.00  0.00    -0.280 N 
ATOM    135  C2  94T d   1     -12.852 -38.385  29.211  0.00  0.00     0.331 A 
ATOM    136  O2  94T d   1     -13.932 -38.185  29.768  0.00  0.00    -0.246 OA
ATOM    137  N3  94T d   1     -12.077 -37.279  28.880  0.00  0.00    -0.275 N 
ATOM    138  C4  94T d   1     -10.866 -37.413  28.225  0.00  0.00     0.250 A 
ATOM    139  H56 94T d   1     -12.403 -36.365  29.121  0.00  0.00     0.173 HD
ATOM    140  C5  94T d   1     -10.403 -38.688  27.938  0.00  0.00    -0.002 A 
ATOM    141  O4  94T d   1     -10.225 -36.397  27.929  0.00  0.00    -0.268 OA
ATOM    142  C6  94T d   1     -11.172 -39.784  28.299  0.00  0.00    -0.008 A 
ATOM    143  H54 94T d   1      -9.447 -38.827  27.435  0.00  0.00     0.094 H 
ATOM    144  H55 94T d   1     -10.803 -40.788  28.095  0.00  0.00     0.112 H 
ENDBRANCH 127 134
BRANCH 128 145
ATOM    145  O2' 94T d   1     -14.605 -41.531  27.591  0.00  0.00    -0.388 OA
ATOM    146  H59 94T d   1     -14.777 -42.192  26.930  0.00  0.00     0.210 HD
ENDBRANCH 128 145
BRANCH 130 147
ATOM    147  O3' 94T d   1     -14.932 -43.120  29.760  0.00  0.00    -0.390 OA
ATOM    148  H61 94T d   1     -15.079 -42.337  30.277  0.00  0.00     0.210 HD
ENDBRANCH 130 147
ENDBRANCH 122 125
ENDBRANCH 121 122
ENDBRANCH 118 121
ENDBRANCH 117 118
ENDBRANCH 114 117
ENDBRANCH 113 114
ENDBRANCH 110 113
ENDBRANCH 107 110
ENDBRANCH 104 107
ENDBRANCH 103 104
ENDBRANCH 100 103
ENDBRANCH   1 100
TORSDOF 42
