REMARK  6 active torsions:
REMARK  status: ('A' for Active; 'I' for Inactive)
REMARK    1  A    between atoms: C1_3  and  C_4 
REMARK    2  A    between atoms: N_8  and  C3_10 
REMARK    3  A    between atoms: N1_12  and  C8_16 
REMARK    4  A    between atoms: C8_16  and  C9_17 
REMARK    5  A    between atoms: C11_21  and  O_23 
REMARK    6  A    between atoms: O_23  and  C15_24 
ROOT
ATOM      1  C3  952 d   1     -24.764  32.484  -8.230  0.00  0.00     0.044 C 
ATOM      2  C7  952 d   1     -23.369  33.060  -8.181  0.00  0.00     0.103 C 
ATOM      3  N1  952 d   1     -23.264  34.141  -7.198  0.00  0.00    -0.065 N 
ATOM      4  C6  952 d   1     -23.609  33.641  -5.861  0.00  0.00     0.084 C 
ATOM      5  C5  952 d   1     -25.001  33.052  -5.818  0.00  0.00    -0.040 C 
ATOM      6  C4  952 d   1     -25.146  31.950  -6.859  0.00  0.00    -0.043 C 
ATOM      7  H6  952 d   1     -25.479  33.267  -8.521  0.00  0.00     0.076 H 
ATOM      8  H7  952 d   1     -23.111  33.455  -9.175  0.00  0.00     0.079 H 
ATOM      9  H8  952 d   1     -22.663  32.261  -7.910  0.00  0.00     0.079 H 
ATOM     10  H9  952 d   1     -23.929  34.855  -7.449  0.00  0.00     0.280 HD
ATOM     11  H10 952 d   1     -23.554  34.474  -5.145  0.00  0.00     0.076 H 
ATOM     12  H11 952 d   1     -22.886  32.863  -5.575  0.00  0.00     0.076 H 
ATOM     13  H12 952 d   1     -25.736  33.844  -6.025  0.00  0.00     0.035 H 
ATOM     14  H13 952 d   1     -25.186  32.632  -4.818  0.00  0.00     0.035 H 
ATOM     15  H14 952 d   1     -24.485  31.111  -6.597  0.00  0.00     0.036 H 
ATOM     16  H15 952 d   1     -26.189  31.602  -6.880  0.00  0.00     0.036 H 
ENDROOT
BRANCH   3  17
ATOM     17  C8  952 d   1     -21.927  34.751  -7.197  0.00  0.00     0.107 C 
ATOM     18  H16 952 d   1     -21.183  33.956  -7.045  0.00  0.00     0.083 H 
ATOM     19  H17 952 d   1     -21.873  35.468  -6.365  0.00  0.00     0.083 H 
BRANCH  17  20
ATOM     20  C9  952 d   1     -21.591  35.480  -8.477  0.00  0.00    -0.030 A 
ATOM     21  C14 952 d   1     -20.494  35.103  -9.237  0.00  0.00    -0.075 A 
ATOM     22  C13 952 d   1     -20.177  35.776 -10.404  0.00  0.00    -0.080 A 
ATOM     23  H18 952 d   1     -19.878  34.272  -8.913  0.00  0.00     0.084 H 
ATOM     24  C12 952 d   1     -20.949  36.840 -10.832  0.00  0.00    -0.050 A 
ATOM     25  H19 952 d   1     -19.317  35.467 -10.987  0.00  0.00     0.083 H 
ATOM     26  C11 952 d   1     -22.042  37.222 -10.074  0.00  0.00     0.076 A 
ATOM     27  H20 952 d   1     -20.702  37.367 -11.747  0.00  0.00     0.087 H 
ATOM     28  C10 952 d   1     -22.369  36.548  -8.907  0.00  0.00    -0.043 A 
ATOM     29  H21 952 d   1     -23.233  36.855  -8.329  0.00  0.00     0.088 H 
BRANCH  26  30
ATOM     30  O   952 d   1     -22.813  38.318 -10.460  0.00  0.00    -0.311 OA
BRANCH  30  31
ATOM     31  C15 952 d   1     -23.622  38.229 -11.592  0.00  0.00     0.076 A 
ATOM     32  C20 952 d   1     -23.950  39.388 -12.276  0.00  0.00    -0.050 A 
ATOM     33  C19 952 d   1     -24.776  39.312 -13.384  0.00  0.00    -0.080 A 
ATOM     34  H22 952 d   1     -23.563  40.346 -11.947  0.00  0.00     0.087 H 
ATOM     35  C18 952 d   1     -25.266  38.095 -13.807  0.00  0.00    -0.083 A 
ATOM     36  H23 952 d   1     -25.039  40.215 -13.922  0.00  0.00     0.083 H 
ATOM     37  C17 952 d   1     -24.931  36.944 -13.126  0.00  0.00    -0.080 A 
ATOM     38  H24 952 d   1     -25.914  38.043 -14.674  0.00  0.00     0.083 H 
ATOM     39  C16 952 d   1     -24.106  37.001 -12.015  0.00  0.00    -0.050 A 
ATOM     40  H25 952 d   1     -25.316  35.988 -13.462  0.00  0.00     0.083 H 
ATOM     41  H26 952 d   1     -23.842  36.095 -11.482  0.00  0.00     0.087 H 
ENDBRANCH  30  31
ENDBRANCH  26  30
ENDBRANCH  17  20
ENDBRANCH   3  17
BRANCH   1  42
ATOM     42  N   952 d   1     -24.771  31.410  -9.247  0.00  0.00    -0.303 N 
ATOM     43  C21 952 d   1     -25.455  31.629 -10.423  0.00  0.00     0.329 A 
ATOM     44  N2  952 d   1     -25.394  30.594 -11.322  0.00  0.00    -0.275 N 
ATOM     45  O1  952 d   1     -26.065  32.662 -10.658  0.00  0.00    -0.246 OA
ATOM     46  C22 952 d   1     -24.734  29.389 -11.165  0.00  0.00     0.256 A 
ATOM     47  H4  952 d   1     -25.880  30.726 -12.186  0.00  0.00     0.173 HD
ATOM     48  O2  952 d   1     -24.771  28.549 -12.063  0.00  0.00    -0.267 OA
ATOM     49  C1  952 d   1     -24.040  29.227  -9.906  0.00  0.00     0.022 A 
ATOM     50  C2  952 d   1     -24.093  30.234  -9.020  0.00  0.00    -0.004 A 
ATOM     51  H5  952 d   1     -23.572  30.114  -8.071  0.00  0.00     0.112 H 
BRANCH  49  52
ATOM     52  C   952 d   1     -23.300  27.945  -9.646  0.00  0.00    -0.045 C 
ATOM     53  H1  952 d   1     -22.833  27.987  -8.651  0.00  0.00     0.033 H 
ATOM     54  H2  952 d   1     -22.522  27.809 -10.411  0.00  0.00     0.033 H 
ATOM     55  H3  952 d   1     -24.004  27.101  -9.685  0.00  0.00     0.033 H 
ENDBRANCH  49  52
ENDBRANCH   1  42
TORSDOF 6
