REMARK  6 active torsions:
REMARK  status: ('A' for Active; 'I' for Inactive)
REMARK    1  A    between atoms: CAW_7  and  NAV_8 
REMARK       I    between atoms: NAS_13  and  CAR_14 
REMARK    2  A    between atoms: CAR_14  and  CAQ_16 
REMARK    3  A    between atoms: CAQ_16  and  CAP_17 
REMARK    4  A    between atoms: CAP_17  and  CAO_18 
REMARK       I    between atoms: CAO_18  and  NAN_20 
REMARK    5  A    between atoms: NAN_20  and  CAM_21 
REMARK    6  A    between atoms: CAK_26  and  CAJ_27 
REMARK       I    between atoms: CAJ_27  and  NBB_29 
ROOT
ATOM      1  NAV 94Z d   1       2.459  12.925  23.935  0.00  0.00    -0.378 N 
ATOM      2  CAF 94Z d   1       0.974  13.205  23.860  0.00  0.00     0.010 C 
ATOM      3  CAE 94Z d   1       0.574  14.219  22.735  0.00  0.00     0.012 C 
ATOM      4  CAU 94Z d   1       3.410  13.631  23.021  0.00  0.00     0.010 C 
ATOM      5  CAT 94Z d   1       2.879  14.990  22.608  0.00  0.00     0.012 C 
ATOM      6  NAS 94Z d   1       1.667  14.600  21.868  0.00  0.00    -0.349 N 
ATOM      7  CAR 94Z d   1       1.736  14.612  20.521  0.00  0.00     0.220 C 
ATOM      8  OBC 94Z d   1       2.736  14.942  19.900  0.00  0.00    -0.273 OA
ATOM      9  H5  94Z d   1       0.650  13.616  24.828  0.00  0.00     0.066 H 
ATOM     10  H6  94Z d   1       0.452  12.255  23.672  0.00  0.00     0.066 H 
ATOM     11  H7  94Z d   1       0.179  15.128  23.213  0.00  0.00     0.066 H 
ATOM     12  H8  94Z d   1      -0.212  13.758  22.118  0.00  0.00     0.066 H 
ATOM     13  H9  94Z d   1       3.562  13.018  22.120  0.00  0.00     0.066 H 
ATOM     14  H10 94Z d   1       4.371  13.765  23.539  0.00  0.00     0.066 H 
ATOM     15  H11 94Z d   1       3.592  15.524  21.963  0.00  0.00     0.066 H 
ATOM     16  H12 94Z d   1       2.637  15.613  23.482  0.00  0.00     0.066 H 
ENDROOT
BRANCH   7  17
ATOM     17  CAQ 94Z d   1       0.891  14.093  19.497  0.00  0.00     0.017 C 
ATOM     18  H13 94Z d   1       1.026  14.784  18.652  0.00  0.00     0.047 H 
ATOM     19  H14 94Z d   1      -0.127  14.201  19.899  0.00  0.00     0.047 H 
BRANCH  17  20
ATOM     20  CAP 94Z d   1       0.905  12.791  18.901  0.00  0.00     0.017 C 
ATOM     21  H15 94Z d   1       1.946  12.438  18.932  0.00  0.00     0.047 H 
ATOM     22  H16 94Z d   1       0.591  12.916  17.854  0.00  0.00     0.047 H 
BRANCH  20  23
ATOM     23  CAO 94Z d   1       0.114  11.769  19.442  0.00  0.00     0.222 C 
ATOM     24  OAD 94Z d   1      -0.387  11.856  20.503  0.00  0.00    -0.273 OA
ATOM     25  NAN 94Z d   1       0.010  10.844  18.583  0.00  0.00    -0.327 N 
ATOM     26  H17 94Z d   1       0.493  10.983  17.719  0.00  0.00     0.169 HD
BRANCH  25  27
ATOM     27  CAM 94Z d   1      -0.652   9.740  18.700  0.00  0.00     0.035 A 
ATOM     28  CAL 94Z d   1      -0.915   9.337  17.441  0.00  0.00    -0.042 A 
ATOM     29  CAK 94Z d   1      -1.548   8.163  17.211  0.00  0.00     0.034 A 
ATOM     30  H18 94Z d   1      -0.617   9.959  16.605  0.00  0.00     0.088 H 
ATOM     31  CAA 94Z d   1      -1.958   7.383  18.310  0.00  0.00    -0.068 A 
ATOM     32  CAB 94Z d   1      -1.708   7.801  19.627  0.00  0.00    -0.080 A 
ATOM     33  H21 94Z d   1      -2.474   6.446  18.136  0.00  0.00     0.085 H 
ATOM     34  CAC 94Z d   1      -1.029   8.987  19.848  0.00  0.00    -0.057 A 
ATOM     35  H20 94Z d   1      -2.044   7.200  20.464  0.00  0.00     0.083 H 
ATOM     36  H19 94Z d   1      -0.795   9.327  20.850  0.00  0.00     0.086 H 
BRANCH  29  37
ATOM     37  CAJ 94Z d   1      -1.743   7.798  15.943  0.00  0.00     0.249 C 
ATOM     38  OAI 94Z d   1      -2.717   7.243  15.731  0.00  0.00    -0.268 OA
ATOM     39  NBB 94Z d   1      -0.846   8.027  15.022  0.00  0.00    -0.366 N 
ATOM     40  H22 94Z d   1      -1.015   7.744  14.078  0.00  0.00     0.159 HD
ATOM     41  H23 94Z d   1       0.010   8.486  15.261  0.00  0.00     0.159 HD
ENDBRANCH  29  37
ENDBRANCH  25  27
ENDBRANCH  20  23
ENDBRANCH  17  20
ENDBRANCH   7  17
BRANCH   1  42
ATOM     42  CAW 94Z d   1       2.922  11.999  24.844  0.00  0.00     0.030 A 
ATOM     43  CAG 94Z d   1       4.219  11.427  24.751  0.00  0.00    -0.054 A 
ATOM     44  CAH 94Z d   1       4.667  10.470  25.694  0.00  0.00    -0.044 A 
ATOM     45  H1  94Z d   1       4.877  11.728  23.944  0.00  0.00     0.087 H 
ATOM     46  CAZ 94Z d   1       3.824  10.058  26.747  0.00  0.00     0.116 A 
ATOM     47  H2  94Z d   1       5.663  10.052  25.606  0.00  0.00     0.088 H 
ATOM     48  FBA 94Z d   1       4.173   9.250  27.575  0.00  0.00    -0.206 F 
ATOM     49  CAY 94Z d   1       2.546  10.615  26.861  0.00  0.00    -0.044 A 
ATOM     50  CAX 94Z d   1       2.120  11.571  25.926  0.00  0.00    -0.054 A 
ATOM     51  H3  94Z d   1       1.888  10.310  27.667  0.00  0.00     0.088 H 
ATOM     52  H4  94Z d   1       1.131  12.001  26.039  0.00  0.00     0.087 H 
ENDBRANCH   1  42
TORSDOF 6
