REMARK  9 active torsions:
REMARK  status: ('A' for Active; 'I' for Inactive)
REMARK    1  A    between atoms: C8_4  and  NBA_27 
REMARK    2  A    between atoms: N1_5  and  CAY_22 
REMARK    3  A    between atoms: N3_6  and  CAW_25 
REMARK    4  A    between atoms: CAT_8  and  CAV_7 
REMARK    5  A    between atoms: CAN_14  and  CAP_13 
REMARK    6  A    between atoms: CAJ_19  and  CAK_18 
REMARK    7  A    between atoms: CAJ_19  and  N7_20 
REMARK    8  A    between atoms: NBA_27  and  CBC_28 
REMARK    9  A    between atoms: NBA_27  and  CBB_29 
ROOT
ATOM      1  C4  958 d   1      86.824  14.921 111.475  0.00  0.00     0.185 A 
ATOM      2  C5  958 d   1      85.958  15.464 110.612  0.00  0.00     0.167 A 
ATOM      3  C6  958 d   1      84.772  15.885 111.084  0.00  0.00     0.282 A 
ATOM      4  C8  958 d   1      87.759  14.909 109.546  0.00  0.00     0.707 A 
ATOM      5  N1  958 d   1      84.474  15.759 112.388  0.00  0.00    -0.269 N 
ATOM      6  N3  958 d   1      86.530  14.794 112.774  0.00  0.00    -0.285 N 
ATOM      7  N7  958 d   1      86.519  15.427 109.385  0.00  0.00    -0.164 N 
ATOM      8  O6  958 d   1      83.923  16.395 110.354  0.00  0.00    -0.265 OA
ATOM      9  C2  958 d   1      85.352  15.214 113.236  0.00  0.00     0.332 A 
ATOM     10  O2  958 d   1      85.079  15.098 114.430  0.00  0.00    -0.246 OA
ATOM     11  N9  958 d   1      87.917  14.577 110.817  0.00  0.00    -0.044 NA
ENDROOT
BRANCH   7  12
ATOM     12  CAJ 958 d   1      85.897  16.004 108.142  0.00  0.00     0.080 C 
ATOM     13  H8  958 d   1      85.659  17.052 108.378  0.00  0.00     0.078 H 
ATOM     14  H9  958 d   1      86.676  15.970 107.367  0.00  0.00     0.078 H 
BRANCH  12  15
ATOM     15  CAK 958 d   1      84.639  15.416 107.505  0.00  0.00     0.188 A 
ATOM     16  OAO 958 d   1      83.757  16.192 107.002  0.00  0.00    -0.271 OA
ATOM     17  CAN 958 d   1      82.849  15.461 106.539  0.00  0.00     0.202 A 
ATOM     18  NAM 958 d   1      83.173  14.175 106.692  0.00  0.00    -0.121 NA
ATOM     19  NAL 958 d   1      84.293  14.145 107.304  0.00  0.00    -0.125 NA
BRANCH  17  20
ATOM     20  CAP 958 d   1      81.786  15.981 105.932  0.00  0.00     0.019 A 
ATOM     21  CAU 958 d   1      80.825  15.201 105.301  0.00  0.00    -0.063 A 
ATOM     22  CAT 958 d   1      79.740  15.825 104.688  0.00  0.00    -0.061 A 
ATOM     23  H4  958 d   1      80.918  14.121 105.286  0.00  0.00     0.085 H 
ATOM     24  CAS 958 d   1      79.609  17.209 104.721  0.00  0.00    -0.077 A 
ATOM     25  CAR 958 d   1      80.564  17.985 105.360  0.00  0.00    -0.082 A 
ATOM     26  H5  958 d   1      78.758  17.683 104.246  0.00  0.00     0.084 H 
ATOM     27  CAQ 958 d   1      81.646  17.363 105.965  0.00  0.00    -0.069 A 
ATOM     28  H6  958 d   1      80.466  19.064 105.386  0.00  0.00     0.083 H 
ATOM     29  H7  958 d   1      82.393  17.964 106.471  0.00  0.00     0.085 H 
BRANCH  22  30
ATOM     30  CAV 958 d   1      78.774  15.065 104.042  0.00  0.00    -0.051 C 
ATOM     31  H1  958 d   1      79.037  13.999 104.115  0.00  0.00     0.033 H 
ATOM     32  H2  958 d   1      78.724  15.359 102.983  0.00  0.00     0.033 H 
ATOM     33  H3  958 d   1      77.796  15.235 104.516  0.00  0.00     0.033 H 
ENDBRANCH  22  30
ENDBRANCH  17  20
ENDBRANCH  12  15
ENDBRANCH   7  12
BRANCH   4  34
ATOM     34  NBA 958 d   1      88.768  14.612 108.694  0.00  0.00    -0.224 N 
BRANCH  34  35
ATOM     35  CBC 958 d   1      89.991  14.076 109.308  0.00  0.00    -0.003 C 
ATOM     36  H16 958 d   1      90.736  13.873 108.525  0.00  0.00     0.057 H 
ATOM     37  H17 958 d   1      89.755  13.143 109.840  0.00  0.00     0.057 H 
ATOM     38  H18 958 d   1      90.397  14.811 110.019  0.00  0.00     0.057 H 
ENDBRANCH  34  35
BRANCH  34  39
ATOM     39  CBB 958 d   1      88.720  14.827 107.234  0.00  0.00    -0.003 C 
ATOM     40  H19 958 d   1      87.735  15.230 106.955  0.00  0.00     0.057 H 
ATOM     41  H20 958 d   1      88.885  13.870 106.717  0.00  0.00     0.057 H 
ATOM     42  H21 958 d   1      89.504  15.541 106.943  0.00  0.00     0.057 H 
ENDBRANCH  34  39
ENDBRANCH   4  34
BRANCH   6  43
ATOM     43  CAW 958 d   1      87.518  14.190 113.697  0.00  0.00    -0.008 C 
ATOM     44  H13 958 d   1      88.421  13.908 113.135  0.00  0.00     0.057 H 
ATOM     45  H14 958 d   1      87.083  13.294 114.165  0.00  0.00     0.057 H 
ATOM     46  H15 958 d   1      87.784  14.918 114.477  0.00  0.00     0.057 H 
ENDBRANCH   6  43
BRANCH   5  47
ATOM     47  CAY 958 d   1      83.162  16.223 112.894  0.00  0.00    -0.007 C 
ATOM     48  H10 958 d   1      82.575  16.640 112.062  0.00  0.00     0.057 H 
ATOM     49  H11 958 d   1      83.317  16.999 113.658  0.00  0.00     0.057 H 
ATOM     50  H12 958 d   1      82.619  15.375 113.337  0.00  0.00     0.057 H 
ENDBRANCH   5  47
TORSDOF 9
