REMARK  6 active torsions:
REMARK  status: ('A' for Active; 'I' for Inactive)
REMARK    1  A    between atoms: C1_3  and  C_4 
REMARK    2  A    between atoms: N_8  and  C3_10 
REMARK    3  A    between atoms: N1_13  and  C6_16 
REMARK    4  A    between atoms: C6_16  and  C7_17 
REMARK    5  A    between atoms: C9_25  and  O_27 
REMARK    6  A    between atoms: O_27  and  C10_28 
ROOT
ATOM      1  C3  YUI d   1      -4.808  25.569  -7.160  0.00  0.00     0.024 C 
ATOM      2  C23 YUI d   1      -4.800  26.018  -5.711  0.00  0.00    -0.023 C 
ATOM      3  C22 YUI d   1      -6.142  26.649  -5.355  0.00  0.00     0.086 C 
ATOM      4  N1  YUI d   1      -7.257  25.711  -5.580  0.00  0.00    -0.066 N 
ATOM      5  C5  YUI d   1      -7.273  25.290  -6.989  0.00  0.00     0.086 C 
ATOM      6  C4  YUI d   1      -5.967  24.614  -7.385  0.00  0.00    -0.023 C 
ATOM      7  H6  YUI d   1      -4.969  26.456  -7.791  0.00  0.00     0.073 H 
ATOM      8  H7  YUI d   1      -3.999  26.757  -5.563  0.00  0.00     0.038 H 
ATOM      9  H8  YUI d   1      -4.622  25.149  -5.061  0.00  0.00     0.038 H 
ATOM     10  H9  YUI d   1      -6.294  27.541  -5.980  0.00  0.00     0.076 H 
ATOM     11  H10 YUI d   1      -6.129  26.941  -4.295  0.00  0.00     0.076 H 
ATOM     12  H11 YUI d   1      -7.115  24.898  -5.001  0.00  0.00     0.280 HD
ATOM     13  H12 YUI d   1      -7.424  26.175  -7.625  0.00  0.00     0.076 H 
ATOM     14  H13 YUI d   1      -8.102  24.583  -7.141  0.00  0.00     0.076 H 
ATOM     15  H14 YUI d   1      -5.822  23.712  -6.772  0.00  0.00     0.038 H 
ATOM     16  H15 YUI d   1      -6.008  24.333  -8.448  0.00  0.00     0.038 H 
ENDROOT
BRANCH   4  17
ATOM     17  C6  YUI d   1      -8.542  26.325  -5.215  0.00  0.00     0.123 C 
ATOM     18  H16 YUI d   1      -9.352  25.649  -5.527  0.00  0.00     0.085 H 
ATOM     19  H17 YUI d   1      -8.636  27.281  -5.751  0.00  0.00     0.085 H 
BRANCH  17  20
ATOM     20  C7  YUI d   1      -8.686  26.592  -3.733  0.00  0.00     0.063 A 
ATOM     21  N2  YUI d   1      -9.063  27.821  -3.379  0.00  0.00    -0.251 NA
ATOM     22  C21 YUI d   1      -9.203  28.089  -2.042  0.00  0.00     0.070 A 
ATOM     23  C20 YUI d   1      -9.593  29.391  -1.646  0.00  0.00    -0.054 A 
ATOM     24  C16 YUI d   1      -8.965  27.116  -1.049  0.00  0.00     0.027 A 
ATOM     25  C19 YUI d   1      -9.745  29.693  -0.321  0.00  0.00    -0.081 A 
ATOM     26  H18 YUI d   1      -9.772  30.152  -2.397  0.00  0.00     0.087 H 
ATOM     27  C18 YUI d   1      -9.523  28.735   0.654  0.00  0.00    -0.082 A 
ATOM     28  H19 YUI d   1     -10.043  30.694  -0.030  0.00  0.00     0.083 H 
ATOM     29  C17 YUI d   1      -9.142  27.473   0.309  0.00  0.00    -0.068 A 
ATOM     30  H20 YUI d   1      -9.653  28.991   1.699  0.00  0.00     0.083 H 
ATOM     31  H21 YUI d   1      -8.973  26.734   1.084  0.00  0.00     0.085 H 
ATOM     32  C9  YUI d   1      -8.548  25.831  -1.483  0.00  0.00     0.090 A 
ATOM     33  C8  YUI d   1      -8.421  25.571  -2.831  0.00  0.00    -0.024 A 
ATOM     34  H22 YUI d   1      -8.120  24.589  -3.179  0.00  0.00     0.091 H 
BRANCH  32  35
ATOM     35  O   YUI d   1      -8.193  24.952  -0.458  0.00  0.00    -0.310 OA
BRANCH  35  36
ATOM     36  C10 YUI d   1      -8.725  23.660  -0.453  0.00  0.00     0.077 A 
ATOM     37  C15 YUI d   1      -8.190  22.815   0.506  0.00  0.00    -0.029 A 
ATOM     38  C14 YUI d   1      -8.679  21.529   0.591  0.00  0.00     0.036 A 
ATOM     39  H23 YUI d   1      -7.407  23.157   1.173  0.00  0.00     0.090 H 
ATOM     40 CL   YUI d   1      -8.023  20.460   1.800  0.00  0.00    -0.084 Cl
ATOM     41  C13 YUI d   1      -9.669  21.068  -0.248  0.00  0.00    -0.062 A 
ATOM     42  C12 YUI d   1     -10.187  21.925  -1.203  0.00  0.00    -0.079 A 
ATOM     43  H24 YUI d   1     -10.036  20.052  -0.162  0.00  0.00     0.086 H 
ATOM     44  C11 YUI d   1      -9.721  23.224  -1.313  0.00  0.00    -0.050 A 
ATOM     45  H25 YUI d   1     -10.965  21.576  -1.872  0.00  0.00     0.083 H 
ATOM     46  H26 YUI d   1     -10.130  23.892  -2.062  0.00  0.00     0.087 H 
ENDBRANCH  35  36
ENDBRANCH  32  35
ENDBRANCH  17  20
ENDBRANCH   4  17
BRANCH   1  47
ATOM     47  N   YUI d   1      -3.517  24.969  -7.555  0.00  0.00    -0.304 N 
ATOM     48  C24 YUI d   1      -2.473  25.824  -7.843  0.00  0.00     0.329 A 
ATOM     49  N3  YUI d   1      -1.328  25.205  -8.276  0.00  0.00    -0.275 N 
ATOM     50  O1  YUI d   1      -2.554  27.036  -7.713  0.00  0.00    -0.246 OA
ATOM     51  C25 YUI d   1      -1.121  23.850  -8.440  0.00  0.00     0.256 A 
ATOM     52  H4  YUI d   1      -0.557  25.802  -8.498  0.00  0.00     0.173 HD
ATOM     53  O2  YUI d   1      -0.040  23.440  -8.855  0.00  0.00    -0.267 OA
ATOM     54  C1  YUI d   1      -2.252  23.009  -8.100  0.00  0.00     0.022 A 
ATOM     55  C2  YUI d   1      -3.378  23.604  -7.681  0.00  0.00    -0.004 A 
ATOM     56  H5  YUI d   1      -4.229  22.974  -7.426  0.00  0.00     0.112 H 
BRANCH  54  57
ATOM     57  C   YUI d   1      -2.106  21.518  -8.226  0.00  0.00    -0.045 C 
ATOM     58  H1  YUI d   1      -3.048  21.031  -7.932  0.00  0.00     0.033 H 
ATOM     59  H2  YUI d   1      -1.294  21.172  -7.569  0.00  0.00     0.033 H 
ATOM     60  H3  YUI d   1      -1.870  21.259  -9.269  0.00  0.00     0.033 H 
ENDBRANCH  54  57
ENDBRANCH   1  47
TORSDOF 6
