REMARK  6 active torsions:
REMARK  status: ('A' for Active; 'I' for Inactive)
REMARK    1  A    between atoms: C5_5  and  C8_8 
REMARK    2  A    between atoms: C8_8  and  C9_9 
REMARK    3  A    between atoms: C9_9  and  N10_10 
REMARK    4  A    between atoms: N10_10  and  C23_11 
REMARK    5  A    between atoms: N10_10  and  C11_12 
REMARK    6  A    between atoms: N14_15  and  C17_18 
ROOT
ATOM      1  C11 95N d   1      95.487  31.266  23.061  0.00  0.00     0.105 C 
ATOM      2  C12 95N d   1      96.236  30.023  23.581  0.00  0.00    -0.027 C 
ATOM      3  C13 95N d   1      96.089  28.875  22.587  0.00  0.00    -0.012 C 
ATOM      4  N14 95N d   1      96.604  29.293  21.297  0.00  0.00    -0.251 NA
ATOM      5  C15 95N d   1      95.970  30.488  20.759  0.00  0.00    -0.012 C 
ATOM      6  C16 95N d   1      96.098  31.660  21.718  0.00  0.00    -0.027 C 
ATOM      7  H13 95N d   1      94.429  31.004  22.912  0.00  0.00     0.084 H 
ATOM      8  H14 95N d   1      95.814  29.722  24.551  0.00  0.00     0.037 H 
ATOM      9  H15 95N d   1      97.302  30.265  23.704  0.00  0.00     0.037 H 
ATOM     10  H16 95N d   1      95.027  28.606  22.490  0.00  0.00     0.056 H 
ATOM     11  H17 95N d   1      96.656  28.003  22.945  0.00  0.00     0.056 H 
ATOM     12  H18 95N d   1      94.903  30.281  20.586  0.00  0.00     0.056 H 
ATOM     13  H19 95N d   1      96.452  30.751  19.806  0.00  0.00     0.056 H 
ATOM     14  H20 95N d   1      97.160  31.912  21.855  0.00  0.00     0.037 H 
ATOM     15  H21 95N d   1      95.564  32.531  21.310  0.00  0.00     0.037 H 
ENDROOT
BRANCH   1  16
ATOM     16  N10 95N d   1      95.555  32.410  24.022  0.00  0.00    -0.070 N 
ATOM     17  H9  95N d   1      96.526  32.666  24.106  0.00  0.00     0.279 HD
BRANCH  16  18
ATOM     18  C9  95N d   1      94.815  33.619  23.572  0.00  0.00     0.087 C 
ATOM     19  H7  95N d   1      94.794  34.340  24.402  0.00  0.00     0.076 H 
ATOM     20  H8  95N d   1      95.355  34.057  22.720  0.00  0.00     0.076 H 
BRANCH  18  21
ATOM     21  C8  95N d   1      93.367  33.344  23.136  0.00  0.00    -0.018 C 
ATOM     22  H5  95N d   1      93.378  32.718  22.231  0.00  0.00     0.042 H 
ATOM     23  H6  95N d   1      92.845  32.811  23.944  0.00  0.00     0.042 H 
BRANCH  21  24
ATOM     24  C5  95N d   1      92.626  34.633  22.836  0.00  0.00    -0.057 A 
ATOM     25  C6  95N d   1      93.031  35.483  21.818  0.00  0.00    -0.076 A 
ATOM     26  C1  95N d   1      92.327  36.641  21.549  0.00  0.00    -0.066 A 
ATOM     27  H2  95N d   1      93.907  35.237  21.229  0.00  0.00     0.084 H 
ATOM     28  C2  95N d   1      91.197  36.963  22.278  0.00  0.00     0.011 A 
ATOM     29  H1  95N d   1      92.663  37.303  20.759  0.00  0.00     0.085 H 
ATOM     30 BR7  95N d   1      90.260  38.545  21.914  0.00  0.00    -0.051 Br
ATOM     31  C3  95N d   1      90.765  36.106  23.266  0.00  0.00    -0.066 A 
ATOM     32  C4  95N d   1      91.472  34.948  23.531  0.00  0.00    -0.076 A 
ATOM     33  H4  95N d   1      89.872  36.339  23.835  0.00  0.00     0.085 H 
ATOM     34  H3  95N d   1      91.115  34.272  24.300  0.00  0.00     0.084 H 
ENDBRANCH  21  24
ENDBRANCH  18  21
ENDBRANCH  16  18
BRANCH  16  35
ATOM     35  C23 95N d   1      95.070  32.016  25.365  0.00  0.00     0.067 C 
ATOM     36  H10 95N d   1      95.614  31.122  25.703  0.00  0.00     0.068 H 
ATOM     37  H11 95N d   1      93.994  31.794  25.316  0.00  0.00     0.068 H 
ATOM     38  H12 95N d   1      95.242  32.840  26.073  0.00  0.00     0.068 H 
ENDBRANCH  16  35
ENDBRANCH   1  16
BRANCH   4  39
ATOM     39  C17 95N d   1      96.660  28.268  20.374  0.00  0.00     0.217 A 
ATOM     40  N18 95N d   1      96.152  27.051  20.598  0.00  0.00    -0.102 NA
ATOM     41  N19 95N d   1      96.498  26.309  19.457  0.00  0.00     0.044 NA
ATOM     42  C20 95N d   1      97.211  27.156  18.695  0.00  0.00     0.719 A 
ATOM     43  N21 95N d   1      97.357  28.372  19.234  0.00  0.00    -0.160 N 
ATOM     44  N22 95N d   1      97.759  26.785  17.504  0.00  0.00    -0.231 N 
ATOM     45  H22 95N d   1      97.874  29.183  18.866  0.00  0.00     0.187 HD
ATOM     46  H23 95N d   1      97.609  25.832  17.143  0.00  0.00     0.174 HD
ATOM     47  H24 95N d   1      98.323  27.457  16.965  0.00  0.00     0.174 HD
ENDBRANCH   4  39
TORSDOF 6
