REMARK  10 active torsions:
REMARK  status: ('A' for Active; 'I' for Inactive)
REMARK    1  A    between atoms: C5_5  and  C8_8 
REMARK    2  A    between atoms: C8_8  and  C9_9 
REMARK    3  A    between atoms: C9_9  and  N10_10 
REMARK    4  A    between atoms: N10_10  and  C23_11 
REMARK    5  A    between atoms: N10_10  and  C11_15 
REMARK    6  A    between atoms: C23_11  and  C24_12 
REMARK    7  A    between atoms: C24_12  and  C26_13 
REMARK    8  A    between atoms: C24_12  and  C25_14 
REMARK    9  A    between atoms: N14_18  and  C17_21 
REMARK   10  A    between atoms: C20_23  and  N22_24 
ROOT
ATOM      1  N10 95K d   1      95.014  32.145  24.077  0.00  0.00    -0.066 N 
ATOM      2  H9  95K d   1      95.961  32.362  24.346  0.00  0.00     0.280 HD
ENDROOT
BRANCH   1   3
ATOM      3  C9  95K d   1      94.367  33.364  23.506  0.00  0.00     0.087 C 
ATOM      4  H7  95K d   1      94.346  34.141  24.285  0.00  0.00     0.076 H 
ATOM      5  H8  95K d   1      94.974  33.712  22.657  0.00  0.00     0.076 H 
BRANCH   3   6
ATOM      6  C8  95K d   1      92.913  33.134  23.005  0.00  0.00    -0.018 C 
ATOM      7  H5  95K d   1      92.957  32.564  22.066  0.00  0.00     0.042 H 
ATOM      8  H6  95K d   1      92.374  32.549  23.764  0.00  0.00     0.042 H 
BRANCH   6   9
ATOM      9  C5  95K d   1      92.143  34.407  22.752  0.00  0.00    -0.057 A 
ATOM     10  C4  95K d   1      92.568  35.280  21.750  0.00  0.00    -0.076 A 
ATOM     11  C3  95K d   1      91.871  36.444  21.521  0.00  0.00    -0.066 A 
ATOM     12  H2  95K d   1      93.443  35.042  21.155  0.00  0.00     0.084 H 
ATOM     13  C2  95K d   1      90.721  36.720  22.320  0.00  0.00     0.011 A 
ATOM     14  H1  95K d   1      92.189  37.137  20.750  0.00  0.00     0.085 H 
ATOM     15 BR7  95K d   1      89.776  38.368  21.962  0.00  0.00    -0.051 Br
ATOM     16  C1  95K d   1      90.293  35.860  23.332  0.00  0.00    -0.066 A 
ATOM     17  C6  95K d   1      90.997  34.688  23.558  0.00  0.00    -0.076 A 
ATOM     18  H4  95K d   1      89.424  36.105  23.932  0.00  0.00     0.085 H 
ATOM     19  H3  95K d   1      90.684  33.997  24.332  0.00  0.00     0.084 H 
ENDBRANCH   6   9
ENDBRANCH   3   6
ENDBRANCH   1   3
BRANCH   1  20
ATOM     20  C23 95K d   1      94.260  31.728  25.230  0.00  0.00     0.086 C 
ATOM     21  H10 95K d   1      94.755  30.834  25.637  0.00  0.00     0.076 H 
ATOM     22  H11 95K d   1      93.251  31.462  24.881  0.00  0.00     0.076 H 
BRANCH  20  23
ATOM     23  C24 95K d   1      94.093  32.721  26.388  0.00  0.00    -0.038 C 
ATOM     24  H12 95K d   1      93.741  33.684  25.991  0.00  0.00     0.041 H 
BRANCH  23  25
ATOM     25  C26 95K d   1      93.095  32.223  27.409  0.00  0.00    -0.072 C 
ATOM     26  H13 95K d   1      93.003  32.959  28.221  0.00  0.00     0.028 H 
ATOM     27  H14 95K d   1      93.440  31.264  27.822  0.00  0.00     0.028 H 
ATOM     28  H15 95K d   1      92.116  32.084  26.927  0.00  0.00     0.028 H 
ENDBRANCH  23  25
BRANCH  23  29
ATOM     29  C25 95K d   1      95.465  32.908  27.041  0.00  0.00    -0.072 C 
ATOM     30  H16 95K d   1      96.182  33.270  26.290  0.00  0.00     0.028 H 
ATOM     31  H17 95K d   1      95.812  31.946  27.446  0.00  0.00     0.028 H 
ATOM     32  H18 95K d   1      95.386  33.642  27.856  0.00  0.00     0.028 H 
ENDBRANCH  23  29
ENDBRANCH  20  23
ENDBRANCH   1  20
BRANCH   1  33
ATOM     33  C11 95K d   1      95.024  31.037  23.085  0.00  0.00     0.106 C 
ATOM     34  C16 95K d   1      95.656  31.446  21.805  0.00  0.00    -0.027 C 
ATOM     35  C15 95K d   1      95.542  30.328  20.795  0.00  0.00    -0.012 C 
ATOM     36  H20 95K d   1      96.718  31.674  21.979  0.00  0.00     0.037 H 
ATOM     37  H21 95K d   1      95.148  32.341  21.417  0.00  0.00     0.037 H 
ATOM     38  N14 95K d   1      96.133  29.111  21.326  0.00  0.00    -0.251 NA
ATOM     39  H22 95K d   1      96.069  30.616  19.873  0.00  0.00     0.056 H 
ATOM     40  H23 95K d   1      94.480  30.148  20.570  0.00  0.00     0.056 H 
ATOM     41  C13 95K d   1      95.637  28.710  22.630  0.00  0.00    -0.012 C 
ATOM     42  C12 95K d   1      95.707  29.834  23.631  0.00  0.00    -0.027 C 
ATOM     43  H24 95K d   1      96.243  27.869  22.997  0.00  0.00     0.056 H 
ATOM     44  H25 95K d   1      94.590  28.390  22.528  0.00  0.00     0.056 H 
ATOM     45  H26 95K d   1      95.212  29.524  24.563  0.00  0.00     0.037 H 
ATOM     46  H27 95K d   1      96.760  30.074  23.837  0.00  0.00     0.037 H 
ATOM     47  H19 95K d   1      93.978  30.768  22.874  0.00  0.00     0.084 H 
BRANCH  38  48
ATOM     48  C17 95K d   1      96.242  28.091  20.393  0.00  0.00     0.217 A 
ATOM     49  N21 95K d   1      96.870  28.220  19.196  0.00  0.00    -0.160 N 
ATOM     50  C20 95K d   1      96.758  27.004  18.611  0.00  0.00     0.719 A 
ATOM     51  H28 95K d   1      97.331  29.059  18.816  0.00  0.00     0.187 HD
ATOM     52  N19 95K d   1      96.090  26.182  19.425  0.00  0.00     0.044 NA
ATOM     53  N18 95K d   1      95.770  26.855  20.527  0.00  0.00    -0.102 NA
BRANCH  50  54
ATOM     54  N22 95K d   1      97.309  26.689  17.320  0.00  0.00    -0.231 N 
ATOM     55  H29 95K d   1      97.191  25.744  16.926  0.00  0.00     0.174 HD
ATOM     56  H30 95K d   1      97.821  27.408  16.789  0.00  0.00     0.174 HD
ENDBRANCH  50  54
ENDBRANCH  38  48
ENDBRANCH   1  33
TORSDOF 10
