REMARK  7 active torsions:
REMARK  status: ('A' for Active; 'I' for Inactive)
REMARK    1  A    between atoms: C5_5  and  C8_8 
REMARK    2  A    between atoms: C8_8  and  C9_9 
REMARK    3  A    between atoms: C9_9  and  N10_10 
REMARK    4  A    between atoms: N10_10  and  C23_11 
REMARK    5  A    between atoms: N10_10  and  C11_18 
REMARK    6  A    between atoms: C23_11  and  C24_12 
REMARK    7  A    between atoms: N14_21  and  C17_24 
ROOT
ATOM      1  N10 95Q d   1      95.221  32.260  24.014  0.00  0.00    -0.063 N 
ATOM      2  H9  95Q d   1      96.175  32.489  24.247  0.00  0.00     0.280 HD
ENDROOT
BRANCH   1   3
ATOM      3  C9  95Q d   1      94.552  33.482  23.504  0.00  0.00     0.088 C 
ATOM      4  H7  95Q d   1      94.527  34.231  24.309  0.00  0.00     0.076 H 
ATOM      5  H8  95Q d   1      95.133  33.874  22.656  0.00  0.00     0.076 H 
BRANCH   3   6
ATOM      6  C8  95Q d   1      93.118  33.218  23.035  0.00  0.00    -0.018 C 
ATOM      7  H5  95Q d   1      93.148  32.646  22.096  0.00  0.00     0.042 H 
ATOM      8  H6  95Q d   1      92.592  32.633  23.804  0.00  0.00     0.042 H 
BRANCH   6   9
ATOM      9  C5  95Q d   1      92.367  34.513  22.800  0.00  0.00    -0.057 A 
ATOM     10  C6  95Q d   1      91.229  34.795  23.551  0.00  0.00    -0.075 A 
ATOM     11  C1  95Q d   1      90.520  35.974  23.357  0.00  0.00    -0.061 A 
ATOM     12  H2  95Q d   1      90.891  34.085  24.297  0.00  0.00     0.084 H 
ATOM     13  C2  95Q d   1      90.949  36.878  22.397  0.00  0.00     0.034 A 
ATOM     14  H1  95Q d   1      89.638  36.185  23.951  0.00  0.00     0.086 H 
ATOM     15 CL7  95Q d   1      90.042  38.390  22.141  0.00  0.00    -0.084 Cl
ATOM     16  C3  95Q d   1      92.081  36.603  21.636  0.00  0.00    -0.061 A 
ATOM     17  C4  95Q d   1      92.787  35.420  21.832  0.00  0.00    -0.075 A 
ATOM     18  H4  95Q d   1      92.414  37.313  20.888  0.00  0.00     0.086 H 
ATOM     19  H3  95Q d   1      93.663  35.205  21.231  0.00  0.00     0.084 H 
ENDBRANCH   6   9
ENDBRANCH   3   6
ENDBRANCH   1   3
BRANCH   1  20
ATOM     20  C23 95Q d   1      94.543  31.703  25.207  0.00  0.00     0.107 C 
ATOM     21  H10 95Q d   1      95.186  30.926  25.645  0.00  0.00     0.083 H 
ATOM     22  H11 95Q d   1      93.589  31.255  24.891  0.00  0.00     0.083 H 
BRANCH  20  23
ATOM     23  C24 95Q d   1      94.259  32.745  26.263  0.00  0.00    -0.033 C 
ATOM     24  C25 95Q d   1      95.249  33.060  27.182  0.00  0.00    -0.075 C 
ATOM     25  C26 95Q d   1      94.987  34.016  28.162  0.00  0.00    -0.082 C 
ATOM     26  H12 95Q d   1      96.214  32.569  27.139  0.00  0.00     0.084 H 
ATOM     27  C27 95Q d   1      93.679  34.427  28.381  0.00  0.00    -0.083 C 
ATOM     28  H13 95Q d   1      95.797  34.435  28.748  0.00  0.00     0.083 H 
ATOM     29  C28 95Q d   1      92.650  33.859  27.637  0.00  0.00    -0.082 C 
ATOM     30  H14 95Q d   1      93.462  35.184  29.126  0.00  0.00     0.083 H 
ATOM     31  C29 95Q d   1      92.943  32.914  26.669  0.00  0.00    -0.075 C 
ATOM     32  H15 95Q d   1      91.623  34.155  27.815  0.00  0.00     0.083 H 
ATOM     33  H16 95Q d   1      92.153  32.313  26.233  0.00  0.00     0.084 H 
ENDBRANCH  20  23
ENDBRANCH   1  20
BRANCH   1  34
ATOM     34  C11 95Q d   1      95.197  31.194  22.994  0.00  0.00     0.106 C 
ATOM     35  C12 95Q d   1      95.916  31.600  21.711  0.00  0.00    -0.027 C 
ATOM     36  C13 95Q d   1      95.788  30.455  20.710  0.00  0.00    -0.012 C 
ATOM     37  H18 95Q d   1      96.978  31.791  21.924  0.00  0.00     0.037 H 
ATOM     38  H19 95Q d   1      95.455  32.509  21.298  0.00  0.00     0.037 H 
ATOM     39  N14 95Q d   1      96.417  29.246  21.281  0.00  0.00    -0.251 NA
ATOM     40  H20 95Q d   1      96.294  30.727  19.772  0.00  0.00     0.056 H 
ATOM     41  H21 95Q d   1      94.725  30.258  20.509  0.00  0.00     0.056 H 
ATOM     42  C15 95Q d   1      95.745  28.796  22.516  0.00  0.00    -0.012 C 
ATOM     43  C16 95Q d   1      95.840  29.921  23.544  0.00  0.00    -0.027 C 
ATOM     44  H22 95Q d   1      96.242  27.894  22.903  0.00  0.00     0.056 H 
ATOM     45  H23 95Q d   1      94.689  28.572  22.305  0.00  0.00     0.056 H 
ATOM     46  H24 95Q d   1      95.318  29.618  24.463  0.00  0.00     0.037 H 
ATOM     47  H25 95Q d   1      96.898  30.117  23.771  0.00  0.00     0.037 H 
ATOM     48  H17 95Q d   1      94.146  30.981  22.748  0.00  0.00     0.084 H 
BRANCH  39  49
ATOM     49  C17 95Q d   1      96.511  28.186  20.303  0.00  0.00     0.217 A 
ATOM     50  N18 95Q d   1      95.994  26.957  20.503  0.00  0.00    -0.102 NA
ATOM     51  N19 95Q d   1      96.343  26.259  19.341  0.00  0.00     0.044 NA
ATOM     52  C20 95Q d   1      97.041  27.144  18.601  0.00  0.00     0.719 A 
ATOM     53  N21 95Q d   1      97.174  28.371  19.144  0.00  0.00    -0.160 N 
ATOM     54  N22 95Q d   1      97.564  26.801  17.388  0.00  0.00    -0.231 N 
ATOM     55  H26 95Q d   1      97.647  29.210  18.778  0.00  0.00     0.187 HD
ATOM     56  H27 95Q d   1      97.432  25.848  17.021  0.00  0.00     0.174 HD
ATOM     57  H28 95Q d   1      98.091  27.495  16.840  0.00  0.00     0.174 HD
ENDBRANCH  39  49
ENDBRANCH   1  34
TORSDOF 7
