REMARK  2 active torsions:
REMARK  status: ('A' for Active; 'I' for Inactive)
REMARK    1  A    between atoms: CAV_18  and  NAY_17 
REMARK    2  A    between atoms: NAH_29  and  CAC_30 
ROOT
ATOM      1  OBA 97E d   1      -0.671  -5.542  21.042  0.00  0.00    -0.246 OA
ATOM      2  CAZ 97E d   1      -0.301  -5.986  22.116  0.00  0.00     0.332 A 
ATOM      3  NBB 97E d   1      -1.136  -6.418  23.028  0.00  0.00    -0.306 N 
ATOM      4  CBC 97E d   1      -0.421  -6.801  24.063  0.00  0.00     0.065 A 
ATOM      5  CBH 97E d   1      -0.797  -7.315  25.251  0.00  0.00    -0.035 A 
ATOM      6  CBG 97E d   1       0.191  -7.634  26.186  0.00  0.00     0.046 A 
ATOM      7  CBI 97E d   1      -0.129  -8.161  27.392  0.00  0.00     0.099 C 
ATOM      8  NBJ 97E d   1      -0.356  -8.577  28.350  0.00  0.00    -0.191 NA
ATOM      9  CBF 97E d   1       1.539  -7.405  25.894  0.00  0.00    -0.061 A 
ATOM     10  CBE 97E d   1       1.854  -6.866  24.645  0.00  0.00    -0.053 A 
ATOM     11  CBD 97E d   1       0.883  -6.582  23.753  0.00  0.00     0.071 A 
ATOM     12  NAY 97E d   1       0.955  -6.071  22.521  0.00  0.00    -0.262 N 
ATOM     13  H3  97E d   1      -2.132  -6.450  22.951  0.00  0.00     0.171 HD
ATOM     14  H4  97E d   1      -1.845  -7.478  25.476  0.00  0.00     0.089 H 
ATOM     15  H5  97E d   1       2.315  -7.638  26.614  0.00  0.00     0.086 H 
ATOM     16  H6  97E d   1       2.890  -6.674  24.390  0.00  0.00     0.087 H 
ENDROOT
BRANCH  12  17
ATOM     17  CAV 97E d   1       2.071  -5.722  21.867  0.00  0.00     0.044 A 
ATOM     18  CAW 97E d   1       2.744  -6.666  21.096  0.00  0.00    -0.056 A 
ATOM     19  CAX 97E d   1       3.920  -6.357  20.397  0.00  0.00    -0.067 A 
ATOM     20  H7  97E d   1       2.346  -7.672  21.034  0.00  0.00     0.087 H 
ATOM     21  CAS 97E d   1       4.465  -5.076  20.478  0.00  0.00     0.012 A 
ATOM     22  H8  97E d   1       4.406  -7.115  19.793  0.00  0.00     0.085 H 
ATOM     23  CAT 97E d   1       3.776  -4.143  21.261  0.00  0.00    -0.067 A 
ATOM     24  CAI 97E d   1       5.595  -4.634  19.861  0.00  0.00     0.169 A 
ATOM     25  CAU 97E d   1       2.604  -4.448  21.954  0.00  0.00    -0.056 A 
ATOM     26  H10 97E d   1       4.171  -3.136  21.332  0.00  0.00     0.085 H 
ATOM     27  H9  97E d   1       2.114  -3.692  22.557  0.00  0.00     0.087 H 
ATOM     28  NAJ 97E d   1       5.589  -4.053  18.662  0.00  0.00    -0.129 NA
ATOM     29  NAH 97E d   1       6.864  -4.589  20.354  0.00  0.00    -0.273 N 
ATOM     30  NAK 97E d   1       6.723  -3.717  18.384  0.00  0.00    -0.127 NA
ATOM     31  CAL 97E d   1       7.596  -4.028  19.362  0.00  0.00     0.187 A 
ATOM     32  C4  97E d   1       8.938  -3.692  19.349  0.00  0.00     0.107 A 
ATOM     33  C5  97E d   1       9.831  -3.993  18.290  0.00  0.00    -0.034 A 
ATOM     34  N3  97E d   1       9.439  -2.913  20.377  0.00  0.00    -0.238 NA
ATOM     35  C6  97E d   1      11.187  -3.560  18.336  0.00  0.00     0.006 A 
ATOM     36  H1  97E d   1       9.478  -4.559  17.436  0.00  0.00     0.089 H 
ATOM     37  N1  97E d   1      11.709  -2.797  19.420  0.00  0.00    -0.254 NA
ATOM     38  H2  97E d   1      11.846  -3.821  17.516  0.00  0.00     0.114 H 
ATOM     39  C2  97E d   1      10.806  -2.487  20.453  0.00  0.00     0.087 A 
ATOM     40  H11 97E d   1      11.146  -1.922  21.313  0.00  0.00     0.146 H 
BRANCH  29  41
ATOM     41  CAC 97E d   1       7.330  -5.091  21.511  0.00  0.00     0.064 A 
ATOM     42  CAB 97E d   1       7.895  -6.387  21.485  0.00  0.00     0.061 A 
ATOM     43 CLA  97E d   1       7.988  -7.317  19.970  0.00  0.00    -0.082 Cl
ATOM     44  CAG 97E d   1       8.401  -6.975  22.650  0.00  0.00    -0.060 A 
ATOM     45  CAF 97E d   1       8.341  -6.277  23.850  0.00  0.00    -0.081 A 
ATOM     46  H12 97E d   1       8.836  -7.967  22.616  0.00  0.00     0.086 H 
ATOM     47  CAE 97E d   1       7.787  -4.991  23.885  0.00  0.00    -0.081 A 
ATOM     48  H13 97E d   1       8.723  -6.728  24.759  0.00  0.00     0.083 H 
ATOM     49  CAD 97E d   1       7.277  -4.395  22.723  0.00  0.00    -0.055 A 
ATOM     50  H14 97E d   1       7.752  -4.449  24.823  0.00  0.00     0.083 H 
ATOM     51  H15 97E d   1       6.845  -3.402  22.764  0.00  0.00     0.087 H 
ENDBRANCH  29  41
ENDBRANCH  12  17
TORSDOF 2
