REMARK  1 active torsions:
REMARK  status: ('A' for Active; 'I' for Inactive)
REMARK    1  A    between atoms: CAL_9  and  CAD_10 
ROOT
ATOM      1  CAD 97K d   1       6.734  37.244  12.021  0.00  0.00     0.141 A 
ATOM      2  NAE 97K d   1       5.909  36.320  12.503  0.00  0.00    -0.230 NA
ATOM      3  CAF 97K d   1       5.854  36.031  13.824  0.00  0.00     0.074 A 
ATOM      4  CAG 97K d   1       4.999  35.034  14.220  0.00  0.00    -0.054 A 
ATOM      5  CAH 97K d   1       4.871  34.726  15.579  0.00  0.00    -0.081 A 
ATOM      6  CAI 97K d   1       5.626  35.457  16.518  0.00  0.00    -0.082 A 
ATOM      7  CAJ 97K d   1       6.524  36.460  16.115  0.00  0.00    -0.065 A 
ATOM      8  CAK 97K d   1       6.611  36.761  14.757  0.00  0.00     0.061 A 
ATOM      9  CAB 97K d   1       7.471  37.739  14.258  0.00  0.00     0.259 A 
ATOM     10  OAA 97K d   1       8.230  38.378  14.947  0.00  0.00    -0.267 OA
ATOM     11  NAC 97K d   1       7.499  37.988  12.898  0.00  0.00    -0.307 N 
ATOM     12  H6  97K d   1       4.424  34.486  13.482  0.00  0.00     0.087 H 
ATOM     13  H7  97K d   1       4.202  33.938  15.904  0.00  0.00     0.083 H 
ATOM     14  H8  97K d   1       5.512  35.241  17.574  0.00  0.00     0.083 H 
ATOM     15  H9  97K d   1       7.133  36.986  16.841  0.00  0.00     0.085 H 
ATOM     16  H10 97K d   1       8.083  38.719  12.544  0.00  0.00     0.170 HD
ENDROOT
BRANCH   1  17
ATOM     17  CAL 97K d   1       6.706  37.563  10.630  0.00  0.00     0.011 A 
ATOM     18  CAT 97K d   1       6.114  36.738   9.648  0.00  0.00    -0.056 A 
ATOM     19  CAS 97K d   1       6.083  37.184   8.355  0.00  0.00     0.012 A 
ATOM     20  H1  97K d   1       5.694  35.774   9.913  0.00  0.00     0.086 H 
ATOM     21  CAR 97K d   1       5.658  36.634   7.218  0.00  0.00     0.034 A 
ATOM     22  CAO 97K d   1       6.558  38.390   7.987  0.00  0.00     0.061 A 
ATOM     23  NAQ 97K d   1       5.843  37.519   6.219  0.00  0.00    -0.186 NA
ATOM     24  H2  97K d   1       5.233  35.637   7.114  0.00  0.00     0.118 H 
ATOM     25  NAP 97K d   1       6.375  38.540   6.672  0.00  0.00    -0.278 N 
ATOM     26  H3  97K d   1       6.635  39.372   6.123  0.00  0.00     0.189 HD
ATOM     27  CAN 97K d   1       7.074  39.220   8.874  0.00  0.00    -0.054 A 
ATOM     28  CAM 97K d   1       7.154  38.834  10.221  0.00  0.00    -0.067 A 
ATOM     29  H4  97K d   1       7.434  40.194   8.564  0.00  0.00     0.087 H 
ATOM     30  H5  97K d   1       7.564  39.520  10.953  0.00  0.00     0.085 H 
ENDBRANCH   1  17
TORSDOF 1
