REMARK  2 active torsions:
REMARK  status: ('A' for Active; 'I' for Inactive)
REMARK    1  A    between atoms: CAB_2  and  NAA_3 
REMARK    2  A    between atoms: CAF_7  and  CAH_8 
ROOT
ATOM      1  CAH 97H d   1      -6.700 -37.191  11.915  0.00  0.00     0.141 A 
ATOM      2  NAI 97H d   1      -5.907 -36.211  12.369  0.00  0.00    -0.230 NA
ATOM      3  CAJ 97H d   1      -5.825 -35.930  13.690  0.00  0.00     0.074 A 
ATOM      4  CAO 97H d   1      -4.995 -34.904  14.109  0.00  0.00    -0.054 A 
ATOM      5  CAN 97H d   1      -4.883 -34.612  15.472  0.00  0.00    -0.081 A 
ATOM      6  CAM 97H d   1      -5.598 -35.358  16.417  0.00  0.00    -0.082 A 
ATOM      7  CAL 97H d   1      -6.422 -36.400  15.989  0.00  0.00    -0.065 A 
ATOM      8  CAK 97H d   1      -6.515 -36.682  14.636  0.00  0.00     0.061 A 
ATOM      9  CAP 97H d   1      -7.350 -37.703  14.178  0.00  0.00     0.259 A 
ATOM     10  OAQ 97H d   1      -8.041 -38.367  14.941  0.00  0.00    -0.267 OA
ATOM     11  NAR 97H d   1      -7.428 -37.942  12.819  0.00  0.00    -0.307 N 
ATOM     12  H7  97H d   1      -4.433 -34.328  13.382  0.00  0.00     0.087 H 
ATOM     13  H8  97H d   1      -4.239 -33.804  15.799  0.00  0.00     0.083 H 
ATOM     14  H9  97H d   1      -5.512 -35.128  17.473  0.00  0.00     0.083 H 
ATOM     15  H10 97H d   1      -6.984 -36.983  16.709  0.00  0.00     0.085 H 
ATOM     16  H11 97H d   1      -8.023 -38.672  12.483  0.00  0.00     0.170 HD
ENDROOT
BRANCH   1  17
ATOM     17  CAF 97H d   1      -6.758 -37.545  10.560  0.00  0.00     0.012 A 
ATOM     18  CAG 97H d   1      -6.178 -36.776   9.551  0.00  0.00    -0.044 A 
ATOM     19  CAB 97H d   1      -6.217 -37.238   8.228  0.00  0.00     0.026 A 
ATOM     20  H1  97H d   1      -5.702 -35.831   9.787  0.00  0.00     0.088 H 
ATOM     21  CAC 97H d   1      -6.800 -38.452   7.908  0.00  0.00    -0.058 A 
ATOM     22  CAD 97H d   1      -7.354 -39.229   8.905  0.00  0.00    -0.080 A 
ATOM     23  H4  97H d   1      -6.821 -38.791   6.879  0.00  0.00     0.086 H 
ATOM     24  CAE 97H d   1      -7.303 -38.786  10.224  0.00  0.00    -0.069 A 
ATOM     25  H5  97H d   1      -7.824 -40.175   8.664  0.00  0.00     0.083 H 
ATOM     26  H6  97H d   1      -7.696 -39.420  11.010  0.00  0.00     0.085 H 
BRANCH  19  27
ATOM     27  NAA 97H d   1      -5.685 -36.492   7.265  0.00  0.00    -0.399 N 
ATOM     28  H2  97H d   1      -5.707 -36.819   6.289  0.00  0.00     0.156 HD
ATOM     29  H3  97H d   1      -5.251 -35.587   7.495  0.00  0.00     0.156 HD
ENDBRANCH  19  27
ENDBRANCH   1  17
TORSDOF 2
