REMARK  2 active torsions:
REMARK  status: ('A' for Active; 'I' for Inactive)
REMARK    1  A    between atoms: NAR_6  and  CAO_7 
REMARK    2  A    between atoms: CAL_12  and  CAD_13 
ROOT
ATOM      1  CAO 97Z d   1      -6.619 -38.292   7.899  0.00  0.00     0.030 A 
ATOM      2  CAP 97Z d   1      -6.085 -37.072   8.353  0.00  0.00    -0.056 A 
ATOM      3  CAQ 97Z d   1      -6.170 -36.699   9.699  0.00  0.00    -0.067 A 
ATOM      4  CAN 97Z d   1      -7.192 -39.143   8.840  0.00  0.00    -0.056 A 
ATOM      5  CAM 97Z d   1      -7.269 -38.779  10.169  0.00  0.00    -0.067 A 
ATOM      6  CAL 97Z d   1      -6.797 -37.546  10.637  0.00  0.00     0.010 A 
ATOM      7  H9  97Z d   1      -5.599 -36.409   7.647  0.00  0.00     0.086 H 
ATOM      8  H10 97Z d   1      -5.751 -35.753  10.023  0.00  0.00     0.085 H 
ATOM      9  H11 97Z d   1      -7.583 -40.104   8.525  0.00  0.00     0.086 H 
ATOM     10  H12 97Z d   1      -7.710 -39.472  10.876  0.00  0.00     0.085 H 
ENDROOT
BRANCH   6  11
ATOM     11  CAD 97Z d   1      -6.814 -37.243  12.004  0.00  0.00     0.141 A 
ATOM     12  NAE 97Z d   1      -5.988 -36.296  12.470  0.00  0.00    -0.230 NA
ATOM     13  CAF 97Z d   1      -5.917 -36.006  13.770  0.00  0.00     0.074 A 
ATOM     14  CAK 97Z d   1      -5.046 -34.995  14.177  0.00  0.00    -0.054 A 
ATOM     15  CAG 97Z d   1      -6.676 -36.703  14.734  0.00  0.00     0.061 A 
ATOM     16  CAJ 97Z d   1      -4.937 -34.653  15.522  0.00  0.00    -0.081 A 
ATOM     17  H13 97Z d   1      -4.449 -34.471  13.439  0.00  0.00     0.087 H 
ATOM     18  CAI 97Z d   1      -5.663 -35.361  16.476  0.00  0.00    -0.082 A 
ATOM     19  H14 97Z d   1      -4.289 -33.839  15.825  0.00  0.00     0.083 H 
ATOM     20  CAH 97Z d   1      -6.548 -36.385  16.062  0.00  0.00    -0.065 A 
ATOM     21  H15 97Z d   1      -5.551 -35.129  17.529  0.00  0.00     0.083 H 
ATOM     22  H16 97Z d   1      -7.130 -36.923  16.802  0.00  0.00     0.085 H 
ATOM     23  CAB 97Z d   1      -7.561 -37.702  14.260  0.00  0.00     0.259 A 
ATOM     24  OAA 97Z d   1      -8.340 -38.317  14.973  0.00  0.00    -0.267 OA
ATOM     25  NAC 97Z d   1      -7.603 -37.943  12.913  0.00  0.00    -0.307 N 
ATOM     26  H17 97Z d   1      -8.223 -38.648  12.569  0.00  0.00     0.170 HD
ENDBRANCH   6  11
BRANCH   1  27
ATOM     27  NAR 97Z d   1      -6.573 -38.677   6.615  0.00  0.00    -0.377 N 
ATOM     28  CAS 97Z d   1      -6.341 -40.109   6.274  0.00  0.00     0.015 C 
ATOM     29  CAT 97Z d   1      -5.679 -40.360   4.929  0.00  0.00     0.034 C 
ATOM     30  H1  97Z d   1      -5.699 -40.544   7.054  0.00  0.00     0.067 H 
ATOM     31  H2  97Z d   1      -7.315 -40.620   6.273  0.00  0.00     0.067 H 
ATOM     32  OAU 97Z d   1      -6.347 -39.531   3.988  0.00  0.00    -0.388 OA
ATOM     33  H3  97Z d   1      -5.784 -41.418   4.645  0.00  0.00     0.076 H 
ATOM     34  H4  97Z d   1      -4.612 -40.097   4.976  0.00  0.00     0.076 H 
ATOM     35  CAV 97Z d   1      -6.136 -38.117   4.252  0.00  0.00     0.034 C 
ATOM     36  CAW 97Z d   1      -6.926 -37.739   5.517  0.00  0.00     0.015 C 
ATOM     37  H5  97Z d   1      -6.493 -37.522   3.399  0.00  0.00     0.076 H 
ATOM     38  H6  97Z d   1      -5.065 -37.924   4.411  0.00  0.00     0.076 H 
ATOM     39  H7  97Z d   1      -8.004 -37.805   5.310  0.00  0.00     0.067 H 
ATOM     40  H8  97Z d   1      -6.672 -36.711   5.816  0.00  0.00     0.067 H 
ENDBRANCH   1  27
TORSDOF 2
