REMARK  15 active torsions:
REMARK  status: ('A' for Active; 'I' for Inactive)
REMARK    1  A    between atoms: C12_10  and  C41_3 
REMARK    2  A    between atoms: C8_31  and  C46_8 
REMARK    3  A    between atoms: C13_11  and  C16_14 
REMARK    4  A    between atoms: C16_14  and  C17_15 
REMARK    5  A    between atoms: C16_14  and  C38_44 
REMARK    6  A    between atoms: C17_15  and  C18_16 
REMARK    7  A    between atoms: C18_16  and  C19_17 
REMARK       I    between atoms: C19_17  and  N21_35 
REMARK    8  A    between atoms: C22_18  and  C23_19 
REMARK    9  A    between atoms: N21_35  and  C22_18 
REMARK   10  A    between atoms: C26_22  and  O29_36 
REMARK   11  A    between atoms: O29_36  and  C30_25 
REMARK   12  A    between atoms: C30_25  and  C31_37 
REMARK   13  A    between atoms: O4_27  and  S1_26 
REMARK   14  A    between atoms: O4_27  and  C5_28 
REMARK   15  A    between atoms: C31_37  and  N32_38 
ROOT
ATOM      1  C42 99N d   1      15.734   5.113  21.783  0.00  0.00    -0.045 C 
ATOM      2  C43 99N d   1      14.585   5.156  20.801  0.00  0.00    -0.099 C 
ATOM      3  C44 99N d   1      13.667   6.141  20.718  0.00  0.00    -0.072 C 
ATOM      4  C45 99N d   1      12.566   6.042  19.664  0.00  0.00    -0.018 C 
ATOM      5  C11 99N d   1      16.910   6.328  23.786  0.00  0.00    -0.043 C 
ATOM      6  C12 99N d   1      16.818   7.348  24.971  0.00  0.00    -0.036 C 
ATOM      7  C13 99N d   1      18.289   7.258  25.522  0.00  0.00    -0.044 C 
ATOM      8  C14 99N d   1      18.628   5.728  25.371  0.00  0.00    -0.060 C 
ATOM      9  C15 99N d   1      17.588   5.090  24.410  0.00  0.00    -0.060 C 
ATOM     10  C5  99N d   1      12.261   7.356  18.885  0.00  0.00     0.063 C 
ATOM     11  C6  99N d   1      12.235   8.589  19.833  0.00  0.00    -0.038 C 
ATOM     12  C7  99N d   1      13.489   8.636  20.746  0.00  0.00    -0.052 C 
ATOM     13  C8  99N d   1      13.688   7.367  21.648  0.00  0.00    -0.017 C 
ATOM     14  C9  99N d   1      15.077   7.501  22.394  0.00  0.00    -0.039 C 
ATOM     15  C10 99N d   1      15.587   6.127  22.961  0.00  0.00    -0.043 C 
ATOM     16  C39 99N d   1      16.449   8.714  24.295  0.00  0.00    -0.057 C 
ATOM     17  C40 99N d   1      15.135   8.660  23.461  0.00  0.00    -0.060 C 
ATOM     18  H4  99N d   1      16.663   5.342  21.241  0.00  0.00     0.039 H 
ATOM     19  H5  99N d   1      15.795   4.098  22.203  0.00  0.00     0.039 H 
ATOM     20  H6  99N d   1      14.491   4.324  20.104  0.00  0.00     0.077 H 
ATOM     21  H7  99N d   1      11.641   5.725  20.169  0.00  0.00     0.043 H 
ATOM     22  H8  99N d   1      12.865   5.277  18.933  0.00  0.00     0.043 H 
ATOM     23  H12 99N d   1      17.624   6.741  23.058  0.00  0.00     0.041 H 
ATOM     24  H13 99N d   1      18.912   7.811  24.803  0.00  0.00     0.041 H 
ATOM     25  H14 99N d   1      18.576   5.237  26.354  0.00  0.00     0.033 H 
ATOM     26  H15 99N d   1      19.640   5.611  24.955  0.00  0.00     0.033 H 
ATOM     27  H16 99N d   1      18.081   4.476  23.641  0.00  0.00     0.033 H 
ATOM     28  H17 99N d   1      16.862   4.474  24.961  0.00  0.00     0.033 H 
ATOM     29  H31 99N d   1      13.044   7.519  18.130  0.00  0.00     0.086 H 
ATOM     30  H32 99N d   1      11.336   8.535  20.464  0.00  0.00     0.036 H 
ATOM     31  H33 99N d   1      12.202   9.505  19.226  0.00  0.00     0.036 H 
ATOM     32  H34 99N d   1      13.402   9.514  21.403  0.00  0.00     0.034 H 
ATOM     33  H35 99N d   1      14.376   8.744  20.105  0.00  0.00     0.034 H 
ATOM     34  H36 99N d   1      15.799   7.788  21.615  0.00  0.00     0.042 H 
ATOM     35  H37 99N d   1      14.825   5.733  23.650  0.00  0.00     0.041 H 
ATOM     36  H53 99N d   1      17.273   9.006  23.628  0.00  0.00     0.034 H 
ATOM     37  H54 99N d   1      16.330   9.472  25.084  0.00  0.00     0.034 H 
ATOM     38  H55 99N d   1      14.293   8.527  24.157  0.00  0.00     0.033 H 
ATOM     39  H56 99N d   1      15.026   9.618  22.932  0.00  0.00     0.033 H 
ENDROOT
BRANCH   7  40
ATOM     40  C16 99N d   1      18.708   7.861  26.933  0.00  0.00    -0.053 C 
ATOM     41  H18 99N d   1      18.195   7.257  27.696  0.00  0.00     0.040 H 
BRANCH  40  42
ATOM     42  C17 99N d   1      20.254   7.733  27.177  0.00  0.00    -0.054 C 
ATOM     43  H19 99N d   1      20.510   6.663  27.204  0.00  0.00     0.034 H 
ATOM     44  H20 99N d   1      20.487   8.190  28.150  0.00  0.00     0.034 H 
BRANCH  42  45
ATOM     45  C18 99N d   1      21.141   8.418  26.093  0.00  0.00     0.010 C 
ATOM     46  H21 99N d   1      20.599   9.303  25.728  0.00  0.00     0.047 H 
ATOM     47  H22 99N d   1      21.273   7.703  25.268  0.00  0.00     0.047 H 
BRANCH  45  48
ATOM     48  C19 99N d   1      22.510   8.868  26.534  0.00  0.00     0.217 C 
ATOM     49  O20 99N d   1      23.284   9.273  25.681  0.00  0.00    -0.274 OA
ATOM     50  N21 99N d   1      22.825   8.803  27.851  0.00  0.00    -0.357 N 
ATOM     51  H38 99N d   1      22.146   8.467  28.504  0.00  0.00     0.162 HD
BRANCH  50  52
ATOM     52  C22 99N d   1      24.145   9.217  28.332  0.00  0.00     0.019 C 
ATOM     53  H23 99N d   1      24.604   9.905  27.606  0.00  0.00     0.071 H 
ATOM     54  H24 99N d   1      24.042   9.724  29.303  0.00  0.00     0.071 H 
BRANCH  52  55
ATOM     55  C23 99N d   1      25.029   7.972  28.492  0.00  0.00    -0.040 A 
ATOM     56  C24 99N d   1      25.412   7.228  27.362  0.00  0.00    -0.073 A 
ATOM     57  C25 99N d   1      26.213   6.088  27.503  0.00  0.00    -0.050 A 
ATOM     58  H25 99N d   1      25.085   7.539  26.376  0.00  0.00     0.084 H 
ATOM     59  C26 99N d   1      26.639   5.671  28.775  0.00  0.00     0.068 A 
ATOM     60  H26 99N d   1      26.506   5.524  26.625  0.00  0.00     0.087 H 
ATOM     61  C27 99N d   1      26.251   6.414  29.904  0.00  0.00    -0.050 A 
ATOM     62  C28 99N d   1      25.451   7.557  29.765  0.00  0.00    -0.073 A 
ATOM     63  H27 99N d   1      26.573   6.100  30.890  0.00  0.00     0.087 H 
ATOM     64  H28 99N d   1      25.158   8.122  30.643  0.00  0.00     0.084 H 
BRANCH  59  65
ATOM     65  O29 99N d   1      27.435   4.529  28.937  0.00  0.00    -0.350 OA
BRANCH  65  66
ATOM     66  C30 99N d   1      28.550   4.434  29.843  0.00  0.00     0.049 C 
ATOM     67  H29 99N d   1      28.266   4.814  30.836  0.00  0.00     0.077 H 
ATOM     68  H30 99N d   1      29.402   5.013  29.459  0.00  0.00     0.077 H 
BRANCH  66  69
ATOM     69  C31 99N d   1      28.920   2.931  29.930  0.00  0.00     0.103 C 
ATOM     70  H39 99N d   1      28.091   2.351  29.498  0.00  0.00     0.079 H 
ATOM     71  H40 99N d   1      29.035   2.670  30.992  0.00  0.00     0.079 H 
BRANCH  69  72
ATOM     72  N32 99N d   1      30.171   2.542  29.223  0.00  0.00    -0.065 N 
ATOM     73  C33 99N d   1      30.329   3.071  27.839  0.00  0.00     0.103 C 
ATOM     74  C34 99N d   1      31.717   2.679  27.271  0.00  0.00     0.042 C 
ATOM     75  H42 99N d   1      30.240   4.167  27.857  0.00  0.00     0.079 H 
ATOM     76  H43 99N d   1      29.541   2.650  27.197  0.00  0.00     0.079 H 
ATOM     77  O35 99N d   1      31.877   1.248  27.330  0.00  0.00    -0.388 OA
ATOM     78  H44 99N d   1      32.506   3.160  27.867  0.00  0.00     0.076 H 
ATOM     79  H45 99N d   1      31.792   3.013  26.226  0.00  0.00     0.076 H 
ATOM     80  C36 99N d   1      31.794   0.723  28.671  0.00  0.00     0.042 C 
ATOM     81  C37 99N d   1      30.424   1.077  29.305  0.00  0.00     0.103 C 
ATOM     82  H46 99N d   1      32.599   1.158  29.281  0.00  0.00     0.076 H 
ATOM     83  H47 99N d   1      31.907  -0.371  28.640  0.00  0.00     0.076 H 
ATOM     84  H48 99N d   1      29.628   0.542  28.767  0.00  0.00     0.079 H 
ATOM     85  H49 99N d   1      30.424   0.769  30.361  0.00  0.00     0.079 H 
ATOM     86  H41 99N d   1      30.913   2.975  29.751  0.00  0.00     0.280 HD
ENDBRANCH  69  72
ENDBRANCH  66  69
ENDBRANCH  65  66
ENDBRANCH  59  65
ENDBRANCH  52  55
ENDBRANCH  50  52
ENDBRANCH  45  48
ENDBRANCH  42  45
ENDBRANCH  40  42
BRANCH  40  87
ATOM     87  C38 99N d   1      18.290   9.350  27.168  0.00  0.00    -0.072 C 
ATOM     88  H50 99N d   1      17.208   9.458  27.001  0.00  0.00     0.028 H 
ATOM     89  H51 99N d   1      18.836   9.999  26.467  0.00  0.00     0.028 H 
ATOM     90  H52 99N d   1      18.532   9.640  28.201  0.00  0.00     0.028 H 
ENDBRANCH  40  87
ENDBRANCH   7  40
BRANCH   6  91
ATOM     91  C41 99N d   1      15.776   6.969  26.090  0.00  0.00    -0.068 C 
ATOM     92  H1  99N d   1      14.757   7.039  25.681  0.00  0.00     0.028 H 
ATOM     93  H2  99N d   1      15.880   7.662  26.938  0.00  0.00     0.028 H 
ATOM     94  H3  99N d   1      15.963   5.941  26.433  0.00  0.00     0.028 H 
ENDBRANCH   6  91
BRANCH  13  95
ATOM     95  C46 99N d   1      12.509   7.254  22.684  0.00  0.00    -0.065 C 
ATOM     96  H9  99N d   1      11.555   7.162  22.145  0.00  0.00     0.028 H 
ATOM     97  H10 99N d   1      12.488   8.155  23.315  0.00  0.00     0.028 H 
ATOM     98  H11 99N d   1      12.660   6.367  23.316  0.00  0.00     0.028 H 
ENDBRANCH  13  95
BRANCH  10  99
ATOM     99  O4  99N d   1      10.995   7.162  18.221  0.00  0.00    -0.251 OA
BRANCH  99 100
ATOM    100  S1  99N d   1      10.718   7.763  16.850  0.00  0.00     0.251 S 
ATOM    101  O2  99N d   1      10.829   9.215  16.916  0.00  0.00    -0.572 OA
ATOM    102  O3  99N d   1      11.543   7.113  15.852  0.00  0.00    -0.572 OA
ATOM    103  O47 99N d   1       9.278   7.437  16.557  0.00  0.00    -0.572 OA
ENDBRANCH  99 100
ENDBRANCH  10  99
TORSDOF 15
