REMARK  8 active torsions:
REMARK  status: ('A' for Active; 'I' for Inactive)
REMARK       I    between atoms: N4_19  and  C12_4 
REMARK    1  A    between atoms: C12_4  and  C8_23 
REMARK    2  A    between atoms: C5_20  and  C14_5 
REMARK    3  A    between atoms: N24_28  and  C15_6 
REMARK    4  A    between atoms: C19_10  and  C23_13 
REMARK    5  A    between atoms: C20_11  and  C21_12 
REMARK    6  A    between atoms: C23_13  and  N1_18 
REMARK    7  A    between atoms: C25_14  and  C31_31 
REMARK    8  A    between atoms: C32_32  and  C28_16 
REMARK       I    between atoms: N24_28  and  C32_32 
ROOT
ATOM      1  C2  98E d   1      19.411  12.831  23.694  0.00  0.00     0.099 C 
ATOM      2  C3  98E d   1      20.787  12.188  23.399  0.00  0.00     0.021 C 
ATOM      3  C12 98E d   1      22.612  13.180  22.046  0.00  0.00     0.224 C 
ATOM      4  N1  98E d   1      18.534  12.764  22.499  0.00  0.00    -0.064 N 
ATOM      5  N4  98E d   1      21.330  12.716  22.137  0.00  0.00    -0.344 N 
ATOM      6  C5  98E d   1      20.470  12.699  20.933  0.00  0.00     0.034 C 
ATOM      7  C6  98E d   1      19.150  13.422  21.311  0.00  0.00     0.102 C 
ATOM      8  O13 98E d   1      23.073  13.602  20.991  0.00  0.00    -0.273 OA
ATOM      9  H1  98E d   1      19.558  13.884  23.976  0.00  0.00     0.078 H 
ATOM     10  H2  98E d   1      18.931  12.292  24.525  0.00  0.00     0.078 H 
ATOM     11  H3  98E d   1      20.669  11.097  23.317  0.00  0.00     0.067 H 
ATOM     12  H4  98E d   1      21.481  12.421  24.220  0.00  0.00     0.067 H 
ATOM     13  H19 98E d   1      18.439  11.790  22.259  0.00  0.00     0.280 HD
ATOM     14  H20 98E d   1      20.983  13.323  20.186  0.00  0.00     0.074 H 
ATOM     15  H21 98E d   1      19.365  14.475  21.547  0.00  0.00     0.079 H 
ATOM     16  H22 98E d   1      18.451  13.372  20.463  0.00  0.00     0.079 H 
ENDROOT
BRANCH   4  17
ATOM     17  C23 98E d   1      17.177  13.246  22.837  0.00  0.00     0.108 C 
ATOM     18  H15 98E d   1      16.790  12.641  23.670  0.00  0.00     0.083 H 
ATOM     19  H16 98E d   1      17.250  14.298  23.151  0.00  0.00     0.083 H 
BRANCH  17  20
ATOM     20  C19 98E d   1      16.185  13.155  21.669  0.00  0.00    -0.023 A 
ATOM     21  C18 98E d   1      15.549  14.347  21.315  0.00  0.00    -0.054 A 
ATOM     22  C17 98E d   1      14.622  14.353  20.277  0.00  0.00     0.036 A 
ATOM     23  H11 98E d   1      15.777  15.264  21.847  0.00  0.00     0.087 H 
ATOM     24  C16 98E d   1      14.308  13.182  19.570  0.00  0.00    -0.036 A 
ATOM     25 CL   98E d   1      13.862  15.869  19.897  0.00  0.00    -0.084 Cl
ATOM     26  C15 98E d   1      14.943  11.985  19.928  0.00  0.00     0.043 A 
ATOM     27  H10 98E d   1      13.587  13.203  18.761  0.00  0.00     0.089 H 
ATOM     28  C20 98E d   1      15.888  11.964  20.975  0.00  0.00    -0.027 A 
BRANCH  26  29
ATOM     29  N24 98E d   1      14.713  10.758  19.254  0.00  0.00    -0.322 N 
ATOM     30  C32 98E d   1      14.742  10.604  17.911  0.00  0.00     0.259 C 
ATOM     31  O33 98E d   1      14.932  11.538  17.145  0.00  0.00    -0.267 OA
ATOM     32  H30 98E d   1      14.516   9.951  19.811  0.00  0.00     0.169 HD
BRANCH  30  33
ATOM     33  C28 98E d   1      14.581   9.237  17.286  0.00  0.00     0.067 A 
ATOM     34  C27 98E d   1      14.987   8.119  18.031  0.00  0.00     0.021 A 
ATOM     35  N26 98E d   1      14.899   6.876  17.515  0.00  0.00    -0.245 NA
ATOM     36  H17 98E d   1      15.376   8.256  19.033  0.00  0.00     0.116 H 
ATOM     37  C25 98E d   1      14.425   6.693  16.264  0.00  0.00     0.121 A 
ATOM     38  N30 98E d   1      14.040   7.748  15.511  0.00  0.00    -0.245 NA
ATOM     39  C29 98E d   1      14.110   9.014  15.984  0.00  0.00     0.021 A 
ATOM     40  H18 98E d   1      13.805   9.848  15.362  0.00  0.00     0.116 H 
BRANCH  37  41
ATOM     41  C31 98E d   1      14.336   5.282  15.695  0.00  0.00    -0.020 C 
ATOM     42  H31 98E d   1      14.690   4.561  16.446  0.00  0.00     0.037 H 
ATOM     43  H32 98E d   1      14.963   5.210  14.794  0.00  0.00     0.037 H 
ATOM     44  H33 98E d   1      13.291   5.057  15.434  0.00  0.00     0.037 H 
ENDBRANCH  37  41
ENDBRANCH  30  33
ENDBRANCH  26  29
BRANCH  28  45
ATOM     45  C21 98E d   1      16.567  10.617  21.328  0.00  0.00    -0.049 C 
ATOM     46  H12 98E d   1      16.186   9.829  20.662  0.00  0.00     0.033 H 
ATOM     47  H13 98E d   1      16.341  10.355  22.372  0.00  0.00     0.033 H 
ATOM     48  H14 98E d   1      17.655  10.710  21.200  0.00  0.00     0.033 H 
ENDBRANCH  28  45
ENDBRANCH  17  20
ENDBRANCH   4  17
BRANCH   6  49
ATOM     49  C14 98E d   1      20.211  11.343  20.216  0.00  0.00    -0.056 C 
ATOM     50  H7  98E d   1      19.557  11.507  19.347  0.00  0.00     0.030 H 
ATOM     51  H8  98E d   1      19.725  10.646  20.914  0.00  0.00     0.030 H 
ATOM     52  H9  98E d   1      21.168  10.917  19.880  0.00  0.00     0.030 H 
ENDBRANCH   6  49
BRANCH   3  53
ATOM     53  C8  98E d   1      23.559  13.216  23.238  0.00  0.00     0.024 C 
ATOM     54  C7  98E d   1      24.958  12.604  22.928  0.00  0.00    -0.054 C 
ATOM     55  C11 98E d   1      25.938  13.458  23.750  0.00  0.00    -0.064 C 
ATOM     56  H23 98E d   1      25.001  11.551  23.242  0.00  0.00     0.034 H 
ATOM     57  H24 98E d   1      25.185  12.676  21.854  0.00  0.00     0.034 H 
ATOM     58  C10 98E d   1      25.353  14.873  23.571  0.00  0.00    -0.064 C 
ATOM     59  H5  98E d   1      26.960  13.394  23.348  0.00  0.00     0.033 H 
ATOM     60  H6  98E d   1      25.941  13.157  24.808  0.00  0.00     0.033 H 
ATOM     61  C9  98E d   1      23.835  14.652  23.783  0.00  0.00    -0.054 C 
ATOM     62  H28 98E d   1      25.559  15.261  22.563  0.00  0.00     0.033 H 
ATOM     63  H29 98E d   1      25.760  15.567  24.321  0.00  0.00     0.033 H 
ATOM     64  H26 98E d   1      23.580  14.716  24.851  0.00  0.00     0.034 H 
ATOM     65  H27 98E d   1      23.253  15.398  23.221  0.00  0.00     0.034 H 
ATOM     66  H25 98E d   1      23.089  12.626  24.039  0.00  0.00     0.054 H 
ENDBRANCH   3  53
TORSDOF 8
