REMARK  9 active torsions:
REMARK  status: ('A' for Active; 'I' for Inactive)
REMARK    1  A    between atoms: S12_2  and  C01_4 
REMARK    2  A    between atoms: S12_2  and  N15_10 
REMARK    3  A    between atoms: N15_10  and  C16_11 
REMARK    4  A    between atoms: N15_10  and  C23_16 
REMARK    5  A    between atoms: C16_11  and  C19_12 
REMARK    6  A    between atoms: C26_21  and  C33_22 
REMARK    7  A    between atoms: C33_22  and  C34_23 
REMARK    8  A    between atoms: C33_22  and  O42_27 
REMARK    9  A    between atoms: C33_22  and  C38_28 
ROOT
ATOM      1  N15 444 d   1      11.741 -31.395  -9.306  0.00  0.00    -0.164 NA
ENDROOT
BRANCH   1   2
ATOM      2  S12 444 d   1      10.386 -30.412  -9.421  0.00  0.00     0.248 S 
ATOM      3  O13 444 d   1      10.782 -29.010  -9.490  0.00  0.00    -0.205 OA
ATOM      4  O14 444 d   1       9.476 -30.870 -10.462  0.00  0.00    -0.205 OA
BRANCH   2   5
ATOM      5  C01 444 d   1       9.600 -30.691  -7.847  0.00  0.00     0.075 A 
ATOM      6  C02 444 d   1       9.783 -29.770  -6.804  0.00  0.00    -0.061 A 
ATOM      7  C03 444 d   1       9.171 -29.993  -5.567  0.00  0.00    -0.082 A 
ATOM      8  H1  444 d   1      10.396 -28.889  -6.957  0.00  0.00     0.085 H 
ATOM      9  C04 444 d   1       8.374 -31.125  -5.364  0.00  0.00    -0.083 A 
ATOM     10  H2  444 d   1       9.315 -29.284  -4.760  0.00  0.00     0.083 H 
ATOM     11  C05 444 d   1       8.185 -32.045  -6.402  0.00  0.00    -0.082 A 
ATOM     12  H3  444 d   1       7.902 -31.290  -4.402  0.00  0.00     0.083 H 
ATOM     13  C06 444 d   1       8.793 -31.824  -7.644  0.00  0.00    -0.061 A 
ATOM     14  H4  444 d   1       7.571 -32.924  -6.245  0.00  0.00     0.083 H 
ATOM     15  H5  444 d   1       8.641 -32.530  -8.453  0.00  0.00     0.085 H 
ENDBRANCH   2   5
ENDBRANCH   1   2
BRANCH   1  16
ATOM     16  C16 444 d   1      12.731 -30.832  -8.368  0.00  0.00     0.089 C 
ATOM     17  H6  444 d   1      12.812 -31.494  -7.494  0.00  0.00     0.071 H 
ATOM     18  H7  444 d   1      12.391 -29.837  -8.044  0.00  0.00     0.071 H 
BRANCH  16  19
ATOM     19  C19 444 d   1      14.116 -30.698  -9.023  0.00  0.00     0.400 C 
ATOM     20  F22 444 d   1      14.512 -31.893  -9.537  0.00  0.00    -0.170 F 
ATOM     21  F21 444 d   1      14.066 -29.774 -10.014  0.00  0.00    -0.170 F 
ATOM     22  F20 444 d   1      14.997 -30.286  -8.075  0.00  0.00    -0.170 F 
ENDBRANCH  16  19
ENDBRANCH   1  16
BRANCH   1  23
ATOM     23  C23 444 d   1      11.423 -32.784  -9.253  0.00  0.00     0.025 A 
ATOM     24  C24 444 d   1      11.660 -33.565  -8.105  0.00  0.00    -0.061 A 
ATOM     25  C25 444 d   1      11.312 -34.927  -8.079  0.00  0.00    -0.072 A 
ATOM     26  H8  444 d   1      12.116 -33.111  -7.232  0.00  0.00     0.086 H 
ATOM     27  C26 444 d   1      10.730 -35.540  -9.201  0.00  0.00    -0.006 A 
ATOM     28  H9  444 d   1      11.495 -35.510  -7.184  0.00  0.00     0.084 H 
ATOM     29  C27 444 d   1      10.485 -34.750 -10.337  0.00  0.00    -0.072 A 
ATOM     30  C28 444 d   1      10.835 -33.397 -10.366  0.00  0.00    -0.061 A 
ATOM     31  H11 444 d   1      10.016 -35.198 -11.206  0.00  0.00     0.084 H 
ATOM     32  H10 444 d   1      10.649 -32.815 -11.261  0.00  0.00     0.086 H 
BRANCH  27  33
ATOM     33  C33 444 d   1      10.323 -37.026  -9.159  0.00  0.00     0.281 C 
BRANCH  33  34
ATOM     34  C34 444 d   1      10.818 -37.896 -10.341  0.00  0.00     0.431 C 
ATOM     35  F36 444 d   1      12.149 -38.123 -10.219  0.00  0.00    -0.167 F 
ATOM     36  F37 444 d   1      10.173 -39.091 -10.298  0.00  0.00    -0.167 F 
ATOM     37  F35 444 d   1      10.580 -37.309 -11.540  0.00  0.00    -0.167 F 
ENDBRANCH  33  34
BRANCH  33  38
ATOM     38  O42 444 d   1      10.817 -37.654  -7.973  0.00  0.00    -0.370 OA
ATOM     39  H12 444 d   1      10.473 -38.538  -7.917  0.00  0.00     0.211 HD
ENDBRANCH  33  38
BRANCH  33  40
ATOM     40  C38 444 d   1       8.771 -37.048  -9.108  0.00  0.00     0.431 C 
ATOM     41  F39 444 d   1       8.337 -36.202  -8.140  0.00  0.00    -0.167 F 
ATOM     42  F40 444 d   1       8.240 -36.659 -10.304  0.00  0.00    -0.167 F 
ATOM     43  F41 444 d   1       8.320 -38.289  -8.801  0.00  0.00    -0.167 F 
ENDBRANCH  33  40
ENDBRANCH  27  33
ENDBRANCH   1  23
TORSDOF 9
