REMARK  14 active torsions:
REMARK  status: ('A' for Active; 'I' for Inactive)
REMARK    1  A    between atoms: N5_5  and  C11_11 
REMARK    2  A    between atoms: C7_7  and  C8_8 
REMARK       I    between atoms: C8_8  and  N9_9 
REMARK    3  A    between atoms: N9_9  and  C40_40 
REMARK    4  A    between atoms: C16_16  and  N18_18 
REMARK    5  A    between atoms: N18_18  and  C19_19 
REMARK    6  A    between atoms: C20_20  and  O25_25 
REMARK    7  A    between atoms: C22_22  and  C26_26 
REMARK    8  A    between atoms: O25_25  and  C36_36 
REMARK       I    between atoms: C26_26  and  N27_27 
REMARK    9  A    between atoms: N27_27  and  C29_29 
REMARK   10  A    between atoms: N32_32  and  C35_35 
REMARK   11  A    between atoms: C41_41  and  C48_48 
REMARK   12  A    between atoms: C45_45  and  C46_46 
REMARK   13  A    between atoms: C46_46  and  C47_47 
REMARK   14  A    between atoms: C48_48  and  C49_49 
ROOT
ATOM      1  C1  SVE d   1       1.717 -14.348 -20.275  0.00  0.00    -0.067 C 
ATOM      2  C2  SVE d   1       1.344 -13.085 -21.030  0.00  0.00    -0.068 C 
ATOM      3  C3  SVE d   1       1.817 -14.146 -18.794  0.00  0.00     0.031 A 
ATOM      4  C4  SVE d   1       1.271 -13.050 -18.170  0.00  0.00     0.095 A 
ATOM      5  N5  SVE d   1       1.527 -13.186 -16.826  0.00  0.00    -0.270 N 
ATOM      6  N6  SVE d   1       2.207 -14.343 -16.581  0.00  0.00    -0.166 NA
ATOM      7  C7  SVE d   1       2.374 -14.924 -17.780  0.00  0.00     0.157 A 
ATOM      8  C12 SVE d   1       0.640 -12.005 -18.851  0.00  0.00     0.117 A 
ATOM      9  C13 SVE d   1       0.671 -11.986 -20.257  0.00  0.00     0.014 A 
ATOM     10  C14 SVE d   1       0.065 -10.915 -20.910  0.00  0.00     0.033 A 
ATOM     11  N15 SVE d   1      -0.517  -9.928 -20.233  0.00  0.00    -0.074 NA
ATOM     12  C16 SVE d   1      -0.490  -9.997 -18.889  0.00  0.00     0.727 A 
ATOM     13  N17 SVE d   1       0.078 -10.989 -18.185  0.00  0.00    -0.060 NA
ATOM     14  H1  SVE d   1       1.893 -15.302 -20.759  0.00  0.00     0.085 H 
ATOM     15  H2  SVE d   1       1.555 -12.980 -22.088  0.00  0.00     0.085 H 
ATOM     16  H7  SVE d   1       0.068 -10.885 -21.994  0.00  0.00     0.117 H 
ENDROOT
BRANCH  12  17
ATOM     17  N18 SVE d   1      -1.073  -9.021 -18.152  0.00  0.00    -0.185 N 
ATOM     18  H8  SVE d   1      -1.190  -8.116 -18.630  0.00  0.00     0.184 HD
BRANCH  17  19
ATOM     19  C19 SVE d   1      -1.544  -9.069 -16.819  0.00  0.00     0.083 A 
ATOM     20  C20 SVE d   1      -1.580  -7.892 -16.055  0.00  0.00     0.106 A 
ATOM     21  C21 SVE d   1      -2.050  -7.959 -14.757  0.00  0.00    -0.033 A 
ATOM     22  C22 SVE d   1      -2.469  -9.168 -14.203  0.00  0.00     0.034 A 
ATOM     23  H9  SVE d   1      -2.094  -7.056 -14.159  0.00  0.00     0.089 H 
ATOM     24  C23 SVE d   1      -2.423 -10.325 -14.971  0.00  0.00    -0.065 A 
ATOM     25  C24 SVE d   1      -1.969 -10.283 -16.268  0.00  0.00    -0.053 A 
ATOM     26  H10 SVE d   1      -2.747 -11.267 -14.544  0.00  0.00     0.085 H 
ATOM     27  H11 SVE d   1      -1.940 -11.189 -16.863  0.00  0.00     0.087 H 
BRANCH  20  28
ATOM     28  O25 SVE d   1      -1.140  -6.748 -16.716  0.00  0.00    -0.253 OA
BRANCH  28  29
ATOM     29  C36 SVE d   1      -0.932  -5.606 -16.046  0.00  0.00     0.530 C 
ATOM     30  F37 SVE d   1      -0.194  -5.761 -14.960  0.00  0.00    -0.144 F 
ATOM     31  F38 SVE d   1      -2.053  -5.012 -15.679  0.00  0.00    -0.144 F 
ATOM     32  F39 SVE d   1      -0.298  -4.749 -16.820  0.00  0.00    -0.144 F 
ENDBRANCH  28  29
ENDBRANCH  20  28
BRANCH  22  33
ATOM     33  C26 SVE d   1      -2.980  -9.287 -12.800  0.00  0.00     0.252 C 
ATOM     34  N27 SVE d   1      -2.919  -8.162 -12.006  0.00  0.00    -0.352 N 
ATOM     35  H12 SVE d   1      -2.374  -7.383 -12.317  0.00  0.00     0.163 HD
ATOM     36  O28 SVE d   1      -3.437 -10.360 -12.406  0.00  0.00    -0.268 OA
BRANCH  34  37
ATOM     37  C29 SVE d   1      -3.623  -8.063 -10.722  0.00  0.00     0.015 C 
ATOM     38  C30 SVE d   1      -2.672  -7.663  -9.603  0.00  0.00    -0.023 C 
ATOM     39  C31 SVE d   1      -3.428  -7.544  -8.288  0.00  0.00     0.085 C 
ATOM     40  H14 SVE d   1      -2.212  -6.694  -9.846  0.00  0.00     0.038 H 
ATOM     41  H15 SVE d   1      -1.887  -8.427  -9.503  0.00  0.00     0.038 H 
ATOM     42  N32 SVE d   1      -4.533  -6.577  -8.392  0.00  0.00    -0.075 N 
ATOM     43  H16 SVE d   1      -2.733  -7.210  -7.504  0.00  0.00     0.076 H 
ATOM     44  H17 SVE d   1      -3.838  -8.529  -8.020  0.00  0.00     0.076 H 
ATOM     45  C33 SVE d   1      -5.476  -6.957  -9.455  0.00  0.00     0.085 C 
ATOM     46  H18 SVE d   1      -4.136  -5.684  -8.639  0.00  0.00     0.279 HD
ATOM     47  C34 SVE d   1      -4.774  -7.067 -10.800  0.00  0.00    -0.023 C 
ATOM     48  H19 SVE d   1      -6.266  -6.194  -9.524  0.00  0.00     0.076 H 
ATOM     49  H20 SVE d   1      -5.926  -7.929  -9.205  0.00  0.00     0.076 H 
ATOM     50  H21 SVE d   1      -5.495  -7.406 -11.558  0.00  0.00     0.038 H 
ATOM     51  H22 SVE d   1      -4.380  -6.080 -11.084  0.00  0.00     0.038 H 
ATOM     52  H13 SVE d   1      -4.039  -9.053 -10.485  0.00  0.00     0.072 H 
BRANCH  42  53
ATOM     53  C35 SVE d   1      -5.228  -6.418  -7.091  0.00  0.00     0.066 C 
ATOM     54  H23 SVE d   1      -4.499  -6.134  -6.318  0.00  0.00     0.068 H 
ATOM     55  H24 SVE d   1      -5.707  -7.368  -6.812  0.00  0.00     0.068 H 
ATOM     56  H25 SVE d   1      -5.994  -5.633  -7.178  0.00  0.00     0.068 H 
ENDBRANCH  42  53
ENDBRANCH  34  37
ENDBRANCH  22  33
ENDBRANCH  17  19
ENDBRANCH  12  17
BRANCH   5  57
ATOM     57  C11 SVE d   1       1.193 -12.318 -15.698  0.00  0.00     0.003 C 
ATOM     58  H4  SVE d   1       1.569 -12.767 -14.766  0.00  0.00     0.059 H 
ATOM     59  H5  SVE d   1       0.101 -12.202 -15.635  0.00  0.00     0.059 H 
ATOM     60  H6  SVE d   1       1.658 -11.332 -15.844  0.00  0.00     0.059 H 
ENDBRANCH   5  57
BRANCH   7  61
ATOM     61  C8  SVE d   1       3.098 -16.208 -17.897  0.00  0.00     0.277 C 
ATOM     62  N9  SVE d   1       3.541 -16.729 -16.730  0.00  0.00    -0.321 N 
ATOM     63  H3  SVE d   1       3.394 -16.175 -15.911  0.00  0.00     0.169 HD
ATOM     64  O10 SVE d   1       3.289 -16.721 -18.996  0.00  0.00    -0.266 OA
BRANCH  62  65
ATOM     65  C40 SVE d   1       4.195 -17.982 -16.541  0.00  0.00     0.047 A 
ATOM     66  C41 SVE d   1       5.576 -17.994 -16.297  0.00  0.00    -0.031 A 
ATOM     67  C42 SVE d   1       6.192 -19.236 -16.119  0.00  0.00    -0.075 A 
ATOM     68  C43 SVE d   1       5.472 -20.410 -16.168  0.00  0.00    -0.082 A 
ATOM     69  H26 SVE d   1       7.260 -19.277 -15.938  0.00  0.00     0.084 H 
ATOM     70  C44 SVE d   1       4.116 -20.372 -16.407  0.00  0.00    -0.075 A 
ATOM     71  H27 SVE d   1       5.971 -21.360 -16.019  0.00  0.00     0.083 H 
ATOM     72  C45 SVE d   1       3.439 -19.164 -16.595  0.00  0.00    -0.031 A 
ATOM     73  H28 SVE d   1       3.560 -21.302 -16.450  0.00  0.00     0.084 H 
BRANCH  66  74
ATOM     74  C48 SVE d   1       6.408 -16.729 -16.248  0.00  0.00    -0.042 C 
ATOM     75  H34 SVE d   1       6.041 -16.052 -17.033  0.00  0.00     0.039 H 
ATOM     76  H35 SVE d   1       7.452 -17.002 -16.458  0.00  0.00     0.039 H 
BRANCH  74  77
ATOM     77  C49 SVE d   1       6.379 -15.980 -14.938  0.00  0.00    -0.073 C 
ATOM     78  H36 SVE d   1       7.013 -15.084 -15.014  0.00  0.00     0.028 H 
ATOM     79  H37 SVE d   1       6.757 -16.630 -14.135  0.00  0.00     0.028 H 
ATOM     80  H38 SVE d   1       5.346 -15.680 -14.710  0.00  0.00     0.028 H 
ENDBRANCH  74  77
ENDBRANCH  66  74
BRANCH  72  81
ATOM     81  C46 SVE d   1       1.946 -19.186 -16.851  0.00  0.00    -0.042 C 
ATOM     82  H29 SVE d   1       1.708 -20.118 -17.384  0.00  0.00     0.039 H 
ATOM     83  H30 SVE d   1       1.700 -18.325 -17.490  0.00  0.00     0.039 H 
BRANCH  81  84
ATOM     84  C47 SVE d   1       1.069 -19.117 -15.620  0.00  0.00    -0.073 C 
ATOM     85  H31 SVE d   1       0.011 -19.140 -15.922  0.00  0.00     0.028 H 
ATOM     86  H32 SVE d   1       1.275 -18.184 -15.075  0.00  0.00     0.028 H 
ATOM     87  H33 SVE d   1       1.283 -19.977 -14.969  0.00  0.00     0.028 H 
ENDBRANCH  81  84
ENDBRANCH  72  81
ENDBRANCH  62  65
ENDBRANCH   7  61
TORSDOF 14
