REMARK  12 active torsions:
REMARK  status: ('A' for Active; 'I' for Inactive)
REMARK    1  A    between atoms: C11_3  and  C12_4 
REMARK    2  A    between atoms: C11_3  and  C13_5 
REMARK    3  A    between atoms: C10_24  and  C11_3 
REMARK    4  A    between atoms: C16_6  and  C17_7 
REMARK    5  A    between atoms: N15_26  and  C16_6 
REMARK    6  A    between atoms: C20_9  and  S23_28 
REMARK    7  A    between atoms: C24_12  and  C25_13 
REMARK    8  A    between atoms: S23_28  and  C24_12 
REMARK    9  A    between atoms: C28_14  and  C29_15 
REMARK   10  A    between atoms: N9_23  and  C28_14 
REMARK   11  A    between atoms: C5_19  and  C7_21 
REMARK       I    between atoms: C7_21  and  N15_26 
REMARK   12  A    between atoms: C32_32  and  C35_35 
ROOT
ATOM      1  C1  98N d   1      -0.473  12.114  69.967  0.00  0.00    -0.005 A 
ATOM      2  C2  98N d   1      -0.083  11.605  68.738  0.00  0.00     0.073 A 
ATOM      3  N3  98N d   1       0.280  10.321  68.574  0.00  0.00    -0.262 NA
ATOM      4  C4  98N d   1       0.255   9.506  69.643  0.00  0.00     0.018 A 
ATOM      5  C5  98N d   1      -0.143   9.971  70.910  0.00  0.00     0.050 A 
ATOM      6  C6  98N d   1      -0.512  11.305  71.095  0.00  0.00    -0.057 A 
ATOM      7  C8  98N d   1      -0.810  13.573  69.842  0.00  0.00     0.110 C 
ATOM      8  N9  98N d   1      -0.290  13.889  68.482  0.00  0.00    -0.057 N 
ATOM      9  C10 98N d   1      -0.098  12.663  67.658  0.00  0.00     0.149 C 
ATOM     10  H23 98N d   1       0.548   8.469  69.526  0.00  0.00     0.116 H 
ATOM     11  H24 98N d   1      -0.812  11.687  72.064  0.00  0.00     0.086 H 
ATOM     12  H25 98N d   1      -0.302  14.169  70.614  0.00  0.00     0.083 H 
ATOM     13  H26 98N d   1      -1.895  13.741  69.905  0.00  0.00     0.083 H 
ATOM     14  H27 98N d   1       0.598  14.356  68.578  0.00  0.00     0.281 HD
ATOM     15  H28 98N d   1      -0.902  12.518  66.922  0.00  0.00     0.095 H 
ENDROOT
BRANCH   5  16
ATOM     16  C7  98N d   1      -0.144   9.025  72.073  0.00  0.00     0.253 C 
ATOM     17  O14 98N d   1      -0.055   9.493  73.200  0.00  0.00    -0.268 OA
ATOM     18  N15 98N d   1      -0.200   7.700  71.820  0.00  0.00    -0.351 N 
ATOM     19  H29 98N d   1      -0.270   7.371  70.878  0.00  0.00     0.163 HD
BRANCH  18  20
ATOM     20  C16 98N d   1      -0.158   6.755  72.923  0.00  0.00     0.035 C 
ATOM     21  H8  98N d   1      -0.766   7.130  73.759  0.00  0.00     0.073 H 
ATOM     22  H9  98N d   1      -0.548   5.780  72.594  0.00  0.00     0.073 H 
BRANCH  20  23
ATOM     23  C17 98N d   1       1.308   6.608  73.368  0.00  0.00     0.051 A 
ATOM     24  C22 98N d   1       2.374   6.914  72.502  0.00  0.00    -0.056 A 
ATOM     25  C21 98N d   1       3.694   6.771  72.939  0.00  0.00    -0.059 A 
ATOM     26  H12 98N d   1       2.171   7.261  71.495  0.00  0.00     0.086 H 
ATOM     27  C20 98N d   1       3.921   6.329  74.250  0.00  0.00     0.076 A 
ATOM     28  H11 98N d   1       4.524   6.997  72.279  0.00  0.00     0.086 H 
ATOM     29  C19 98N d   1       2.831   6.033  75.070  0.00  0.00     0.023 A 
ATOM     30  N18 98N d   1       1.564   6.184  74.629  0.00  0.00    -0.262 NA
ATOM     31  H10 98N d   1       3.005   5.676  76.079  0.00  0.00     0.117 H 
BRANCH  27  32
ATOM     32  S23 98N d   1       5.567   6.113  74.887  0.00  0.00     0.176 S 
ATOM     33  O26 98N d   1       5.490   5.110  75.936  0.00  0.00    -0.223 OA
ATOM     34  O27 98N d   1       6.474   5.850  73.787  0.00  0.00    -0.223 OA
BRANCH  32  35
ATOM     35  C24 98N d   1       5.925   7.714  75.657  0.00  0.00     0.030 C 
ATOM     36  H13 98N d   1       5.146   7.928  76.404  0.00  0.00     0.056 H 
ATOM     37  H14 98N d   1       6.904   7.655  76.154  0.00  0.00     0.056 H 
BRANCH  35  38
ATOM     38  C25 98N d   1       5.959   8.872  74.630  0.00  0.00    -0.064 C 
ATOM     39  H15 98N d   1       6.179   9.816  75.149  0.00  0.00     0.028 H 
ATOM     40  H16 98N d   1       4.982   8.948  74.130  0.00  0.00     0.028 H 
ATOM     41  H17 98N d   1       6.740   8.675  73.881  0.00  0.00     0.028 H 
ENDBRANCH  35  38
ENDBRANCH  32  35
ENDBRANCH  27  32
ENDBRANCH  20  23
ENDBRANCH  18  20
ENDBRANCH   5  16
BRANCH   9  42
ATOM     42  C11 98N d   1       1.303  12.679  66.965  0.00  0.00    -0.028 C 
ATOM     43  H1  98N d   1       1.630  11.632  66.879  0.00  0.00     0.042 H 
BRANCH  42  44
ATOM     44  C12 98N d   1       1.263  13.271  65.531  0.00  0.00    -0.071 C 
ATOM     45  H2  98N d   1       2.275  13.255  65.099  0.00  0.00     0.028 H 
ATOM     46  H3  98N d   1       0.899  14.308  65.573  0.00  0.00     0.028 H 
ATOM     47  H4  98N d   1       0.587  12.670  64.905  0.00  0.00     0.028 H 
ENDBRANCH  42  44
BRANCH  42  48
ATOM     48  C13 98N d   1       2.365  13.434  67.820  0.00  0.00    -0.071 C 
ATOM     49  H5  98N d   1       2.388  13.009  68.835  0.00  0.00     0.028 H 
ATOM     50  H6  98N d   1       2.101  14.500  67.875  0.00  0.00     0.028 H 
ATOM     51  H7  98N d   1       3.356  13.325  67.354  0.00  0.00     0.028 H 
ENDBRANCH  42  48
ENDBRANCH   9  42
BRANCH   8  52
ATOM     52  C28 98N d   1      -1.240  14.786  67.791  0.00  0.00     0.088 C 
ATOM     53  H18 98N d   1      -0.990  14.826  66.721  0.00  0.00     0.076 H 
ATOM     54  H19 98N d   1      -2.262  14.399  67.915  0.00  0.00     0.076 H 
BRANCH  52  55
ATOM     55  C29 98N d   1      -1.155  16.210  68.391  0.00  0.00    -0.031 C 
ATOM     56  C30 98N d   1       0.218  16.875  68.040  0.00  0.00    -0.059 C 
ATOM     57  C31 98N d   1       0.220  18.396  68.352  0.00  0.00    -0.053 C 
ATOM     58  H21 98N d   1       0.419  16.731  66.968  0.00  0.00     0.033 H 
ATOM     59  H22 98N d   1       1.010  16.390  68.630  0.00  0.00     0.033 H 
ATOM     60  C32 98N d   1      -0.975  19.030  67.587  0.00  0.00     0.040 C 
ATOM     61  H30 98N d   1       1.164  18.848  68.014  0.00  0.00     0.034 H 
ATOM     62  H31 98N d   1       0.102  18.558  69.434  0.00  0.00     0.034 H 
ATOM     63  C33 98N d   1      -2.306  18.499  68.174  0.00  0.00    -0.053 C 
ATOM     64  H32 98N d   1      -0.905  18.724  66.533  0.00  0.00     0.053 H 
ATOM     65  C34 98N d   1      -2.397  16.988  67.878  0.00  0.00    -0.059 C 
ATOM     66  H33 98N d   1      -3.154  19.021  67.706  0.00  0.00     0.034 H 
ATOM     67  H34 98N d   1      -2.326  18.667  69.261  0.00  0.00     0.034 H 
ATOM     68  H35 98N d   1      -3.295  16.585  68.370  0.00  0.00     0.033 H 
ATOM     69  H36 98N d   1      -2.479  16.845  66.790  0.00  0.00     0.033 H 
ATOM     70  H20 98N d   1      -1.220  16.142  69.487  0.00  0.00     0.042 H 
BRANCH  60  71
ATOM     71  C35 98N d   1      -0.981  20.569  67.640  0.00  0.00     0.391 C 
ATOM     72  F36 98N d   1       0.269  21.067  67.499  0.00  0.00    -0.171 F 
ATOM     73  F37 98N d   1      -1.738  21.037  66.614  0.00  0.00    -0.171 F 
ATOM     74  F38 98N d   1      -1.491  20.964  68.837  0.00  0.00    -0.171 F 
ENDBRANCH  60  71
ENDBRANCH  52  55
ENDBRANCH   8  52
TORSDOF 12
