REMARK  9 active torsions:
REMARK  status: ('A' for Active; 'I' for Inactive)
REMARK    1  A    between atoms: C2_2  and  C1_1 
REMARK    2  A    between atoms: S3_23  and  C2_2 
REMARK    3  A    between atoms: C12_10  and  C9_7 
REMARK    4  A    between atoms: C13_11  and  C12_10 
REMARK       I    between atoms: N15_26  and  C13_11 
REMARK    5  A    between atoms: C16_12  and  N15_26 
REMARK    6  A    between atoms: C21_14  and  C19_13 
REMARK    7  A    between atoms: C23_31  and  C21_14 
REMARK    8  A    between atoms: C18_28  and  C30_17 
REMARK    9  A    between atoms: C6_24  and  S3_23 
ROOT
ATOM      1  C16 8YB d   1      11.580  -1.162 105.141  0.00  0.00     0.174 A 
ATOM      2  C19 8YB d   1      12.291   1.124 104.621  0.00  0.00     0.089 A 
ATOM      3  N17 8YB d   1      12.826  -1.024 105.150  0.00  0.00    -0.222 NA
ATOM      4  C18 8YB d   1      13.328   0.287 104.845  0.00  0.00     0.091 A 
ATOM      5  S20 8YB d   1      10.742   0.312 104.774  0.00  0.00    -0.046 SA
ENDROOT
BRANCH   1   6
ATOM      6  N15 8YB d   1      10.928  -2.316 105.412  0.00  0.00    -0.305 N 
ATOM      7  C13 8YB d   1       9.607  -2.471 105.654  0.00  0.00     0.227 C 
ATOM      8  O14 8YB d   1       8.800  -1.543 105.664  0.00  0.00    -0.273 OA
ATOM      9  H18 8YB d   1      11.485  -3.146 105.436  0.00  0.00     0.171 HD
BRANCH   7  10
ATOM     10  C12 8YB d   1       9.117  -3.869 105.958  0.00  0.00     0.033 C 
ATOM     11  H10 8YB d   1       8.094  -4.006 105.577  0.00  0.00     0.054 H 
ATOM     12  H11 8YB d   1       9.782  -4.615 105.499  0.00  0.00     0.054 H 
BRANCH  10  13
ATOM     13  C9  8YB d   1       9.139  -4.005 107.482  0.00  0.00    -0.049 A 
ATOM     14  C8  8YB d   1       7.937  -4.053 108.202  0.00  0.00    -0.075 A 
ATOM     15  C7  8YB d   1       7.964  -4.170 109.600  0.00  0.00    -0.062 A 
ATOM     16  H7  8YB d   1       6.989  -4.000 107.680  0.00  0.00     0.084 H 
ATOM     17  C6  8YB d   1       9.180  -4.218 110.286  0.00  0.00     0.059 A 
ATOM     18  H6  8YB d   1       7.033  -4.224 110.153  0.00  0.00     0.085 H 
ATOM     19  C11 8YB d   1      10.380  -4.163 109.569  0.00  0.00    -0.062 A 
ATOM     20  C10 8YB d   1      10.361  -4.056 108.173  0.00  0.00    -0.075 A 
ATOM     21  H9  8YB d   1      11.327  -4.203 110.095  0.00  0.00     0.085 H 
ATOM     22  H8  8YB d   1      11.294  -4.012 107.623  0.00  0.00     0.084 H 
BRANCH  17  23
ATOM     23  S3  8YB d   1       9.215  -4.357 112.057  0.00  0.00     0.175 S 
ATOM     24  O4  8YB d   1       8.099  -5.190 112.467  0.00  0.00    -0.223 OA
ATOM     25  O5  8YB d   1      10.554  -4.698 112.496  0.00  0.00    -0.223 OA
BRANCH  23  26
ATOM     26  C2  8YB d   1       8.871  -2.646 112.524  0.00  0.00     0.030 C 
ATOM     27  H4  8YB d   1       7.966  -2.298 112.004  0.00  0.00     0.056 H 
ATOM     28  H5  8YB d   1       8.715  -2.587 113.611  0.00  0.00     0.056 H 
BRANCH  26  29
ATOM     29  C1  8YB d   1      10.072  -1.753 112.125  0.00  0.00    -0.064 C 
ATOM     30  H1  8YB d   1       9.864  -0.711 112.409  0.00  0.00     0.028 H 
ATOM     31  H2  8YB d   1      10.228  -1.813 111.038  0.00  0.00     0.028 H 
ATOM     32  H3  8YB d   1      10.977  -2.101 112.645  0.00  0.00     0.028 H 
ENDBRANCH  26  29
ENDBRANCH  23  26
ENDBRANCH  17  23
ENDBRANCH  10  13
ENDBRANCH   7  10
ENDBRANCH   1   6
BRANCH   4  33
ATOM     33  C30 8YB d   1      14.817   0.529 104.838  0.00  0.00    -0.004 A 
ATOM     34  C31 8YB d   1      15.449   1.372 103.917  0.00  0.00    -0.071 A 
ATOM     35  C32 8YB d   1      16.837   1.542 103.987  0.00  0.00    -0.081 A 
ATOM     36  H14 8YB d   1      14.871   1.887 103.159  0.00  0.00     0.084 H 
ATOM     37  C33 8YB d   1      17.596   0.866 104.959  0.00  0.00    -0.062 A 
ATOM     38  H15 8YB d   1      17.332   2.202 103.284  0.00  0.00     0.083 H 
ATOM     39  C34 8YB d   1      16.962   0.016 105.874  0.00  0.00     0.035 A 
ATOM     40  H16 8YB d   1      18.671   1.003 105.000  0.00  0.00     0.086 H 
ATOM     41  C35 8YB d   1      15.575  -0.142 105.809  0.00  0.00    -0.050 A 
ATOM     42 CL3  8YB d   1      17.865  -0.849 107.107  0.00  0.00    -0.084 Cl
ATOM     43  H17 8YB d   1      15.078  -0.793 106.519  0.00  0.00     0.087 H 
ENDBRANCH   4  33
BRANCH   2  44
ATOM     44  C21 8YB d   1      12.251   2.564 104.280  0.00  0.00     0.203 C 
ATOM     45  O22 8YB d   1      11.256   2.964 103.702  0.00  0.00    -0.286 OA
BRANCH  44  46
ATOM     46  C23 8YB d   1      13.293   3.613 104.608  0.00  0.00     0.037 A 
ATOM     47  C24 8YB d   1      13.641   4.499 103.575  0.00  0.00    -0.068 A 
ATOM     48  C25 8YB d   1      14.583   5.506 103.791  0.00  0.00    -0.082 A 
ATOM     49  H12 8YB d   1      13.174   4.400 102.602  0.00  0.00     0.085 H 
ATOM     50  C26 8YB d   1      15.167   5.645 105.051  0.00  0.00    -0.081 A 
ATOM     51  H19 8YB d   1      14.859   6.176 102.985  0.00  0.00     0.083 H 
ATOM     52  C27 8YB d   1      14.817   4.777 106.093  0.00  0.00    -0.061 A 
ATOM     53  H20 8YB d   1      15.895   6.429 105.224  0.00  0.00     0.083 H 
ATOM     54  C28 8YB d   1      13.880   3.763 105.875  0.00  0.00     0.048 A 
ATOM     55  H13 8YB d   1      15.273   4.892 107.070  0.00  0.00     0.086 H 
ATOM     56 CL2  8YB d   1      13.497   2.709 107.218  0.00  0.00    -0.083 Cl
ENDBRANCH  44  46
ENDBRANCH   2  44
TORSDOF 9
