REMARK  10 active torsions:
REMARK  status: ('A' for Active; 'I' for Inactive)
REMARK    1  A    between atoms: C18_24  and  O1_1 
REMARK    2  A    between atoms: C11_2  and  C3_18 
REMARK    3  A    between atoms: C7_4  and  C8_5 
REMARK    4  A    between atoms: C6_12  and  C7_4 
REMARK    5  A    between atoms: C9_13  and  C10_6 
REMARK    6  A    between atoms: C1_7  and  C2_8 
REMARK       I    between atoms: N13_15  and  C1_7 
REMARK    7  A    between atoms: C4_10  and  C12_14 
REMARK    8  A    between atoms: C5_11  and  C9_13 
REMARK    9  A    between atoms: C3_18  and  N13_15 
REMARK   10  A    between atoms: C13_19  and  O22_27 
ROOT
ATOM      1  C1  99E d   1     -33.666  50.359  -1.431  0.00  0.00     0.269 C 
ATOM      2  N13 99E d   1     -34.687  50.777  -2.184  0.00  0.00    -0.351 N 
ATOM      3  O15 99E d   1     -33.851  49.769  -0.379  0.00  0.00    -0.266 OA
ATOM      4  H15 99E d   1     -34.502  51.208  -3.067  0.00  0.00     0.163 HD
ENDROOT
BRANCH   1   5
ATOM      5  C2  99E d   1     -32.239  50.595  -1.793  0.00  0.00     0.108 A 
ATOM      6  N3  99E d   1     -31.249  50.779  -0.902  0.00  0.00    -0.354 N 
ATOM      7  C4  99E d   1     -30.051  50.955  -1.486  0.00  0.00     0.020 A 
ATOM      8  H11 99E d   1     -31.393  50.785   0.118  0.00  0.00     0.166 HD
ATOM      9  C5  99E d   1     -30.251  50.860  -2.956  0.00  0.00     0.040 A 
ATOM     10  C6  99E d   1     -31.705  50.609  -3.184  0.00  0.00    -0.010 A 
BRANCH   7  11
ATOM     11  C12 99E d   1     -28.767  51.194  -0.734  0.00  0.00    -0.037 C 
ATOM     12  H12 99E d   1     -27.938  51.304  -1.449  0.00  0.00     0.035 H 
ATOM     13  H13 99E d   1     -28.567  50.340  -0.070  0.00  0.00     0.035 H 
ATOM     14  H14 99E d   1     -28.858  52.112  -0.135  0.00  0.00     0.035 H 
ENDBRANCH   7  11
BRANCH   9  15
ATOM     15  C9  99E d   1     -29.126  50.988  -3.942  0.00  0.00     0.158 C 
ATOM     16  O16 99E d   1     -28.101  51.567  -3.620  0.00  0.00    -0.293 OA
BRANCH  15  17
ATOM     17  C10 99E d   1     -29.248  50.364  -5.301  0.00  0.00    -0.017 C 
ATOM     18  H8  99E d   1     -28.333  50.562  -5.879  0.00  0.00     0.038 H 
ATOM     19  H9  99E d   1     -30.113  50.795  -5.826  0.00  0.00     0.038 H 
ATOM     20  H10 99E d   1     -29.387  49.278  -5.195  0.00  0.00     0.038 H 
ENDBRANCH  15  17
ENDBRANCH   9  15
BRANCH  10  21
ATOM     21  C7  99E d   1     -32.480  50.436  -4.473  0.00  0.00    -0.041 C 
ATOM     22  H3  99E d   1     -31.952  49.726  -5.126  0.00  0.00     0.039 H 
ATOM     23  H4  99E d   1     -33.485  50.050  -4.248  0.00  0.00     0.039 H 
BRANCH  21  24
ATOM     24  C8  99E d   1     -32.597  51.774  -5.171  0.00  0.00    -0.073 C 
ATOM     25  H5  99E d   1     -33.160  51.651  -6.108  0.00  0.00     0.028 H 
ATOM     26  H6  99E d   1     -31.592  52.160  -5.395  0.00  0.00     0.028 H 
ATOM     27  H7  99E d   1     -33.125  52.484  -4.517  0.00  0.00     0.028 H 
ENDBRANCH  21  24
ENDBRANCH  10  21
ENDBRANCH   1   5
BRANCH   2  28
ATOM     28  C3  99E d   1     -36.065  50.615  -1.740  0.00  0.00     0.023 C 
ATOM     29  H16 99E d   1     -36.735  50.659  -2.611  0.00  0.00     0.071 H 
ATOM     30  H17 99E d   1     -36.175  49.640  -1.242  0.00  0.00     0.071 H 
BRANCH  28  31
ATOM     31  C11 99E d   1     -36.433  51.721  -0.766  0.00  0.00     0.006 A 
ATOM     32  C13 99E d   1     -36.806  51.294   0.501  0.00  0.00     0.074 A 
ATOM     33  C14 99E d   1     -37.165  52.195   1.495  0.00  0.00    -0.050 A 
ATOM     34  C15 99E d   1     -37.149  53.550   1.218  0.00  0.00    -0.070 A 
ATOM     35  H18 99E d   1     -37.455  51.840   2.477  0.00  0.00     0.087 H 
ATOM     36  C16 99E d   1     -36.778  53.996  -0.043  0.00  0.00    -0.022 A 
ATOM     37  H19 99E d   1     -37.426  54.264   1.986  0.00  0.00     0.085 H 
ATOM     38  C21 99E d   1     -36.786  55.367  -0.252  0.00  0.00    -0.072 A 
ATOM     39  C17 99E d   1     -36.408  53.103  -1.062  0.00  0.00     0.018 A 
ATOM     40  C20 99E d   1     -36.423  55.889  -1.483  0.00  0.00    -0.080 A 
ATOM     41  H2  99E d   1     -37.078  56.033   0.552  0.00  0.00     0.084 H 
ATOM     42  C19 99E d   1     -36.058  55.027  -2.503  0.00  0.00    -0.050 A 
ATOM     43  H21 99E d   1     -36.425  56.961  -1.646  0.00  0.00     0.083 H 
ATOM     44  C18 99E d   1     -36.049  53.650  -2.311  0.00  0.00     0.077 A 
ATOM     45  H20 99E d   1     -35.775  55.432  -3.467  0.00  0.00     0.087 H 
BRANCH  32  46
ATOM     46  O22 99E d   1     -36.823  49.961   0.788  0.00  0.00    -0.360 OA
ATOM     47  H22 99E d   1     -37.702  49.704   1.041  0.00  0.00     0.217 HD
ENDBRANCH  32  46
BRANCH  44  48
ATOM     48  O1  99E d   1     -35.677  52.915  -3.400  0.00  0.00    -0.360 OA
ATOM     49  H1  99E d   1     -35.482  53.499  -4.123  0.00  0.00     0.217 HD
ENDBRANCH  44  48
ENDBRANCH  28  31
ENDBRANCH   2  28
TORSDOF 10
