REMARK  10 active torsions:
REMARK  status: ('A' for Active; 'I' for Inactive)
REMARK    1  A    between atoms: C18_24  and  O1_1 
REMARK    2  A    between atoms: C11_2  and  C3_18 
REMARK    3  A    between atoms: C7_4  and  C8_5 
REMARK    4  A    between atoms: C6_12  and  C7_4 
REMARK    5  A    between atoms: C9_13  and  C10_6 
REMARK    6  A    between atoms: C1_7  and  C2_8 
REMARK       I    between atoms: N13_15  and  C1_7 
REMARK    7  A    between atoms: C4_10  and  C12_14 
REMARK    8  A    between atoms: C5_11  and  C9_13 
REMARK    9  A    between atoms: C3_18  and  N13_15 
REMARK   10  A    between atoms: C13_19  and  O22_27 
ROOT
ATOM      1  C1  99E d   1      39.288   5.712   9.992  0.00  0.00     0.269 C 
ATOM      2  N13 99E d   1      39.515   4.432   9.830  0.00  0.00    -0.351 N 
ATOM      3  O15 99E d   1      39.476   6.514   9.090  0.00  0.00    -0.266 OA
ATOM      4  H15 99E d   1      39.407   3.788  10.587  0.00  0.00     0.163 HD
ENDROOT
BRANCH   1   5
ATOM      5  C2  99E d   1      38.828   6.247  11.283  0.00  0.00     0.108 A 
ATOM      6  N3  99E d   1      39.281   7.395  11.788  0.00  0.00    -0.354 N 
ATOM      7  C4  99E d   1      38.720   7.686  12.959  0.00  0.00     0.020 A 
ATOM      8  H11 99E d   1      39.984   7.988  11.325  0.00  0.00     0.166 HD
ATOM      9  C5  99E d   1      37.759   6.599  13.268  0.00  0.00     0.040 A 
ATOM     10  C6  99E d   1      37.807   5.619  12.153  0.00  0.00    -0.010 A 
BRANCH   7  11
ATOM     11  C12 99E d   1      39.058   8.927  13.743  0.00  0.00    -0.037 C 
ATOM     12  H12 99E d   1      38.469   8.946  14.672  0.00  0.00     0.035 H 
ATOM     13  H13 99E d   1      38.822   9.817  13.141  0.00  0.00     0.035 H 
ATOM     14  H14 99E d   1      40.130   8.925  13.989  0.00  0.00     0.035 H 
ENDBRANCH   7  11
BRANCH   9  15
ATOM     15  C9  99E d   1      36.919   6.609  14.496  0.00  0.00     0.158 C 
ATOM     16  O16 99E d   1      37.286   7.235  15.469  0.00  0.00    -0.293 OA
BRANCH  15  17
ATOM     17  C10 99E d   1      35.601   5.905  14.481  0.00  0.00    -0.017 C 
ATOM     18  H8  99E d   1      35.117   6.012  15.463  0.00  0.00     0.038 H 
ATOM     19  H9  99E d   1      35.758   4.838  14.264  0.00  0.00     0.038 H 
ATOM     20  H10 99E d   1      34.958   6.346  13.705  0.00  0.00     0.038 H 
ENDBRANCH  15  17
ENDBRANCH   9  15
BRANCH  10  21
ATOM     21  C7  99E d   1      37.051   4.324  11.952  0.00  0.00    -0.041 C 
ATOM     22  H3  99E d   1      35.987   4.481  12.182  0.00  0.00     0.039 H 
ATOM     23  H4  99E d   1      37.156   3.997  10.907  0.00  0.00     0.039 H 
BRANCH  21  24
ATOM     24  C8  99E d   1      37.615   3.259  12.874  0.00  0.00    -0.073 C 
ATOM     25  H5  99E d   1      37.065   2.318  12.727  0.00  0.00     0.028 H 
ATOM     26  H6  99E d   1      37.510   3.586  13.919  0.00  0.00     0.028 H 
ATOM     27  H7  99E d   1      38.679   3.101  12.644  0.00  0.00     0.028 H 
ENDBRANCH  21  24
ENDBRANCH  10  21
ENDBRANCH   1   5
BRANCH   2  28
ATOM     28  C3  99E d   1      39.922   3.988   8.537  0.00  0.00     0.023 C 
ATOM     29  H16 99E d   1      39.577   2.951   8.415  0.00  0.00     0.071 H 
ATOM     30  H17 99E d   1      39.428   4.629   7.792  0.00  0.00     0.071 H 
BRANCH  28  31
ATOM     31  C11 99E d   1      41.414   4.015   8.253  0.00  0.00     0.006 A 
ATOM     32  C13 99E d   1      41.880   4.997   7.374  0.00  0.00     0.074 A 
ATOM     33  C14 99E d   1      43.215   5.057   7.001  0.00  0.00    -0.050 A 
ATOM     34  C15 99E d   1      44.113   4.125   7.499  0.00  0.00    -0.070 A 
ATOM     35  H18 99E d   1      43.555   5.830   6.322  0.00  0.00     0.087 H 
ATOM     36  C16 99E d   1      43.672   3.139   8.374  0.00  0.00    -0.022 A 
ATOM     37  H19 99E d   1      45.156   4.165   7.207  0.00  0.00     0.085 H 
ATOM     38  C21 99E d   1      44.621   2.237   8.850  0.00  0.00    -0.072 A 
ATOM     39  C17 99E d   1      42.317   3.052   8.762  0.00  0.00     0.018 A 
ATOM     40  C20 99E d   1      44.240   1.225   9.721  0.00  0.00    -0.080 A 
ATOM     41  H2  99E d   1      45.656   2.325   8.541  0.00  0.00     0.084 H 
ATOM     42  C19 99E d   1      42.913   1.117  10.123  0.00  0.00    -0.050 A 
ATOM     43  H21 99E d   1      44.977   0.519  10.088  0.00  0.00     0.083 H 
ATOM     44  C18 99E d   1      41.953   2.021   9.660  0.00  0.00     0.077 A 
ATOM     45  H20 99E d   1      42.620   0.324  10.802  0.00  0.00     0.087 H 
BRANCH  32  46
ATOM     46  O22 99E d   1      41.030   5.937   6.867  0.00  0.00    -0.360 OA
ATOM     47  H22 99E d   1      40.154   5.782   7.200  0.00  0.00     0.217 HD
ENDBRANCH  32  46
BRANCH  44  48
ATOM     48  O1  99E d   1      40.684   1.844  10.125  0.00  0.00    -0.360 OA
ATOM     49  H1  99E d   1      40.664   1.097  10.712  0.00  0.00     0.217 HD
ENDBRANCH  44  48
ENDBRANCH  28  31
ENDBRANCH   2  28
TORSDOF 10
