REMARK  4 active torsions:
REMARK  status: ('A' for Active; 'I' for Inactive)
REMARK    1  A    between atoms: N10_16  and  C11_3 
REMARK    2  A    between atoms: C14_5  and  C18_8 
REMARK    3  A    between atoms: C4_10  and  N2_9 
REMARK    4  A    between atoms: C9_15  and  N10_16 
ROOT
ATOM      1  N10 99K d   1      24.172  -1.318 -54.331  0.00  0.00    -0.322 N 
ATOM      2  H6  99K d   1      24.362  -0.743 -53.498  0.00  0.00     0.169 HD
ENDROOT
BRANCH   1   3
ATOM      3  C11 99K d   1      24.390  -2.655 -54.173  0.00  0.00     0.150 A 
ATOM      4  C16 99K d   1      25.360  -3.127 -53.268  0.00  0.00     0.080 A 
ATOM      5  C15 99K d   1      25.543  -4.506 -53.091  0.00  0.00    -0.042 A 
ATOM      6 CL   99K d   1      26.401  -2.059 -52.341  0.00  0.00    -0.080 Cl
ATOM      7  C14 99K d   1      24.733  -5.426 -53.766  0.00  0.00     0.067 A 
ATOM      8  H2  99K d   1      26.320  -4.863 -52.425  0.00  0.00     0.087 H 
ATOM      9  C13 99K d   1      23.754  -4.908 -54.627  0.00  0.00     0.019 A 
ATOM     10  N12 99K d   1      23.603  -3.574 -54.780  0.00  0.00    -0.241 NA
ATOM     11  H1  99K d   1      23.111  -5.586 -55.176  0.00  0.00     0.116 H 
BRANCH   7  12
ATOM     12  C18 99K d   1      24.961  -6.931 -53.577  0.00  0.00     0.418 C 
ATOM     13  F19 99K d   1      23.930  -7.665 -54.049  0.00  0.00    -0.166 F 
ATOM     14  F20 99K d   1      26.055  -7.292 -54.274  0.00  0.00    -0.166 F 
ATOM     15  F21 99K d   1      25.163  -7.265 -52.276  0.00  0.00    -0.166 F 
ENDBRANCH   7  12
ENDBRANCH   1   3
BRANCH   1  16
ATOM     16  C9  99K d   1      23.738  -0.624 -55.430  0.00  0.00     0.162 A 
ATOM     17  C4  99K d   1      23.969   0.771 -55.561  0.00  0.00     0.148 A 
ATOM     18  C5  99K d   1      23.491   1.434 -56.717  0.00  0.00    -0.046 A 
ATOM     19  C6  99K d   1      22.785   0.756 -57.711  0.00  0.00    -0.064 A 
ATOM     20  H3  99K d   1      23.678   2.495 -56.833  0.00  0.00     0.087 H 
ATOM     21  C7  99K d   1      22.569  -0.611 -57.514  0.00  0.00     0.005 A 
ATOM     22  H4  99K d   1      22.421   1.266 -58.596  0.00  0.00     0.085 H 
ATOM     23  N8  99K d   1      23.043  -1.244 -56.416  0.00  0.00    -0.241 NA
ATOM     24  H5  99K d   1      22.012  -1.174 -58.254  0.00  0.00     0.114 H 
BRANCH  17  25
ATOM     25  N2  99K d   1      24.623   1.500 -54.612  0.00  0.00    -0.112 N 
ATOM     26  O1  99K d   1      25.071   0.945 -53.400  0.00  0.00    -0.532 OA
ATOM     27  O3  99K d   1      24.788   2.696 -54.758  0.00  0.00    -0.532 OA
ENDBRANCH  17  25
ENDBRANCH   1  16
TORSDOF 4
