REMARK  5 active torsions:
REMARK  status: ('A' for Active; 'I' for Inactive)
REMARK    1  A    between atoms: CAA_1  and  CAB_2 
REMARK    2  A    between atoms: CAB_2  and  CAC_3 
REMARK    3  A    between atoms: CAB_2  and  OAD_4 
REMARK    4  A    between atoms: OAD_4  and  CAE_5 
REMARK    5  A    between atoms: CAH_10  and  CAK_11 
ROOT
ATOM      1  CAE 9A8 d   1       6.528  38.086   7.791  0.00  0.00     0.069 A 
ATOM      2  CAJ 9A8 d   1       5.990  36.937   8.347  0.00  0.00    -0.050 A 
ATOM      3  CAI 9A8 d   1       6.096  36.702   9.713  0.00  0.00    -0.067 A 
ATOM      4  CAF 9A8 d   1       7.153  39.020   8.616  0.00  0.00    -0.050 A 
ATOM      5  CAG 9A8 d   1       7.250  38.786   9.992  0.00  0.00    -0.067 A 
ATOM      6  CAH 9A8 d   1       6.734  37.615  10.540  0.00  0.00     0.010 A 
ATOM      7  H8  9A8 d   1       5.484  36.218   7.714  0.00  0.00     0.087 H 
ATOM      8  H9  9A8 d   1       5.676  35.797  10.136  0.00  0.00     0.085 H 
ATOM      9  H10 9A8 d   1       7.564  39.928   8.191  0.00  0.00     0.087 H 
ATOM     10  H11 9A8 d   1       7.728  39.518  10.633  0.00  0.00     0.085 H 
ENDROOT
BRANCH   6  11
ATOM     11  CAK 9A8 d   1       6.789  37.336  11.910  0.00  0.00     0.141 A 
ATOM     12  NAL 9A8 d   1       5.976  36.387  12.380  0.00  0.00    -0.230 NA
ATOM     13  CAM 9A8 d   1       5.958  36.067  13.681  0.00  0.00     0.074 A 
ATOM     14  CAR 9A8 d   1       5.079  35.074  14.087  0.00  0.00    -0.054 A 
ATOM     15  CAN 9A8 d   1       6.775  36.719  14.597  0.00  0.00     0.061 A 
ATOM     16  CAQ 9A8 d   1       5.024  34.710  15.416  0.00  0.00    -0.081 A 
ATOM     17  H12 9A8 d   1       4.438  34.586  13.362  0.00  0.00     0.087 H 
ATOM     18  CAP 9A8 d   1       5.834  35.356  16.348  0.00  0.00    -0.082 A 
ATOM     19  H13 9A8 d   1       4.351  33.922  15.735  0.00  0.00     0.083 H 
ATOM     20  CAO 9A8 d   1       6.716  36.354  15.938  0.00  0.00    -0.065 A 
ATOM     21  H14 9A8 d   1       5.778  35.081  17.395  0.00  0.00     0.083 H 
ATOM     22  H15 9A8 d   1       7.355  36.845  16.663  0.00  0.00     0.085 H 
ATOM     23  CAS 9A8 d   1       7.653  37.709  14.139  0.00  0.00     0.259 A 
ATOM     24  OAT 9A8 d   1       8.424  38.309  14.885  0.00  0.00    -0.267 OA
ATOM     25  NAU 9A8 d   1       7.652  38.017  12.778  0.00  0.00    -0.307 N 
ATOM     26  H16 9A8 d   1       8.266  38.722  12.423  0.00  0.00     0.170 HD
ENDBRANCH   6  11
BRANCH   1  27
ATOM     27  OAD 9A8 d   1       6.418  38.309   6.448  0.00  0.00    -0.347 OA
BRANCH  27  28
ATOM     28  CAB 9A8 d   1       7.244  37.520   5.583  0.00  0.00     0.038 C 
ATOM     29  H4  9A8 d   1       6.733  36.574   5.351  0.00  0.00     0.082 H 
BRANCH  28  30
ATOM     30  CAA 9A8 d   1       8.587  37.228   6.240  0.00  0.00    -0.052 C 
ATOM     31  H1  9A8 d   1       9.204  36.622   5.560  0.00  0.00     0.030 H 
ATOM     32  H2  9A8 d   1       8.424  36.676   7.177  0.00  0.00     0.030 H 
ATOM     33  H3  9A8 d   1       9.103  38.175   6.457  0.00  0.00     0.030 H 
ENDBRANCH  28  30
BRANCH  28  34
ATOM     34  CAC 9A8 d   1       7.503  38.305   4.295  0.00  0.00    -0.052 C 
ATOM     35  H5  9A8 d   1       6.545  38.528   3.802  0.00  0.00     0.030 H 
ATOM     36  H6  9A8 d   1       8.132  37.705   3.620  0.00  0.00     0.030 H 
ATOM     37  H7  9A8 d   1       8.018  39.246   4.537  0.00  0.00     0.030 H 
ENDBRANCH  28  34
ENDBRANCH  27  28
ENDBRANCH   1  27
TORSDOF 5
