REMARK  2 active torsions:
REMARK  status: ('A' for Active; 'I' for Inactive)
REMARK    1  A    between atoms: CAB_2  and  OAA_3 
REMARK    2  A    between atoms: CAF_7  and  CAH_8 
ROOT
ATOM      1  CAH 9AN d   1       6.617  37.542  11.994  0.00  0.00     0.141 A 
ATOM      2  NAI 9AN d   1       5.801  36.571  12.401  0.00  0.00    -0.230 NA
ATOM      3  CAJ 9AN d   1       5.813  36.148  13.680  0.00  0.00     0.074 A 
ATOM      4  CAO 9AN d   1       4.932  35.141  14.044  0.00  0.00    -0.054 A 
ATOM      5  CAN 9AN d   1       4.898  34.693  15.351  0.00  0.00    -0.081 A 
ATOM      6  CAM 9AN d   1       5.737  35.259  16.308  0.00  0.00    -0.082 A 
ATOM      7  CAL 9AN d   1       6.614  36.281  15.945  0.00  0.00    -0.065 A 
ATOM      8  CAK 9AN d   1       6.637  36.730  14.638  0.00  0.00     0.061 A 
ATOM      9  CAP 9AN d   1       7.520  37.745  14.243  0.00  0.00     0.259 A 
ATOM     10  OAQ 9AN d   1       8.319  38.270  15.029  0.00  0.00    -0.267 OA
ATOM     11  NAR 9AN d   1       7.488  38.136  12.908  0.00  0.00    -0.307 N 
ATOM     12  H6  9AN d   1       4.270  34.706  13.304  0.00  0.00     0.087 H 
ATOM     13  H7  9AN d   1       4.216  33.899  15.632  0.00  0.00     0.083 H 
ATOM     14  H8  9AN d   1       5.708  34.906  17.332  0.00  0.00     0.083 H 
ATOM     15  H9  9AN d   1       7.274  36.721  16.684  0.00  0.00     0.085 H 
ATOM     16  H10 9AN d   1       8.104  38.860  12.596  0.00  0.00     0.170 HD
ENDROOT
BRANCH   1  17
ATOM     17  CAF 9AN d   1       6.570  37.973  10.660  0.00  0.00     0.013 A 
ATOM     18  CAG 9AN d   1       5.919  37.217   9.688  0.00  0.00    -0.037 A 
ATOM     19  CAB 9AN d   1       5.838  37.673   8.375  0.00  0.00     0.066 A 
ATOM     20  H1  9AN d   1       5.472  36.266   9.956  0.00  0.00     0.089 H 
ATOM     21  CAC 9AN d   1       6.411  38.883   8.022  0.00  0.00    -0.051 A 
ATOM     22  CAD 9AN d   1       7.043  39.639   8.985  0.00  0.00    -0.079 A 
ATOM     23  H3  9AN d   1       6.363  39.233   6.997  0.00  0.00     0.087 H 
ATOM     24  CAE 9AN d   1       7.113  39.198  10.305  0.00  0.00    -0.069 A 
ATOM     25  H4  9AN d   1       7.491  40.588   8.713  0.00  0.00     0.083 H 
ATOM     26  H5  9AN d   1       7.593  39.815  11.056  0.00  0.00     0.085 H 
BRANCH  19  27
ATOM     27  OAA 9AN d   1       5.238  36.921   7.411  0.00  0.00    -0.361 OA
ATOM     28  H2  9AN d   1       5.274  37.384   6.582  0.00  0.00     0.217 HD
ENDBRANCH  19  27
ENDBRANCH   1  17
TORSDOF 2
