REMARK  4 active torsions:
REMARK  status: ('A' for Active; 'I' for Inactive)
REMARK    1  A    between atoms: CAA_1  and  CAB_2 
REMARK    2  A    between atoms: CAB_2  and  OAC_3 
REMARK    3  A    between atoms: OAC_3  and  CAD_4 
REMARK    4  A    between atoms: CAG_9  and  CAJ_10 
ROOT
ATOM      1  CAD 9AQ d   1       6.297  38.479   7.950  0.00  0.00     0.068 A 
ATOM      2  CAI 9AQ d   1       6.878  39.362   8.847  0.00  0.00    -0.050 A 
ATOM      3  CAH 9AQ d   1       6.995  39.026  10.201  0.00  0.00    -0.067 A 
ATOM      4  CAE 9AQ d   1       5.812  37.268   8.409  0.00  0.00    -0.050 A 
ATOM      5  CAF 9AQ d   1       5.929  36.927   9.756  0.00  0.00    -0.067 A 
ATOM      6  CAG 9AQ d   1       6.534  37.794  10.664  0.00  0.00     0.010 A 
ATOM      7  H6  9AQ d   1       7.245  40.320   8.497  0.00  0.00     0.087 H 
ATOM      8  H7  9AQ d   1       7.446  39.727  10.893  0.00  0.00     0.085 H 
ATOM      9  H8  9AQ d   1       5.338  36.580   7.718  0.00  0.00     0.087 H 
ATOM     10  H9  9AQ d   1       5.544  35.974  10.102  0.00  0.00     0.085 H 
ENDROOT
BRANCH   6  11
ATOM     11  CAJ 9AQ d   1       6.594  37.434  12.025  0.00  0.00     0.141 A 
ATOM     12  NAK 9AQ d   1       5.805  36.449  12.469  0.00  0.00    -0.230 NA
ATOM     13  CAL 9AQ d   1       5.817  36.086  13.768  0.00  0.00     0.074 A 
ATOM     14  CAQ 9AQ d   1       4.972  35.058  14.164  0.00  0.00    -0.054 A 
ATOM     15  CAM 9AQ d   1       6.633  36.724  14.699  0.00  0.00     0.061 A 
ATOM     16  CAP 9AQ d   1       4.932  34.655  15.483  0.00  0.00    -0.081 A 
ATOM     17  H10 9AQ d   1       4.340  34.569  13.432  0.00  0.00     0.087 H 
ATOM     18  CAO 9AQ d   1       5.735  35.289  16.419  0.00  0.00    -0.082 A 
ATOM     19  H11 9AQ d   1       4.276  33.847  15.786  0.00  0.00     0.083 H 
ATOM     20  CAN 9AQ d   1       6.592  36.316  16.025  0.00  0.00    -0.065 A 
ATOM     21  H12 9AQ d   1       5.696  34.986  17.459  0.00  0.00     0.083 H 
ATOM     22  H13 9AQ d   1       7.229  36.798  16.758  0.00  0.00     0.085 H 
ATOM     23  CAR 9AQ d   1       7.493  37.744  14.259  0.00  0.00     0.259 A 
ATOM     24  OAS 9AQ d   1       8.264  38.350  15.011  0.00  0.00    -0.267 OA
ATOM     25  NAT 9AQ d   1       7.451  38.089  12.915  0.00  0.00    -0.307 N 
ATOM     26  H14 9AQ d   1       8.044  38.819  12.577  0.00  0.00     0.170 HD
ENDBRANCH   6  11
BRANCH   1  27
ATOM     27  OAC 9AQ d   1       6.189  38.821   6.632  0.00  0.00    -0.352 OA
BRANCH  27  28
ATOM     28  CAB 9AQ d   1       6.234  37.691   5.762  0.00  0.00     0.023 C 
ATOM     29  H4  9AQ d   1       7.167  37.133   5.931  0.00  0.00     0.074 H 
ATOM     30  H5  9AQ d   1       5.374  37.036   5.964  0.00  0.00     0.074 H 
BRANCH  28  31
ATOM     31  CAA 9AQ d   1       6.181  38.173   4.310  0.00  0.00    -0.056 C 
ATOM     32  H1  9AQ d   1       6.215  37.306   3.634  0.00  0.00     0.030 H 
ATOM     33  H2  9AQ d   1       7.041  38.828   4.109  0.00  0.00     0.030 H 
ATOM     34  H3  9AQ d   1       5.248  38.731   4.143  0.00  0.00     0.030 H 
ENDBRANCH  28  31
ENDBRANCH  27  28
ENDBRANCH   1  27
TORSDOF 4
