REMARK  2 active torsions:
REMARK  status: ('A' for Active; 'I' for Inactive)
REMARK    1  A    between atoms: CAR_6  and  CAO_7 
REMARK    2  A    between atoms: CAL_12  and  CAD_13 
ROOT
ATOM      1  CAO 9AW d   1       6.383  38.364   7.951  0.00  0.00    -0.007 A 
ATOM      2  CAP 9AW d   1       5.953  37.126   8.422  0.00  0.00    -0.070 A 
ATOM      3  CAQ 9AW d   1       6.058  36.747   9.760  0.00  0.00    -0.069 A 
ATOM      4  CAN 9AW d   1       6.873  39.265   8.889  0.00  0.00    -0.070 A 
ATOM      5  CAM 9AW d   1       6.977  38.904  10.246  0.00  0.00    -0.069 A 
ATOM      6  CAL 9AW d   1       6.600  37.616  10.709  0.00  0.00     0.010 A 
ATOM      7  H5  9AW d   1       5.518  36.426   7.718  0.00  0.00     0.084 H 
ATOM      8  H6  9AW d   1       5.715  35.766  10.067  0.00  0.00     0.085 H 
ATOM      9  H7  9AW d   1       7.178  40.256   8.573  0.00  0.00     0.084 H 
ATOM     10  H8  9AW d   1       7.355  39.630  10.957  0.00  0.00     0.085 H 
ENDROOT
BRANCH   6  11
ATOM     11  CAD 9AW d   1       6.620  37.274  12.078  0.00  0.00     0.141 A 
ATOM     12  NAE 9AW d   1       5.789  36.317  12.554  0.00  0.00    -0.230 NA
ATOM     13  CAF 9AW d   1       5.743  36.029  13.867  0.00  0.00     0.074 A 
ATOM     14  CAK 9AW d   1       4.881  35.003  14.251  0.00  0.00    -0.054 A 
ATOM     15  CAG 9AW d   1       6.466  36.745  14.826  0.00  0.00     0.061 A 
ATOM     16  CAJ 9AW d   1       4.769  34.673  15.591  0.00  0.00    -0.081 A 
ATOM     17  H9  9AW d   1       4.303  34.468  13.506  0.00  0.00     0.087 H 
ATOM     18  CAI 9AW d   1       5.502  35.389  16.563  0.00  0.00    -0.082 A 
ATOM     19  H10 9AW d   1       4.117  33.862  15.895  0.00  0.00     0.083 H 
ATOM     20  CAH 9AW d   1       6.357  36.413  16.170  0.00  0.00    -0.065 A 
ATOM     21  H11 9AW d   1       5.398  35.141  17.613  0.00  0.00     0.083 H 
ATOM     22  H12 9AW d   1       6.937  36.951  16.911  0.00  0.00     0.085 H 
ATOM     23  CAB 9AW d   1       7.349  37.734  14.360  0.00  0.00     0.259 A 
ATOM     24  OAA 9AW d   1       8.096  38.406  15.091  0.00  0.00    -0.267 OA
ATOM     25  NAC 9AW d   1       7.367  38.002  12.984  0.00  0.00    -0.307 N 
ATOM     26  H13 9AW d   1       7.942  38.747  12.646  0.00  0.00     0.170 HD
ENDBRANCH   6  11
BRANCH   1  27
ATOM     27  CAR 9AW d   1       6.207  38.701   6.584  0.00  0.00     0.066 A 
ATOM     28  CAW 9AW d   1       5.703  39.960   6.236  0.00  0.00    -0.054 A 
ATOM     29  CAV 9AW d   1       5.473  40.295   4.889  0.00  0.00    -0.079 A 
ATOM     30  H1  9AW d   1       5.488  40.685   7.013  0.00  0.00     0.087 H 
ATOM     31  CAU 9AW d   1       5.723  39.324   3.918  0.00  0.00    -0.066 A 
ATOM     32  H2  9AW d   1       5.112  41.279   4.613  0.00  0.00     0.083 H 
ATOM     33  CAT 9AW d   1       6.207  38.072   4.279  0.00  0.00     0.003 A 
ATOM     34  H3  9AW d   1       5.538  39.548   2.874  0.00  0.00     0.085 H 
ATOM     35  NAS 9AW d   1       6.415  37.761   5.640  0.00  0.00    -0.260 NA
ATOM     36  H4  9AW d   1       6.425  37.334   3.515  0.00  0.00     0.114 H 
ENDBRANCH   1  27
TORSDOF 2
