REMARK  2 active torsions:
REMARK  status: ('A' for Active; 'I' for Inactive)
REMARK    1  A    between atoms: NAR_6  and  CAO_7 
REMARK    2  A    between atoms: CAL_12  and  CAD_13 
ROOT
ATOM      1  CAO 9B2 d   1       6.420  38.342   7.915  0.00  0.00     0.030 A 
ATOM      2  CAP 9B2 d   1       7.023  39.181   8.857  0.00  0.00    -0.056 A 
ATOM      3  CAQ 9B2 d   1       7.096  38.834  10.211  0.00  0.00    -0.067 A 
ATOM      4  CAN 9B2 d   1       5.888  37.144   8.413  0.00  0.00    -0.056 A 
ATOM      5  CAM 9B2 d   1       5.977  36.787   9.754  0.00  0.00    -0.067 A 
ATOM      6  CAL 9B2 d   1       6.606  37.608  10.684  0.00  0.00     0.010 A 
ATOM      7  H11 9B2 d   1       7.445  40.125   8.530  0.00  0.00     0.086 H 
ATOM      8  H12 9B2 d   1       7.543  39.530  10.912  0.00  0.00     0.085 H 
ATOM      9  H13 9B2 d   1       5.388  36.470   7.726  0.00  0.00     0.086 H 
ATOM     10  H14 9B2 d   1       5.546  35.848  10.082  0.00  0.00     0.085 H 
ENDROOT
BRANCH   1  11
ATOM     11  NAR 9B2 d   1       6.305  38.695   6.591  0.00  0.00    -0.381 N 
ATOM     12  CAS 9B2 d   1       6.506  40.124   6.194  0.00  0.00    -0.005 C 
ATOM     13  CAT 9B2 d   1       5.731  40.541   5.019  0.00  0.00    -0.050 C 
ATOM     14  H1  9B2 d   1       6.215  40.761   7.042  0.00  0.00     0.064 H 
ATOM     15  H2  9B2 d   1       7.573  40.273   5.973  0.00  0.00     0.064 H 
ATOM     16  CAU 9B2 d   1       6.123  39.596   3.915  0.00  0.00    -0.062 C 
ATOM     17  H3  9B2 d   1       5.980  41.577   4.744  0.00  0.00     0.035 H 
ATOM     18  H4  9B2 d   1       4.653  40.465   5.224  0.00  0.00     0.035 H 
ATOM     19  CAV 9B2 d   1       5.516  38.248   4.165  0.00  0.00    -0.050 C 
ATOM     20  H5  9B2 d   1       7.219  39.504   3.884  0.00  0.00     0.033 H 
ATOM     21  H6  9B2 d   1       5.761  39.987   2.953  0.00  0.00     0.033 H 
ATOM     22  CAW 9B2 d   1       5.815  37.695   5.568  0.00  0.00    -0.005 C 
ATOM     23  H7  9B2 d   1       5.914  37.543   3.420  0.00  0.00     0.035 H 
ATOM     24  H8  9B2 d   1       4.425  38.329   4.047  0.00  0.00     0.035 H 
ATOM     25  H9  9B2 d   1       6.585  36.917   5.465  0.00  0.00     0.064 H 
ATOM     26  H10 9B2 d   1       4.889  37.245   5.956  0.00  0.00     0.064 H 
ENDBRANCH   1  11
BRANCH   6  27
ATOM     27  CAD 9B2 d   1       6.630  37.276  12.055  0.00  0.00     0.141 A 
ATOM     28  NAE 9B2 d   1       5.799  36.332  12.521  0.00  0.00    -0.230 NA
ATOM     29  CAF 9B2 d   1       5.767  36.015  13.828  0.00  0.00     0.074 A 
ATOM     30  CAK 9B2 d   1       4.893  35.010  14.222  0.00  0.00    -0.054 A 
ATOM     31  CAG 9B2 d   1       6.539  36.697  14.779  0.00  0.00     0.061 A 
ATOM     32  CAJ 9B2 d   1       4.796  34.666  15.563  0.00  0.00    -0.081 A 
ATOM     33  H15 9B2 d   1       4.288  34.496  13.484  0.00  0.00     0.087 H 
ATOM     34  CAI 9B2 d   1       5.570  35.334  16.522  0.00  0.00    -0.082 A 
ATOM     35  H16 9B2 d   1       4.119  33.877  15.870  0.00  0.00     0.083 H 
ATOM     36  CAH 9B2 d   1       6.449  36.346  16.119  0.00  0.00    -0.065 A 
ATOM     37  H17 9B2 d   1       5.488  35.068  17.570  0.00  0.00     0.083 H 
ATOM     38  H18 9B2 d   1       7.060  36.856  16.854  0.00  0.00     0.085 H 
ATOM     39  CAB 9B2 d   1       7.418  37.695  14.331  0.00  0.00     0.259 A 
ATOM     40  OAA 9B2 d   1       8.171  38.340  15.071  0.00  0.00    -0.267 OA
ATOM     41  NAC 9B2 d   1       7.429  37.965  12.976  0.00  0.00    -0.307 N 
ATOM     42  H19 9B2 d   1       8.035  38.685  12.638  0.00  0.00     0.170 HD
ENDBRANCH   6  27
TORSDOF 2
