REMARK  10 active torsions:
REMARK  status: ('A' for Active; 'I' for Inactive)
REMARK    1  A    between atoms: CAA_1  and  CAT_2 
REMARK       I    between atoms: CAT_2  and  N_4 
REMARK    2  A    between atoms: N_4  and  CA_5 
REMARK    3  A    between atoms: CA_5  and  CB_6 
REMARK    4  A    between atoms: CA_5  and  C_7 
REMARK       I    between atoms: C_7  and  NBD_9 
REMARK    5  A    between atoms: CBA_11  and  OAG_12 
REMARK    6  A    between atoms: CBC_14  and  CAU_15 
REMARK       I    between atoms: CAU_15  and  NAQ_17 
REMARK    7  A    between atoms: NAQ_17  and  CAM_18 
REMARK    8  A    between atoms: CAM_18  and  CAW_19 
REMARK    9  A    between atoms: CAY_24  and  CAZ_25 
REMARK   10  A    between atoms: CAX_29  and  CAB_30 
ROOT
ATOM      1  C   9B5 d   1      12.226  53.201  91.500  0.00  0.00     0.243 C 
ATOM      2  O   9B5 d   1      11.072  52.802  91.353  0.00  0.00    -0.271 OA
ATOM      3  NBD 9B5 d   1      12.950  53.753  90.494  0.00  0.00    -0.334 N 
ATOM      4  CAO 9B5 d   1      14.352  54.266  90.590  0.00  0.00     0.022 C 
ATOM      5  CBA 9B5 d   1      14.592  55.091  89.353  0.00  0.00     0.053 C 
ATOM      6  CAN 9B5 d   1      13.655  54.536  88.315  0.00  0.00    -0.012 C 
ATOM      7  CBC 9B5 d   1      12.449  53.996  89.068  0.00  0.00     0.094 C 
ATOM      8  H9  9B5 d   1      15.062  53.427  90.630  0.00  0.00     0.068 H 
ATOM      9  H10 9B5 d   1      14.468  54.888  91.490  0.00  0.00     0.068 H 
ATOM     10  H11 9B5 d   1      15.639  55.009  89.026  0.00  0.00     0.085 H 
ATOM     11  H13 9B5 d   1      14.146  53.727  87.753  0.00  0.00     0.040 H 
ATOM     12  H14 9B5 d   1      13.345  55.330  87.620  0.00  0.00     0.040 H 
ATOM     13  H15 9B5 d   1      11.622  54.721  89.077  0.00  0.00     0.088 H 
ENDROOT
BRANCH   7  14
ATOM     14  CAU 9B5 d   1      12.043  52.819  88.402  0.00  0.00     0.241 C 
ATOM     15  OAE 9B5 d   1      12.529  51.733  88.722  0.00  0.00    -0.271 OA
ATOM     16  NAQ 9B5 d   1      11.162  52.960  87.379  0.00  0.00    -0.355 N 
ATOM     17  H16 9B5 d   1      10.814  53.869  87.150  0.00  0.00     0.162 HD
BRANCH  16  18
ATOM     18  CAM 9B5 d   1      10.712  51.797  86.603  0.00  0.00     0.019 C 
ATOM     19  H17 9B5 d   1       9.659  51.936  86.319  0.00  0.00     0.071 H 
ATOM     20  H18 9B5 d   1      10.809  50.891  87.219  0.00  0.00     0.071 H 
BRANCH  18  21
ATOM     21  CAW 9B5 d   1      11.497  51.653  85.432  0.00  0.00    -0.040 A 
ATOM     22  CAI 9B5 d   1      12.311  52.666  84.901  0.00  0.00    -0.074 A 
ATOM     23  CAK 9B5 d   1      13.063  52.446  83.745  0.00  0.00    -0.071 A 
ATOM     24  H19 9B5 d   1      12.356  53.630  85.394  0.00  0.00     0.084 H 
ATOM     25  CAY 9B5 d   1      13.023  51.224  83.070  0.00  0.00    -0.017 A 
ATOM     26  H20 9B5 d   1      13.692  53.242  83.363  0.00  0.00     0.084 H 
ATOM     27  CAJ 9B5 d   1      12.222  50.205  83.603  0.00  0.00    -0.071 A 
ATOM     28  CAH 9B5 d   1      11.469  50.423  84.761  0.00  0.00    -0.074 A 
ATOM     29  H22 9B5 d   1      12.186  49.239  83.113  0.00  0.00     0.084 H 
ATOM     30  H21 9B5 d   1      10.850  49.622  85.148  0.00  0.00     0.084 H 
BRANCH  25  31
ATOM     31  CAZ 9B5 d   1      13.764  51.048  81.959  0.00  0.00     0.040 A 
ATOM     32  SAS 9B5 d   1      15.353  51.512  81.810  0.00  0.00    -0.080 SA
ATOM     33  CAL 9B5 d   1      15.542  50.987  80.252  0.00  0.00     0.041 A 
ATOM     34  NAP 9B5 d   1      14.375  50.464  79.855  0.00  0.00    -0.258 NA
ATOM     35  H23 9B5 d   1      16.451  51.055  79.657  0.00  0.00     0.126 H 
ATOM     36  CAX 9B5 d   1      13.400  50.497  80.782  0.00  0.00     0.049 A 
BRANCH  36  37
ATOM     37  CAB 9B5 d   1      12.013  49.927  80.444  0.00  0.00    -0.034 C 
ATOM     38  H24 9B5 d   1      12.014  49.547  79.412  0.00  0.00     0.035 H 
ATOM     39  H25 9B5 d   1      11.257  50.720  80.541  0.00  0.00     0.035 H 
ATOM     40  H26 9B5 d   1      11.775  49.106  81.137  0.00  0.00     0.035 H 
ENDBRANCH  36  37
ENDBRANCH  25  31
ENDBRANCH  18  21
ENDBRANCH  16  18
ENDBRANCH   7  14
BRANCH   1  41
ATOM     41  CA  9B5 d   1      12.921  52.987  92.863  0.00  0.00     0.086 C 
ATOM     42  H5  9B5 d   1      13.713  53.737  93.003  0.00  0.00     0.086 H 
BRANCH  41  43
ATOM     43  N   9B5 d   1      11.945  53.092  93.963  0.00  0.00    -0.348 N 
ATOM     44  CAT 9B5 d   1      11.506  54.283  94.416  0.00  0.00     0.214 C 
ATOM     45  OAD 9B5 d   1      11.861  55.377  93.979  0.00  0.00    -0.274 OA
ATOM     46  H4  9B5 d   1      11.598  52.255  94.386  0.00  0.00     0.163 HD
BRANCH  44  47
ATOM     47  CAA 9B5 d   1      10.491  54.202  95.553  0.00  0.00    -0.003 C 
ATOM     48  H1  9B5 d   1      10.303  53.147  95.802  0.00  0.00     0.040 H 
ATOM     49  H2  9B5 d   1       9.550  54.678  95.239  0.00  0.00     0.040 H 
ATOM     50  H3  9B5 d   1      10.888  54.722  96.437  0.00  0.00     0.040 H 
ENDBRANCH  44  47
ENDBRANCH  41  43
BRANCH  41  51
ATOM     51  CB  9B5 d   1      13.524  51.579  92.840  0.00  0.00    -0.049 C 
ATOM     52  H6  9B5 d   1      14.251  51.505  92.018  0.00  0.00     0.030 H 
ATOM     53  H7  9B5 d   1      12.724  50.840  92.689  0.00  0.00     0.030 H 
ATOM     54  H8  9B5 d   1      14.030  51.381  93.796  0.00  0.00     0.030 H 
ENDBRANCH  41  51
ENDBRANCH   1  41
BRANCH   5  55
ATOM     55  OAG 9B5 d   1      14.256  56.468  89.594  0.00  0.00    -0.394 OA
ATOM     56  H12 9B5 d   1      14.413  56.974  88.805  0.00  0.00     0.210 HD
ENDBRANCH   5  55
TORSDOF 10
