REMARK  15 active torsions:
REMARK  status: ('A' for Active; 'I' for Inactive)
REMARK    1  A    between atoms: CBL_3  and  CAY_4 
REMARK    2  A    between atoms: CBL_3  and  CBA_7 
REMARK    3  A    between atoms: CAY_4  and  CAA_6 
REMARK       I    between atoms: CBA_7  and  NAW_9 
REMARK    4  A    between atoms: NAW_9  and  CBI_10 
REMARK    5  A    between atoms: CBI_10  and  CBK_11 
REMARK    6  A    between atoms: CBI_10  and  CBB_15 
REMARK    7  A    between atoms: CBK_11  and  CAE_12 
REMARK    8  A    between atoms: CBK_11  and  CAC_13 
REMARK    9  A    between atoms: CBK_11  and  CAD_14 
REMARK       I    between atoms: CBB_15  and  N_17 
REMARK   10  A    between atoms: CG_19  and  OD1_20 
REMARK   11  A    between atoms: CA_22  and  C_23 
REMARK       I    between atoms: C_23  and  NAV_25 
REMARK   12  A    between atoms: NAV_25  and  CAR_26 
REMARK   13  A    between atoms: CAR_26  and  CBC_27 
REMARK   14  A    between atoms: CBE_32  and  CBF_33 
REMARK   15  A    between atoms: CBD_37  and  CAB_38 
ROOT
ATOM      1  CBB 9BN d   1      12.310  54.843  92.792  0.00  0.00     0.244 C 
ATOM      2  OAI 9BN d   1      11.127  54.677  92.465  0.00  0.00    -0.271 OA
ATOM      3  N   9BN d   1      13.294  55.072  91.881  0.00  0.00    -0.334 N 
ATOM      4  CD2 9BN d   1      14.764  55.348  92.048  0.00  0.00     0.022 C 
ATOM      5  CG  9BN d   1      15.117  56.234  90.878  0.00  0.00     0.053 C 
ATOM      6  CB  9BN d   1      14.286  55.675  89.759  0.00  0.00    -0.012 C 
ATOM      7  CA  9BN d   1      12.988  55.188  90.417  0.00  0.00     0.094 C 
ATOM      8  H19 9BN d   1      15.341  54.412  92.015  0.00  0.00     0.068 H 
ATOM      9  H20 9BN d   1      14.957  55.865  92.999  0.00  0.00     0.068 H 
ATOM     10  H21 9BN d   1      16.192  56.190  90.650  0.00  0.00     0.085 H 
ATOM     11  H23 9BN d   1      14.808  54.838  89.273  0.00  0.00     0.040 H 
ATOM     12  H24 9BN d   1      14.070  56.455  89.014  0.00  0.00     0.040 H 
ATOM     13  H25 9BN d   1      12.177  55.915  90.263  0.00  0.00     0.088 H 
ENDROOT
BRANCH   1  14
ATOM     14  CBI 9BN d   1      12.715  54.760  94.298  0.00  0.00     0.096 C 
ATOM     15  H9  9BN d   1      13.615  55.369  94.471  0.00  0.00     0.088 H 
BRANCH  14  16
ATOM     16  NAW 9BN d   1      11.590  55.297  95.079  0.00  0.00    -0.346 N 
ATOM     17  CBA 9BN d   1      11.583  56.503  95.678  0.00  0.00     0.234 C 
ATOM     18  OAH 9BN d   1      12.539  57.284  95.685  0.00  0.00    -0.272 OA
ATOM     19  H8  9BN d   1      10.774  54.727  95.171  0.00  0.00     0.163 HD
BRANCH  17  20
ATOM     20  CBL 9BN d   1      10.254  56.883  96.384  0.00  0.00     0.101 A 
ATOM     21  CAP 9BN d   1      10.323  57.348  97.834  0.00  0.00    -0.042 A 
ATOM     22  CAQ 9BN d   1      10.019  58.353  96.718  0.00  0.00    -0.042 A 
ATOM     23  H1  9BN d   1       9.534  57.058  98.543  0.00  0.00     0.035 H 
ATOM     24  H2  9BN d   1      11.291  57.381  98.356  0.00  0.00     0.035 H 
ATOM     25  H3  9BN d   1      10.768  59.108  96.438  0.00  0.00     0.035 H 
ATOM     26  H4  9BN d   1       9.011  58.784  96.625  0.00  0.00     0.035 H 
BRANCH  20  27
ATOM     27  CAY 9BN d   1       9.023  56.096  95.885  0.00  0.00     0.141 C 
ATOM     28  OAF 9BN d   1       9.152  55.150  95.103  0.00  0.00    -0.297 OA
BRANCH  27  29
ATOM     29  CAA 9BN d   1       7.628  56.538  96.378  0.00  0.00    -0.020 C 
ATOM     30  H5  9BN d   1       6.860  55.885  95.938  0.00  0.00     0.037 H 
ATOM     31  H6  9BN d   1       7.444  57.578  96.072  0.00  0.00     0.037 H 
ATOM     32  H7  9BN d   1       7.587  56.465  97.475  0.00  0.00     0.037 H 
ENDBRANCH  27  29
ENDBRANCH  20  27
ENDBRANCH  17  20
ENDBRANCH  14  16
BRANCH  14  33
ATOM     33  CBK 9BN d   1      13.006  53.289  94.733  0.00  0.00    -0.022 C 
BRANCH  33  34
ATOM     34  CAE 9BN d   1      11.753  52.396  94.712  0.00  0.00    -0.067 C 
ATOM     35  H10 9BN d   1      12.023  51.377  95.027  0.00  0.00     0.028 H 
ATOM     36  H11 9BN d   1      11.340  52.367  93.693  0.00  0.00     0.028 H 
ATOM     37  H12 9BN d   1      11.000  52.805  95.401  0.00  0.00     0.028 H 
ENDBRANCH  33  34
BRANCH  33  38
ATOM     38  CAC 9BN d   1      13.525  53.307  96.173  0.00  0.00    -0.067 C 
ATOM     39  H13 9BN d   1      14.425  53.938  96.231  0.00  0.00     0.028 H 
ATOM     40  H14 9BN d   1      13.775  52.282  96.486  0.00  0.00     0.028 H 
ATOM     41  H15 9BN d   1      12.749  53.714  96.838  0.00  0.00     0.028 H 
ENDBRANCH  33  38
BRANCH  33  42
ATOM     42  CAD 9BN d   1      14.072  52.628  93.824  0.00  0.00    -0.067 C 
ATOM     43  H16 9BN d   1      13.709  52.610  92.786  0.00  0.00     0.028 H 
ATOM     44  H17 9BN d   1      14.258  51.599  94.165  0.00  0.00     0.028 H 
ATOM     45  H18 9BN d   1      15.007  53.206  93.875  0.00  0.00     0.028 H 
ENDBRANCH  33  42
ENDBRANCH  14  33
ENDBRANCH   1  14
BRANCH   7  46
ATOM     46  C   9BN d   1      12.632  53.968  89.831  0.00  0.00     0.241 C 
ATOM     47  O   9BN d   1      13.133  52.924  90.242  0.00  0.00    -0.271 OA
ATOM     48  NAV 9BN d   1      11.794  54.068  88.761  0.00  0.00    -0.355 N 
ATOM     49  H26 9BN d   1      11.472  54.980  88.507  0.00  0.00     0.162 HD
BRANCH  48  50
ATOM     50  CAR 9BN d   1      11.324  52.919  87.945  0.00  0.00     0.019 C 
ATOM     51  H27 9BN d   1      10.279  53.100  87.654  0.00  0.00     0.071 H 
ATOM     52  H28 9BN d   1      11.382  52.007  88.558  0.00  0.00     0.071 H 
BRANCH  50  53
ATOM     53  CBC 9BN d   1      12.094  52.722  86.766  0.00  0.00    -0.040 A 
ATOM     54  CAK 9BN d   1      12.074  51.477  86.127  0.00  0.00    -0.074 A 
ATOM     55  CAM 9BN d   1      12.833  51.255  84.972  0.00  0.00    -0.071 A 
ATOM     56  H29 9BN d   1      11.465  50.676  86.531  0.00  0.00     0.084 H 
ATOM     57  CBE 9BN d   1      13.616  52.272  84.403  0.00  0.00    -0.017 A 
ATOM     58  H30 9BN d   1      12.816  50.276  84.507  0.00  0.00     0.084 H 
ATOM     59  CAN 9BN d   1      13.645  53.506  85.042  0.00  0.00    -0.071 A 
ATOM     60  CAL 9BN d   1      12.892  53.733  86.203  0.00  0.00    -0.074 A 
ATOM     61  H32 9BN d   1      14.258  54.303  84.638  0.00  0.00     0.084 H 
ATOM     62  H31 9BN d   1      12.926  54.708  86.676  0.00  0.00     0.084 H 
BRANCH  57  63
ATOM     63  CBF 9BN d   1      14.350  52.071  83.294  0.00  0.00     0.040 A 
ATOM     64  SAX 9BN d   1      15.990  52.478  83.103  0.00  0.00    -0.080 SA
ATOM     65  CAO 9BN d   1      16.098  51.909  81.539  0.00  0.00     0.041 A 
ATOM     66  NAU 9BN d   1      14.898  51.431  81.181  0.00  0.00    -0.258 NA
ATOM     67  H33 9BN d   1      16.991  51.923  80.915  0.00  0.00     0.126 H 
ATOM     68  CBD 9BN d   1      13.949  51.519  82.135  0.00  0.00     0.049 A 
BRANCH  68  69
ATOM     69  CAB 9BN d   1      12.538  51.003  81.858  0.00  0.00    -0.034 C 
ATOM     70  H34 9BN d   1      12.488  50.604  80.834  0.00  0.00     0.035 H 
ATOM     71  H35 9BN d   1      11.818  51.828  81.966  0.00  0.00     0.035 H 
ATOM     72  H36 9BN d   1      12.292  50.206  82.575  0.00  0.00     0.035 H 
ENDBRANCH  68  69
ENDBRANCH  57  63
ENDBRANCH  50  53
ENDBRANCH  48  50
ENDBRANCH   7  46
BRANCH   5  73
ATOM     73  OD1 9BN d   1      14.715  57.589  91.129  0.00  0.00    -0.394 OA
ATOM     74  H22 9BN d   1      15.159  57.911  91.904  0.00  0.00     0.210 HD
ENDBRANCH   5  73
TORSDOF 15
