REMARK WARNING: 32 MAX_TORS EXCEEDED!!!
REMARK  77 active torsions:
REMARK  status: ('A' for Active; 'I' for Inactive)
REMARK    1  A    between atoms: N_1  and  CA_2 
REMARK    2  A    between atoms: CA_2  and  C_3 
REMARK    3  A    between atoms: CA_2  and  CB_5 
REMARK       I    between atoms: C_3  and  N_8 
REMARK    4  A    between atoms: CB_5  and  OG1_6 
REMARK    5  A    between atoms: CB_5  and  CG2_7 
REMARK    6  A    between atoms: N_8  and  CA_9 
REMARK    7  A    between atoms: CA_9  and  C_10 
REMARK    8  A    between atoms: CA_9  and  CB_12 
REMARK       I    between atoms: C_10  and  N_15 
REMARK    9  A    between atoms: CB_12  and  OG1_13 
REMARK   10  A    between atoms: CB_12  and  CG2_14 
REMARK   11  A    between atoms: N_15  and  CA_16 
REMARK   12  A    between atoms: CA_16  and  C_17 
REMARK   13  A    between atoms: CA_16  and  CB_19 
REMARK       I    between atoms: C_17  and  N_27 
REMARK   14  A    between atoms: CB_19  and  CG_20 
REMARK   15  A    between atoms: CZ_25  and  OH_26 
REMARK   16  A    between atoms: N_27  and  CA_28 
REMARK   17  A    between atoms: CA_28  and  C_29 
REMARK   18  A    between atoms: CA_28  and  CB_31 
REMARK       I    between atoms: C_29  and  N_32 
REMARK   19  A    between atoms: N_32  and  CA_33 
REMARK   20  A    between atoms: CA_33  and  C_34 
REMARK   21  A    between atoms: CA_33  and  CB_36 
REMARK       I    between atoms: C_34  and  N_40 
REMARK   22  A    between atoms: CB_36  and  CG_37 
REMARK   23  A    between atoms: N_40  and  CA_41 
REMARK   24  A    between atoms: CA_41  and  C_42 
REMARK   25  A    between atoms: CA_41  and  CB_44 
REMARK       I    between atoms: C_42  and  N_51 
REMARK   26  A    between atoms: CB_44  and  CG_45 
REMARK   27  A    between atoms: N_51  and  CA_52 
REMARK   28  A    between atoms: CA_52  and  C_53 
REMARK   29  A    between atoms: CA_52  and  CB_55 
REMARK       I    between atoms: C_53  and  N_59 
REMARK   30  A    between atoms: CB_55  and  CG1_56 
REMARK   31  A    between atoms: CB_55  and  CG2_57 
REMARK   32  A    between atoms: CG1_56  and  CD1_58 
REMARK   33  A    between atoms: N_59  and  CA_60 
REMARK   34  A    between atoms: CA_60  and  C_61 
REMARK   35  A    between atoms: CA_60  and  CB_63 
REMARK       I    between atoms: C_61  and  N_64 
REMARK   36  A    between atoms: N_64  and  CA_65 
REMARK   37  A    between atoms: CA_65  and  C_66 
REMARK   38  A    between atoms: CA_65  and  CB_68 
REMARK       I    between atoms: C_66  and  N_70 
REMARK   39  A    between atoms: CB_68  and  OG_69 
REMARK   40  A    between atoms: N_70  and  CA_71 
REMARK   41  A    between atoms: CA_71  and  C_72 
REMARK       I    between atoms: C_72  and  N_74 
REMARK   42  A    between atoms: N_74  and  CA_75 
REMARK   43  A    between atoms: CA_75  and  C_76 
REMARK   44  A    between atoms: CA_75  and  CB_78 
REMARK       I    between atoms: C_76  and  N_85 
REMARK   45  A    between atoms: CB_78  and  CG_79 
REMARK   46  A    between atoms: CG_79  and  CD_80 
REMARK   47  A    between atoms: CD_80  and  NE_81 
REMARK       I    between atoms: NE_81  and  CZ_82 
REMARK       I    between atoms: CZ_82  and  NH1_83 
REMARK       I    between atoms: CZ_82  and  NH2_84 
REMARK   48  A    between atoms: N_85  and  CA_86 
REMARK   49  A    between atoms: CA_86  and  C_87 
REMARK   50  A    between atoms: CA_86  and  CB_89 
REMARK       I    between atoms: C_87  and  N_92 
REMARK   51  A    between atoms: CB_89  and  OG1_90 
REMARK   52  A    between atoms: CB_89  and  CG2_91 
REMARK   53  A    between atoms: N_92  and  CA_93 
REMARK   54  A    between atoms: CA_93  and  C_94 
REMARK       I    between atoms: C_94  and  N_96 
REMARK   55  A    between atoms: N_96  and  CA_97 
REMARK   56  A    between atoms: CA_97  and  C_98 
REMARK   57  A    between atoms: CA_97  and  CB_100 
REMARK       I    between atoms: C_98  and  N_102 
REMARK   58  A    between atoms: CB_100  and  OG_101 
REMARK   59  A    between atoms: N_102  and  CA_103 
REMARK   60  A    between atoms: CA_103  and  C_104 
REMARK   61  A    between atoms: CA_103  and  CB_106 
REMARK       I    between atoms: C_104  and  N_113 
REMARK   62  A    between atoms: CB_106  and  CG_107 
REMARK   63  A    between atoms: CG_107  and  CD_108 
REMARK   64  A    between atoms: CD_108  and  NE_109 
REMARK       I    between atoms: NE_109  and  CZ_110 
REMARK       I    between atoms: CZ_110  and  NH1_111 
REMARK   65  A    between atoms: N_113  and  CA_114 
REMARK   66  A    between atoms: CA_114  and  C_115 
REMARK   67  A    between atoms: CA_114  and  CB_117 
REMARK       I    between atoms: C_115  and  N_121 
REMARK   68  A    between atoms: CB_117  and  CG_118 
REMARK       I    between atoms: CG_118  and  ND2_120 
REMARK   69  A    between atoms: N_121  and  CA_122 
REMARK   70  A    between atoms: CA_122  and  C_123 
REMARK   71  A    between atoms: CA_122  and  CB_125 
REMARK       I    between atoms: C_123  and  N_126 
REMARK   72  A    between atoms: N_126  and  CA_127 
REMARK   73  A    between atoms: CA_127  and  C_128 
REMARK   74  A    between atoms: CA_127  and  CB_130 
REMARK   75  A    between atoms: CB_130  and  CG1_131 
REMARK   76  A    between atoms: CB_130  and  CG2_132 
REMARK   77  A    between atoms: CG1_131  and  CD1_133 
ROOT
ATOM      1  C   THR d   1     -10.433   6.599  23.769  0.00  0.00     0.242 C 
ATOM      2  O   THR d   1     -10.893   7.598  23.208  0.00  0.00    -0.271 OA
ATOM      3  N   THR d   1     -10.045   5.519  23.093  0.00  0.00    -0.350 N 
ATOM      4  H65 THR d   1      -9.815   4.680  23.587  0.00  0.00     0.163 HD
ENDROOT
BRANCH   1   5
ATOM      5  CA  THR d   1     -10.304   6.590  25.286  0.00  0.00     0.109 C 
ATOM      6  H61 THR d   1     -11.199   7.069  25.709  0.00  0.00     0.090 H 
BRANCH   5   7
ATOM      7  N   THR d   1     -10.217   5.240  25.839  0.00  0.00    -0.344 N 
ATOM      8  C   THR d   1     -11.256   4.400  25.734  0.00  0.00     0.240 C 
ATOM      9  O   THR d   1     -12.312   4.730  25.185  0.00  0.00    -0.271 OA
ATOM     10  H60 THR d   1      -9.380   4.942  26.297  0.00  0.00     0.163 HD
BRANCH   8  11
ATOM     11  CA  THR d   1     -11.118   2.985  26.296  0.00  0.00     0.086 C 
ATOM     12  H56 THR d   1     -11.565   2.293  25.567  0.00  0.00     0.086 H 
BRANCH  11  13
ATOM     13  N   THR d   1      -9.727   2.587  26.487  0.00  0.00    -0.346 N 
ATOM     14  C   THR d   1      -8.922   2.435  25.430  0.00  0.00     0.241 C 
ATOM     15  O   THR d   1      -9.309   2.659  24.277  0.00  0.00    -0.271 OA
ATOM     16  H55 THR d   1      -9.375   2.428  27.410  0.00  0.00     0.163 HD
BRANCH  14  17
ATOM     17  CA  THR d   1      -7.493   1.981  25.697  0.00  0.00     0.092 C 
ATOM     18  H45 THR d   1      -6.892   2.206  24.804  0.00  0.00     0.088 H 
BRANCH  17  19
ATOM     19  N   THR d   1      -6.923   2.718  26.821  0.00  0.00    -0.346 N 
ATOM     20  C   THR d   1      -6.879   4.053  26.788  0.00  0.00     0.241 C 
ATOM     21  O   THR d   1      -7.251   4.698  25.800  0.00  0.00    -0.271 OA
ATOM     22  H44 THR d   1      -6.566   2.224  27.614  0.00  0.00     0.163 HD
BRANCH  20  23
ATOM     23  CA  THR d   1      -6.322   4.761  28.016  0.00  0.00     0.093 C 
ATOM     24  H36 THR d   1      -6.490   5.842  27.898  0.00  0.00     0.088 H 
BRANCH  23  25
ATOM     25  N   THR d   1      -6.994   4.317  29.234  0.00  0.00    -0.346 N 
ATOM     26  C   THR d   1      -8.312   4.433  29.385  0.00  0.00     0.241 C 
ATOM     27  O   THR d   1      -9.024   5.019  28.562  0.00  0.00    -0.271 OA
ATOM     28  H35 THR d   1      -6.452   3.916  29.972  0.00  0.00     0.163 HD
BRANCH  26  29
ATOM     29  CA  THR d   1      -8.920   3.822  30.642  0.00  0.00     0.098 C 
ATOM     30  H32 THR d   1      -9.982   3.611  30.447  0.00  0.00     0.088 H 
BRANCH  29  31
ATOM     31  N   THR d   1      -8.255   2.567  30.984  0.00  0.00    -0.346 N 
ATOM     32  C   THR d   1      -8.322   1.519  30.158  0.00  0.00     0.240 C 
ATOM     33  O   THR d   1      -8.983   1.545  29.112  0.00  0.00    -0.271 OA
ATOM     34  H31 THR d   1      -7.746   2.492  31.842  0.00  0.00     0.163 HD
BRANCH  32  35
ATOM     35  CA  THR d   1      -7.554   0.265  30.559  0.00  0.00     0.086 C 
ATOM     36  H27 THR d   1      -7.371  -0.330  29.652  0.00  0.00     0.086 H 
BRANCH  35  37
ATOM     37  N   THR d   1      -6.261   0.606  31.150  0.00  0.00    -0.346 N 
ATOM     38  C   THR d   1      -5.346   1.263  30.426  0.00  0.00     0.241 C 
ATOM     39  O   THR d   1      -5.551   1.593  29.250  0.00  0.00    -0.271 OA
ATOM     40  H26 THR d   1      -6.060   0.348  32.095  0.00  0.00     0.163 HD
BRANCH  38  41
ATOM     41  CA  THR d   1      -4.021   1.595  31.101  0.00  0.00     0.093 C 
ATOM     42  H18 THR d   1      -3.511   2.361  30.498  0.00  0.00     0.088 H 
BRANCH  41  43
ATOM     43  N   THR d   1      -4.223   2.138  32.446  0.00  0.00    -0.346 N 
ATOM     44  C   THR d   1      -4.955   3.243  32.627  0.00  0.00     0.243 C 
ATOM     45  O   THR d   1      -5.439   3.871  31.677  0.00  0.00    -0.271 OA
ATOM     46  H17 THR d   1      -3.811   1.680  33.234  0.00  0.00     0.163 HD
BRANCH  44  47
ATOM     47  CA  THR d   1      -5.192   3.711  34.064  0.00  0.00     0.113 C 
ATOM     48  H11 THR d   1      -6.052   4.397  34.059  0.00  0.00     0.091 H 
BRANCH  47  49
ATOM     49  N   THR d   1      -5.514   2.591  34.944  0.00  0.00    -0.344 N 
ATOM     50  C   THR d   1      -6.575   1.819  34.689  0.00  0.00     0.251 C 
ATOM     51  O   THR d   1      -7.372   2.050  33.779  0.00  0.00    -0.271 OA
ATOM     52  H10 THR d   1      -4.939   2.401  35.740  0.00  0.00     0.163 HD
BRANCH  50  53
ATOM     53  CA  THR d   1      -6.773   0.609  35.603  0.00  0.00     0.199 C 
ATOM     54  H4  THR d   1      -6.658   0.937  36.647  0.00  0.00     0.103 H 
BRANCH  53  55
ATOM     55  N   THR d   1      -8.119   0.059  35.440  0.00  0.00    -0.064 N 
ATOM     56  H1  THR d   1      -8.801   0.774  35.639  0.00  0.00     0.275 HD
ATOM     57  H2  THR d   1      -8.246  -0.713  36.076  0.00  0.00     0.275 HD
ATOM     58  H3  THR d   1      -8.238  -0.263  34.492  0.00  0.00     0.275 HD
ENDBRANCH  53  55
BRANCH  53  59
ATOM     59  CB  THR d   1      -5.703  -0.450  35.308  0.00  0.00     0.068 C 
ATOM     60  H5  THR d   1      -4.710  -0.028  35.524  0.00  0.00     0.086 H 
BRANCH  59  61
ATOM     61  OG1 THR d   1      -5.768  -0.837  33.931  0.00  0.00    -0.393 OA
ATOM     62  H6  THR d   1      -5.103  -1.492  33.756  0.00  0.00     0.210 HD
ENDBRANCH  59  61
BRANCH  59  63
ATOM     63  CG2 THR d   1      -5.925  -1.689  36.173  0.00  0.00    -0.050 C 
ATOM     64  H7  THR d   1      -5.150  -2.437  35.949  0.00  0.00     0.031 H 
ATOM     65  H8  THR d   1      -6.917  -2.113  35.958  0.00  0.00     0.031 H 
ATOM     66  H9  THR d   1      -5.868  -1.409  37.235  0.00  0.00     0.031 H 
ENDBRANCH  59  63
ENDBRANCH  53  59
ENDBRANCH  50  53
ENDBRANCH  47  49
BRANCH  47  67
ATOM     67  CB  THR d   1      -3.975   4.476  34.593  0.00  0.00     0.060 C 
ATOM     68  H12 THR d   1      -3.085   3.831  34.546  0.00  0.00     0.086 H 
BRANCH  67  69
ATOM     69  OG1 THR d   1      -4.214   4.882  35.943  0.00  0.00    -0.393 OA
ATOM     70  H13 THR d   1      -3.458   5.356  36.269  0.00  0.00     0.210 HD
ENDBRANCH  67  69
BRANCH  67  71
ATOM     71  CG2 THR d   1      -3.752   5.725  33.764  0.00  0.00    -0.050 C 
ATOM     72  H14 THR d   1      -2.877   6.269  34.149  0.00  0.00     0.031 H 
ATOM     73  H15 THR d   1      -4.641   6.370  33.826  0.00  0.00     0.031 H 
ATOM     74  H16 THR d   1      -3.576   5.443  32.716  0.00  0.00     0.031 H 
ENDBRANCH  67  71
ENDBRANCH  47  67
ENDBRANCH  44  47
ENDBRANCH  41  43
BRANCH  41  75
ATOM     75  CB  THR d   1      -3.130   0.346  31.148  0.00  0.00    -0.014 C 
ATOM     76  H19 THR d   1      -3.612  -0.406  31.791  0.00  0.00     0.043 H 
ATOM     77  H20 THR d   1      -2.156   0.625  31.576  0.00  0.00     0.043 H 
BRANCH  75  78
ATOM     78  CG  THR d   1      -2.900  -0.265  29.772  0.00  0.00    -0.056 A 
ATOM     79  CD1 THR d   1      -2.253   0.457  28.776  0.00  0.00    -0.074 A 
ATOM     80  CE1 THR d   1      -2.048  -0.077  27.513  0.00  0.00    -0.051 A 
ATOM     81  H21 THR d   1      -1.901   1.459  28.991  0.00  0.00     0.084 H 
ATOM     82  CZ  THR d   1      -2.482  -1.355  27.234  0.00  0.00     0.065 A 
ATOM     83  H23 THR d   1      -1.549   0.508  26.749  0.00  0.00     0.087 H 
ATOM     84  CE2 THR d   1      -3.129  -2.100  28.207  0.00  0.00    -0.051 A 
ATOM     85  CD2 THR d   1      -3.336  -1.552  29.469  0.00  0.00    -0.074 A 
ATOM     86  H24 THR d   1      -3.472  -3.104  27.986  0.00  0.00     0.087 H 
ATOM     87  H22 THR d   1      -3.844  -2.136  30.228  0.00  0.00     0.084 H 
BRANCH  82  88
ATOM     88  OH  THR d   1      -2.257  -1.882  25.976  0.00  0.00    -0.361 OA
ATOM     89  H25 THR d   1      -1.806  -1.240  25.441  0.00  0.00     0.217 HD
ENDBRANCH  82  88
ENDBRANCH  75  78
ENDBRANCH  41  75
ENDBRANCH  38  41
ENDBRANCH  35  37
BRANCH  35  90
ATOM     90  CB  THR d   1      -8.379  -0.582  31.532  0.00  0.00    -0.049 C 
ATOM     91  H28 THR d   1      -9.347  -0.830  31.073  0.00  0.00     0.030 H 
ATOM     92  H29 THR d   1      -8.547  -0.015  32.460  0.00  0.00     0.030 H 
ATOM     93  H30 THR d   1      -7.835  -1.510  31.763  0.00  0.00     0.030 H 
ENDBRANCH  35  90
ENDBRANCH  32  35
ENDBRANCH  29  31
BRANCH  29  94
ATOM     94  CB  THR d   1      -8.827   4.808  31.810  0.00  0.00     0.043 C 
ATOM     95  H33 THR d   1      -9.275   5.763  31.498  0.00  0.00     0.052 H 
ATOM     96  H34 THR d   1      -7.765   4.963  32.052  0.00  0.00     0.052 H 
BRANCH  94  97
ATOM     97  CG  THR d   1      -9.548   4.321  33.072  0.00  0.00     0.175 C 
ATOM     98  OD1 THR d   1     -10.347   3.363  33.004  0.00  0.00    -0.648 OA
ATOM     99  OD2 THR d   1      -9.300   4.917  34.145  0.00  0.00    -0.648 OA
ENDBRANCH  94  97
ENDBRANCH  29  94
ENDBRANCH  26  29
ENDBRANCH  23  25
BRANCH  23 100
ATOM    100  CB  THR d   1      -4.814   4.509  28.141  0.00  0.00    -0.014 C 
ATOM    101  H37 THR d   1      -4.653   3.428  28.264  0.00  0.00     0.043 H 
ATOM    102  H38 THR d   1      -4.448   5.038  29.033  0.00  0.00     0.043 H 
BRANCH 100 103
ATOM    103  CG  THR d   1      -4.016   4.973  26.957  0.00  0.00    -0.056 A 
ATOM    104  CD1 THR d   1      -4.190   6.247  26.445  0.00  0.00    -0.077 A 
ATOM    105  CE1 THR d   1      -3.447   6.682  25.354  0.00  0.00    -0.082 A 
ATOM    106  H39 THR d   1      -4.914   6.913  26.900  0.00  0.00     0.084 H 
ATOM    107  CZ  THR d   1      -2.517   5.845  24.774  0.00  0.00    -0.083 A 
ATOM    108  H41 THR d   1      -3.599   7.680  24.959  0.00  0.00     0.083 H 
ATOM    109  CE2 THR d   1      -2.334   4.562  25.275  0.00  0.00    -0.082 A 
ATOM    110  H43 THR d   1      -1.930   6.187  23.929  0.00  0.00     0.083 H 
ATOM    111  CD2 THR d   1      -3.079   4.135  26.360  0.00  0.00    -0.077 A 
ATOM    112  H42 THR d   1      -1.610   3.898  24.817  0.00  0.00     0.083 H 
ATOM    113  H40 THR d   1      -2.931   3.135  26.750  0.00  0.00     0.084 H 
ENDBRANCH 100 103
ENDBRANCH  23 100
ENDBRANCH  20  23
ENDBRANCH  17  19
BRANCH  17 114
ATOM    114  CB  THR d   1      -7.433   0.460  25.938  0.00  0.00    -0.030 C 
ATOM    115  H46 THR d   1      -8.174   0.189  26.704  0.00  0.00     0.043 H 
BRANCH 114 116
ATOM    116  CG1 THR d   1      -6.043   0.023  26.407  0.00  0.00    -0.063 C 
ATOM    117  H47 THR d   1      -6.034  -1.073  26.503  0.00  0.00     0.033 H 
ATOM    118  H48 THR d   1      -5.845   0.479  27.388  0.00  0.00     0.033 H 
BRANCH 116 119
ATOM    119  CD1 THR d   1      -4.941   0.433  25.453  0.00  0.00    -0.076 C 
ATOM    120  H52 THR d   1      -3.971   0.091  25.844  0.00  0.00     0.027 H 
ATOM    121  H53 THR d   1      -4.931   1.528  25.353  0.00  0.00     0.027 H 
ATOM    122  H54 THR d   1      -5.120  -0.023  24.468  0.00  0.00     0.027 H 
ENDBRANCH 116 119
ENDBRANCH 114 116
BRANCH 114 123
ATOM    123  CG2 THR d   1      -7.750  -0.254  24.654  0.00  0.00    -0.071 C 
ATOM    124  H49 THR d   1      -8.747   0.049  24.302  0.00  0.00     0.028 H 
ATOM    125  H50 THR d   1      -7.736  -1.340  24.826  0.00  0.00     0.028 H 
ATOM    126  H51 THR d   1      -6.998   0.007  23.894  0.00  0.00     0.028 H 
ENDBRANCH 114 123
ENDBRANCH  17 114
ENDBRANCH  14  17
ENDBRANCH  11  13
BRANCH  11 127
ATOM    127  CB  THR d   1     -11.895   2.857  27.611  0.00  0.00    -0.049 C 
ATOM    128  H57 THR d   1     -12.940   3.160  27.450  0.00  0.00     0.030 H 
ATOM    129  H58 THR d   1     -11.438   3.506  28.372  0.00  0.00     0.030 H 
ATOM    130  H59 THR d   1     -11.865   1.812  27.954  0.00  0.00     0.030 H 
ENDBRANCH  11 127
ENDBRANCH   8  11
ENDBRANCH   5   7
BRANCH   5 131
ATOM    131  CB  THR d   1      -9.077   7.417  25.679  0.00  0.00     0.044 C 
ATOM    132  H62 THR d   1      -8.851   7.239  26.741  0.00  0.00     0.077 H 
ATOM    133  H63 THR d   1      -9.300   8.483  25.525  0.00  0.00     0.077 H 
BRANCH 131 134
ATOM    134  OG  THR d   1      -7.944   7.066  24.902  0.00  0.00    -0.398 OA
ATOM    135  H64 THR d   1      -7.743   6.147  25.034  0.00  0.00     0.209 HD
ENDBRANCH 131 134
ENDBRANCH   5 131
ENDBRANCH   1   5
BRANCH   3 136
ATOM    136  CA  THR d   1      -9.955   5.551  21.653  0.00  0.00     0.069 C 
ATOM    137  H66 THR d   1     -10.916   5.915  21.260  0.00  0.00     0.078 H 
ATOM    138  H67 THR d   1      -9.779   4.524  21.300  0.00  0.00     0.078 H 
BRANCH 136 139
ATOM    139  C   THR d   1      -8.856   6.433  21.096  0.00  0.00     0.236 C 
ATOM    140  O   THR d   1      -8.793   6.612  19.880  0.00  0.00    -0.272 OA
ATOM    141  N   THR d   1      -7.989   6.994  21.939  0.00  0.00    -0.346 N 
ATOM    142  H68 THR d   1      -8.088   6.847  22.923  0.00  0.00     0.163 HD
BRANCH 141 143
ATOM    143  CA  THR d   1      -6.895   7.822  21.435  0.00  0.00     0.089 C 
ATOM    144  H69 THR d   1      -7.062   7.987  20.360  0.00  0.00     0.087 H 
BRANCH 143 145
ATOM    145  C   THR d   1      -5.550   7.116  21.592  0.00  0.00     0.241 C 
ATOM    146  O   THR d   1      -4.568   7.716  22.044  0.00  0.00    -0.271 OA
ATOM    147  N   THR d   1      -5.494   5.838  21.201  0.00  0.00    -0.344 N 
ATOM    148  H81 THR d   1      -6.326   5.394  20.868  0.00  0.00     0.163 HD
BRANCH 147 149
ATOM    149  CA  THR d   1      -4.254   5.076  21.248  0.00  0.00     0.113 C 
ATOM    150  H82 THR d   1      -3.615   5.520  22.026  0.00  0.00     0.091 H 
BRANCH 149 151
ATOM    151  C   THR d   1      -3.489   5.112  19.931  0.00  0.00     0.243 C 
ATOM    152  O   THR d   1      -2.324   4.688  19.892  0.00  0.00    -0.271 OA
ATOM    153  N   THR d   1      -4.125   5.566  18.852  0.00  0.00    -0.350 N 
ATOM    154  H88 THR d   1      -5.087   5.828  18.930  0.00  0.00     0.163 HD
BRANCH 153 155
ATOM    155  CA  THR d   1      -3.467   5.691  17.572  0.00  0.00     0.069 C 
ATOM    156  H89 THR d   1      -4.221   5.615  16.775  0.00  0.00     0.078 H 
ATOM    157  H90 THR d   1      -2.738   4.874  17.465  0.00  0.00     0.078 H 
BRANCH 155 158
ATOM    158  C   THR d   1      -2.742   7.017  17.437  0.00  0.00     0.236 C 
ATOM    159  O   THR d   1      -2.690   7.834  18.359  0.00  0.00    -0.272 OA
ATOM    160  N   THR d   1      -2.165   7.222  16.256  0.00  0.00    -0.344 N 
ATOM    161  H91 THR d   1      -2.244   6.536  15.533  0.00  0.00     0.163 HD
BRANCH 160 162
ATOM    162  CA  THR d   1      -1.420   8.446  16.021  0.00  0.00     0.109 C 
ATOM    163  H92 THR d   1      -0.682   8.563  16.828  0.00  0.00     0.090 H 
BRANCH 162 164
ATOM    164  C   THR d   1      -2.368   9.637  16.065  0.00  0.00     0.243 C 
ATOM    165  O   THR d   1      -3.501   9.578  15.584  0.00  0.00    -0.271 OA
ATOM    166  N   THR d   1      -1.913  10.707  16.693  0.00  0.00    -0.346 N 
ATOM    167  H96 THR d   1      -0.944  10.747  16.935  0.00  0.00     0.163 HD
BRANCH 166 168
ATOM    168  CA  THR d   1      -2.767  11.824  17.044  0.00  0.00     0.089 C 
ATOM    169  H97 THR d   1      -3.819  11.523  16.927  0.00  0.00     0.087 H 
BRANCH 168 170
ATOM    170  C   THR d   1      -2.480  12.973  16.092  0.00  0.00     0.241 C 
ATOM    171  O   THR d   1      -1.317  13.267  15.800  0.00  0.00    -0.271 OA
ATOM    172  N   THR d   1      -3.538  13.575  15.566  0.00  0.00    -0.346 N 
ATOM    173 9H10 THR d   1      -4.449  13.221  15.777  0.00  0.00     0.163 HD
BRANCH 172 174
ATOM    174  CA  THR d   1      -3.419  14.733  14.693  0.00  0.00     0.097 C 
ATOM    175 0H11 THR d   1      -2.514  14.617  14.079  0.00  0.00     0.088 H 
BRANCH 174 176
ATOM    176  C   THR d   1      -3.311  16.011  15.502  0.00  0.00     0.241 C 
ATOM    177  O   THR d   1      -3.933  16.155  16.556  0.00  0.00    -0.271 OA
ATOM    178  N   THR d   1      -2.553  16.962  14.965  0.00  0.00    -0.346 N 
ATOM    179 5H11 THR d   1      -1.951  16.747  14.196  0.00  0.00     0.163 HD
BRANCH 178 180
ATOM    180  CA  THR d   1      -2.598  18.315  15.495  0.00  0.00     0.086 C 
ATOM    181 6H11 THR d   1      -2.349  18.284  16.566  0.00  0.00     0.086 H 
BRANCH 180 182
ATOM    182  C   THR d   1      -4.003  18.893  15.335  0.00  0.00     0.240 C 
ATOM    183  O   THR d   1      -4.780  18.465  14.474  0.00  0.00    -0.271 OA
ATOM    184  N   THR d   1      -4.335  19.869  16.181  0.00  0.00    -0.344 N 
ATOM    185 0H12 THR d   1      -3.684  20.161  16.882  0.00  0.00     0.163 HD
BRANCH 184 186
ATOM    186  CA  THR d   1      -5.639  20.514  16.093  0.00  0.00     0.099 C 
ATOM    187 1H12 THR d   1      -6.399  19.736  15.929  0.00  0.00     0.090 H 
BRANCH 186 188
ATOM    188  C   THR d   1      -5.643  21.460  14.895  0.00  0.00     0.197 C 
ATOM    189  O   THR d   1      -6.681  21.730  14.296  0.00  0.00    -0.646 OA
ATOM    190  OXT THR d   1      -4.599  21.980  14.500  0.00  0.00    -0.646 OA
ENDBRANCH 186 188
BRANCH 186 191
ATOM    191  CB  THR d   1      -6.010  21.281  17.397  0.00  0.00    -0.029 C 
ATOM    192 2H12 THR d   1      -7.036  21.661  17.287  0.00  0.00     0.043 H 
BRANCH 191 193
ATOM    193  CG1 THR d   1      -5.084  22.473  17.606  0.00  0.00    -0.063 C 
ATOM    194 3H12 THR d   1      -5.261  23.197  16.797  0.00  0.00     0.033 H 
ATOM    195 4H12 THR d   1      -4.044  22.118  17.559  0.00  0.00     0.033 H 
BRANCH 193 196
ATOM    196  CD1 THR d   1      -5.288  23.169  18.918  0.00  0.00    -0.076 C 
ATOM    197 8H12 THR d   1      -4.588  24.014  18.997  0.00  0.00     0.027 H 
ATOM    198 9H12 THR d   1      -5.104  22.462  19.741  0.00  0.00     0.027 H 
ATOM    199 0H13 THR d   1      -6.321  23.541  18.979  0.00  0.00     0.027 H 
ENDBRANCH 193 196
ENDBRANCH 191 193
BRANCH 191 200
ATOM    200  CG2 THR d   1      -5.977  20.359  18.604  0.00  0.00    -0.070 C 
ATOM    201 5H12 THR d   1      -6.651  19.507  18.433  0.00  0.00     0.028 H 
ATOM    202 6H12 THR d   1      -6.304  20.912  19.497  0.00  0.00     0.028 H 
ATOM    203 7H12 THR d   1      -4.952  19.991  18.756  0.00  0.00     0.028 H 
ENDBRANCH 191 200
ENDBRANCH 186 191
ENDBRANCH 184 186
ENDBRANCH 180 182
BRANCH 180 204
ATOM    204  CB  THR d   1      -1.577  19.193  14.781  0.00  0.00    -0.049 C 
ATOM    205 7H11 THR d   1      -1.621  20.213  15.190  0.00  0.00     0.030 H 
ATOM    206 8H11 THR d   1      -1.805  19.220  13.705  0.00  0.00     0.030 H 
ATOM    207 9H11 THR d   1      -0.569  18.780  14.932  0.00  0.00     0.030 H 
ENDBRANCH 180 204
ENDBRANCH 178 180
ENDBRANCH 174 176
BRANCH 174 208
ATOM    208  CB  THR d   1      -4.632  14.858  13.776  0.00  0.00     0.036 C 
ATOM    209 1H11 THR d   1      -4.525  15.771  13.172  0.00  0.00     0.051 H 
ATOM    210 2H11 THR d   1      -5.537  14.932  14.396  0.00  0.00     0.051 H 
BRANCH 208 211
ATOM    211  CG  THR d   1      -4.775  13.693  12.860  0.00  0.00     0.217 C 
ATOM    212  OD1 THR d   1      -3.829  13.308  12.178  0.00  0.00    -0.274 OA
ATOM    213  ND2 THR d   1      -5.954  13.101  12.850  0.00  0.00    -0.370 N 
ATOM    214 3H11 THR d   1      -6.113  12.313  12.256  0.00  0.00     0.159 HD
ATOM    215 4H11 THR d   1      -6.689  13.441  13.437  0.00  0.00     0.159 HD
ENDBRANCH 208 211
ENDBRANCH 174 208
ENDBRANCH 172 174
ENDBRANCH 168 170
BRANCH 168 216
ATOM    216  CB  THR d   1      -2.537  12.222  18.506  0.00  0.00    -0.036 C 
ATOM    217  H98 THR d   1      -3.119  13.129  18.726  0.00  0.00     0.036 H 
ATOM    218  H99 THR d   1      -1.467  12.428  18.657  0.00  0.00     0.036 H 
BRANCH 216 219
ATOM    219  CG  THR d   1      -2.973  11.100  19.470  0.00  0.00    -0.048 C 
ATOM    220 0H10 THR d   1      -2.785  10.133  18.980  0.00  0.00     0.035 H 
ATOM    221 1H10 THR d   1      -4.050  11.211  19.663  0.00  0.00     0.035 H 
BRANCH 219 222
ATOM    222  CD  THR d   1      -2.247  11.106  20.807  0.00  0.00     0.009 C 
ATOM    223 2H10 THR d   1      -2.703  10.345  21.458  0.00  0.00     0.064 H 
ATOM    224 3H10 THR d   1      -2.364  12.099  21.266  0.00  0.00     0.064 H 
BRANCH 222 225
ATOM    225  NE  THR d   1      -0.816  10.815  20.677  0.00  0.00    -0.227 N 
ATOM    226  CZ  THR d   1      -0.014  10.550  21.705  0.00  0.00     0.665 C 
ATOM    227  NH1 THR d   1      -0.510  10.541  22.936  0.00  0.00    -0.235 N 
ATOM    228  NH2 THR d   1       1.284  10.308  21.508  0.00  0.00    -0.235 N 
ATOM    229 5H10 THR d   1       0.104  10.337  23.737  0.00  0.00     0.174 HD
ATOM    230 6H10 THR d   1      -1.509  10.738  23.090  0.00  0.00     0.174 HD
ATOM    231 7H10 THR d   1       1.670  10.315  20.553  0.00  0.00     0.174 HD
ATOM    232 8H10 THR d   1       1.899  10.115  22.311  0.00  0.00     0.174 HD
ATOM    233 4H10 THR d   1      -0.406  10.816  19.732  0.00  0.00     0.177 HD
ENDBRANCH 222 225
ENDBRANCH 219 222
ENDBRANCH 216 219
ENDBRANCH 168 216
ENDBRANCH 166 168
ENDBRANCH 162 164
BRANCH 162 234
ATOM    234  CB  THR d   1      -0.661   8.379  14.693  0.00  0.00     0.044 C 
ATOM    235  H93 THR d   1       0.025   7.519  14.723  0.00  0.00     0.077 H 
ATOM    236  H94 THR d   1      -0.082   9.306  14.572  0.00  0.00     0.077 H 
BRANCH 234 237
ATOM    237  OG  THR d   1      -1.521   8.234  13.579  0.00  0.00    -0.398 OA
ATOM    238  H95 THR d   1      -2.113   8.976  13.539  0.00  0.00     0.209 HD
ENDBRANCH 234 237
ENDBRANCH 162 234
ENDBRANCH 160 162
ENDBRANCH 155 158
ENDBRANCH 153 155
ENDBRANCH 149 151
BRANCH 149 239
ATOM    239  CB  THR d   1      -4.539   3.611  21.625  0.00  0.00     0.060 C 
ATOM    240  H83 THR d   1      -3.594   3.048  21.617  0.00  0.00     0.086 H 
BRANCH 239 241
ATOM    241  OG1 THR d   1      -5.444   3.036  20.674  0.00  0.00    -0.393 OA
ATOM    242  H84 THR d   1      -6.258   3.527  20.676  0.00  0.00     0.210 HD
ENDBRANCH 239 241
BRANCH 239 243
ATOM    243  CG2 THR d   1      -5.159   3.526  23.009  0.00  0.00    -0.050 C 
ATOM    244  H85 THR d   1      -5.355   2.473  23.259  0.00  0.00     0.031 H 
ATOM    245  H86 THR d   1      -6.105   4.088  23.022  0.00  0.00     0.031 H 
ATOM    246  H87 THR d   1      -4.467   3.956  23.748  0.00  0.00     0.031 H 
ENDBRANCH 239 243
ENDBRANCH 149 239
ENDBRANCH 147 149
ENDBRANCH 143 145
BRANCH 143 247
ATOM    247  CB  THR d   1      -6.903   9.195  22.130  0.00  0.00    -0.036 C 
ATOM    248  H70 THR d   1      -6.018   9.765  21.812  0.00  0.00     0.036 H 
ATOM    249  H71 THR d   1      -6.872   9.047  23.220  0.00  0.00     0.036 H 
BRANCH 247 250
ATOM    250  CG  THR d   1      -8.172   9.989  21.765  0.00  0.00    -0.048 C 
ATOM    251  H72 THR d   1      -9.045   9.430  22.132  0.00  0.00     0.035 H 
ATOM    252  H73 THR d   1      -8.223  10.071  20.669  0.00  0.00     0.035 H 
BRANCH 250 253
ATOM    253  CD  THR d   1      -8.225  11.395  22.352  0.00  0.00     0.009 C 
ATOM    254  H74 THR d   1      -8.141  11.324  23.447  0.00  0.00     0.064 H 
ATOM    255  H75 THR d   1      -9.190  11.852  22.087  0.00  0.00     0.064 H 
BRANCH 253 256
ATOM    256  NE  THR d   1      -7.153  12.246  21.856  0.00  0.00    -0.227 N 
ATOM    257  CZ  THR d   1      -7.198  12.969  20.737  0.00  0.00     0.665 C 
ATOM    258  NH1 THR d   1      -8.278  12.962  19.960  0.00  0.00    -0.235 N 
ATOM    259  NH2 THR d   1      -6.151  13.721  20.399  0.00  0.00    -0.235 N 
ATOM    260  H77 THR d   1      -8.296  13.526  19.099  0.00  0.00     0.174 HD
ATOM    261  H78 THR d   1      -9.096  12.392  20.220  0.00  0.00     0.174 HD
ATOM    262  H79 THR d   1      -5.311  13.732  20.995  0.00  0.00     0.174 HD
ATOM    263  H80 THR d   1      -6.182  14.291  19.542  0.00  0.00     0.174 HD
ATOM    264  H76 THR d   1      -6.289  12.293  22.415  0.00  0.00     0.177 HD
ENDBRANCH 253 256
ENDBRANCH 250 253
ENDBRANCH 247 250
ENDBRANCH 143 247
ENDBRANCH 141 143
ENDBRANCH 136 139
ENDBRANCH   3 136
TORSDOF 77
