REMARK  6 active torsions:
REMARK  status: ('A' for Active; 'I' for Inactive)
REMARK    1  A    between atoms: OAE_1  and  CAD_2 
REMARK    2  A    between atoms: CAD_2  and  CAC_3 
REMARK    3  A    between atoms: CAC_3  and  NAB_4 
REMARK    4  A    between atoms: NAB_4  and  CAA_5 
REMARK    5  A    between atoms: NAB_4  and  CAF_6 
REMARK    6  A    between atoms: CAI_11  and  CAL_12 
ROOT
ATOM      1  CAF 9C5 d   1       6.280  38.541   8.022  0.00  0.00     0.029 A 
ATOM      2  CAK 9C5 d   1       5.803  37.302   8.426  0.00  0.00    -0.057 A 
ATOM      3  CAJ 9C5 d   1       5.911  36.893   9.757  0.00  0.00    -0.067 A 
ATOM      4  CAG 9C5 d   1       6.880  39.362   8.964  0.00  0.00    -0.057 A 
ATOM      5  CAH 9C5 d   1       6.988  38.957  10.295  0.00  0.00    -0.067 A 
ATOM      6  CAI 9C5 d   1       6.533  37.704  10.699  0.00  0.00     0.010 A 
ATOM      7  H9  9C5 d   1       5.341  36.644   7.699  0.00  0.00     0.086 H 
ATOM      8  H10 9C5 d   1       5.506  35.934  10.058  0.00  0.00     0.085 H 
ATOM      9  H11 9C5 d   1       7.269  40.328   8.664  0.00  0.00     0.086 H 
ATOM     10  H12 9C5 d   1       7.431  39.626  11.024  0.00  0.00     0.085 H 
ENDROOT
BRANCH   6  11
ATOM     11  CAL 9C5 d   1       6.589  37.332  12.047  0.00  0.00     0.141 A 
ATOM     12  NAM 9C5 d   1       5.767  36.382  12.499  0.00  0.00    -0.230 NA
ATOM     13  CAN 9C5 d   1       5.756  36.032  13.794  0.00  0.00     0.074 A 
ATOM     14  CAS 9C5 d   1       4.890  35.020  14.190  0.00  0.00    -0.054 A 
ATOM     15  CAO 9C5 d   1       6.554  36.688  14.731  0.00  0.00     0.061 A 
ATOM     16  CAR 9C5 d   1       4.836  34.646  15.521  0.00  0.00    -0.081 A 
ATOM     17  H13 9C5 d   1       4.260  34.526  13.460  0.00  0.00     0.087 H 
ATOM     18  CAQ 9C5 d   1       5.638  35.289  16.458  0.00  0.00    -0.082 A 
ATOM     19  H14 9C5 d   1       4.168  33.851  15.834  0.00  0.00     0.083 H 
ATOM     20  CAP 9C5 d   1       6.504  36.306  16.064  0.00  0.00    -0.065 A 
ATOM     21  H15 9C5 d   1       5.589  34.997  17.501  0.00  0.00     0.083 H 
ATOM     22  H16 9C5 d   1       7.136  36.797  16.795  0.00  0.00     0.085 H 
ATOM     23  CAT 9C5 d   1       7.423  37.692  14.296  0.00  0.00     0.259 A 
ATOM     24  OAU 9C5 d   1       8.179  38.304  15.056  0.00  0.00    -0.267 OA
ATOM     25  NAV 9C5 d   1       7.406  38.018  12.950  0.00  0.00    -0.307 N 
ATOM     26  H17 9C5 d   1       7.990  38.759  12.618  0.00  0.00     0.170 HD
ENDBRANCH   6  11
BRANCH   1  27
ATOM     27  NAB 9C5 d   1       6.181  38.926   6.739  0.00  0.00    -0.383 N 
BRANCH  27  28
ATOM     28  CAC 9C5 d   1       6.421  37.988   5.635  0.00  0.00     0.014 C 
ATOM     29  H4  9C5 d   1       7.066  38.436   4.865  0.00  0.00     0.067 H 
ATOM     30  H5  9C5 d   1       6.877  37.055   5.997  0.00  0.00     0.067 H 
BRANCH  28  31
ATOM     31  CAD 9C5 d   1       5.054  37.751   5.118  0.00  0.00     0.031 C 
ATOM     32  H2  9C5 d   1       5.077  37.198   4.167  0.00  0.00     0.076 H 
ATOM     33  H3  9C5 d   1       4.441  37.201   5.847  0.00  0.00     0.076 H 
BRANCH  31  34
ATOM     34  OAE 9C5 d   1       4.578  39.053   4.936  0.00  0.00    -0.399 OA
ATOM     35  H1  9C5 d   1       3.690  39.020   4.600  0.00  0.00     0.209 HD
ENDBRANCH  31  34
ENDBRANCH  28  31
ENDBRANCH  27  28
BRANCH  27  36
ATOM     36  CAA 9C5 d   1       5.934  40.347   6.457  0.00  0.00    -0.018 C 
ATOM     37  H6  9C5 d   1       5.777  40.887   7.403  0.00  0.00     0.056 H 
ATOM     38  H7  9C5 d   1       5.038  40.445   5.826  0.00  0.00     0.056 H 
ATOM     39  H8  9C5 d   1       6.801  40.773   5.931  0.00  0.00     0.056 H 
ENDBRANCH  27  36
ENDBRANCH   1  27
TORSDOF 6
