REMARK  2 active torsions:
REMARK  status: ('A' for Active; 'I' for Inactive)
REMARK    1  A    between atoms: CAH_11  and  CAG_12 
REMARK    2  A    between atoms: CAB_17  and  NAA_18 
ROOT
ATOM      1  NAR 9CE d   1       7.428  37.947  12.841  0.00  0.00    -0.306 N 
ATOM      2  CAP 9CE d   1       7.404  37.657  14.190  0.00  0.00     0.259 A 
ATOM      3  OAQ 9CE d   1       8.154  38.301  14.925  0.00  0.00    -0.267 OA
ATOM      4  CAK 9CE d   1       6.533  36.655  14.642  0.00  0.00     0.061 A 
ATOM      5  CAL 9CE d   1       6.450  36.296  15.993  0.00  0.00    -0.065 A 
ATOM      6  CAM 9CE d   1       5.581  35.280  16.393  0.00  0.00    -0.082 A 
ATOM      7  CAN 9CE d   1       4.815  34.611  15.435  0.00  0.00    -0.081 A 
ATOM      8  CAO 9CE d   1       4.898  34.962  14.095  0.00  0.00    -0.054 A 
ATOM      9  CAJ 9CE d   1       5.769  35.970  13.689  0.00  0.00     0.074 A 
ATOM     10  NAI 9CE d   1       5.804  36.293  12.370  0.00  0.00    -0.229 NA
ATOM     11  CAH 9CE d   1       6.623  37.257  11.907  0.00  0.00     0.143 A 
ATOM     12  H1  9CE d   1       8.036  38.670  12.513  0.00  0.00     0.170 HD
ATOM     13  H2  9CE d   1       7.061  36.807  16.728  0.00  0.00     0.085 H 
ATOM     14  H3  9CE d   1       5.501  35.012  17.440  0.00  0.00     0.083 H 
ATOM     15  H4  9CE d   1       4.150  33.811  15.741  0.00  0.00     0.083 H 
ATOM     16  H5  9CE d   1       4.284  34.451  13.363  0.00  0.00     0.087 H 
ENDROOT
BRANCH  11  17
ATOM     17  CAG 9CE d   1       6.618  37.616  10.529  0.00  0.00     0.036 A 
ATOM     18  CAF 9CE d   1       7.081  38.893  10.141  0.00  0.00    -0.067 A 
ATOM     19  CAE 9CE d   1       7.048  39.330   8.814  0.00  0.00    -0.082 A 
ATOM     20  H6  9CE d   1       7.476  39.558  10.900  0.00  0.00     0.085 H 
ATOM     21  CAD 9CE d   1       6.519  38.517   7.831  0.00  0.00    -0.081 A 
ATOM     22  H7  9CE d   1       7.438  40.308   8.556  0.00  0.00     0.083 H 
ATOM     23  CAC 9CE d   1       6.016  37.274   8.175  0.00  0.00    -0.057 A 
ATOM     24  H8  9CE d   1       6.498  38.849   6.799  0.00  0.00     0.083 H 
ATOM     25  CAB 9CE d   1       6.047  36.826   9.504  0.00  0.00     0.039 A 
ATOM     26  H9  9CE d   1       5.592  36.638   7.407  0.00  0.00     0.086 H 
BRANCH  25  27
ATOM     27  NAA 9CE d   1       5.572  35.605   9.781  0.00  0.00    -0.398 N 
ATOM     28  H10 9CE d   1       5.585  35.255  10.750  0.00  0.00     0.156 HD
ATOM     29  H11 9CE d   1       5.194  35.016   9.025  0.00  0.00     0.156 HD
ENDBRANCH  25  27
ENDBRANCH  11  17
TORSDOF 2
