REMARK  6 active torsions:
REMARK  status: ('A' for Active; 'I' for Inactive)
REMARK    1  A    between atoms: CAA_1  and  CAB_2 
REMARK    2  A    between atoms: CAB_2  and  NAC_3 
REMARK    3  A    between atoms: NAC_3  and  CAD_4 
REMARK    4  A    between atoms: NAC_3  and  CAF_6 
REMARK    5  A    between atoms: CAD_4  and  CAE_5 
REMARK    6  A    between atoms: CAI_11  and  CAL_12 
ROOT
ATOM      1  CAF 9C8 d   1       6.782  38.214   7.801  0.00  0.00     0.030 A 
ATOM      2  CAK 9C8 d   1       6.322  36.987   8.283  0.00  0.00    -0.056 A 
ATOM      3  CAJ 9C8 d   1       6.286  36.679   9.647  0.00  0.00    -0.067 A 
ATOM      4  CAG 9C8 d   1       7.211  39.144   8.748  0.00  0.00    -0.056 A 
ATOM      5  CAH 9C8 d   1       7.194  38.847  10.114  0.00  0.00    -0.067 A 
ATOM      6  CAI 9C8 d   1       6.740  37.605  10.584  0.00  0.00     0.010 A 
ATOM      7  H11 9C8 d   1       5.979  36.244   7.572  0.00  0.00     0.086 H 
ATOM      8  H12 9C8 d   1       5.904  35.719   9.975  0.00  0.00     0.085 H 
ATOM      9  H13 9C8 d   1       7.564  40.115   8.419  0.00  0.00     0.086 H 
ATOM     10  H14 9C8 d   1       7.538  39.590  10.824  0.00  0.00     0.085 H 
ENDROOT
BRANCH   6  11
ATOM     11  CAL 9C8 d   1       6.694  37.319  11.967  0.00  0.00     0.141 A 
ATOM     12  NAM 9C8 d   1       5.911  36.338  12.448  0.00  0.00    -0.230 NA
ATOM     13  CAN 9C8 d   1       5.851  36.076  13.769  0.00  0.00     0.074 A 
ATOM     14  CAO 9C8 d   1       5.000  35.057  14.188  0.00  0.00    -0.054 A 
ATOM     15  CAS 9C8 d   1       6.593  36.801  14.712  0.00  0.00     0.061 A 
ATOM     16  CAP 9C8 d   1       4.884  34.756  15.527  0.00  0.00    -0.081 A 
ATOM     17  H15 9C8 d   1       4.426  34.498  13.457  0.00  0.00     0.087 H 
ATOM     18  CAQ 9C8 d   1       5.605  35.469  16.491  0.00  0.00    -0.082 A 
ATOM     19  H16 9C8 d   1       4.224  33.955  15.839  0.00  0.00     0.083 H 
ATOM     20  CAR 9C8 d   1       6.478  36.478  16.074  0.00  0.00    -0.065 A 
ATOM     21  H17 9C8 d   1       5.489  35.242  17.545  0.00  0.00     0.083 H 
ATOM     22  H18 9C8 d   1       7.070  37.015  16.807  0.00  0.00     0.085 H 
ATOM     23  CAT 9C8 d   1       7.461  37.798  14.232  0.00  0.00     0.259 A 
ATOM     24  OAU 9C8 d   1       8.205  38.475  14.949  0.00  0.00    -0.267 OA
ATOM     25  NAV 9C8 d   1       7.491  38.042  12.872  0.00  0.00    -0.307 N 
ATOM     26  H19 9C8 d   1       8.098  38.755  12.521  0.00  0.00     0.170 HD
ENDBRANCH   6  11
BRANCH   1  27
ATOM     27  NAC 9C8 d   1       6.834  38.486   6.463  0.00  0.00    -0.382 N 
BRANCH  27  28
ATOM     28  CAB 9C8 d   1       7.013  39.839   5.898  0.00  0.00    -0.008 C 
ATOM     29  H4  9C8 d   1       7.824  40.349   6.438  0.00  0.00     0.063 H 
ATOM     30  H5  9C8 d   1       7.280  39.751   4.834  0.00  0.00     0.063 H 
BRANCH  28  31
ATOM     31  CAA 9C8 d   1       5.750  40.654   6.023  0.00  0.00    -0.061 C 
ATOM     32  H1  9C8 d   1       5.915  41.654   5.595  0.00  0.00     0.029 H 
ATOM     33  H2  9C8 d   1       5.479  40.750   7.085  0.00  0.00     0.029 H 
ATOM     34  H3  9C8 d   1       4.935  40.153   5.481  0.00  0.00     0.029 H 
ENDBRANCH  28  31
ENDBRANCH  27  28
BRANCH  27  35
ATOM     35  CAD 9C8 d   1       6.996  37.414   5.463  0.00  0.00    -0.008 C 
ATOM     36  H6  9C8 d   1       6.592  37.725   4.488  0.00  0.00     0.063 H 
ATOM     37  H7  9C8 d   1       6.492  36.493   5.792  0.00  0.00     0.063 H 
BRANCH  35  38
ATOM     38  CAE 9C8 d   1       8.515  37.204   5.382  0.00  0.00    -0.061 C 
ATOM     39  H8  9C8 d   1       8.737  36.412   4.651  0.00  0.00     0.029 H 
ATOM     40  H9  9C8 d   1       8.898  36.909   6.370  0.00  0.00     0.029 H 
ATOM     41  H10 9C8 d   1       8.998  38.140   5.066  0.00  0.00     0.029 H 
ENDBRANCH  35  38
ENDBRANCH  27  35
ENDBRANCH   1  27
TORSDOF 6
