REMARK  6 active torsions:
REMARK  status: ('A' for Active; 'I' for Inactive)
REMARK    1  A    between atoms: OAE_1  and  CAD_2 
REMARK    2  A    between atoms: CAD_2  and  CAC_3 
REMARK    3  A    between atoms: CAC_3  and  NAB_4 
REMARK    4  A    between atoms: NAB_4  and  CAA_5 
REMARK    5  A    between atoms: NAB_4  and  CAF_6 
REMARK    6  A    between atoms: CAI_11  and  CAL_12 
ROOT
ATOM      1  CAF 9CB d   1       6.045  38.582   7.989  0.00  0.00     0.029 A 
ATOM      2  CAK 9CB d   1       6.647  39.386   8.947  0.00  0.00    -0.057 A 
ATOM      3  CAJ 9CB d   1       6.789  38.976  10.275  0.00  0.00    -0.067 A 
ATOM      4  CAG 9CB d   1       5.582  37.351   8.419  0.00  0.00    -0.057 A 
ATOM      5  CAH 9CB d   1       5.716  36.931   9.738  0.00  0.00    -0.067 A 
ATOM      6  CAI 9CB d   1       6.344  37.713  10.690  0.00  0.00     0.010 A 
ATOM      7  H9  9CB d   1       7.018  40.362   8.656  0.00  0.00     0.086 H 
ATOM      8  H10 9CB d   1       7.250  39.644  10.994  0.00  0.00     0.085 H 
ATOM      9  H11 9CB d   1       5.100  36.693   7.705  0.00  0.00     0.086 H 
ATOM     10  H12 9CB d   1       5.318  35.965  10.027  0.00  0.00     0.085 H 
ENDROOT
BRANCH   6  11
ATOM     11  CAL 9CB d   1       6.392  37.310  12.035  0.00  0.00     0.141 A 
ATOM     12  NAM 9CB d   1       5.584  36.334  12.499  0.00  0.00    -0.229 NA
ATOM     13  CAN 9CB d   1       5.580  35.994  13.811  0.00  0.00     0.076 A 
ATOM     14  CAT 9CB d   1       4.744  34.962  14.252  0.00  0.00    -0.033 A 
ATOM     15  CAO 9CB d   1       6.386  36.673  14.740  0.00  0.00     0.061 A 
ATOM     16  CAR 9CB d   1       4.717  34.610  15.598  0.00  0.00     0.036 A 
ATOM     17  H13 9CB d   1       4.116  34.435  13.543  0.00  0.00     0.089 H 
ATOM     18 CL   9CB d   1       3.717  33.334  16.146  0.00  0.00    -0.084 Cl
ATOM     19  CAQ 9CB d   1       5.510  35.280  16.515  0.00  0.00    -0.061 A 
ATOM     20  CAP 9CB d   1       6.339  36.307  16.085  0.00  0.00    -0.064 A 
ATOM     21  H14 9CB d   1       5.483  35.004  17.563  0.00  0.00     0.086 H 
ATOM     22  H15 9CB d   1       6.958  36.831  16.804  0.00  0.00     0.085 H 
ATOM     23  CAU 9CB d   1       7.244  37.697  14.288  0.00  0.00     0.259 A 
ATOM     24  OAV 9CB d   1       8.021  38.344  15.022  0.00  0.00    -0.267 OA
ATOM     25  NAW 9CB d   1       7.208  37.992  12.932  0.00  0.00    -0.307 N 
ATOM     26  H16 9CB d   1       7.793  38.725  12.585  0.00  0.00     0.170 HD
ENDBRANCH   6  11
BRANCH   1  27
ATOM     27  NAB 9CB d   1       5.888  38.966   6.696  0.00  0.00    -0.383 N 
BRANCH  27  28
ATOM     28  CAC 9CB d   1       5.631  38.007   5.609  0.00  0.00     0.014 C 
ATOM     29  H4  9CB d   1       5.403  36.999   5.986  0.00  0.00     0.067 H 
ATOM     30  H5  9CB d   1       4.824  38.340   4.940  0.00  0.00     0.067 H 
BRANCH  28  31
ATOM     31  CAD 9CB d   1       6.985  38.080   4.953  0.00  0.00     0.031 C 
ATOM     32  H2  9CB d   1       7.340  39.120   4.919  0.00  0.00     0.076 H 
ATOM     33  H3  9CB d   1       7.712  37.462   5.501  0.00  0.00     0.076 H 
BRANCH  31  34
ATOM     34  OAE 9CB d   1       6.800  37.589   3.671  0.00  0.00    -0.399 OA
ATOM     35  H1  9CB d   1       6.163  38.127   3.216  0.00  0.00     0.209 HD
ENDBRANCH  31  34
ENDBRANCH  28  31
ENDBRANCH  27  28
BRANCH  27  36
ATOM     36  CAA 9CB d   1       6.012  40.404   6.372  0.00  0.00    -0.018 C 
ATOM     37  H6  9CB d   1       6.202  40.973   7.294  0.00  0.00     0.056 H 
ATOM     38  H7  9CB d   1       5.079  40.757   5.909  0.00  0.00     0.056 H 
ATOM     39  H8  9CB d   1       6.848  40.551   5.672  0.00  0.00     0.056 H 
ENDBRANCH  27  36
ENDBRANCH   1  27
TORSDOF 6
