REMARK  7 active torsions:
REMARK  status: ('A' for Active; 'I' for Inactive)
REMARK    1  A    between atoms: C13_3  and  C14_1 
REMARK    2  A    between atoms: C09_12  and  C10_2 
REMARK    3  A    between atoms: N02_5  and  C01_4 
REMARK    4  A    between atoms: N04_7  and  C05_8 
REMARK    5  A    between atoms: C06_9  and  O32_32 
REMARK    6  A    between atoms: N08_11  and  C09_12 
REMARK    7  A    between atoms: C23_23  and  N24_24 
ROOT
ATOM      1  N02 9CH d   1       9.251 -14.854  -8.152  0.00  0.00    -0.298 N 
ATOM      2  C03 9CH d   1       8.267 -14.278  -8.886  0.00  0.00     0.259 A 
ATOM      3  N04 9CH d   1       8.541 -13.611  -9.999  0.00  0.00    -0.317 N 
ATOM      4  C06 9CH d   1       9.815 -13.499 -10.398  0.00  0.00     0.150 A 
ATOM      5  C07 9CH d   1      10.868 -14.070  -9.651  0.00  0.00     0.124 A 
ATOM      6  N08 9CH d   1      12.237 -14.153  -9.800  0.00  0.00    -0.169 N 
ATOM      7  C23 9CH d   1      12.747 -14.837  -8.787  0.00  0.00     0.707 A 
ATOM      8  N30 9CH d   1      11.736 -15.231  -7.971  0.00  0.00    -0.044 NA
ATOM      9  C31 9CH d   1      10.558 -14.762  -8.507  0.00  0.00     0.179 A 
ATOM     10  O33 9CH d   1       7.018 -14.372  -8.516  0.00  0.00    -0.151 OA
ATOM     11  H7  9CH d   1       9.722 -14.434 -10.970  0.00  0.00     0.128 H 
ENDROOT
BRANCH   6  12
ATOM     12  C09 9CH d   1      13.009 -13.516 -10.908  0.00  0.00     0.079 C 
ATOM     13  H8  9CH d   1      12.506 -12.575 -11.178  0.00  0.00     0.078 H 
ATOM     14  H9  9CH d   1      14.021 -13.297 -10.537  0.00  0.00     0.078 H 
BRANCH  12  15
ATOM     15  C10 9CH d   1      13.136 -14.345 -12.143  0.00  0.00     0.188 A 
ATOM     16  N11 9CH d   1      13.317 -15.668 -12.234  0.00  0.00    -0.125 NA
ATOM     17  N12 9CH d   1      13.404 -15.986 -13.566  0.00  0.00    -0.121 NA
ATOM     18  C13 9CH d   1      13.274 -14.827 -14.269  0.00  0.00     0.202 A 
ATOM     19  O22 9CH d   1      13.102 -13.809 -13.422  0.00  0.00    -0.271 OA
BRANCH  18  20
ATOM     20  C14 9CH d   1      13.286 -14.639 -15.724  0.00  0.00     0.021 A 
ATOM     21  C15 9CH d   1      13.391 -15.696 -16.566  0.00  0.00    -0.067 A 
ATOM     22  C16 9CH d   1      13.377 -15.468 -17.925  0.00  0.00    -0.059 A 
ATOM     23  H10 9CH d   1      13.484 -16.703 -16.177  0.00  0.00     0.085 H 
ATOM     24  C17 9CH d   1      13.281 -14.129 -18.405  0.00  0.00     0.055 A 
ATOM     25  H11 9CH d   1      13.438 -16.297 -18.621  0.00  0.00     0.086 H 
ATOM     26 CL1  9CH d   1      13.271 -13.811 -20.092  0.00  0.00    -0.083 Cl
ATOM     27  C19 9CH d   1      13.182 -13.120 -17.554  0.00  0.00     0.056 A 
ATOM     28 CL2  9CH d   1      13.043 -11.517 -18.173  0.00  0.00    -0.083 Cl
ATOM     29  C21 9CH d   1      13.187 -13.336 -16.196  0.00  0.00    -0.046 A 
ATOM     30  H12 9CH d   1      13.115 -12.504 -15.505  0.00  0.00     0.087 H 
ENDBRANCH  18  20
ENDBRANCH  12  15
ENDBRANCH   6  12
BRANCH   7  31
ATOM     31  N24 9CH d   1      14.135 -15.113  -8.602  0.00  0.00    -0.212 N 
ATOM     32  C25 9CH d   1      14.883 -15.714  -9.654  0.00  0.00     0.034 C 
ATOM     33  C26 9CH d   1      16.348 -15.356  -9.588  0.00  0.00     0.097 C 
ATOM     34  H13 9CH d   1      14.478 -15.371 -10.617  0.00  0.00     0.067 H 
ATOM     35  H14 9CH d   1      14.782 -16.807  -9.581  0.00  0.00     0.067 H 
ATOM     36  N27 9CH d   1      16.865 -15.452  -8.260  0.00  0.00    -0.072 N 
ATOM     37  H15 9CH d   1      16.477 -14.324  -9.945  0.00  0.00     0.078 H 
ATOM     38  H16 9CH d   1      16.910 -16.042 -10.238  0.00  0.00     0.078 H 
ATOM     39  C28 9CH d   1      16.087 -14.808  -7.242  0.00  0.00     0.097 C 
ATOM     40  H17 9CH d   1      17.784 -15.039  -8.255  0.00  0.00     0.277 HD
ATOM     41  H18 9CH d   1      16.935 -16.430  -8.025  0.00  0.00     0.277 HD
ATOM     42  C29 9CH d   1      14.661 -15.282  -7.303  0.00  0.00     0.034 C 
ATOM     43  H19 9CH d   1      16.115 -13.719  -7.397  0.00  0.00     0.078 H 
ATOM     44  H20 9CH d   1      16.509 -15.049  -6.255  0.00  0.00     0.078 H 
ATOM     45  H21 9CH d   1      14.623 -16.348  -7.034  0.00  0.00     0.067 H 
ATOM     46  H22 9CH d   1      14.057 -14.702  -6.590  0.00  0.00     0.067 H 
ENDBRANCH   7  31
BRANCH   4  47
ATOM     47  O32 9CH d   1      10.062 -12.833 -11.515  0.00  0.00    -0.371 OA
ATOM     48  H23 9CH d   1      10.998 -12.830 -11.680  0.00  0.00     0.212 HD
ENDBRANCH   4  47
BRANCH   3  49
ATOM     49  C05 9CH d   1       7.464 -12.996 -10.790  0.00  0.00    -0.013 C 
ATOM     50  H4  9CH d   1       6.496 -13.194 -10.307  0.00  0.00     0.056 H 
ATOM     51  H5  9CH d   1       7.463 -13.424 -11.803  0.00  0.00     0.056 H 
ATOM     52  H6  9CH d   1       7.628 -11.910 -10.851  0.00  0.00     0.056 H 
ENDBRANCH   3  49
BRANCH   1  53
ATOM     53  C01 9CH d   1       8.916 -15.548  -7.000  0.00  0.00    -0.009 C 
ATOM     54  H1  9CH d   1       7.825 -15.525  -6.862  0.00  0.00     0.057 H 
ATOM     55  H2  9CH d   1       9.405 -15.079  -6.134  0.00  0.00     0.057 H 
ATOM     56  H3  9CH d   1       9.252 -16.592  -7.090  0.00  0.00     0.057 H 
ENDBRANCH   1  53
TORSDOF 7
