REMARK  22 active torsions:
REMARK  status: ('A' for Active; 'I' for Inactive)
REMARK    1  A    between atoms: N_1  and  CA_2 
REMARK    2  A    between atoms: CA_2  and  C_3 
REMARK    3  A    between atoms: CA_2  and  CB_5 
REMARK       I    between atoms: C_3  and  N_13 
REMARK    4  A    between atoms: CB_5  and  CG_6 
REMARK    5  A    between atoms: CZ_11  and  OH_12 
REMARK    6  A    between atoms: N_13  and  CA_14 
REMARK    7  A    between atoms: CA_14  and  C_15 
REMARK    8  A    between atoms: CA_14  and  CB_17 
REMARK       I    between atoms: C_15  and  N_24 
REMARK    9  A    between atoms: CB_17  and  CG_18 
REMARK   10  A    between atoms: N_24  and  CA_25 
REMARK   11  A    between atoms: CA_25  and  C_26 
REMARK   12  A    between atoms: CA_25  and  CB_28 
REMARK       I    between atoms: C_26  and  N_30 
REMARK   13  A    between atoms: CB_28  and  OG_29 
REMARK   14  A    between atoms: N_30  and  CA_31 
REMARK   15  A    between atoms: CA_31  and  CB_32 
REMARK   16  A    between atoms: CA_31  and  C_34 
REMARK   17  A    between atoms: CB_32  and  OG_33 
REMARK   18  A    between atoms: OG_33  and  P_36 
REMARK       I    between atoms: C_34  and  N_40 
REMARK   19  A    between atoms: N_40  and  CA_41 
REMARK   20  A    between atoms: CA_41  and  C_42 
REMARK   21  A    between atoms: CA_41  and  CB_44 
REMARK   22  A    between atoms: CB_44  and  CG_45 
REMARK       I    between atoms: CG_45  and  ND2_47 
ROOT
ATOM      1  C   TYR d   1     -17.816 -17.559  -1.442  0.00  0.00     0.241 C 
ATOM      2  O   TYR d   1     -16.839 -16.839  -1.667  0.00  0.00    -0.271 OA
ATOM      3  N   TYR d   1     -18.795 -17.216  -0.609  0.00  0.00    -0.344 N 
ATOM      4  H21 TYR d   1     -19.551 -17.855  -0.469  0.00  0.00     0.163 HD
ENDROOT
BRANCH   1   5
ATOM      5  CA  TYR d   1     -17.987 -18.911  -2.129  0.00  0.00     0.093 C 
ATOM      6  H13 TYR d   1     -19.039 -19.015  -2.433  0.00  0.00     0.088 H 
BRANCH   5   7
ATOM      7  N   TYR d   1     -17.154 -18.984  -3.315  0.00  0.00    -0.346 N 
ATOM      8  C   TYR d   1     -17.459 -18.284  -4.402  0.00  0.00     0.249 C 
ATOM      9  O   TYR d   1     -18.423 -17.522  -4.462  0.00  0.00    -0.271 OA
ATOM     10  H12 TYR d   1     -16.342 -19.567  -3.314  0.00  0.00     0.163 HD
BRANCH   8  11
ATOM     11  CA  TYR d   1     -16.543 -18.478  -5.598  0.00  0.00     0.179 C 
ATOM     12  H4  TYR d   1     -15.507 -18.287  -5.283  0.00  0.00     0.099 H 
BRANCH  11  13
ATOM     13  N   TYR d   1     -16.634 -19.850  -6.083  0.00  0.00    -0.066 N 
ATOM     14  H1  TYR d   1     -16.023 -19.967  -6.876  0.00  0.00     0.275 HD
ATOM     15  H2  TYR d   1     -17.583 -20.047  -6.359  0.00  0.00     0.275 HD
ATOM     16  H3  TYR d   1     -16.359 -20.485  -5.350  0.00  0.00     0.275 HD
ENDBRANCH  11  13
BRANCH  11  17
ATOM     17  CB  TYR d   1     -16.907 -17.485  -6.700  0.00  0.00    -0.006 C 
ATOM     18  H5  TYR d   1     -16.316 -16.569  -6.551  0.00  0.00     0.043 H 
ATOM     19  H6  TYR d   1     -17.978 -17.248  -6.615  0.00  0.00     0.043 H 
BRANCH  17  20
ATOM     20  CG  TYR d   1     -16.643 -18.001  -8.091  0.00  0.00    -0.056 A 
ATOM     21  CD1 TYR d   1     -15.354 -18.312  -8.505  0.00  0.00    -0.074 A 
ATOM     22  CE1 TYR d   1     -15.110 -18.788  -9.776  0.00  0.00    -0.051 A 
ATOM     23  H7  TYR d   1     -14.526 -18.178  -7.818  0.00  0.00     0.084 H 
ATOM     24  CZ  TYR d   1     -16.162 -18.962 -10.651  0.00  0.00     0.065 A 
ATOM     25  H9  TYR d   1     -14.098 -19.024 -10.085  0.00  0.00     0.087 H 
ATOM     26  CE2 TYR d   1     -17.450 -18.663 -10.263  0.00  0.00    -0.051 A 
ATOM     27  CD2 TYR d   1     -17.684 -18.188  -8.990  0.00  0.00    -0.074 A 
ATOM     28  H10 TYR d   1     -18.274 -18.800 -10.954  0.00  0.00     0.087 H 
ATOM     29  H8  TYR d   1     -18.698 -17.957  -8.686  0.00  0.00     0.084 H 
BRANCH  24  30
ATOM     30  OH  TYR d   1     -15.927 -19.436 -11.920  0.00  0.00    -0.361 OA
ATOM     31  H11 TYR d   1     -14.997 -19.593 -12.031  0.00  0.00     0.217 HD
ENDBRANCH  24  30
ENDBRANCH  17  20
ENDBRANCH  11  17
ENDBRANCH   8  11
ENDBRANCH   5   7
BRANCH   5  32
ATOM     32  CB  TYR d   1     -17.645 -20.054  -1.176  0.00  0.00    -0.014 C 
ATOM     33  H14 TYR d   1     -18.392 -20.071  -0.369  0.00  0.00     0.043 H 
ATOM     34  H15 TYR d   1     -16.648 -19.867  -0.750  0.00  0.00     0.043 H 
BRANCH  32  35
ATOM     35  CG  TYR d   1     -17.633 -21.398  -1.842  0.00  0.00    -0.056 A 
ATOM     36  CD1 TYR d   1     -18.811 -22.098  -2.033  0.00  0.00    -0.077 A 
ATOM     37  CE1 TYR d   1     -18.806 -23.331  -2.654  0.00  0.00    -0.082 A 
ATOM     38  H16 TYR d   1     -19.748 -21.674  -1.691  0.00  0.00     0.084 H 
ATOM     39  CZ  TYR d   1     -17.618 -23.876  -3.093  0.00  0.00    -0.083 A 
ATOM     40  H18 TYR d   1     -19.735 -23.870  -2.796  0.00  0.00     0.083 H 
ATOM     41  CE2 TYR d   1     -16.436 -23.186  -2.913  0.00  0.00    -0.082 A 
ATOM     42  H20 TYR d   1     -17.612 -24.845  -3.579  0.00  0.00     0.083 H 
ATOM     43  CD2 TYR d   1     -16.447 -21.954  -2.292  0.00  0.00    -0.077 A 
ATOM     44  H19 TYR d   1     -15.501 -23.611  -3.259  0.00  0.00     0.083 H 
ATOM     45  H17 TYR d   1     -15.517 -21.415  -2.155  0.00  0.00     0.084 H 
ENDBRANCH  32  35
ENDBRANCH   5  32
ENDBRANCH   1   5
BRANCH   3  46
ATOM     46  CA  TYR d   1     -18.810 -15.943   0.110  0.00  0.00     0.109 C 
ATOM     47  H22 TYR d   1     -18.983 -15.140  -0.621  0.00  0.00     0.090 H 
BRANCH  46  48
ATOM     48  C   TYR d   1     -17.485 -15.669   0.816  0.00  0.00     0.243 C 
ATOM     49  O   TYR d   1     -16.812 -16.591   1.260  0.00  0.00    -0.271 OA
ATOM     50  N   TYR d   1     -17.088 -14.396   0.846  0.00  0.00    -0.344 N 
ATOM     51  H26 TYR d   1     -17.672 -13.705   0.421  0.00  0.00     0.163 HD
BRANCH  50  52
ATOM     52  CA  TYR d   1     -15.841 -13.963   1.470  0.00  0.00     0.110 C 
ATOM     53  H27 TYR d   1     -15.674 -14.554   2.383  0.00  0.00     0.090 H 
BRANCH  52  54
ATOM     54  CB  TYR d   1     -14.671 -14.174   0.517  0.00  0.00     0.059 C 
ATOM     55  H28 TYR d   1     -14.767 -15.155   0.029  0.00  0.00     0.079 H 
ATOM     56  H29 TYR d   1     -13.727 -14.136   1.080  0.00  0.00     0.079 H 
BRANCH  54  57
ATOM     57  OG  TYR d   1     -14.678 -13.148  -0.471  0.00  0.00    -0.280 OA
BRANCH  57  58
ATOM     58  P   TYR d   1     -13.358 -12.851  -1.342  0.00  0.00     0.422 P 
ATOM     59  O1P TYR d   1     -13.804 -11.806  -2.335  0.00  0.00    -0.617 OA
ATOM     60  O2P TYR d   1     -13.020 -14.189  -1.952  0.00  0.00    -0.617 OA
ATOM     61  O3P TYR d   1     -12.357 -12.359  -0.325  0.00  0.00    -0.617 OA
ENDBRANCH  57  58
ENDBRANCH  54  57
ENDBRANCH  52  54
BRANCH  52  62
ATOM     62  C   TYR d   1     -15.927 -12.503   1.833  0.00  0.00     0.243 C 
ATOM     63  O   TYR d   1     -16.838 -11.810   1.331  0.00  0.00    -0.271 OA
ATOM     64  N   TYR d   1     -15.022 -12.011   2.680  0.00  0.00    -0.344 N 
ATOM     65  H30 TYR d   1     -14.314 -12.613   3.048  0.00  0.00     0.163 HD
BRANCH  64  66
ATOM     66  CA  TYR d   1     -15.049 -10.609   3.077  0.00  0.00     0.104 C 
ATOM     67  H31 TYR d   1     -15.494 -10.028   2.256  0.00  0.00     0.090 H 
BRANCH  66  68
ATOM     68  C   TYR d   1     -13.646 -10.078   3.329  0.00  0.00     0.197 C 
ATOM     69  O   TYR d   1     -12.720 -10.804   3.694  0.00  0.00    -0.646 OA
ATOM     70  OXT TYR d   1     -13.414  -8.883   3.171  0.00  0.00    -0.646 OA
ENDBRANCH  66  68
BRANCH  66  71
ATOM     71  CB  TYR d   1     -15.916 -10.424   4.324  0.00  0.00     0.037 C 
ATOM     72  H32 TYR d   1     -15.260 -10.211   5.181  0.00  0.00     0.051 H 
ATOM     73  H33 TYR d   1     -16.471 -11.356   4.509  0.00  0.00     0.051 H 
BRANCH  71  74
ATOM     74  CG  TYR d   1     -16.909  -9.288   4.179  0.00  0.00     0.217 A 
ATOM     75  OD1 TYR d   1     -16.536  -8.142   3.923  0.00  0.00    -0.274 OA
ATOM     76  ND2 TYR d   1     -18.188  -9.607   4.324  0.00  0.00    -0.370 N 
ATOM     77  H34 TYR d   1     -18.892  -8.902   4.240  0.00  0.00     0.159 HD
ATOM     78  H35 TYR d   1     -18.449 -10.553   4.518  0.00  0.00     0.159 HD
ENDBRANCH  71  74
ENDBRANCH  66  71
ENDBRANCH  64  66
ENDBRANCH  52  62
ENDBRANCH  50  52
ENDBRANCH  46  48
BRANCH  46  79
ATOM     79  CB  TYR d   1     -19.948 -15.924   1.134  0.00  0.00     0.044 C 
ATOM     80  H23 TYR d   1     -20.186 -14.880   1.385  0.00  0.00     0.077 H 
ATOM     81  H24 TYR d   1     -19.622 -16.454   2.041  0.00  0.00     0.077 H 
BRANCH  79  82
ATOM     82  OG  TYR d   1     -21.111 -16.553   0.625  0.00  0.00    -0.398 OA
ATOM     83  H25 TYR d   1     -20.913 -17.457   0.410  0.00  0.00     0.209 HD
ENDBRANCH  79  82
ENDBRANCH  46  79
ENDBRANCH   3  46
TORSDOF 22
