REMARK  12 active torsions:
REMARK  status: ('A' for Active; 'I' for Inactive)
REMARK    1  A    between atoms: C2_2  and  C1_1 
REMARK    2  A    between atoms: C3_3  and  C2_2 
REMARK       I    between atoms: N5_19  and  C3_3 
REMARK    3  A    between atoms: C7_21  and  C12_5 
REMARK       I    between atoms: C12_5  and  N14_26 
REMARK    4  A    between atoms: N14_26  and  C15_6 
REMARK    5  A    between atoms: C18_7  and  C19_8 
REMARK    6  A    between atoms: C19_8  and  C20_9 
REMARK    7  A    between atoms: C20_9  and  C21_10 
REMARK    8  A    between atoms: C23_12  and  O24_29 
REMARK    9  A    between atoms: O24_29  and  C25_13 
REMARK   10  A    between atoms: C27_15  and  O28_30 
REMARK   11  A    between atoms: O28_30  and  C29_16 
REMARK   12  A    between atoms: C6_20  and  N5_19 
ROOT
ATOM      1  C15 9CT d   1      -0.366 -12.127  29.783  0.00  0.00     0.152 A 
ATOM      2  C18 9CT d   1      -1.568 -10.277  30.206  0.00  0.00     0.032 A 
ATOM      3  N16 9CT d   1      -1.298 -12.379  30.629  0.00  0.00    -0.156 NA
ATOM      4  N17 9CT d   1      -2.030 -11.279  30.911  0.00  0.00    -0.280 N 
ATOM      5  C31 9CT d   1      -0.504 -10.685  29.479  0.00  0.00    -0.014 A 
ATOM      6  H25 9CT d   1      -2.820 -11.236  31.571  0.00  0.00     0.189 HD
ATOM      7  H26 9CT d   1       0.116 -10.084  28.815  0.00  0.00     0.092 H 
ENDROOT
BRANCH   1   8
ATOM      8  N14 9CT d   1       0.496 -13.068  29.297  0.00  0.00    -0.306 N 
ATOM      9  C12 9CT d   1       1.370 -12.925  28.256  0.00  0.00     0.259 C 
ATOM     10  O13 9CT d   1       1.489 -11.844  27.696  0.00  0.00    -0.267 OA
ATOM     11  H24 9CT d   1       0.487 -13.958  29.752  0.00  0.00     0.170 HD
BRANCH   9  12
ATOM     12  C7  9CT d   1       2.307 -14.061  27.800  0.00  0.00     0.059 A 
ATOM     13  C6  9CT d   1       3.043 -14.014  26.569  0.00  0.00     0.050 A 
ATOM     14  C11 9CT d   1       3.933 -15.066  26.248  0.00  0.00    -0.056 A 
ATOM     15  C10 9CT d   1       4.113 -16.154  27.117  0.00  0.00    -0.081 A 
ATOM     16  H6  9CT d   1       4.485 -15.031  25.316  0.00  0.00     0.086 H 
ATOM     17  C9  9CT d   1       3.405 -16.203  28.332  0.00  0.00    -0.082 A 
ATOM     18  H23 9CT d   1       4.795 -16.954  26.853  0.00  0.00     0.083 H 
ATOM     19  C8  9CT d   1       2.516 -15.166  28.664  0.00  0.00    -0.065 A 
ATOM     20  H22 9CT d   1       3.545 -17.038  29.010  0.00  0.00     0.083 H 
ATOM     21  H21 9CT d   1       1.977 -15.212  29.603  0.00  0.00     0.085 H 
BRANCH  13  22
ATOM     22  N5  9CT d   1       2.863 -12.921  25.658  0.00  0.00    -0.326 N 
ATOM     23  C3  9CT d   1       2.727 -13.012  24.312  0.00  0.00     0.221 C 
ATOM     24  O4  9CT d   1       2.815 -14.061  23.695  0.00  0.00    -0.273 OA
ATOM     25  H20 9CT d   1       2.835 -12.003  26.054  0.00  0.00     0.169 HD
BRANCH  23  26
ATOM     26  C2  9CT d   1       2.461 -11.740  23.545  0.00  0.00     0.006 C 
ATOM     27  H4  9CT d   1       1.763 -11.969  22.726  0.00  0.00     0.046 H 
ATOM     28  H5  9CT d   1       1.998 -11.014  24.229  0.00  0.00     0.046 H 
BRANCH  26  29
ATOM     29  C1  9CT d   1       3.728 -11.095  22.937  0.00  0.00    -0.068 C 
ATOM     30  H1  9CT d   1       3.450 -10.178  22.397  0.00  0.00     0.028 H 
ATOM     31  H2  9CT d   1       4.200 -11.802  22.239  0.00  0.00     0.028 H 
ATOM     32  H3  9CT d   1       4.435 -10.847  23.742  0.00  0.00     0.028 H 
ENDBRANCH  26  29
ENDBRANCH  23  26
ENDBRANCH  13  22
ENDBRANCH   9  12
ENDBRANCH   1   8
BRANCH   2  33
ATOM     33  C19 9CT d   1      -2.157  -8.895  30.309  0.00  0.00    -0.021 C 
ATOM     34  H7  9CT d   1      -1.685  -8.389  31.164  0.00  0.00     0.042 H 
ATOM     35  H8  9CT d   1      -3.236  -9.000  30.495  0.00  0.00     0.042 H 
BRANCH  33  36
ATOM     36  C20 9CT d   1      -1.974  -7.994  29.061  0.00  0.00    -0.036 C 
ATOM     37  H9  9CT d   1      -2.198  -8.566  28.149  0.00  0.00     0.040 H 
ATOM     38  H10 9CT d   1      -0.940  -7.621  29.015  0.00  0.00     0.040 H 
BRANCH  36  39
ATOM     39  C21 9CT d   1      -2.950  -6.817  29.194  0.00  0.00    -0.052 A 
ATOM     40  C22 9CT d   1      -2.670  -5.765  30.098  0.00  0.00    -0.045 A 
ATOM     41  C23 9CT d   1      -3.581  -4.703  30.265  0.00  0.00     0.071 A 
ATOM     42  H11 9CT d   1      -1.747  -5.776  30.667  0.00  0.00     0.088 H 
ATOM     43  C26 9CT d   1      -4.779  -4.709  29.513  0.00  0.00    -0.019 A 
ATOM     44  C27 9CT d   1      -5.078  -5.734  28.604  0.00  0.00     0.071 A 
ATOM     45  H15 9CT d   1      -5.486  -3.898  29.643  0.00  0.00     0.092 H 
ATOM     46  C30 9CT d   1      -4.163  -6.797  28.459  0.00  0.00    -0.045 A 
ATOM     47  H19 9CT d   1      -4.389  -7.609  27.777  0.00  0.00     0.088 H 
BRANCH  41  48
ATOM     48  O24 9CT d   1      -3.288  -3.677  31.181  0.00  0.00    -0.356 OA
BRANCH  48  49
ATOM     49  C25 9CT d   1      -3.914  -2.377  31.176  0.00  0.00     0.010 C 
ATOM     50  H12 9CT d   1      -3.503  -1.769  31.996  0.00  0.00     0.066 H 
ATOM     51  H13 9CT d   1      -4.999  -2.492  31.313  0.00  0.00     0.066 H 
ATOM     52  H14 9CT d   1      -3.716  -1.879  30.215  0.00  0.00     0.066 H 
ENDBRANCH  48  49
ENDBRANCH  41  48
BRANCH  44  53
ATOM     53  O28 9CT d   1      -6.268  -5.720  27.858  0.00  0.00    -0.356 OA
BRANCH  53  54
ATOM     54  C29 9CT d   1      -7.107  -4.553  27.655  0.00  0.00     0.010 C 
ATOM     55  H16 9CT d   1      -7.972  -4.827  27.033  0.00  0.00     0.066 H 
ATOM     56  H17 9CT d   1      -6.526  -3.767  27.149  0.00  0.00     0.066 H 
ATOM     57  H18 9CT d   1      -7.458  -4.180  28.628  0.00  0.00     0.066 H 
ENDBRANCH  53  54
ENDBRANCH  44  53
ENDBRANCH  36  39
ENDBRANCH  33  36
ENDBRANCH   2  33
TORSDOF 12
