REMARK WARNING: 32 MAX_TORS EXCEEDED!!!
REMARK  53 active torsions:
REMARK  status: ('A' for Active; 'I' for Inactive)
REMARK    1  A    between atoms: C67_1  and  C69_2 
REMARK       I    between atoms: N66_24  and  C67_1 
REMARK    2  A    between atoms: C69_2  and  C70_3 
REMARK    3  A    between atoms: C69_2  and  C71_4 
REMARK    4  A    between atoms: C69_2  and  C72_5 
REMARK       I    between atoms: C72_5  and  N74_11 
REMARK    5  A    between atoms: C75_6  and  C76_7 
REMARK    6  A    between atoms: N74_11  and  C75_6 
REMARK    7  A    between atoms: C76_7  and  C77_8 
REMARK    8  A    between atoms: C57_16  and  C59_17 
REMARK       I    between atoms: N_26  and  C57_16 
REMARK    9  A    between atoms: C59_17  and  C60_18 
REMARK   10  A    between atoms: C59_17  and  N66_24 
REMARK   11  A    between atoms: C60_18  and  C61_19 
REMARK   12  A    between atoms: CA_27  and  N_26 
REMARK   13  A    between atoms: C_28  and  CA_27 
REMARK       I    between atoms: N_30  and  C_28 
REMARK   14  A    between atoms: CA_31  and  N_30 
REMARK   15  A    between atoms: C_32  and  CA_31 
REMARK   16  A    between atoms: CA_31  and  CB_34 
REMARK       I    between atoms: N48_48  and  C_32 
REMARK   17  A    between atoms: CB_34  and  OG1_35 
REMARK   18  A    between atoms: CB_34  and  CG2_36 
REMARK   19  A    between atoms: C36_37  and  C38_38 
REMARK       I    between atoms: N_50  and  C36_37 
REMARK   20  A    between atoms: C38_38  and  C39_39 
REMARK   21  A    between atoms: C38_38  and  C40_40 
REMARK   22  A    between atoms: C38_38  and  N48_48 
REMARK   23  A    between atoms: C40_40  and  C41_41 
REMARK   24  A    between atoms: CA_51  and  N_50 
REMARK   25  A    between atoms: C_52  and  CA_51 
REMARK   26  A    between atoms: CA_51  and  CB_54 
REMARK       I    between atoms: N_57  and  C_52 
REMARK   27  A    between atoms: CB_54  and  OG1_55 
REMARK   28  A    between atoms: CB_54  and  CG2_56 
REMARK   29  A    between atoms: CA_58  and  N_57 
REMARK   30  A    between atoms: C_59  and  CA_58 
REMARK   31  A    between atoms: CA_58  and  CB_61 
REMARK       I    between atoms: N_63  and  C_59 
REMARK   32  A    between atoms: CB_61  and  OG_62 
REMARK   33  A    between atoms: CA_64  and  N_63 
REMARK   34  A    between atoms: C_65  and  CA_64 
REMARK   35  A    between atoms: CA_64  and  CB_67 
REMARK       I    between atoms: N17_89  and  C_65 
REMARK   36  A    between atoms: CB_67  and  CG_68 
REMARK   37  A    between atoms: C02_72  and  C01_71 
REMARK   38  A    between atoms: C03_82  and  C02_72 
REMARK   39  A    between atoms: C05_73  and  OA6_91 
REMARK   40  A    between atoms: C09_76  and  C08_75 
REMARK   41  A    between atoms: C15_81  and  C12_78 
REMARK   42  A    between atoms: C16_86  and  C15_81 
REMARK   43  A    between atoms: C88_87  and  C16_86 
REMARK   44  A    between atoms: C16_86  and  N17_89 
REMARK       I    between atoms: N90_105  and  C88_87 
REMARK   45  A    between atoms: OA6_91  and  CA7_88 
REMARK   46  A    between atoms: C91_92  and  C92_93 
REMARK   47  A    between atoms: C91_92  and  CA3_104 
REMARK   48  A    between atoms: C91_92  and  N90_105 
REMARK   49  A    between atoms: C92_93  and  C93_94 
REMARK   50  A    between atoms: C93_94  and  C94_95 
REMARK   51  A    between atoms: C94_95  and  C95_96 
REMARK   52  A    between atoms: C97_98  and  CA2_103 
REMARK   53  A    between atoms: C99_100  and  CA1_102 
REMARK       I    between atoms: CA3_104  and  NA5_106 
ROOT
ATOM      1  CA  THR d   1     -14.724  27.085   4.610  0.00  0.00     0.113 C 
ATOM      2  H41 THR d   1     -13.693  27.012   4.986  0.00  0.00     0.091 H 
ENDROOT
BRANCH   1   3
ATOM      3  N   THR d   1     -15.605  27.368   5.745  0.00  0.00    -0.343 N 
ATOM      4  C36 9DT d   1     -15.574  28.484   6.498  0.00  0.00     0.246 C 
ATOM      5  O37 9DT d   1     -14.763  29.379   6.279  0.00  0.00    -0.271 OA
ATOM      6  H40 THR d   1     -16.286  26.675   5.981  0.00  0.00     0.163 HD
BRANCH   4   7
ATOM      7  C38 9DT d   1     -16.599  28.623   7.681  0.00  0.00     0.114 C 
BRANCH   7   8
ATOM      8  C39 9DT d   1     -16.829  30.110   8.061  0.00  0.00    -0.044 C 
ATOM      9  H30 9DT d   1     -17.550  30.169   8.890  0.00  0.00     0.031 H 
ATOM     10  H31 9DT d   1     -17.225  30.654   7.191  0.00  0.00     0.031 H 
ATOM     11  H32 9DT d   1     -15.875  30.561   8.372  0.00  0.00     0.031 H 
ENDBRANCH   7   8
BRANCH   7  12
ATOM     12  C40 9DT d   1     -16.079  27.882   8.954  0.00  0.00    -0.006 C 
ATOM     13  H33 9DT d   1     -16.614  26.925   9.037  0.00  0.00     0.044 H 
ATOM     14  H34 9DT d   1     -16.305  28.506   9.831  0.00  0.00     0.044 H 
BRANCH  12  15
ATOM     15  C41 9DT d   1     -14.574  27.590   8.948  0.00  0.00    -0.017 A 
ATOM     16  C42 9DT d   1     -14.102  26.340   8.529  0.00  0.00    -0.074 A 
ATOM     17  C43 9DT d   1     -12.732  26.081   8.518  0.00  0.00    -0.082 A 
ATOM     18  H35 9DT d   1     -14.801  25.574   8.213  0.00  0.00     0.084 H 
ATOM     19  C44 9DT d   1     -11.825  27.059   8.921  0.00  0.00    -0.080 A 
ATOM     20  H36 9DT d   1     -12.370  25.112   8.194  0.00  0.00     0.083 H 
ATOM     21  C45 9DT d   1     -12.287  28.305   9.335  0.00  0.00    -0.045 A 
ATOM     22  H37 9DT d   1     -10.761  26.850   8.912  0.00  0.00     0.083 H 
ATOM     23  C46 9DT d   1     -13.653  28.569   9.347  0.00  0.00     0.122 A 
ATOM     24  H38 9DT d   1     -11.584  29.068   9.648  0.00  0.00     0.088 H 
ATOM     25  F47 9DT d   1     -14.077  29.786   9.753  0.00  0.00    -0.206 F 
ENDBRANCH  12  15
ENDBRANCH   7  12
BRANCH   7  26
ATOM     26  N48 9DT d   1     -17.902  28.036   7.278  0.00  0.00    -0.341 N 
ATOM     27  C   THR d   1     -18.730  28.413   6.277  0.00  0.00     0.244 C 
ATOM     28  O   THR d   1     -18.499  29.342   5.505  0.00  0.00    -0.271 OA
ATOM     29  H39 9DT d   1     -18.210  27.255   7.821  0.00  0.00     0.163 HD
BRANCH  27  30
ATOM     30  CA  THR d   1     -20.039  27.604   6.114  0.00  0.00     0.113 C 
ATOM     31  H24 THR d   1     -20.401  27.788   5.092  0.00  0.00     0.091 H 
BRANCH  30  32
ATOM     32  N   THR d   1     -19.812  26.155   6.224  0.00  0.00    -0.344 N 
ATOM     33  C   GLY d   1     -19.193  25.441   5.271  0.00  0.00     0.236 C 
ATOM     34  O   GLY d   1     -18.769  25.954   4.240  0.00  0.00    -0.272 OA
ATOM     35  H23 THR d   1     -20.133  25.681   7.044  0.00  0.00     0.163 HD
BRANCH  33  36
ATOM     36  CA  GLY d   1     -19.005  23.934   5.485  0.00  0.00     0.069 C 
ATOM     37  H21 GLY d   1     -19.953  23.418   5.275  0.00  0.00     0.078 H 
ATOM     38  H22 GLY d   1     -18.228  23.566   4.800  0.00  0.00     0.078 H 
BRANCH  36  39
ATOM     39  N   GLY d   1     -18.602  23.658   6.861  0.00  0.00    -0.351 N 
ATOM     40  C57 9DQ d   1     -17.481  24.101   7.447  0.00  0.00     0.241 C 
ATOM     41  O58 9DQ d   1     -16.653  24.802   6.875  0.00  0.00    -0.271 OA
ATOM     42  H20 GLY d   1     -19.214  23.091   7.412  0.00  0.00     0.163 HD
BRANCH  40  43
ATOM     43  C59 9DQ d   1     -17.221  23.713   8.912  0.00  0.00     0.096 C 
ATOM     44  H15 9DQ d   1     -16.269  24.182   9.203  0.00  0.00     0.088 H 
BRANCH  43  45
ATOM     45  C60 9DQ d   1     -16.959  22.180   9.004  0.00  0.00     0.022 C 
ATOM     46  H16 9DQ d   1     -15.930  21.989   8.666  0.00  0.00     0.048 H 
ATOM     47  H17 9DQ d   1     -17.666  21.672   8.331  0.00  0.00     0.048 H 
BRANCH  45  48
ATOM     48  C61 9DQ d   1     -17.117  21.588  10.382  0.00  0.00     0.167 A 
ATOM     49  N62 9DQ d   1     -16.864  22.276  11.533  0.00  0.00    -0.144 NA
ATOM     50  N63 9DQ d   1     -17.086  21.502  12.593  0.00  0.00    -0.200 N 
ATOM     51  N64 9DQ d   1     -17.488  20.296  12.052  0.00  0.00     0.021 NA
ATOM     52  H18 9DQ d   1     -16.982  21.746  13.588  0.00  0.00     0.208 HD
ATOM     53  N65 9DQ d   1     -17.500  20.371  10.666  0.00  0.00    -0.141 NA
ENDBRANCH  45  48
ENDBRANCH  43  45
BRANCH  43  54
ATOM     54  N66 9DQ d   1     -18.231  24.336   9.784  0.00  0.00    -0.346 N 
ATOM     55  C67 9DK d   1     -19.464  23.922  10.142  0.00  0.00     0.235 C 
ATOM     56  O68 9DK d   1     -19.947  22.860   9.743  0.00  0.00    -0.272 OA
ATOM     57  H19 9DQ d   1     -17.957  25.214  10.177  0.00  0.00     0.163 HD
BRANCH  55  58
ATOM     58  C69 9DK d   1     -20.257  24.871  11.093  0.00  0.00     0.114 C 
BRANCH  58  59
ATOM     59  C70 9DK d   1     -19.300  25.990  11.624  0.00  0.00    -0.053 C 
ATOM     60  H1  9DK d   1     -18.453  25.528  12.152  0.00  0.00     0.029 H 
ATOM     61  H2  9DK d   1     -19.850  26.645  12.316  0.00  0.00     0.029 H 
ATOM     62  H3  9DK d   1     -18.925  26.584  10.777  0.00  0.00     0.029 H 
ENDBRANCH  58  59
BRANCH  58  63
ATOM     63  C71 9DK d   1     -20.792  24.096  12.330  0.00  0.00    -0.053 C 
ATOM     64  H4  9DK d   1     -21.471  23.297  11.997  0.00  0.00     0.029 H 
ATOM     65  H5  9DK d   1     -21.336  24.788  12.989  0.00  0.00     0.029 H 
ATOM     66  H6  9DK d   1     -19.948  23.654  12.879  0.00  0.00     0.029 H 
ENDBRANCH  58  63
BRANCH  58  67
ATOM     67  C72 9DK d   1     -21.472  25.487  10.338  0.00  0.00     0.234 C 
ATOM     68  N74 9DK d   1     -22.267  26.326  11.031  0.00  0.00    -0.360 N 
ATOM     69  H13 9DK d   1     -22.001  26.462  11.985  0.00  0.00     0.162 HD
ATOM     70  O73 9DK d   1     -21.667  25.205   9.149  0.00  0.00    -0.272 OA
BRANCH  68  71
ATOM     71  C75 9DK d   1     -23.462  27.074  10.613  0.00  0.00     0.000 C 
ATOM     72  H7  9DK d   1     -24.130  27.131  11.485  0.00  0.00     0.064 H 
ATOM     73  H8  9DK d   1     -23.130  28.086  10.339  0.00  0.00     0.064 H 
BRANCH  71  74
ATOM     74  C76 9DK d   1     -24.295  26.540   9.442  0.00  0.00    -0.011 C 
ATOM     75  H9  9DK d   1     -23.635  26.384   8.576  0.00  0.00     0.044 H 
ATOM     76  H10 9DK d   1     -25.067  27.281   9.186  0.00  0.00     0.044 H 
BRANCH  74  77
ATOM     77  C77 9DK d   1     -24.961  25.242   9.785  0.00  0.00     0.029 A 
ATOM     78  C78 9DK d   1     -24.589  23.948   9.459  0.00  0.00     0.025 A 
ATOM     79  N79 9DK d   1     -25.554  23.160  10.021  0.00  0.00    -0.254 NA
ATOM     80  H11 9DK d   1     -23.721  23.630   8.883  0.00  0.00     0.117 H 
ATOM     81  C80 9DK d   1     -26.427  24.015  10.634  0.00  0.00     0.063 A 
ATOM     82  N81 9DK d   1     -26.076  25.267  10.494  0.00  0.00    -0.353 N 
ATOM     83  H12 9DK d   1     -27.314  23.691  11.177  0.00  0.00     0.143 H 
ATOM     84  H14 9DK d   1     -26.565  26.097  10.859  0.00  0.00     0.166 HD
ENDBRANCH  74  77
ENDBRANCH  71  74
ENDBRANCH  68  71
ENDBRANCH  58  67
ENDBRANCH  55  58
ENDBRANCH  43  54
ENDBRANCH  40  43
ENDBRANCH  36  39
ENDBRANCH  33  36
ENDBRANCH  30  32
BRANCH  30  85
ATOM     85  CB  THR d   1     -21.155  28.112   7.084  0.00  0.00     0.060 C 
ATOM     86  H25 THR d   1     -21.935  27.337   7.063  0.00  0.00     0.086 H 
BRANCH  85  87
ATOM     87  OG1 THR d   1     -21.758  29.328   6.690  0.00  0.00    -0.393 OA
ATOM     88  H26 THR d   1     -22.422  29.571   7.324  0.00  0.00     0.210 HD
ENDBRANCH  85  87
BRANCH  85  89
ATOM     89  CG2 THR d   1     -20.745  28.297   8.555  0.00  0.00    -0.050 C 
ATOM     90  H27 THR d   1     -21.609  28.655   9.134  0.00  0.00     0.031 H 
ATOM     91  H28 THR d   1     -19.930  29.033   8.619  0.00  0.00     0.031 H 
ATOM     92  H29 THR d   1     -20.403  27.335   8.964  0.00  0.00     0.031 H 
ENDBRANCH  85  89
ENDBRANCH  30  85
ENDBRANCH  27  30
ENDBRANCH   7  26
ENDBRANCH   4   7
ENDBRANCH   1   3
BRANCH   1  93
ATOM     93  C   THR d   1     -14.806  28.163   3.522  0.00  0.00     0.243 C 
ATOM     94  O   THR d   1     -13.777  28.513   2.946  0.00  0.00    -0.271 OA
ATOM     95  N   SER d   1     -16.033  28.640   3.275  0.00  0.00    -0.344 N 
ATOM     96  H47 SER d   1     -16.789  28.267   3.813  0.00  0.00     0.163 HD
BRANCH  95  97
ATOM     97  CA  SER d   1     -16.352  29.655   2.288  0.00  0.00     0.109 C 
ATOM     98  H48 SER d   1     -16.069  29.252   1.304  0.00  0.00     0.090 H 
BRANCH  97  99
ATOM     99  C   SER d   1     -15.491  30.922   2.483  0.00  0.00     0.243 C 
ATOM    100  O   SER d   1     -14.648  31.199   1.630  0.00  0.00    -0.271 OA
ATOM    101  N   ASP d   1     -15.700  31.666   3.583  0.00  0.00    -0.345 N 
ATOM    102  H52 ASP d   1     -16.406  31.371   4.227  0.00  0.00     0.163 HD
BRANCH 101 103
ATOM    103  CA  ASP d   1     -14.944  32.893   3.889  0.00  0.00     0.098 C 
ATOM    104  H53 ASP d   1     -15.118  33.575   3.044  0.00  0.00     0.088 H 
BRANCH 103 105
ATOM    105  C   ASP d   1     -13.425  32.634   3.965  0.00  0.00     0.241 C 
ATOM    106  O   ASP d   1     -12.635  33.543   3.711  0.00  0.00    -0.271 OA
ATOM    107  N17 9DW d   1     -13.052  31.397   4.313  0.00  0.00    -0.346 N 
ATOM    108  H74 9DW d   1     -13.777  30.735   4.503  0.00  0.00     0.163 HD
BRANCH 107 109
ATOM    109  C16 9DW d   1     -11.672  30.936   4.438  0.00  0.00     0.093 C 
ATOM    110  H70 9DW d   1     -11.127  31.674   5.045  0.00  0.00     0.088 H 
BRANCH 109 111
ATOM    111  C15 9DW d   1     -11.596  29.572   5.165  0.00  0.00    -0.014 C 
ATOM    112  H65 9DW d   1     -12.250  29.605   6.049  0.00  0.00     0.043 H 
ATOM    113  H66 9DW d   1     -11.945  28.786   4.480  0.00  0.00     0.043 H 
BRANCH 111 114
ATOM    114  C12 9DW d   1     -10.182  29.237   5.614  0.00  0.00    -0.056 A 
ATOM    115  C11 9DW d   1      -9.316  28.532   4.775  0.00  0.00    -0.076 A 
ATOM    116  C10 9DW d   1      -8.026  28.244   5.201  0.00  0.00    -0.072 A 
ATOM    117  H62 9DW d   1      -9.650  28.211   3.795  0.00  0.00     0.084 H 
ATOM    118  C09 9DW d   1      -7.601  28.664   6.461  0.00  0.00    -0.025 A 
ATOM    119  H69 9DW d   1      -7.351  27.694   4.556  0.00  0.00     0.084 H 
ATOM    120  C14 9DW d   1      -8.469  29.371   7.296  0.00  0.00    -0.072 A 
ATOM    121  C13 9DW d   1      -9.757  29.661   6.872  0.00  0.00    -0.076 A 
ATOM    122  H64 9DW d   1      -8.136  29.693   8.276  0.00  0.00     0.084 H 
ATOM    123  H63 9DW d   1     -10.430  30.215   7.516  0.00  0.00     0.084 H 
BRANCH 118 124
ATOM    124  C08 9DW d   1      -6.235  28.365   6.943  0.00  0.00    -0.019 A 
ATOM    125  C07 9DW d   1      -5.327  29.424   7.025  0.00  0.00    -0.069 A 
ATOM    126  C06 9DW d   1      -4.028  29.224   7.474  0.00  0.00    -0.050 A 
ATOM    127  H61 9DW d   1      -5.642  30.419   6.733  0.00  0.00     0.085 H 
ATOM    128  C05 9DW d   1      -3.609  27.957   7.855  0.00  0.00     0.068 A 
ATOM    129  H68 9DW d   1      -3.340  30.060   7.527  0.00  0.00     0.087 H 
ATOM    130  C04 9DW d   1      -4.511  26.889   7.783  0.00  0.00    -0.044 A 
ATOM    131  C03 9DW d   1      -5.824  27.071   7.334  0.00  0.00    -0.045 A 
ATOM    132  H67 9DW d   1      -4.185  25.899   8.082  0.00  0.00     0.088 H 
BRANCH 128 133
ATOM    133  OA6 9DW d   1      -2.312  27.825   8.291  0.00  0.00    -0.356 OA
BRANCH 133 134
ATOM    134  CA7 9DW d   1      -2.016  26.669   9.063  0.00  0.00     0.010 C 
ATOM    135  H71 9DW d   1      -0.954  26.681   9.348  0.00  0.00     0.066 H 
ATOM    136  H72 9DW d   1      -2.226  25.767   8.469  0.00  0.00     0.066 H 
ATOM    137  H73 9DW d   1      -2.639  26.664   9.969  0.00  0.00     0.066 H 
ENDBRANCH 133 134
ENDBRANCH 128 133
BRANCH 131 138
ATOM    138  C02 9DW d   1      -6.726  25.826   7.293  0.00  0.00    -0.043 C 
ATOM    139  H59 9DW d   1      -7.102  25.721   6.265  0.00  0.00     0.039 H 
ATOM    140  H60 9DW d   1      -6.104  24.955   7.547  0.00  0.00     0.039 H 
BRANCH 138 141
ATOM    141  C01 9DW d   1      -7.941  25.823   8.237  0.00  0.00    -0.073 C 
ATOM    142  H56 9DW d   1      -8.500  24.884   8.112  0.00  0.00     0.028 H 
ATOM    143  H57 9DW d   1      -8.595  26.674   7.996  0.00  0.00     0.028 H 
ATOM    144  H58 9DW d   1      -7.597  25.909   9.278  0.00  0.00     0.028 H 
ENDBRANCH 138 141
ENDBRANCH 131 138
ENDBRANCH 118 124
ENDBRANCH 111 114
ENDBRANCH 109 111
BRANCH 109 145
ATOM    145  C88 9DW d   1     -10.984  30.848   3.070  0.00  0.00     0.241 C 
ATOM    146  O89 9DW d   1      -9.894  31.399   2.923  0.00  0.00    -0.271 OA
ATOM    147  N90 9DZ d   1     -11.630  30.154   2.120  0.00  0.00    -0.346 N 
ATOM    148  H91 9DZ d   1     -12.507  29.747   2.376  0.00  0.00     0.163 HD
BRANCH 147 149
ATOM    149  C91 9DZ d   1     -11.177  29.936   0.752  0.00  0.00     0.089 C 
ATOM    150  H75 9DZ d   1     -10.288  29.289   0.783  0.00  0.00     0.087 H 
BRANCH 149 151
ATOM    151  C92 9DZ d   1     -12.248  29.206  -0.096  0.00  0.00    -0.038 C 
ATOM    152  H76 9DZ d   1     -13.149  29.837  -0.111  0.00  0.00     0.036 H 
ATOM    153  H77 9DZ d   1     -12.476  28.252   0.403  0.00  0.00     0.036 H 
BRANCH 151 154
ATOM    154  C93 9DZ d   1     -11.869  28.890  -1.567  0.00  0.00    -0.059 C 
ATOM    155  H78 9DZ d   1     -11.277  29.730  -1.959  0.00  0.00     0.033 H 
ATOM    156  H79 9DZ d   1     -12.797  28.793  -2.149  0.00  0.00     0.033 H 
BRANCH 154 157
ATOM    157  C94 9DZ d   1     -11.051  27.599  -1.745  0.00  0.00    -0.041 C 
ATOM    158  H80 9DZ d   1     -11.691  26.739  -1.497  0.00  0.00     0.040 H 
ATOM    159  H81 9DZ d   1     -10.193  27.628  -1.058  0.00  0.00     0.040 H 
BRANCH 157 160
ATOM    160  C95 9DZ d   1     -10.534  27.429  -3.164  0.00  0.00    -0.057 A 
ATOM    161  C96 9DZ d   1     -11.247  26.663  -4.089  0.00  0.00    -0.071 A 
ATOM    162  C97 9DZ d   1     -10.753  26.526  -5.386  0.00  0.00    -0.061 A 
ATOM    163  H82 9DZ d   1     -12.174  26.180  -3.802  0.00  0.00     0.085 H 
ATOM    164  C98 9DZ d   1      -9.574  27.137  -5.769  0.00  0.00    -0.071 A 
ATOM    165  C99 9DZ d   1      -8.862  27.898  -4.865  0.00  0.00    -0.061 A 
ATOM    166  H83 9DZ d   1      -9.208  27.018  -6.782  0.00  0.00     0.085 H 
ATOM    167  CA0 9DZ d   1      -9.339  28.049  -3.556  0.00  0.00    -0.071 A 
ATOM    168  H84 9DZ d   1      -8.782  28.647  -2.844  0.00  0.00     0.085 H 
BRANCH 162 169
ATOM    169  CA2 9DZ d   1     -11.457  25.723  -6.427  0.00  0.00    -0.051 C 
ATOM    170  H88 9DZ d   1     -12.374  25.292  -6.000  0.00  0.00     0.033 H 
ATOM    171  H89 9DZ d   1     -10.798  24.913  -6.773  0.00  0.00     0.033 H 
ATOM    172  H90 9DZ d   1     -11.718  26.372  -7.276  0.00  0.00     0.033 H 
ENDBRANCH 162 169
BRANCH 165 173
ATOM    173  CA1 9DZ d   1      -7.588  28.530  -5.371  0.00  0.00    -0.051 C 
ATOM    174  H85 9DZ d   1      -7.439  28.259  -6.427  0.00  0.00     0.033 H 
ATOM    175  H86 9DZ d   1      -6.737  28.168  -4.776  0.00  0.00     0.033 H 
ATOM    176  H87 9DZ d   1      -7.660  29.624  -5.280  0.00  0.00     0.033 H 
ENDBRANCH 165 173
ENDBRANCH 157 160
ENDBRANCH 154 157
ENDBRANCH 151 154
ENDBRANCH 149 151
BRANCH 149 177
ATOM    177  CA3 9DZ d   1     -10.757  31.288   0.160  0.00  0.00     0.238 C 
ATOM    178  NA5 9DZ d   1      -9.467  31.535   0.083  0.00  0.00    -0.368 N 
ATOM    179  H92 9DZ d   1      -9.146  32.403  -0.296  0.00  0.00     0.159 HD
ATOM    180  H93 9DZ d   1      -8.808  30.855   0.403  0.00  0.00     0.159 HD
ATOM    181  OA4 9DZ d   1     -11.577  32.113  -0.209  0.00  0.00    -0.271 OA
ENDBRANCH 149 177
ENDBRANCH 147 149
ENDBRANCH 109 145
ENDBRANCH 107 109
ENDBRANCH 103 105
BRANCH 103 182
ATOM    182  CB  ASP d   1     -15.386  33.650   5.170  0.00  0.00     0.043 C 
ATOM    183  H54 ASP d   1     -15.214  34.722   4.994  0.00  0.00     0.052 H 
ATOM    184  H55 ASP d   1     -14.742  33.306   5.993  0.00  0.00     0.052 H 
BRANCH 182 185
ATOM    185  CG  ASP d   1     -16.840  33.490   5.629  0.00  0.00     0.175 C 
ATOM    186  OD1 ASP d   1     -17.148  34.035   6.712  0.00  0.00    -0.648 OA
ATOM    187  OD2 ASP d   1     -17.642  32.842   4.927  0.00  0.00    -0.648 OA
ENDBRANCH 182 185
ENDBRANCH 103 182
ENDBRANCH 101 103
ENDBRANCH  97  99
BRANCH  97 188
ATOM    188  CB  SER d   1     -17.890  29.857   2.244  0.00  0.00     0.044 C 
ATOM    189  H49 SER d   1     -18.100  30.927   2.099  0.00  0.00     0.077 H 
ATOM    190  H50 SER d   1     -18.315  29.526   3.203  0.00  0.00     0.077 H 
BRANCH 188 191
ATOM    191  OG  SER d   1     -18.511  29.130   1.200  0.00  0.00    -0.398 OA
ATOM    192  H51 SER d   1     -19.448  29.289   1.219  0.00  0.00     0.209 HD
ENDBRANCH 188 191
ENDBRANCH  97 188
ENDBRANCH  95  97
ENDBRANCH   1  93
BRANCH   1 193
ATOM    193  CB  THR d   1     -15.109  25.776   3.874  0.00  0.00     0.060 C 
ATOM    194  H42 THR d   1     -14.860  25.910   2.811  0.00  0.00     0.086 H 
BRANCH 193 195
ATOM    195  OG1 THR d   1     -16.491  25.543   4.001  0.00  0.00    -0.393 OA
ATOM    196  H43 THR d   1     -16.714  25.463   4.921  0.00  0.00     0.210 HD
ENDBRANCH 193 195
BRANCH 193 197
ATOM    197  CG2 THR d   1     -14.408  24.513   4.371  0.00  0.00    -0.050 C 
ATOM    198  H44 THR d   1     -14.751  23.648   3.784  0.00  0.00     0.031 H 
ATOM    199  H45 THR d   1     -14.648  24.354   5.433  0.00  0.00     0.031 H 
ATOM    200  H46 THR d   1     -13.320  24.627   4.254  0.00  0.00     0.031 H 
ENDBRANCH 193 197
ENDBRANCH   1 193
TORSDOF 53
