REMARK  6 active torsions:
REMARK  status: ('A' for Active; 'I' for Inactive)
REMARK    1  A    between atoms: P_1  and  O5'_5 
REMARK    2  A    between atoms: O5'_5  and  C5'_6 
REMARK    3  A    between atoms: C5'_6  and  C4'_7 
REMARK    4  A    between atoms: C3'_9  and  O3'_10 
REMARK    5  A    between atoms: C2'_11  and  O2'_12 
REMARK    6  A    between atoms: C1'_13  and  N9_14 
ROOT
ATOM      1  C4' AMP d   1     -15.729  -9.274  41.408  0.00  0.00     0.089 C 
ATOM      2  O4' AMP d   1     -16.354 -10.495  41.031  0.00  0.00    -0.353 OA
ATOM      3  C3' AMP d   1     -15.271  -9.462  42.849  0.00  0.00     0.091 C 
ATOM      4  C2' AMP d   1     -15.199 -10.960  42.947  0.00  0.00     0.105 C 
ATOM      5  C1' AMP d   1     -16.414 -11.367  42.173  0.00  0.00     0.139 C 
ATOM      6  H3  AMP d   1     -16.446  -8.441  41.350  0.00  0.00     0.090 H 
ATOM      7  H4  AMP d   1     -14.288  -9.002  43.028  0.00  0.00     0.091 H 
ATOM      8  H6  AMP d   1     -14.282 -11.326  42.463  0.00  0.00     0.093 H 
ATOM      9  H8  AMP d   1     -17.331 -11.212  42.761  0.00  0.00     0.122 H 
ENDROOT
BRANCH   5  10
ATOM     10  N9  AMP d   1     -16.344 -12.764  41.711  0.00  0.00    -0.294 N 
ATOM     11  C8  AMP d   1     -15.569 -13.752  42.176  0.00  0.00     0.071 A 
ATOM     12  N7  AMP d   1     -15.768 -14.864  41.456  0.00  0.00    -0.236 NA
ATOM     13  H9  AMP d   1     -14.880 -13.665  43.014  0.00  0.00     0.144 H 
ATOM     14  C5  AMP d   1     -16.682 -14.582  40.518  0.00  0.00     0.149 A 
ATOM     15  C6  AMP d   1     -17.333 -15.307  39.419  0.00  0.00     0.155 A 
ATOM     16  C4  AMP d   1     -17.058 -13.198  40.690  0.00  0.00     0.167 A 
ATOM     17  N6  AMP d   1     -17.009 -16.584  39.197  0.00  0.00    -0.382 N 
ATOM     18  N1  AMP d   1     -18.239 -14.660  38.651  0.00  0.00    -0.222 NA
ATOM     19  H10 AMP d   1     -17.458 -17.103  38.429  0.00  0.00     0.157 HD
ATOM     20  H11 AMP d   1     -16.310 -17.049  39.793  0.00  0.00     0.157 HD
ATOM     21  C2  AMP d   1     -18.534 -13.357  38.864  0.00  0.00     0.091 A 
ATOM     22  N3  AMP d   1     -17.969 -12.636  39.854  0.00  0.00    -0.222 NA
ATOM     23  H12 AMP d   1     -19.253 -12.873  38.213  0.00  0.00     0.146 H 
ENDBRANCH   5  10
BRANCH   4  24
ATOM     24  O2' AMP d   1     -15.246 -11.478  44.252  0.00  0.00    -0.388 OA
ATOM     25  H7  AMP d   1     -14.514 -11.139  44.753  0.00  0.00     0.210 HD
ENDBRANCH   4  24
BRANCH   1  26
ATOM     26  C5' AMP d   1     -14.574  -9.002  40.472  0.00  0.00     0.059 C 
ATOM     27  H1  AMP d   1     -13.784  -9.751  40.633  0.00  0.00     0.079 H 
ATOM     28  H2  AMP d   1     -14.923  -9.056  39.430  0.00  0.00     0.079 H 
BRANCH  26  29
ATOM     29  O5' AMP d   1     -14.060  -7.703  40.736  0.00  0.00    -0.280 OA
BRANCH  29  30
ATOM     30  P   AMP d   1     -13.013  -7.015  39.742  0.00  0.00     0.422 P 
ATOM     31  O1P AMP d   1     -13.782  -6.860  38.471  0.00  0.00    -0.617 OA
ATOM     32  O2P AMP d   1     -12.760  -5.709  40.444  0.00  0.00    -0.617 OA
ATOM     33  O3P AMP d   1     -11.893  -8.030  39.694  0.00  0.00    -0.617 OA
ENDBRANCH  29  30
ENDBRANCH  26  29
ENDBRANCH   1  26
BRANCH   3  34
ATOM     34  O3' AMP d   1     -16.233  -8.903  43.749  0.00  0.00    -0.390 OA
ATOM     35  H5  AMP d   1     -15.937  -9.026  44.643  0.00  0.00     0.210 HD
ENDBRANCH   3  34
TORSDOF 6
