REMARK WARNING: 32 MAX_TORS EXCEEDED!!!
REMARK  61 active torsions:
REMARK  status: ('A' for Active; 'I' for Inactive)
REMARK    1  A    between atoms: CA_2  and  N_1 
REMARK    2  A    between atoms: C_3  and  CA_2 
REMARK    3  A    between atoms: CA_2  and  CB_5 
REMARK       I    between atoms: N_9  and  C_3 
REMARK    4  A    between atoms: CB_5  and  CG_6 
REMARK    5  A    between atoms: CG_6  and  SD_7 
REMARK    6  A    between atoms: SD_7  and  CE_8 
REMARK    7  A    between atoms: CA_10  and  N_9 
REMARK    8  A    between atoms: C_11  and  CA_10 
REMARK    9  A    between atoms: CA_10  and  CB_13 
REMARK       I    between atoms: N_17  and  C_11 
REMARK   10  A    between atoms: CB_13  and  CG_14 
REMARK   11  A    between atoms: CA_18  and  N_17 
REMARK   12  A    between atoms: C_19  and  CA_18 
REMARK   13  A    between atoms: CA_18  and  CB_21 
REMARK       I    between atoms: N_27  and  C_19 
REMARK   14  A    between atoms: CB_21  and  CG1_22 
REMARK   15  A    between atoms: CB_21  and  CG2_23 
REMARK   16  A    between atoms: CG1_22  and  CD1_24 
REMARK   17  A    between atoms: CA_28  and  N_27 
REMARK   18  A    between atoms: CA_39  and  CB_42 
REMARK   19  A    between atoms: CB_42  and  CG1_43 
REMARK   20  A    between atoms: CB_42  and  CG2_44 
REMARK   21  A    between atoms: CG1_43  and  CD1_45 
REMARK   22  A    between atoms: CA_47  and  CB_50 
REMARK   23  A    between atoms: CB_50  and  CG_51 
REMARK   24  A    between atoms: CA_55  and  CB_58 
REMARK   25  A    between atoms: CB_58  and  CG_59 
REMARK   26  A    between atoms: CA_63  and  CB_66 
REMARK   27  A    between atoms: CB_66  and  CG1_67 
REMARK   28  A    between atoms: CB_66  and  CG2_68 
REMARK   29  A    between atoms: CG1_67  and  CD1_69 
REMARK   30  A    between atoms: CA_71  and  CB_74 
REMARK   31  A    between atoms: CB_74  and  CG_75 
REMARK   32  A    between atoms: CG_75  and  CD1_76 
REMARK   33  A    between atoms: CG_75  and  CD2_77 
REMARK   34  A    between atoms: CA_83  and  C_84 
REMARK       I    between atoms: C_84  and  N_92 
REMARK   35  A    between atoms: N_92  and  CA_93 
REMARK   36  A    between atoms: CA_93  and  C_94 
REMARK   37  A    between atoms: CA_93  and  CB_96 
REMARK       I    between atoms: C_94  and  N_101 
REMARK   38  A    between atoms: CB_96  and  CG_97 
REMARK   39  A    between atoms: CG_97  and  CD_98 
REMARK   40  A    between atoms: N_101  and  CA_102 
REMARK   41  A    between atoms: CA_102  and  C_103 
REMARK   42  A    between atoms: CA_102  and  CB_105 
REMARK       I    between atoms: C_103  and  N_109 
REMARK   43  A    between atoms: CB_105  and  CG_106 
REMARK   44  A    between atoms: CG_106  and  CD1_107 
REMARK   45  A    between atoms: CG_106  and  CD2_108 
REMARK   46  A    between atoms: N_109  and  CA_110 
REMARK   47  A    between atoms: CA_110  and  C_111 
REMARK   48  A    between atoms: CA_110  and  CB_113 
REMARK       I    between atoms: C_111  and  N_117 
REMARK   49  A    between atoms: CB_113  and  CG_114 
REMARK   50  A    between atoms: N_117  and  CA_118 
REMARK   51  A    between atoms: CA_118  and  C_119 
REMARK   52  A    between atoms: CA_118  and  CB_121 
REMARK       I    between atoms: C_119  and  N_126 
REMARK   53  A    between atoms: CB_121  and  CG_122 
REMARK   54  A    between atoms: CG_122  and  CD_123 
REMARK   55  A    between atoms: CD_123  and  CE_124 
REMARK   56  A    between atoms: CE_124  and  NZ_125 
REMARK   57  A    between atoms: N_126  and  CA_127 
REMARK   58  A    between atoms: CA_127  and  C_128 
REMARK   59  A    between atoms: CA_127  and  CB_130 
REMARK   60  A    between atoms: CB_130  and  CG_131 
REMARK   61  A    between atoms: CG_131  and  CD_132 
ROOT
ATOM      1  N   ASP d   1      -2.148  42.427  -9.978  0.00  0.00    -0.345 N 
ATOM      2  CA  ASP d   1      -2.437  43.516 -10.907  0.00  0.00     0.098 C 
ATOM      3  C   ASP d   1      -1.192  44.332 -11.234  0.00  0.00     0.241 C 
ATOM      4  O   ASP d   1      -1.049  44.818 -12.361  0.00  0.00    -0.271 OA
ATOM      5  N   ASP d   1      -0.283  44.494 -10.270  0.00  0.00    -0.345 N 
ATOM      6  CA  ASP d   1       0.966  45.194 -10.551  0.00  0.00     0.098 C 
ATOM      7  C   ASP d   1       1.865  44.368 -11.462  0.00  0.00     0.241 C 
ATOM      8  O   ASP d   1       2.579  44.921 -12.308  0.00  0.00    -0.271 OA
ATOM      9  H49 ASP d   1      -2.592  42.408  -9.082  0.00  0.00     0.163 HD
ATOM     10  H50 ASP d   1      -2.808  43.075 -11.844  0.00  0.00     0.088 H 
ATOM     11  H53 ASP d   1      -0.458  44.135  -9.353  0.00  0.00     0.163 HD
ATOM     12  H54 ASP d   1       0.725  46.134 -11.069  0.00  0.00     0.088 H 
ATOM     13  N   ILE d   1      -1.820  40.576  -8.065  0.00  0.00    -0.346 N 
ATOM     14  CA  ILE d   1      -1.159  40.296  -9.335  0.00  0.00     0.092 C 
ATOM     15  C   ILE d   1      -1.295  41.456 -10.315  0.00  0.00     0.241 C 
ATOM     16  O   ILE d   1      -0.639  41.471 -11.356  0.00  0.00    -0.271 OA
ATOM     17  N   ILE d   1       1.846  43.042 -11.305  0.00  0.00    -0.346 N 
ATOM     18  CA  ILE d   1       2.658  42.181 -12.157  0.00  0.00     0.092 C 
ATOM     19  C   ILE d   1       2.105  42.156 -13.576  0.00  0.00     0.241 C 
ATOM     20  O   ILE d   1       2.867  42.043 -14.545  0.00  0.00    -0.271 OA
ATOM     21  H38 ILE d   1      -2.780  40.857  -8.065  0.00  0.00     0.163 HD
ATOM     22  H39 ILE d   1      -0.088  40.147  -9.130  0.00  0.00     0.088 H 
ATOM     23  H57 ILE d   1       1.269  42.636 -10.596  0.00  0.00     0.163 HD
ATOM     24  H58 ILE d   1       3.675  42.598 -12.197  0.00  0.00     0.088 H 
ATOM     25  C7  9FZ d   1      -1.020  47.117  -6.816  0.00  0.00     0.069 A 
ATOM     26  C2  9FZ d   1      -0.679  44.202  -4.730  0.00  0.00     0.013 C 
ATOM     27  CA  9FZ d   1      -1.988  40.695  -5.655  0.00  0.00     0.089 C 
ATOM     28  C   9FZ d   1      -1.176  40.466  -6.907  0.00  0.00     0.241 C 
ATOM     29  O   9FZ d   1       0.010  40.188  -6.831  0.00  0.00    -0.271 OA
ATOM     30  CB  9FZ d   1      -1.337  41.773  -4.798  0.00  0.00    -0.036 C 
ATOM     31  C1  9FZ d   1      -1.144  43.047  -5.607  0.00  0.00    -0.046 C 
ATOM     32  C8  9FZ d   1      -1.634  45.994  -6.287  0.00  0.00     0.020 A 
ATOM     33  C9  9FZ d   1      -1.906  47.950  -7.705  0.00  0.00    -0.022 C 
ATOM     34  N4  9FZ d   1      -0.689  45.413  -5.545  0.00  0.00    -0.283 N 
ATOM     35  N5  9FZ d   1       0.515  46.128  -5.583  0.00  0.00     0.004 NA
ATOM     36  N6  9FZ d   1       0.267  47.232  -6.418  0.00  0.00    -0.163 NA
ATOM     37  H27 9FZ d   1       0.339  44.007  -4.363  0.00  0.00     0.066 H 
ATOM     38  H28 9FZ d   1      -1.361  44.321  -3.875  0.00  0.00     0.066 H 
ATOM     39  H30 9FZ d   1      -2.991  41.038  -5.948  0.00  0.00     0.087 H 
ATOM     40  H31 9FZ d   1      -0.358  41.415  -4.446  0.00  0.00     0.036 H 
ATOM     41  H32 9FZ d   1      -1.982  41.987  -3.933  0.00  0.00     0.036 H 
ATOM     42  H33 9FZ d   1      -0.390  42.864  -6.386  0.00  0.00     0.035 H 
ATOM     43  H34 9FZ d   1      -2.100  43.319  -6.078  0.00  0.00     0.035 H 
ATOM     44  H35 9FZ d   1      -2.659  45.660  -6.442  0.00  0.00     0.116 H 
ATOM     45  H36 9FZ d   1      -2.758  48.328  -7.120  0.00  0.00     0.042 H 
ATOM     46  H37 9FZ d   1      -2.277  47.330  -8.534  0.00  0.00     0.042 H 
ATOM     47  N   LEU d   1       0.789  42.265 -13.727  0.00  0.00    -0.346 N 
ATOM     48  CA  LEU d   1       0.169  42.262 -15.045  0.00  0.00     0.089 C 
ATOM     49  C   LEU d   1       0.491  43.540 -15.814  0.00  0.00     0.241 C 
ATOM     50  O   LEU d   1       0.677  43.508 -17.030  0.00  0.00    -0.271 OA
ATOM     51  H68 LEU d   1       0.210  42.351 -12.916  0.00  0.00     0.163 HD
ATOM     52  H69 LEU d   1       0.571  41.409 -15.611  0.00  0.00     0.087 H 
ATOM     53  C2  9G2 d   1      -1.181  48.865 -14.323  0.00  0.00     0.013 C 
ATOM     54  C9  9G2 d   1      -0.181  48.654  -9.359  0.00  0.00    -0.022 C 
ATOM     55  C8  9G2 d   1      -0.231  48.723 -11.936  0.00  0.00     0.020 A 
ATOM     56  N6  9G2 d   1      -2.206  48.860 -10.894  0.00  0.00    -0.163 NA
ATOM     57  N   9G2 d   1       0.559  44.662 -15.103  0.00  0.00    -0.346 N 
ATOM     58  CA  9G2 d   1       0.902  45.962 -15.743  0.00  0.00     0.089 C 
ATOM     59  CB  9G2 d   1       0.575  47.130 -14.821  0.00  0.00    -0.036 C 
ATOM     60  C1  9G2 d   1      -0.906  47.477 -14.891  0.00  0.00    -0.046 C 
ATOM     61  C10 9G2 d   1      -1.116  49.129  -8.268  0.00  0.00    -0.055 C 
ATOM     62  C7  9G2 d   1      -0.869  48.747 -10.699  0.00  0.00     0.069 A 
ATOM     63  N4  9G2 d   1      -1.186  48.828 -12.861  0.00  0.00    -0.283 N 
ATOM     64  N5  9G2 d   1      -2.449  48.916 -12.275  0.00  0.00     0.004 NA
ATOM     65  H79 9G2 d   1      -2.161  49.215 -14.680  0.00  0.00     0.066 H 
ATOM     66  H80 9G2 d   1      -0.398  49.558 -14.665  0.00  0.00     0.066 H 
ATOM     67  H81 9G2 d   1       0.104  47.609  -9.166  0.00  0.00     0.042 H 
ATOM     68  H82 9G2 d   1       0.721  49.284  -9.367  0.00  0.00     0.042 H 
ATOM     69  H83 9G2 d   1       0.840  48.636 -12.114  0.00  0.00     0.116 H 
ATOM     70  H84 9G2 d   1       0.376  44.632 -14.120  0.00  0.00     0.163 HD
ATOM     71  H85 9G2 d   1       0.299  46.062 -16.657  0.00  0.00     0.087 H 
ATOM     72  H86 9G2 d   1       1.165  48.007 -15.126  0.00  0.00     0.036 H 
ATOM     73  H87 9G2 d   1       0.833  46.856 -13.787  0.00  0.00     0.036 H 
ATOM     74  H88 9G2 d   1      -1.230  47.450 -15.942  0.00  0.00     0.035 H 
ATOM     75  H89 9G2 d   1      -1.475  46.734 -14.312  0.00  0.00     0.035 H 
ATOM     76  H90 9G2 d   1      -0.529  49.592  -7.461  0.00  0.00     0.034 H 
ATOM     77  H91 9G2 d   1      -1.815  49.870  -8.684  0.00  0.00     0.034 H 
ENDROOT
BRANCH  58  78
ATOM     78  C   9G2 d   1       2.361  46.013 -16.127  0.00  0.00     0.241 C 
ATOM     79  O   9G2 d   1       2.735  46.711 -17.055  0.00  0.00    -0.271 OA
ATOM     80  N   GLU d   1       3.190  45.273 -15.398  0.00  0.00    -0.346 N 
ATOM     81  H92 GLU d   1       2.833  44.773 -14.609  0.00  0.00     0.163 HD
BRANCH  80  82
ATOM     82  CA  GLU d   1       4.607  45.175 -15.723  0.00  0.00     0.090 C 
ATOM     83  H93 GLU d   1       5.005  46.189 -15.876  0.00  0.00     0.087 H 
BRANCH  82  84
ATOM     84  C   GLU d   1       4.775  44.382 -17.015  0.00  0.00     0.241 C 
ATOM     85  O   GLU d   1       5.723  44.593 -17.772  0.00  0.00    -0.271 OA
ATOM     86  N   LEU d   1       3.835  43.467 -17.258  0.00  0.00    -0.346 N 
ATOM     87  H98 LEU d   1       3.113  43.316 -16.583  0.00  0.00     0.163 HD
BRANCH  86  88
ATOM     88  CA  LEU d   1       3.838  42.682 -18.486  0.00  0.00     0.089 C 
ATOM     89  H99 LEU d   1       4.868  42.349 -18.679  0.00  0.00     0.087 H 
BRANCH  88  90
ATOM     90  C   LEU d   1       3.374  43.505 -19.683  0.00  0.00     0.241 C 
ATOM     91  O   LEU d   1       3.750  43.205 -20.822  0.00  0.00    -0.271 OA
ATOM     92  N   ASP d   1       2.572  44.544 -19.440  0.00  0.00    -0.346 N 
ATOM     93 9H10 ASP d   1       2.306  44.748 -18.498  0.00  0.00     0.163 HD
BRANCH  92  94
ATOM     94  CA  ASP d   1       2.076  45.389 -20.522  0.00  0.00     0.098 C 
ATOM     95 0H11 ASP d   1       1.694  44.732 -21.317  0.00  0.00     0.088 H 
BRANCH  94  96
ATOM     96  C   ASP d   1       3.174  46.260 -21.118  0.00  0.00     0.241 C 
ATOM     97  O   ASP d   1       3.112  46.604 -22.304  0.00  0.00    -0.271 OA
ATOM     98  N   LYS d   1       4.173  46.632 -20.319  0.00  0.00    -0.346 N 
ATOM     99 3H11 LYS d   1       4.210  46.283 -19.383  0.00  0.00     0.163 HD
BRANCH  98 100
ATOM    100  CA  LYS d   1       5.213  47.539 -20.787  0.00  0.00     0.089 C 
ATOM    101 4H11 LYS d   1       4.736  48.458 -21.160  0.00  0.00     0.087 H 
BRANCH 100 102
ATOM    102  C   LYS d   1       6.015  46.910 -21.920  0.00  0.00     0.241 C 
ATOM    103  O   LYS d   1       6.408  45.742 -21.856  0.00  0.00    -0.271 OA
ATOM    104  N   GLU d   1       6.254  47.699 -22.963  0.00  0.00    -0.345 N 
ATOM    105 6H12 GLU d   1       5.914  48.639 -22.946  0.00  0.00     0.163 HD
BRANCH 104 106
ATOM    106  CA  GLU d   1       6.995  47.238 -24.131  0.00  0.00     0.097 C 
ATOM    107 7H12 GLU d   1       7.091  46.144 -24.071  0.00  0.00     0.089 H 
BRANCH 106 108
ATOM    108  C   GLU d   1       8.395  47.844 -24.161  0.00  0.00     0.196 C 
ATOM    109  O   GLU d   1       8.919  48.275 -23.133  0.00  0.00    -0.646 OA
ATOM    110  OXT GLU d   1       9.030  47.915 -25.214  0.00  0.00    -0.646 OA
ENDBRANCH 106 108
BRANCH 106 111
ATOM    111  CB  GLU d   1       6.241  47.590 -25.416  0.00  0.00    -0.028 C 
ATOM    112 8H12 GLU d   1       6.731  47.076 -26.256  0.00  0.00     0.037 H 
ATOM    113 9H12 GLU d   1       6.303  48.678 -25.566  0.00  0.00     0.037 H 
BRANCH 111 114
ATOM    114  CG  GLU d   1       4.771  47.192 -25.404  0.00  0.00     0.018 C 
ATOM    115 0H13 GLU d   1       4.285  47.617 -26.294  0.00  0.00     0.049 H 
ATOM    116 1H13 GLU d   1       4.303  47.605 -24.498  0.00  0.00     0.049 H 
BRANCH 114 117
ATOM    117  CD  GLU d   1       4.567  45.689 -25.412  0.00  0.00     0.172 C 
ATOM    118  OE1 GLU d   1       5.474  44.964 -25.875  0.00  0.00    -0.648 OA
ATOM    119  OE2 GLU d   1       3.497  45.231 -24.957  0.00  0.00    -0.648 OA
ENDBRANCH 114 117
ENDBRANCH 111 114
ENDBRANCH 106 111
ENDBRANCH 104 106
ENDBRANCH 100 102
BRANCH 100 120
ATOM    120  CB  LYS d   1       6.149  47.901 -19.633  0.00  0.00    -0.038 C 
ATOM    121 5H11 LYS d   1       6.876  48.640 -20.000  0.00  0.00     0.036 H 
ATOM    122 6H11 LYS d   1       6.679  46.989 -19.322  0.00  0.00     0.036 H 
BRANCH 120 123
ATOM    123  CG  LYS d   1       5.456  48.484 -18.415  0.00  0.00    -0.061 C 
ATOM    124 7H11 LYS d   1       4.669  47.791 -18.081  0.00  0.00     0.033 H 
ATOM    125 8H11 LYS d   1       5.004  49.450 -18.685  0.00  0.00     0.033 H 
BRANCH 123 126
ATOM    126  CD  LYS d   1       6.448  48.696 -17.282  0.00  0.00    -0.043 C 
ATOM    127 9H11 LYS d   1       7.210  49.420 -17.605  0.00  0.00     0.035 H 
ATOM    128 0H12 LYS d   1       6.931  47.736 -17.046  0.00  0.00     0.035 H 
BRANCH 126 129
ATOM    129  CE  LYS d   1       5.765  49.224 -16.033  0.00  0.00     0.080 C 
ATOM    130 1H12 LYS d   1       4.988  48.510 -15.723  0.00  0.00     0.075 H 
ATOM    131 2H12 LYS d   1       5.301  50.194 -16.263  0.00  0.00     0.075 H 
BRANCH 129 132
ATOM    132  NZ  LYS d   1       6.730  49.404 -14.913  0.00  0.00    -0.079 N 
ATOM    133 3H12 LYS d   1       6.243  49.755 -14.103  0.00  0.00     0.274 HD
ATOM    134 4H12 LYS d   1       7.444  50.061 -15.187  0.00  0.00     0.274 HD
ATOM    135 5H12 LYS d   1       7.157  48.518 -14.691  0.00  0.00     0.274 HD
ENDBRANCH 129 132
ENDBRANCH 126 129
ENDBRANCH 123 126
ENDBRANCH 120 123
ENDBRANCH 100 120
ENDBRANCH  98 100
ENDBRANCH  94  96
BRANCH  94 136
ATOM    136  CB  ASP d   1       0.925  46.263 -20.024  0.00  0.00     0.043 C 
ATOM    137 1H11 ASP d   1       0.564  46.879 -20.860  0.00  0.00     0.052 H 
ATOM    138 2H11 ASP d   1       1.300  46.916 -19.222  0.00  0.00     0.052 H 
BRANCH 136 139
ATOM    139  CG  ASP d   1      -0.235  45.449 -19.484  0.00  0.00     0.175 C 
ATOM    140  OD1 ASP d   1      -0.429  44.307 -19.950  0.00  0.00    -0.648 OA
ATOM    141  OD2 ASP d   1      -0.954  45.953 -18.596  0.00  0.00    -0.648 OA
ENDBRANCH 136 139
ENDBRANCH  94 136
ENDBRANCH  92  94
ENDBRANCH  88  90
BRANCH  88 142
ATOM    142  CB  LEU d   1       2.952  41.446 -18.314  0.00  0.00    -0.035 C 
ATOM    143 0H10 LEU d   1       1.912  41.796 -18.232  0.00  0.00     0.037 H 
ATOM    144 1H10 LEU d   1       3.249  40.956 -17.375  0.00  0.00     0.037 H 
BRANCH 142 145
ATOM    145  CG  LEU d   1       2.992  40.386 -19.415  0.00  0.00    -0.059 C 
ATOM    146 2H10 LEU d   1       2.741  40.870 -20.370  0.00  0.00     0.038 H 
BRANCH 145 147
ATOM    147  CD1 LEU d   1       4.384  39.791 -19.532  0.00  0.00    -0.073 C 
ATOM    148 3H10 LEU d   1       4.393  39.032 -20.328  0.00  0.00     0.028 H 
ATOM    149 4H10 LEU d   1       4.665  39.324 -18.577  0.00  0.00     0.028 H 
ATOM    150 5H10 LEU d   1       5.103  40.586 -19.776  0.00  0.00     0.028 H 
ENDBRANCH 145 147
BRANCH 145 151
ATOM    151  CD2 LEU d   1       1.966  39.300 -19.147  0.00  0.00    -0.073 C 
ATOM    152 6H10 LEU d   1       0.966  39.752 -19.066  0.00  0.00     0.028 H 
ATOM    153 7H10 LEU d   1       2.213  38.786 -18.206  0.00  0.00     0.028 H 
ATOM    154 8H10 LEU d   1       1.975  38.575 -19.974  0.00  0.00     0.028 H 
ENDBRANCH 145 151
ENDBRANCH 142 145
ENDBRANCH  88 142
ENDBRANCH  86  88
ENDBRANCH  82  84
BRANCH  82 155
ATOM    155  CB  GLU d   1       5.382  44.518 -14.579  0.00  0.00    -0.029 C 
ATOM    156  H94 GLU d   1       5.024  43.484 -14.470  0.00  0.00     0.037 H 
ATOM    157  H95 GLU d   1       5.172  45.078 -13.655  0.00  0.00     0.037 H 
BRANCH 155 158
ATOM    158  CG  GLU d   1       6.888  44.481 -14.781  0.00  0.00     0.018 C 
ATOM    159  H96 GLU d   1       7.270  45.513 -14.775  0.00  0.00     0.049 H 
ATOM    160  H97 GLU d   1       7.102  44.017 -15.755  0.00  0.00     0.049 H 
BRANCH 158 161
ATOM    161  CD  GLU d   1       7.602  43.692 -13.700  0.00  0.00     0.172 C 
ATOM    162  OE1 GLU d   1       6.919  43.144 -12.809  0.00  0.00    -0.648 OA
ATOM    163  OE2 GLU d   1       8.848  43.618 -13.744  0.00  0.00    -0.648 OA
ENDBRANCH 158 161
ENDBRANCH 155 158
ENDBRANCH  82 155
ENDBRANCH  80  82
ENDBRANCH  58  78
BRANCH  48 164
ATOM    164  CB  LEU d   1      -1.347  42.092 -14.925  0.00  0.00    -0.035 C 
ATOM    165  H70 LEU d   1      -1.771  42.122 -15.940  0.00  0.00     0.037 H 
ATOM    166  H71 LEU d   1      -1.736  42.938 -14.340  0.00  0.00     0.037 H 
BRANCH 164 167
ATOM    167  CG  LEU d   1      -1.825  40.801 -14.256  0.00  0.00    -0.059 C 
ATOM    168  H72 LEU d   1      -1.462  40.804 -13.217  0.00  0.00     0.038 H 
BRANCH 167 169
ATOM    169  CD1 LEU d   1      -3.346  40.738 -14.220  0.00  0.00    -0.073 C 
ATOM    170  H73 LEU d   1      -3.663  39.803 -13.735  0.00  0.00     0.028 H 
ATOM    171  H74 LEU d   1      -3.739  40.770 -15.247  0.00  0.00     0.028 H 
ATOM    172  H75 LEU d   1      -3.735  41.596 -13.652  0.00  0.00     0.028 H 
ENDBRANCH 167 169
BRANCH 167 173
ATOM    173  CD2 LEU d   1      -1.241  39.579 -14.952  0.00  0.00    -0.073 C 
ATOM    174  H76 LEU d   1      -0.143  39.653 -14.963  0.00  0.00     0.028 H 
ATOM    175  H77 LEU d   1      -1.615  39.532 -15.985  0.00  0.00     0.028 H 
ATOM    176  H78 LEU d   1      -1.542  38.670 -14.411  0.00  0.00     0.028 H 
ENDBRANCH 167 173
ENDBRANCH 164 167
ENDBRANCH  48 164
BRANCH  18 177
ATOM    177  CB  ILE d   1       2.748  40.764 -11.560  0.00  0.00    -0.030 C 
ATOM    178  H59 ILE d   1       1.759  40.289 -11.639  0.00  0.00     0.043 H 
BRANCH 177 179
ATOM    179  CG1 ILE d   1       3.138  40.832 -10.083  0.00  0.00    -0.063 C 
ATOM    180  H60 ILE d   1       2.317  41.312  -9.530  0.00  0.00     0.033 H 
ATOM    181  H61 ILE d   1       4.048  41.443  -9.993  0.00  0.00     0.033 H 
BRANCH 179 182
ATOM    182  CD1 ILE d   1       3.408  39.480  -9.458  0.00  0.00    -0.076 C 
ATOM    183  H65 ILE d   1       3.681  39.613  -8.401  0.00  0.00     0.027 H 
ATOM    184  H66 ILE d   1       4.235  38.988  -9.991  0.00  0.00     0.027 H 
ATOM    185  H67 ILE d   1       2.504  38.857  -9.528  0.00  0.00     0.027 H 
ENDBRANCH 179 182
ENDBRANCH 177 179
BRANCH 177 186
ATOM    186  CG2 ILE d   1       3.751  39.919 -12.333  0.00  0.00    -0.071 C 
ATOM    187  H62 ILE d   1       3.458  39.879 -13.392  0.00  0.00     0.028 H 
ATOM    188  H63 ILE d   1       3.768  38.900 -11.919  0.00  0.00     0.028 H 
ATOM    189  H64 ILE d   1       4.752  40.367 -12.246  0.00  0.00     0.028 H 
ENDBRANCH 177 186
ENDBRANCH  18 177
BRANCH   6 190
ATOM    190  CB  ASP d   1       1.685  45.536  -9.245  0.00  0.00     0.043 C 
ATOM    191  H55 ASP d   1       1.028  46.176  -8.638  0.00  0.00     0.052 H 
ATOM    192  H56 ASP d   1       2.610  46.082  -9.484  0.00  0.00     0.052 H 
BRANCH 190 193
ATOM    193  CG  ASP d   1       2.043  44.304  -8.438  0.00  0.00     0.175 C 
ATOM    194  OD1 ASP d   1       1.248  43.342  -8.436  0.00  0.00    -0.648 OA
ATOM    195  OD2 ASP d   1       3.121  44.299  -7.806  0.00  0.00    -0.648 OA
ENDBRANCH 190 193
ENDBRANCH   6 190
BRANCH   2 196
ATOM    196  CB  ASP d   1      -3.531  44.416 -10.334  0.00  0.00     0.043 C 
ATOM    197  H51 ASP d   1      -3.596  45.327 -10.947  0.00  0.00     0.052 H 
ATOM    198  H52 ASP d   1      -3.261  44.687  -9.303  0.00  0.00     0.052 H 
BRANCH 196 199
ATOM    199  CG  ASP d   1      -4.889  43.741 -10.320  0.00  0.00     0.175 C 
ATOM    200  OD1 ASP d   1      -5.188  42.985 -11.269  0.00  0.00    -0.648 OA
ATOM    201  OD2 ASP d   1      -5.657  43.965  -9.361  0.00  0.00    -0.648 OA
ENDBRANCH 196 199
ENDBRANCH   2 196
BRANCH  14 202
ATOM    202  CB  ILE d   1      -1.710  39.006  -9.973  0.00  0.00    -0.030 C 
ATOM    203  H40 ILE d   1      -1.196  38.850 -10.933  0.00  0.00     0.043 H 
BRANCH 202 204
ATOM    204  CG1 ILE d   1      -3.209  39.150 -10.250  0.00  0.00    -0.063 C 
ATOM    205  H41 ILE d   1      -3.363  40.048 -10.867  0.00  0.00     0.033 H 
ATOM    206  H42 ILE d   1      -3.729  39.272  -9.288  0.00  0.00     0.033 H 
BRANCH 204 207
ATOM    207  CD1 ILE d   1      -3.813  37.968 -10.971  0.00  0.00    -0.076 C 
ATOM    208  H46 ILE d   1      -4.886  38.146 -11.132  0.00  0.00     0.027 H 
ATOM    209  H47 ILE d   1      -3.679  37.061 -10.364  0.00  0.00     0.027 H 
ATOM    210  H48 ILE d   1      -3.313  37.836 -11.942  0.00  0.00     0.027 H 
ENDBRANCH 204 207
ENDBRANCH 202 204
BRANCH 202 211
ATOM    211  CG2 ILE d   1      -1.432  37.800  -9.086  0.00  0.00    -0.071 C 
ATOM    212  H43 ILE d   1      -0.350  37.721  -8.903  0.00  0.00     0.028 H 
ATOM    213  H44 ILE d   1      -1.787  36.887  -9.586  0.00  0.00     0.028 H 
ATOM    214  H45 ILE d   1      -1.958  37.921  -8.127  0.00  0.00     0.028 H 
ENDBRANCH 202 211
ENDBRANCH  14 202
BRANCH  27 215
ATOM    215  N   9FZ d   1      -2.130  39.434  -4.879  0.00  0.00    -0.346 N 
ATOM    216  C   ILE d   1      -2.949  38.463  -5.269  0.00  0.00     0.241 C 
ATOM    217  O   ILE d   1      -3.680  38.556  -6.255  0.00  0.00    -0.271 OA
ATOM    218  H29 9FZ d   1      -1.595  39.314  -4.042  0.00  0.00     0.163 HD
BRANCH 216 219
ATOM    219  CA  ILE d   1      -2.949  37.203  -4.414  0.00  0.00     0.092 C 
ATOM    220  H17 ILE d   1      -2.438  37.428  -3.466  0.00  0.00     0.088 H 
BRANCH 219 221
ATOM    221  N   ILE d   1      -4.315  36.803  -4.113  0.00  0.00    -0.346 N 
ATOM    222  C   ASP d   1      -4.833  36.934  -2.897  0.00  0.00     0.241 C 
ATOM    223  O   ASP d   1      -4.221  37.453  -1.959  0.00  0.00    -0.271 OA
ATOM    224  H16 ILE d   1      -4.880  36.418  -4.843  0.00  0.00     0.163 HD
BRANCH 222 225
ATOM    225  CA  ASP d   1      -6.247  36.396  -2.717  0.00  0.00     0.098 C 
ATOM    226  H13 ASP d   1      -6.462  35.698  -3.540  0.00  0.00     0.088 H 
BRANCH 225 227
ATOM    227  N   ASP d   1      -6.359  35.673  -1.459  0.00  0.00    -0.345 N 
ATOM    228  C   MET d   1      -5.737  34.510  -1.289  0.00  0.00     0.249 C 
ATOM    229  O   MET d   1      -5.088  33.966  -2.182  0.00  0.00    -0.271 OA
ATOM    230  H12 ASP d   1      -6.909  36.054  -0.716  0.00  0.00     0.163 HD
BRANCH 228 231
ATOM    231  CA  MET d   1      -5.876  33.863   0.088  0.00  0.00     0.176 C 
ATOM    232  H4  MET d   1      -6.288  34.614   0.778  0.00  0.00     0.099 H 
BRANCH 231 233
ATOM    233  N   MET d   1      -6.790  32.727   0.058  0.00  0.00    -0.066 N 
ATOM    234  H1  MET d   1      -6.858  32.326   0.980  0.00  0.00     0.275 HD
ATOM    235  H2  MET d   1      -6.443  32.033  -0.586  0.00  0.00     0.275 HD
ATOM    236  H3  MET d   1      -7.701  33.037  -0.241  0.00  0.00     0.275 HD
ENDBRANCH 231 233
BRANCH 231 237
ATOM    237  CB  MET d   1      -4.502  33.429   0.612  0.00  0.00    -0.022 C 
ATOM    238  H5  MET d   1      -4.576  33.299   1.702  0.00  0.00     0.037 H 
ATOM    239  H6  MET d   1      -3.780  34.228   0.386  0.00  0.00     0.037 H 
BRANCH 237 240
ATOM    240  CG  MET d   1      -3.977  32.130   0.012  0.00  0.00    -0.021 C 
ATOM    241  H7  MET d   1      -4.195  32.128  -1.066  0.00  0.00     0.049 H 
ATOM    242  H8  MET d   1      -4.494  31.287   0.493  0.00  0.00     0.049 H 
BRANCH 240 243
ATOM    243  SD  MET d   1      -2.201  31.921   0.240  0.00  0.00    -0.173 SA
BRANCH 243 244
ATOM    244  CE  MET d   1      -1.583  33.366  -0.619  0.00  0.00    -0.035 C 
ATOM    245  H9  MET d   1      -0.484  33.381  -0.567  0.00  0.00     0.041 H 
ATOM    246  H10 MET d   1      -1.985  34.274  -0.145  0.00  0.00     0.041 H 
ATOM    247  H11 MET d   1      -1.900  33.330  -1.672  0.00  0.00     0.041 H 
ENDBRANCH 243 244
ENDBRANCH 240 243
ENDBRANCH 237 240
ENDBRANCH 231 237
ENDBRANCH 228 231
ENDBRANCH 225 227
BRANCH 225 248
ATOM    248  CB  ASP d   1      -7.260  37.537  -2.773  0.00  0.00     0.043 C 
ATOM    249  H14 ASP d   1      -6.825  38.367  -3.349  0.00  0.00     0.052 H 
ATOM    250  H15 ASP d   1      -7.470  37.873  -1.747  0.00  0.00     0.052 H 
BRANCH 248 251
ATOM    251  CG  ASP d   1      -8.564  37.123  -3.425  0.00  0.00     0.175 C 
ATOM    252  OD1 ASP d   1      -8.630  35.993  -3.955  0.00  0.00    -0.648 OA
ATOM    253  OD2 ASP d   1      -9.519  37.927  -3.414  0.00  0.00    -0.648 OA
ENDBRANCH 248 251
ENDBRANCH 225 248
ENDBRANCH 222 225
ENDBRANCH 219 221
BRANCH 219 254
ATOM    254  CB  ILE d   1      -2.182  36.067  -5.114  0.00  0.00    -0.030 C 
ATOM    255  H18 ILE d   1      -2.676  35.856  -6.074  0.00  0.00     0.043 H 
BRANCH 254 256
ATOM    256  CG1 ILE d   1      -2.220  34.795  -4.265  0.00  0.00    -0.063 C 
ATOM    257  H19 ILE d   1      -3.254  34.633  -3.927  0.00  0.00     0.033 H 
ATOM    258  H20 ILE d   1      -1.568  34.941  -3.391  0.00  0.00     0.033 H 
BRANCH 256 259
ATOM    259  CD1 ILE d   1      -1.760  33.558  -5.003  0.00  0.00    -0.076 C 
ATOM    260  H24 ILE d   1      -1.815  32.689  -4.331  0.00  0.00     0.027 H 
ATOM    261  H25 ILE d   1      -0.722  33.696  -5.339  0.00  0.00     0.027 H 
ATOM    262  H26 ILE d   1      -2.409  33.389  -5.875  0.00  0.00     0.027 H 
ENDBRANCH 256 259
ENDBRANCH 254 256
BRANCH 254 263
ATOM    263  CG2 ILE d   1      -0.747  36.482  -5.399  0.00  0.00    -0.071 C 
ATOM    264  H21 ILE d   1      -0.744  37.397  -6.010  0.00  0.00     0.028 H 
ATOM    265  H22 ILE d   1      -0.234  35.676  -5.944  0.00  0.00     0.028 H 
ATOM    266  H23 ILE d   1      -0.225  36.673  -4.450  0.00  0.00     0.028 H 
ENDBRANCH 254 263
ENDBRANCH 219 254
ENDBRANCH 216 219
ENDBRANCH  27 215
TORSDOF 61
