REMARK  7 active torsions:
REMARK  status: ('A' for Active; 'I' for Inactive)
REMARK    1  A    between atoms: C6_6  and  C5_2 
REMARK    2  A    between atoms: C5_2  and  N2_17 
REMARK    3  A    between atoms: C7_5  and  N3_10 
REMARK       I    between atoms: N3_10  and  C6_6 
REMARK    4  A    between atoms: S1_22  and  N4_7 
REMARK    5  A    between atoms: C2_8  and  C1_18 
REMARK    6  A    between atoms: C4_13  and  N5_14 
REMARK    7  A    between atoms: C10_21  and  S1_22 
ROOT
ATOM      1  C6  9E2 d   1      -2.644   7.787  13.592  0.00  0.00     0.242 C 
ATOM      2  N3  9E2 d   1      -3.949   7.441  13.838  0.00  0.00    -0.326 N 
ATOM      3  O1  9E2 d   1      -1.698   7.316  14.225  0.00  0.00    -0.271 OA
ATOM      4  H8  9E2 d   1      -4.663   8.059  13.509  0.00  0.00     0.169 HD
ENDROOT
BRANCH   1   5
ATOM      5  C5  9E2 d   1      -2.304   8.608  12.365  0.00  0.00     0.091 C 
ATOM      6  H2  9E2 d   1      -2.926   8.217  11.546  0.00  0.00     0.082 H 
ATOM      7  H3  9E2 d   1      -1.244   8.414  12.144  0.00  0.00     0.082 H 
BRANCH   5   8
ATOM      8  N2  9E2 d   1      -2.470  10.058  12.355  0.00  0.00    -0.262 N 
ATOM      9  C2  9E2 d   1      -2.002  10.883  13.303  0.00  0.00     0.053 A 
ATOM     10  C3  9E2 d   1      -2.324  12.142  12.945  0.00  0.00     0.111 A 
ATOM     11 CL1  9E2 d   1      -1.959  13.539  13.900  0.00  0.00    -0.078 Cl
ATOM     12  C4  9E2 d   1      -2.997  12.077  11.713  0.00  0.00     0.238 A 
ATOM     13  N1  9E2 d   1      -3.081  10.826  11.352  0.00  0.00    -0.145 NA
BRANCH   9  14
ATOM     14  C1  9E2 d   1      -1.279  10.449  14.552  0.00  0.00    -0.034 C 
ATOM     15  H9  9E2 d   1      -1.011  11.335  15.147  0.00  0.00     0.035 H 
ATOM     16  H10 9E2 d   1      -0.365   9.903  14.276  0.00  0.00     0.035 H 
ATOM     17  H11 9E2 d   1      -1.933   9.793  15.145  0.00  0.00     0.035 H 
ENDBRANCH   9  14
BRANCH  12  18
ATOM     18  N5  9E2 d   1      -3.546  13.210  10.957  0.00  0.00    -0.092 N 
ATOM     19  O5  9E2 d   1      -3.705  13.084   9.753  0.00  0.00    -0.530 OA
ATOM     20  O4  9E2 d   1      -3.846  14.245  11.537  0.00  0.00    -0.530 OA
ENDBRANCH  12  18
ENDBRANCH   5   8
ENDBRANCH   1   5
BRANCH   2  21
ATOM     21  C7  9E2 d   1      -4.353   6.278  14.521  0.00  0.00     0.034 A 
ATOM     22  C8  9E2 d   1      -5.709   6.059  14.724  0.00  0.00    -0.056 A 
ATOM     23  C9  9E2 d   1      -6.138   4.931  15.414  0.00  0.00    -0.058 A 
ATOM     24  H5  9E2 d   1      -6.434   6.769  14.344  0.00  0.00     0.087 H 
ATOM     25  C10 9E2 d   1      -5.242   4.012  15.908  0.00  0.00     0.079 A 
ATOM     26  H4  9E2 d   1      -7.200   4.773  15.566  0.00  0.00     0.086 H 
ATOM     27  C11 9E2 d   1      -3.891   4.228  15.695  0.00  0.00    -0.058 A 
ATOM     28  C12 9E2 d   1      -3.447   5.356  15.010  0.00  0.00    -0.056 A 
ATOM     29  H1  9E2 d   1      -3.169   3.509  16.067  0.00  0.00     0.086 H 
ATOM     30  H12 9E2 d   1      -2.385   5.512  14.859  0.00  0.00     0.087 H 
BRANCH  25  31
ATOM     31  S1  9E2 d   1      -5.859   2.604  16.761  0.00  0.00     0.256 S 
ATOM     32  O3  9E2 d   1      -7.276   2.687  16.573  0.00  0.00    -0.201 OA
ATOM     33  O2  9E2 d   1      -5.361   2.684  18.067  0.00  0.00    -0.201 OA
BRANCH  31  34
ATOM     34  N4  9E2 d   1      -5.279   1.284  16.019  0.00  0.00    -0.324 N 
ATOM     35  H6  9E2 d   1      -5.518   0.374  16.358  0.00  0.00     0.169 HD
ATOM     36  H7  9E2 d   1      -4.682   1.380  15.222  0.00  0.00     0.169 HD
ENDBRANCH  31  34
ENDBRANCH  25  31
ENDBRANCH   2  21
TORSDOF 7
