REMARK  5 active torsions:
REMARK  status: ('A' for Active; 'I' for Inactive)
REMARK    1  A    between atoms: AS_6  and  C2_1 
REMARK    2  A    between atoms: CA_5  and  C_3 
REMARK    3  A    between atoms: CA_5  and  AS_6 
REMARK    4  A    between atoms: AS_6  and  C3_7 
REMARK    5  A    between atoms: AS_6  and  C1_8 
ROOT
ATOM      1 AS   3Q7 d   1     -13.747  -5.040 -45.395  0.00  0.00     0.000 As
ENDROOT
BRANCH   1   2
ATOM      2  C2  3Q7 d   1     -12.966  -3.247 -45.100  0.00  0.00    -0.080 C 
ATOM      3  H1  3Q7 d   1     -11.882  -3.210 -45.282  0.00  0.00     0.027 H 
ATOM      4  H2  3Q7 d   1     -13.502  -2.987 -46.025  0.00  0.00     0.027 H 
ATOM      5  H3  3Q7 d   1     -13.229  -2.529 -44.309  0.00  0.00     0.027 H 
ENDBRANCH   1   2
BRANCH   1   6
ATOM      6  CA  3Q7 d   1     -15.675  -5.105 -45.071  0.00  0.00     0.025 C 
ATOM      7  H5  3Q7 d   1     -15.996  -6.157 -45.067  0.00  0.00     0.049 H 
ATOM      8  H7  3Q7 d   1     -16.149  -4.580 -45.913  0.00  0.00     0.049 H 
BRANCH   6   9
ATOM      9  C   3Q7 d   1     -16.086  -4.446 -43.770  0.00  0.00     0.173 C 
ATOM     10  O2  3Q7 d   1     -17.300  -4.266 -43.518  0.00  0.00    -0.648 OA
ATOM     11  O1  3Q7 d   1     -15.193  -4.110 -42.967  0.00  0.00    -0.648 OA
ENDBRANCH   6   9
ENDBRANCH   1   6
BRANCH   1  12
ATOM     12  C3  3Q7 d   1     -12.933  -6.359 -44.184  0.00  0.00    -0.080 C 
ATOM     13  H8  3Q7 d   1     -11.838  -6.431 -44.259  0.00  0.00     0.027 H 
ATOM     14  H10 3Q7 d   1     -13.200  -5.605 -43.429  0.00  0.00     0.027 H 
ATOM     15  H11 3Q7 d   1     -13.345  -7.335 -43.889  0.00  0.00     0.027 H 
ENDBRANCH   1  12
BRANCH   1  16
ATOM     16  C1  3Q7 d   1     -13.488  -5.354 -47.301  0.00  0.00    -0.080 C 
ATOM     17  H12 3Q7 d   1     -14.042  -4.478 -47.670  0.00  0.00     0.027 H 
ATOM     18  H13 3Q7 d   1     -14.189  -6.058 -46.829  0.00  0.00     0.027 H 
ATOM     19  H15 3Q7 d   1     -12.982  -5.849 -48.143  0.00  0.00     0.027 H 
ENDBRANCH   1  16
TORSDOF 5
