REMARK  6 active torsions:
REMARK  status: ('A' for Active; 'I' for Inactive)
REMARK    1  A    between atoms: C4_1  and  C5_2 
REMARK    2  A    between atoms: C4_1  and  O6_6 
REMARK    3  A    between atoms: C5_2  and  AS1_7 
REMARK    4  A    between atoms: AS1_7  and  C6_3 
REMARK    5  A    between atoms: AS1_7  and  C7_4 
REMARK    6  A    between atoms: AS1_7  and  C8_5 
ROOT
ATOM      1 AS1  1Y8 d   1      12.590 -19.072  10.809  0.00  0.00     0.000 As
ENDROOT
BRANCH   1   2
ATOM      2  C5  1Y8 d   1      11.251 -19.505   9.455  0.00  0.00    -0.043 C 
ATOM      3  H6  1Y8 d   1      10.191 -19.251   9.606  0.00  0.00     0.036 H 
ATOM      4  H8  1Y8 d   1      11.361 -20.598   9.393  0.00  0.00     0.036 H 
BRANCH   2   5
ATOM      5  C4  1Y8 d   1      11.747 -18.869   8.158  0.00  0.00     0.017 C 
ATOM      6  H1  1Y8 d   1      10.965 -18.948   7.388  0.00  0.00     0.073 H 
ATOM      7  H2  1Y8 d   1      12.652 -19.392   7.816  0.00  0.00     0.073 H 
BRANCH   5   8
ATOM      8  O6  1Y8 d   1      12.054 -17.479   8.389  0.00  0.00    -0.401 OA
ATOM      9  H18 1Y8 d   1      12.362 -17.085   7.581  0.00  0.00     0.209 HD
ENDBRANCH   5   8
ENDBRANCH   2   5
ENDBRANCH   1   2
BRANCH   1  10
ATOM     10  C6  1Y8 d   1      12.262 -17.248  11.452  0.00  0.00    -0.080 C 
ATOM     11  H9  1Y8 d   1      13.138 -17.505  12.066  0.00  0.00     0.027 H 
ATOM     12  H10 1Y8 d   1      12.596 -16.890  10.467  0.00  0.00     0.027 H 
ATOM     13  H11 1Y8 d   1      11.683 -16.458  11.952  0.00  0.00     0.027 H 
ENDBRANCH   1  10
BRANCH   1  14
ATOM     14  C7  1Y8 d   1      14.396 -19.187  10.049  0.00  0.00    -0.080 C 
ATOM     15  H3  1Y8 d   1      15.495 -19.135  10.038  0.00  0.00     0.027 H 
ATOM     16  H4  1Y8 d   1      14.007 -18.937   9.051  0.00  0.00     0.027 H 
ATOM     17  H5  1Y8 d   1      14.002 -18.471  10.786  0.00  0.00     0.027 H 
ENDBRANCH   1  14
BRANCH   1  18
ATOM     18  C8  1Y8 d   1      12.446 -20.331  12.319  0.00  0.00    -0.080 C 
ATOM     19  H14 1Y8 d   1      11.412 -19.970  12.417  0.00  0.00     0.027 H 
ATOM     20  H15 1Y8 d   1      12.490 -21.395  12.595  0.00  0.00     0.027 H 
ATOM     21  H16 1Y8 d   1      13.101 -19.752  12.986  0.00  0.00     0.027 H 
ENDBRANCH   1  18
TORSDOF 6
