REMARK  7 active torsions:
REMARK  status: ('A' for Active; 'I' for Inactive)
REMARK    1  A    between atoms: C1_3  and  S_4 
REMARK    2  A    between atoms: S_4  and  N1_7 
REMARK    3  A    between atoms: C3_10  and  C_12 
REMARK       I    between atoms: C_12  and  N8_14 
REMARK    4  A    between atoms: N8_14  and  C9_15 
REMARK    5  A    between atoms: C9_15  and  C16_16 
REMARK    6  A    between atoms: C9_15  and  C10_17 
REMARK    7  A    between atoms: C11_18  and  O11_19 
ROOT
ATOM      1  C   R92 d   1     -26.219  -4.442   3.069  0.00  0.00     0.252 C 
ATOM      2  O7  R92 d   1     -25.342  -3.541   3.112  0.00  0.00    -0.268 OA
ATOM      3  N8  R92 d   1     -26.115  -5.554   2.315  0.00  0.00    -0.348 N 
ATOM      4  H6  R92 d   1     -26.861  -6.220   2.324  0.00  0.00     0.163 HD
ENDROOT
BRANCH   3   5
ATOM      5  C9  R92 d   1     -24.956  -5.809   1.496  0.00  0.00     0.037 C 
ATOM      6  H7  R92 d   1     -24.081  -5.348   1.978  0.00  0.00     0.079 H 
BRANCH   5   7
ATOM      7  C16 R92 d   1     -24.764  -7.343   1.508  0.00  0.00    -0.053 C 
ATOM      8  H8  R92 d   1     -23.889  -7.608   0.897  0.00  0.00     0.030 H 
ATOM      9  H9  R92 d   1     -25.660  -7.828   1.094  0.00  0.00     0.030 H 
ATOM     10  H10 R92 d   1     -24.606  -7.685   2.542  0.00  0.00     0.030 H 
ENDBRANCH   5   7
BRANCH   5  11
ATOM     11  C10 R92 d   1     -25.059  -5.211   0.111  0.00  0.00    -0.003 A 
ATOM     12  C11 R92 d   1     -24.001  -5.138  -0.805  0.00  0.00     0.074 A 
ATOM     13  C12 R92 d   1     -24.134  -4.606  -2.110  0.00  0.00    -0.050 A 
ATOM     14  C14 R92 d   1     -25.370  -4.132  -2.499  0.00  0.00    -0.080 A 
ATOM     15  H12 R92 d   1     -23.287  -4.572  -2.786  0.00  0.00     0.087 H 
ATOM     16  C15 R92 d   1     -26.445  -4.195  -1.622  0.00  0.00    -0.082 A 
ATOM     17  H13 R92 d   1     -25.502  -3.711  -3.489  0.00  0.00     0.083 H 
ATOM     18  C13 R92 d   1     -26.303  -4.728  -0.345  0.00  0.00    -0.072 A 
ATOM     19  H14 R92 d   1     -27.412  -3.822  -1.938  0.00  0.00     0.083 H 
ATOM     20  H15 R92 d   1     -27.164  -4.773   0.312  0.00  0.00     0.084 H 
BRANCH  12  21
ATOM     21  O11 R92 d   1     -22.757  -5.606  -0.447  0.00  0.00    -0.360 OA
ATOM     22  H11 R92 d   1     -22.154  -5.486  -1.171  0.00  0.00     0.217 HD
ENDBRANCH  12  21
ENDBRANCH   5  11
ENDBRANCH   3   5
BRANCH   1  23
ATOM     23  C3  R92 d   1     -27.448  -4.349   3.883  0.00  0.00     0.033 A 
ATOM     24  C4  R92 d   1     -28.719  -4.338   3.282  0.00  0.00    -0.066 A 
ATOM     25  C5  R92 d   1     -29.863  -4.264   4.080  0.00  0.00    -0.059 A 
ATOM     26  H4  R92 d   1     -28.811  -4.387   2.203  0.00  0.00     0.085 H 
ATOM     27  C6  R92 d   1     -29.715  -4.218   5.466  0.00  0.00     0.057 A 
ATOM     28  H3  R92 d   1     -30.849  -4.243   3.630  0.00  0.00     0.086 H 
ATOM     29 CL6  R92 d   1     -31.080  -4.141   6.473  0.00  0.00    -0.083 Cl
ATOM     30  C1  R92 d   1     -28.448  -4.243   6.056  0.00  0.00     0.102 A 
ATOM     31  C2  R92 d   1     -27.303  -4.318   5.254  0.00  0.00    -0.043 A 
ATOM     32  H5  R92 d   1     -26.317  -4.351   5.704  0.00  0.00     0.087 H 
BRANCH  30  33
ATOM     33  S   R92 d   1     -28.190  -4.187   7.700  0.00  0.00     0.258 S 
ATOM     34  O1  R92 d   1     -27.048  -4.992   7.996  0.00  0.00    -0.201 OA
ATOM     35  O2  R92 d   1     -27.970  -2.845   8.147  0.00  0.00    -0.201 OA
BRANCH  33  36
ATOM     36  N1  R92 d   1     -29.542  -4.810   8.223  0.00  0.00    -0.324 N 
ATOM     37  H1  R92 d   1     -29.697  -4.915   9.205  0.00  0.00     0.169 HD
ATOM     38  H2  R92 d   1     -30.244  -5.100   7.572  0.00  0.00     0.169 HD
ENDBRANCH  33  36
ENDBRANCH  30  33
ENDBRANCH   1  23
TORSDOF 7
