REMARK  9 active torsions:
REMARK  status: ('A' for Active; 'I' for Inactive)
REMARK    1  A    between atoms: N1_8  and  C1'_9 
REMARK    2  A    between atoms: C3'_11  and  O3'_12 
REMARK    3  A    between atoms: C4'_14  and  C5'_15 
REMARK    4  A    between atoms: C5'_15  and  O5'_16 
REMARK    5  A    between atoms: O5'_16  and  PA_17 
REMARK    6  A    between atoms: PA_17  and  N3A_20 
REMARK    7  A    between atoms: N3A_20  and  PB_21 
REMARK    8  A    between atoms: PB_21  and  O3B_24 
REMARK    9  A    between atoms: O3B_24  and  PG_25 
ROOT
ATOM      1  C1' DUP d   1       6.715  12.453  39.233  0.00  0.00     0.116 C 
ATOM      2  C2' DUP d   1       5.679  12.802  40.296  0.00  0.00     0.002 C 
ATOM      3  C3' DUP d   1       6.431  12.971  41.596  0.00  0.00     0.066 C 
ATOM      4  O4' DUP d   1       7.990  12.401  39.887  0.00  0.00    -0.356 OA
ATOM      5  C4' DUP d   1       7.902  12.981  41.195  0.00  0.00     0.087 C 
ATOM      6  H4  DUP d   1       6.736  13.230  38.455  0.00  0.00     0.118 H 
ATOM      7  H5  DUP d   1       4.941  11.991  40.387  0.00  0.00     0.043 H 
ATOM      8  H6  DUP d   1       5.165  13.738  40.031  0.00  0.00     0.043 H 
ATOM      9  H7  DUP d   1       6.232  12.113  42.255  0.00  0.00     0.087 H 
ATOM     10  H9  DUP d   1       8.249  14.024  41.151  0.00  0.00     0.090 H 
ENDROOT
BRANCH   5  11
ATOM     11  C5' DUP d   1       8.787  12.231  42.182  0.00  0.00     0.057 C 
ATOM     12  H10 DUP d   1       8.943  12.856  43.074  0.00  0.00     0.079 H 
ATOM     13  H11 DUP d   1       9.757  12.019  41.708  0.00  0.00     0.079 H 
BRANCH  11  14
ATOM     14  O5' DUP d   1       8.179  11.001  42.573  0.00  0.00    -0.293 OA
BRANCH  14  15
ATOM     15  PA  DUP d   1       8.957  10.029  43.578  0.00  0.00     0.368 P 
ATOM     16  O1A DUP d   1       8.161   8.807  43.820  0.00  0.00    -0.629 OA
ATOM     17  O2A DUP d   1       9.250  10.792  44.965  0.00  0.00    -0.629 OA
BRANCH  15  18
ATOM     18  N3A DUP d   1      10.452   9.656  42.765  0.00  0.00    -0.225 N 
ATOM     19  H12 DUP d   1      10.433   9.182  41.885  0.00  0.00     0.178 HD
BRANCH  18  20
ATOM     20  PB  DUP d   1      11.968  10.098  43.468  0.00  0.00     0.379 P 
ATOM     21  O1B DUP d   1      13.024   9.182  42.984  0.00  0.00    -0.629 OA
ATOM     22  O2B DUP d   1      11.834  10.048  45.073  0.00  0.00    -0.629 OA
BRANCH  20  23
ATOM     23  O3B DUP d   1      12.282  11.581  42.921  0.00  0.00    -0.178 OA
BRANCH  23  24
ATOM     24  PG  DUP d   1      12.491  12.858  43.879  0.00  0.00     0.431 P 
ATOM     25  O2G DUP d   1      12.216  14.020  42.953  0.00  0.00    -0.616 OA
ATOM     26  O1G DUP d   1      11.472  12.698  44.986  0.00  0.00    -0.616 OA
ATOM     27  O3G DUP d   1      13.930  12.720  44.319  0.00  0.00    -0.616 OA
ENDBRANCH  23  24
ENDBRANCH  20  23
ENDBRANCH  18  20
ENDBRANCH  15  18
ENDBRANCH  14  15
ENDBRANCH  11  14
ENDBRANCH   5  11
BRANCH   3  28
ATOM     28  O3' DUP d   1       6.050  14.161  42.283  0.00  0.00    -0.393 OA
ATOM     29  H8  DUP d   1       6.543  14.230  43.092  0.00  0.00     0.210 HD
ENDBRANCH   3  28
BRANCH   1  30
ATOM     30  N1  DUP d   1       6.340  11.165  38.618  0.00  0.00    -0.282 N 
ATOM     31  C6  DUP d   1       6.515  10.020  39.312  0.00  0.00    -0.008 A 
ATOM     32  C5  DUP d   1       6.151   8.797  38.749  0.00  0.00    -0.002 A 
ATOM     33  H2  DUP d   1       6.941  10.052  40.314  0.00  0.00     0.112 H 
ATOM     34  C4  DUP d   1       5.603   8.766  37.472  0.00  0.00     0.250 A 
ATOM     35  H1  DUP d   1       6.295   7.872  39.306  0.00  0.00     0.094 H 
ATOM     36  O4  DUP d   1       5.279   7.670  36.970  0.00  0.00    -0.268 OA
ATOM     37  N3  DUP d   1       5.423   9.910  36.789  0.00  0.00    -0.275 N 
ATOM     38  C2  DUP d   1       5.766  11.100  37.314  0.00  0.00     0.331 A 
ATOM     39  H3  DUP d   1       5.026   9.876  35.872  0.00  0.00     0.173 HD
ATOM     40  O2  DUP d   1       5.575  12.126  36.623  0.00  0.00    -0.246 OA
ENDBRANCH   1  30
TORSDOF 9
