REMARK  9 active torsions:
REMARK  status: ('A' for Active; 'I' for Inactive)
REMARK    1  A    between atoms: N1_8  and  C1'_9 
REMARK    2  A    between atoms: C3'_11  and  O3'_12 
REMARK    3  A    between atoms: C4'_14  and  C5'_15 
REMARK    4  A    between atoms: C5'_15  and  O5'_16 
REMARK    5  A    between atoms: O5'_16  and  PA_17 
REMARK    6  A    between atoms: PA_17  and  N3A_20 
REMARK    7  A    between atoms: N3A_20  and  PB_21 
REMARK    8  A    between atoms: PB_21  and  O3B_24 
REMARK    9  A    between atoms: O3B_24  and  PG_25 
ROOT
ATOM      1  C1' DUP d   1       6.750  12.376  39.140  0.00  0.00     0.116 C 
ATOM      2  C2' DUP d   1       5.638  12.870  40.055  0.00  0.00     0.002 C 
ATOM      3  C3' DUP d   1       6.277  13.075  41.412  0.00  0.00     0.066 C 
ATOM      4  O4' DUP d   1       7.954  12.348  39.916  0.00  0.00    -0.356 OA
ATOM      5  C4' DUP d   1       7.772  13.062  41.142  0.00  0.00     0.087 C 
ATOM      6  H4  DUP d   1       6.873  13.069  38.294  0.00  0.00     0.118 H 
ATOM      7  H5  DUP d   1       4.835  12.121  40.120  0.00  0.00     0.043 H 
ATOM      8  H6  DUP d   1       5.226  13.818  39.679  0.00  0.00     0.043 H 
ATOM      9  H7  DUP d   1       6.006  12.248  42.085  0.00  0.00     0.087 H 
ATOM     10  H9  DUP d   1       8.120  14.097  41.013  0.00  0.00     0.090 H 
ENDROOT
BRANCH   5  11
ATOM     11  C5' DUP d   1       8.572  12.436  42.276  0.00  0.00     0.057 C 
ATOM     12  H10 DUP d   1       8.432  13.037  43.187  0.00  0.00     0.079 H 
ATOM     13  H11 DUP d   1       9.637  12.430  42.001  0.00  0.00     0.079 H 
BRANCH  11  14
ATOM     14  O5' DUP d   1       8.152  11.100  42.533  0.00  0.00    -0.293 OA
BRANCH  14  15
ATOM     15  PA  DUP d   1       9.099  10.141  43.407  0.00  0.00     0.368 P 
ATOM     16  O1A DUP d   1       8.439   8.832  43.613  0.00  0.00    -0.629 OA
ATOM     17  O2A DUP d   1       9.417  10.834  44.828  0.00  0.00    -0.629 OA
BRANCH  15  18
ATOM     18  N3A DUP d   1      10.582   9.927  42.513  0.00  0.00    -0.225 N 
ATOM     19  H12 DUP d   1      10.547   9.695  41.541  0.00  0.00     0.178 HD
BRANCH  18  20
ATOM     20  PB  DUP d   1      12.122  10.115  43.301  0.00  0.00     0.379 P 
ATOM     21  O1B DUP d   1      13.040   9.068  42.798  0.00  0.00    -0.629 OA
ATOM     22  O2B DUP d   1      11.935   9.962  44.892  0.00  0.00    -0.629 OA
BRANCH  20  23
ATOM     23  O3B DUP d   1      12.726  11.565  42.938  0.00  0.00    -0.178 OA
BRANCH  23  24
ATOM     24  PG  DUP d   1      12.536  12.885  43.849  0.00  0.00     0.431 P 
ATOM     25  O2G DUP d   1      11.932  13.880  42.887  0.00  0.00    -0.616 OA
ATOM     26  O1G DUP d   1      11.620  12.507  44.992  0.00  0.00    -0.616 OA
ATOM     27  O3G DUP d   1      13.951  13.210  44.260  0.00  0.00    -0.616 OA
ENDBRANCH  23  24
ENDBRANCH  20  23
ENDBRANCH  18  20
ENDBRANCH  15  18
ENDBRANCH  14  15
ENDBRANCH  11  14
ENDBRANCH   5  11
BRANCH   3  28
ATOM     28  O3' DUP d   1       5.870  14.307  42.011  0.00  0.00    -0.393 OA
ATOM     29  H8  DUP d   1       6.290  14.400  42.858  0.00  0.00     0.210 HD
ENDBRANCH   3  28
BRANCH   1  30
ATOM     30  N1  DUP d   1       6.413  11.039  38.620  0.00  0.00    -0.282 N 
ATOM     31  C6  DUP d   1       6.479   9.972  39.440  0.00  0.00    -0.008 A 
ATOM     32  C5  DUP d   1       6.153   8.703  38.967  0.00  0.00    -0.002 A 
ATOM     33  H2  DUP d   1       6.788  10.102  40.476  0.00  0.00     0.112 H 
ATOM     34  C4  DUP d   1       5.764   8.544  37.644  0.00  0.00     0.250 A 
ATOM     35  H1  DUP d   1       6.203   7.841  39.631  0.00  0.00     0.094 H 
ATOM     36  O4  DUP d   1       5.478   7.408  37.215  0.00  0.00    -0.268 OA
ATOM     37  N3  DUP d   1       5.694   9.608  36.835  0.00  0.00    -0.275 N 
ATOM     38  C2  DUP d   1       6.001  10.841  37.272  0.00  0.00     0.331 A 
ATOM     39  H3  DUP d   1       5.407   9.483  35.885  0.00  0.00     0.173 HD
ATOM     40  O2  DUP d   1       5.915  11.793  36.464  0.00  0.00    -0.246 OA
ENDBRANCH   1  30
TORSDOF 9
