REMARK  7 active torsions:
REMARK  status: ('A' for Active; 'I' for Inactive)
REMARK    1  A    between atoms: C13_2  and  C14_15 
REMARK    2  A    between atoms: C20_5  and  O21_25 
REMARK    3  A    between atoms: C02_8  and  C01_7 
REMARK    4  A    between atoms: O04_23  and  C02_8 
REMARK    5  A    between atoms: C06_10  and  C05_9 
REMARK    6  A    between atoms: C05_9  and  O04_23 
REMARK    7  A    between atoms: C06_10  and  C07_11 
ROOT
ATOM      1  C10 9ET d   1      29.399   5.255   4.836  0.00  0.00     0.004 A 
ATOM      2  C13 9ET d   1      29.184   3.535   3.225  0.00  0.00    -0.027 A 
ATOM      3  C15 9ET d   1      30.536   3.694   2.941  0.00  0.00    -0.061 A 
ATOM      4  C17 9ET d   1      32.718   5.141   3.572  0.00  0.00     0.003 A 
ATOM      5  C20 9ET d   1      35.077   6.454   4.001  0.00  0.00     0.067 A 
ATOM      6  C22 9ET d   1      33.989   6.847   4.748  0.00  0.00    -0.025 A 
ATOM      7  C06 9ET d   1      26.643   5.470   5.243  0.00  0.00     0.086 C 
ATOM      8  C08 9ET d   1      27.608   6.596   5.406  0.00  0.00    -0.030 C 
ATOM      9  C09 9ET d   1      28.885   6.155   5.803  0.00  0.00    -0.033 C 
ATOM     10  C11 9ET d   1      28.602   4.364   4.207  0.00  0.00     0.084 A 
ATOM     11  C16 9ET d   1      31.328   4.671   3.620  0.00  0.00     0.004 A 
ATOM     12  C18 9ET d   1      33.858   4.740   2.813  0.00  0.00    -0.067 A 
ATOM     13  C19 9ET d   1      35.039   5.415   3.048  0.00  0.00    -0.050 A 
ATOM     14  C23 9ET d   1      32.797   6.175   4.518  0.00  0.00     0.046 A 
ATOM     15  C25 9ET d   1      30.767   5.444   4.551  0.00  0.00     0.053 A 
ATOM     16  N24 9ET d   1      31.614   6.355   5.104  0.00  0.00    -0.354 N 
ATOM     17  O12 9ET d   1      27.165   4.248   4.552  0.00  0.00    -0.337 OA
ATOM     18  H1  9ET d   1      30.998   3.064   2.190  0.00  0.00     0.085 H 
ATOM     19  H2  9ET d   1      34.060   7.643   5.480  0.00  0.00     0.091 H 
ATOM     20  H11 9ET d   1      27.220   7.287   6.169  0.00  0.00     0.038 H 
ATOM     21  H12 9ET d   1      27.700   7.125   4.446  0.00  0.00     0.038 H 
ATOM     22  H13 9ET d   1      29.559   7.019   5.893  0.00  0.00     0.040 H 
ATOM     23  H14 9ET d   1      28.810   5.645   6.775  0.00  0.00     0.040 H 
ATOM     24  H18 9ET d   1      33.799   3.940   2.084  0.00  0.00     0.085 H 
ATOM     25  H19 9ET d   1      35.936   5.147   2.501  0.00  0.00     0.087 H 
ATOM     26  H20 9ET d   1      31.385   7.047   5.832  0.00  0.00     0.166 HD
ENDROOT
BRANCH   7  27
ATOM     27  C05 9ET d   1      26.180   5.209   6.694  0.00  0.00     0.058 C 
ATOM     28  H6  9ET d   1      25.457   4.380   6.696  0.00  0.00     0.080 H 
ATOM     29  H7  9ET d   1      25.698   6.117   7.085  0.00  0.00     0.080 H 
BRANCH  27  30
ATOM     30  O04 9ET d   1      27.256   4.875   7.518  0.00  0.00    -0.319 OA
BRANCH  30  31
ATOM     31  C02 9ET d   1      27.646   5.712   8.571  0.00  0.00     0.254 C 
ATOM     32  O03 9ET d   1      26.954   5.821   9.485  0.00  0.00    -0.266 OA
BRANCH  31  33
ATOM     33  C01 9ET d   1      28.968   6.456   8.639  0.00  0.00     0.004 C 
ATOM     34  H3  9ET d   1      29.014   7.038   9.571  0.00  0.00     0.041 H 
ATOM     35  H4  9ET d   1      29.051   7.136   7.778  0.00  0.00     0.041 H 
ATOM     36  H5  9ET d   1      29.797   5.733   8.617  0.00  0.00     0.041 H 
ENDBRANCH  31  33
ENDBRANCH  30  31
ENDBRANCH  27  30
ENDBRANCH   7  27
BRANCH   7  37
ATOM     37  C07 9ET d   1      25.594   6.167   4.442  0.00  0.00    -0.045 C 
ATOM     38  H8  9ET d   1      25.963   6.333   3.419  0.00  0.00     0.031 H 
ATOM     39  H9  9ET d   1      25.359   7.135   4.908  0.00  0.00     0.031 H 
ATOM     40  H10 9ET d   1      24.686   5.547   4.408  0.00  0.00     0.031 H 
ENDBRANCH   7  37
BRANCH   2  41
ATOM     41  C14 9ET d   1      28.359   2.513   2.494  0.00  0.00    -0.049 C 
ATOM     42  H15 9ET d   1      28.995   1.974   1.776  0.00  0.00     0.033 H 
ATOM     43  H16 9ET d   1      27.543   3.017   1.955  0.00  0.00     0.033 H 
ATOM     44  H17 9ET d   1      27.935   1.799   3.216  0.00  0.00     0.033 H 
ENDBRANCH   2  41
BRANCH   5  45
ATOM     45  O21 9ET d   1      36.256   7.125   4.244  0.00  0.00    -0.361 OA
ATOM     46  H21 9ET d   1      36.110   7.789   4.908  0.00  0.00     0.217 HD
ENDBRANCH   5  45
TORSDOF 7
