REMARK  3 active torsions:
REMARK  status: ('A' for Active; 'I' for Inactive)
REMARK    1  A    between atoms: C5_2  and  C7_4 
REMARK    2  A    between atoms: C9_6  and  N3_11 
REMARK    3  A    between atoms: N1_8  and  C10_7 
ROOT
ATOM      1  C7  9EZ d   1     -27.744  15.393   5.248  0.00  0.00     0.091 A 
ATOM      2  C8  9EZ d   1     -28.612  15.371   4.154  0.00  0.00    -0.009 A 
ATOM      3  C9  9EZ d   1     -29.177  16.609   4.085  0.00  0.00     0.119 A 
ATOM      4  N1  9EZ d   1     -28.648  17.335   5.104  0.00  0.00    -0.258 N 
ATOM      5  N2  9EZ d   1     -27.763  16.599   5.819  0.00  0.00    -0.171 NA
ATOM      6  H3  9EZ d   1     -28.800  14.530   3.488  0.00  0.00     0.093 H 
ENDROOT
BRANCH   1   7
ATOM      7  C5  9EZ d   1     -26.891  14.311   5.745  0.00  0.00    -0.006 A 
ATOM      8  C4  9EZ d   1     -25.748  14.566   6.486  0.00  0.00    -0.071 A 
ATOM      9  C3  9EZ d   1     -24.956  13.519   6.924  0.00  0.00    -0.082 A 
ATOM     10  H1  9EZ d   1     -25.474  15.588   6.723  0.00  0.00     0.084 H 
ATOM     11  C2  9EZ d   1     -25.267  12.216   6.587  0.00  0.00    -0.083 A 
ATOM     12  H7  9EZ d   1     -24.085  13.723   7.536  0.00  0.00     0.083 H 
ATOM     13  C1  9EZ d   1     -26.403  11.955   5.858  0.00  0.00    -0.082 A 
ATOM     14  H11 9EZ d   1     -24.619  11.404   6.896  0.00  0.00     0.083 H 
ATOM     15  C6  9EZ d   1     -27.205  12.993   5.424  0.00  0.00    -0.071 A 
ATOM     16  H10 9EZ d   1     -26.671  10.931   5.623  0.00  0.00     0.083 H 
ATOM     17  H2  9EZ d   1     -28.086  12.780   4.829  0.00  0.00     0.084 H 
ENDBRANCH   1   7
BRANCH   3  18
ATOM     18  N3  9EZ d   1     -30.097  17.097   3.199  0.00  0.00    -0.384 N 
ATOM     19  H8  9EZ d   1     -30.459  16.493   2.447  0.00  0.00     0.157 HD
ATOM     20  H9  9EZ d   1     -30.428  18.069   3.283  0.00  0.00     0.157 HD
ENDBRANCH   3  18
BRANCH   4  21
ATOM     21  C10 9EZ d   1     -28.923  18.699   5.494  0.00  0.00     0.004 C 
ATOM     22  H4  9EZ d   1     -28.310  18.961   6.369  0.00  0.00     0.059 H 
ATOM     23  H5  9EZ d   1     -29.988  18.800   5.749  0.00  0.00     0.059 H 
ATOM     24  H6  9EZ d   1     -28.680  19.375   4.661  0.00  0.00     0.059 H 
ENDBRANCH   4  21
TORSDOF 3
