REMARK  0 active torsions:
REMARK  status: ('A' for Active; 'I' for Inactive)
ROOT
ATOM      1  C4  9EW d   1     -26.366  12.528   6.038  0.00  0.00    -0.047 A 
ATOM      2  C5  9EW d   1     -26.624  13.883   6.103  0.00  0.00     0.113 A 
ATOM      3  C6  9EW d   1     -26.138  14.665   7.125  0.00  0.00     0.055 A 
ATOM      4  C7  9EW d   1     -26.594  16.000   6.898  0.00  0.00     0.212 A 
ATOM      5  N1  9EW d   1     -27.288  16.035   5.777  0.00  0.00    -0.236 N 
ATOM      6  C3  9EW d   1     -25.564  11.981   7.050  0.00  0.00    -0.080 A 
ATOM      7  C1  9EW d   1     -25.374  14.123   8.150  0.00  0.00    -0.066 A 
ATOM      8  C2  9EW d   1     -25.077  12.768   8.088  0.00  0.00    -0.082 A 
ATOM      9  O1  9EW d   1     -27.360  14.669   5.273  0.00  0.00    -0.235 OA
ATOM     10  O2  9EW d   1     -26.330  17.015   7.727  0.00  0.00    -0.169 OA
ATOM     11  H1  9EW d   1     -26.766  11.914   5.239  0.00  0.00     0.087 H 
ATOM     12  H2  9EW d   1     -27.689  16.846   5.352  0.00  0.00     0.197 HD
ATOM     13  H3  9EW d   1     -25.319  10.925   7.023  0.00  0.00     0.083 H 
ATOM     14  H4  9EW d   1     -25.021  14.737   8.971  0.00  0.00     0.085 H 
ATOM     15  H5  9EW d   1     -24.459  12.319   8.857  0.00  0.00     0.083 H 
ENDROOT
TORSDOF 0
