REMARK  2 active torsions:
REMARK  status: ('A' for Active; 'I' for Inactive)
REMARK    1  A    between atoms: CAJ_10  and  NAA_1 
REMARK    2  A    between atoms: CAK_11  and  CAL_12 
ROOT
ATOM      1  CAB 5AO d   1     -25.598  11.837   6.181  0.00  0.00    -0.080 A 
ATOM      2  CAC 5AO d   1     -24.767  12.312   7.166  0.00  0.00    -0.058 A 
ATOM      3  CAD 5AO d   1     -26.423  12.710   5.493  0.00  0.00    -0.070 A 
ATOM      4  CAG 5AO d   1     -25.580  14.554   6.786  0.00  0.00    -0.045 A 
ATOM      5  CAJ 5AO d   1     -24.772  13.670   7.493  0.00  0.00     0.026 A 
ATOM      6  CAK 5AO d   1     -26.421  14.073   5.792  0.00  0.00     0.001 A 
ATOM      7  H3  5AO d   1     -25.608  10.780   5.943  0.00  0.00     0.083 H 
ATOM      8  H4  5AO d   1     -24.106  11.632   7.691  0.00  0.00     0.086 H 
ATOM      9  H5  5AO d   1     -27.076  12.332   4.715  0.00  0.00     0.084 H 
ATOM     10  H8  5AO d   1     -25.553  15.614   7.010  0.00  0.00     0.088 H 
ENDROOT
BRANCH   6  11
ATOM     11  CAL 5AO d   1     -27.287  14.966   5.042  0.00  0.00     0.104 C 
ATOM     12  CAF 5AO d   1     -28.168  14.715   4.017  0.00  0.00     0.037 C 
ATOM     13  NAH 5AO d   1     -28.865  15.813   3.679  0.00  0.00    -0.246 NA
ATOM     14  H7  5AO d   1     -28.287  13.745   3.537  0.00  0.00     0.119 H 
ATOM     15  CAE 5AO d   1     -28.412  16.725   4.533  0.00  0.00     0.103 C 
ATOM     16  OAI 5AO d   1     -27.349  16.327   5.329  0.00  0.00    -0.302 OA
ATOM     17  H6  5AO d   1     -28.848  17.721   4.603  0.00  0.00     0.155 H 
ENDBRANCH   6  11
BRANCH   5  18
ATOM     18  NAA 5AO d   1     -23.941  14.158   8.507  0.00  0.00    -0.399 N 
ATOM     19  H1  5AO d   1     -23.339  13.511   9.036  0.00  0.00     0.156 HD
ATOM     20  H2  5AO d   1     -23.931  15.165   8.725  0.00  0.00     0.156 HD
ENDBRANCH   5  18
TORSDOF 2
