REMARK  3 active torsions:
REMARK  status: ('A' for Active; 'I' for Inactive)
REMARK    1  A    between atoms: C08_10  and  C15_2 
REMARK    2  A    between atoms: N07_9  and  C05_7 
REMARK    3  A    between atoms: C09_11  and  C12_13 
ROOT
ATOM      1  C10 9FH d   1     -10.077 -36.412 -20.590  0.00  0.00     0.041 A 
ATOM      2  N07 9FH d   1      -7.945 -36.067 -20.599  0.00  0.00    -0.238 N 
ATOM      3  C08 9FH d   1      -8.452 -34.859 -20.411  0.00  0.00     0.051 A 
ATOM      4  C09 9FH d   1      -9.858 -35.025 -20.384  0.00  0.00     0.084 A 
ATOM      5  N11 9FH d   1      -8.885 -36.967 -20.732  0.00  0.00    -0.178 NA
ATOM      6  H1  9FH d   1     -11.039 -36.920 -20.624  0.00  0.00     0.119 H 
ENDROOT
BRANCH   2   7
ATOM      7  C05 9FH d   1      -6.556 -36.309 -20.702  0.00  0.00     0.058 A 
ATOM      8  C04 9FH d   1      -5.723 -36.118 -19.611  0.00  0.00    -0.055 A 
ATOM      9  C03 9FH d   1      -4.363 -36.345 -19.747  0.00  0.00    -0.081 A 
ATOM     10  H8  9FH d   1      -6.131 -35.794 -18.661  0.00  0.00     0.087 H 
ATOM     11  C02 9FH d   1      -3.857 -36.760 -20.970  0.00  0.00    -0.083 A 
ATOM     12  H7  9FH d   1      -3.699 -36.199 -18.903  0.00  0.00     0.083 H 
ATOM     13  C01 9FH d   1      -4.694 -36.933 -22.067  0.00  0.00    -0.081 A 
ATOM     14  H6  9FH d   1      -2.795 -36.952 -21.072  0.00  0.00     0.083 H 
ATOM     15  C06 9FH d   1      -6.059 -36.710 -21.934  0.00  0.00    -0.055 A 
ATOM     16  H5  9FH d   1      -4.283 -37.240 -23.022  0.00  0.00     0.083 H 
ATOM     17  H9  9FH d   1      -6.725 -36.847 -22.779  0.00  0.00     0.087 H 
ENDBRANCH   2   7
BRANCH   3  18
ATOM     18  C15 9FH d   1      -7.691 -33.558 -20.238  0.00  0.00    -0.034 C 
ATOM     19  H2  9FH d   1      -8.404 -32.732 -20.101  0.00  0.00     0.035 H 
ATOM     20  H3  9FH d   1      -7.079 -33.370 -21.132  0.00  0.00     0.035 H 
ATOM     21  H4  9FH d   1      -7.039 -33.629 -19.355  0.00  0.00     0.035 H 
ENDBRANCH   3  18
BRANCH   4  22
ATOM     22  C12 9FH d   1     -10.858 -33.935 -20.205  0.00  0.00     0.212 C 
ATOM     23  O13 9FH d   1     -10.476 -32.755 -19.947  0.00  0.00    -0.644 OA
ATOM     24  O14 9FH d   1     -12.075 -34.190 -20.334  0.00  0.00    -0.644 OA
ENDBRANCH   4  22
TORSDOF 3
