REMARK  1 active torsions:
REMARK  status: ('A' for Active; 'I' for Inactive)
REMARK    1  A    between atoms: C02_3  and  C04_5 
ROOT
ATOM      1  C13 9FE d   1       9.532  31.723 -16.898  0.00  0.00    -0.064 A 
ATOM      2  C04 9FE d   1       9.765  32.841 -16.082  0.00  0.00     0.041 A 
ATOM      3  C05 9FE d   1       8.711  33.651 -15.647  0.00  0.00    -0.051 A 
ATOM      4  C06 9FE d   1       7.408  33.326 -16.046  0.00  0.00     0.031 A 
ATOM      5  C07 9FE d   1       6.094  33.879 -15.829  0.00  0.00     0.135 A 
ATOM      6 BR   9FE d   1       5.666  35.434 -14.799  0.00  0.00    -0.026 Br
ATOM      7  N09 9FE d   1       5.240  33.107 -16.476  0.00  0.00    -0.166 NA
ATOM      8  N10 9FE d   1       5.850  32.129 -17.080  0.00  0.00    -0.276 N 
ATOM      9  C11 9FE d   1       7.176  32.202 -16.862  0.00  0.00     0.063 A 
ATOM     10  C12 9FE d   1       8.237  31.401 -17.285  0.00  0.00    -0.054 A 
ATOM     11  H1  9FE d   1      10.363  31.110 -17.227  0.00  0.00     0.085 H 
ATOM     12  H2  9FE d   1       8.898  34.511 -15.015  0.00  0.00     0.086 H 
ATOM     13  H3  9FE d   1       5.385  31.403 -17.644  0.00  0.00     0.189 HD
ATOM     14  H4  9FE d   1       8.053  30.535 -17.910  0.00  0.00     0.087 H 
ENDROOT
BRANCH   2  15
ATOM     15  C02 9FE d   1      11.185  33.151 -15.682  0.00  0.00     0.209 C 
ATOM     16  O01 9FE d   1      12.000  32.197 -15.535  0.00  0.00    -0.644 OA
ATOM     17  O03 9FE d   1      11.535  34.347 -15.502  0.00  0.00    -0.644 OA
ENDBRANCH   2  15
TORSDOF 1
