REMARK WARNING: 32 MAX_TORS EXCEEDED!!!
REMARK  79 active torsions:
REMARK  status: ('A' for Active; 'I' for Inactive)
REMARK    1  A    between atoms: N_1  and  CA_2 
REMARK    2  A    between atoms: CA_2  and  C_3 
REMARK    3  A    between atoms: CA_2  and  CB_5 
REMARK       I    between atoms: C_3  and  N_8 
REMARK    4  A    between atoms: CB_5  and  OG1_6 
REMARK    5  A    between atoms: CB_5  and  CG2_7 
REMARK    6  A    between atoms: N_8  and  CA_9 
REMARK    7  A    between atoms: CA_9  and  C_10 
REMARK    8  A    between atoms: CA_9  and  CB_12 
REMARK       I    between atoms: C_10  and  N_15 
REMARK    9  A    between atoms: CB_12  and  OG1_13 
REMARK   10  A    between atoms: CB_12  and  CG2_14 
REMARK   11  A    between atoms: N_15  and  CA_16 
REMARK   12  A    between atoms: CA_16  and  C_17 
REMARK   13  A    between atoms: CA_16  and  CB_19 
REMARK       I    between atoms: C_17  and  N_27 
REMARK   14  A    between atoms: CB_19  and  CG_20 
REMARK   15  A    between atoms: CZ_25  and  OH_26 
REMARK   16  A    between atoms: N_27  and  CA_28 
REMARK   17  A    between atoms: CA_28  and  C_29 
REMARK   18  A    between atoms: CA_28  and  CB_31 
REMARK       I    between atoms: C_29  and  N_32 
REMARK   19  A    between atoms: N_32  and  CA_33 
REMARK   20  A    between atoms: CA_33  and  C_34 
REMARK   21  A    between atoms: CA_33  and  CB_36 
REMARK       I    between atoms: C_34  and  N_40 
REMARK   22  A    between atoms: CB_36  and  CG_37 
REMARK   23  A    between atoms: N_40  and  CA_41 
REMARK   24  A    between atoms: CA_41  and  C_42 
REMARK   25  A    between atoms: CA_41  and  CB_44 
REMARK       I    between atoms: C_42  and  N_51 
REMARK   26  A    between atoms: CB_44  and  CG_45 
REMARK   27  A    between atoms: N_51  and  CA_52 
REMARK   28  A    between atoms: CA_52  and  C_53 
REMARK   29  A    between atoms: CA_52  and  CB_55 
REMARK       I    between atoms: C_53  and  N_59 
REMARK   30  A    between atoms: CB_55  and  CG1_56 
REMARK   31  A    between atoms: CB_55  and  CG2_57 
REMARK   32  A    between atoms: CG1_56  and  CD1_58 
REMARK   33  A    between atoms: N_59  and  CA_60 
REMARK   34  A    between atoms: CA_60  and  C_61 
REMARK   35  A    between atoms: CA_60  and  CB_63 
REMARK       I    between atoms: C_61  and  N_64 
REMARK   36  A    between atoms: N_64  and  CA_65 
REMARK   37  A    between atoms: CA_65  and  C_66 
REMARK   38  A    between atoms: CA_65  and  CB_68 
REMARK       I    between atoms: C_66  and  N_70 
REMARK   39  A    between atoms: CB_68  and  OG_69 
REMARK   40  A    between atoms: N_70  and  CA_71 
REMARK   41  A    between atoms: CA_71  and  C_72 
REMARK       I    between atoms: C_72  and  N_74 
REMARK   42  A    between atoms: N_74  and  CA_75 
REMARK   43  A    between atoms: CA_75  and  C_76 
REMARK   44  A    between atoms: CA_75  and  CB_78 
REMARK       I    between atoms: C_76  and  N_85 
REMARK   45  A    between atoms: CB_78  and  CG_79 
REMARK   46  A    between atoms: CG_79  and  CD_80 
REMARK   47  A    between atoms: CD_80  and  NE_81 
REMARK       I    between atoms: NE_81  and  CZ_82 
REMARK       I    between atoms: CZ_82  and  NH1_83 
REMARK       I    between atoms: CZ_82  and  NH2_84 
REMARK   48  A    between atoms: N_85  and  CA_86 
REMARK   49  A    between atoms: CA_86  and  C_87 
REMARK   50  A    between atoms: CA_86  and  CB_89 
REMARK       I    between atoms: C_87  and  N_92 
REMARK   51  A    between atoms: CB_89  and  OG1_90 
REMARK   52  A    between atoms: CB_89  and  CG2_91 
REMARK   53  A    between atoms: N_92  and  CA_93 
REMARK   54  A    between atoms: CA_93  and  C_94 
REMARK       I    between atoms: C_94  and  N_96 
REMARK   55  A    between atoms: N_96  and  CA_97 
REMARK   56  A    between atoms: CA_97  and  C_98 
REMARK   57  A    between atoms: CA_97  and  CB_100 
REMARK       I    between atoms: C_98  and  N_107 
REMARK   58  A    between atoms: CB_100  and  CG_101 
REMARK   59  A    between atoms: CG_101  and  CD_102 
REMARK   60  A    between atoms: CD_102  and  NE_103 
REMARK       I    between atoms: NE_103  and  CZ_104 
REMARK       I    between atoms: CZ_104  and  NH1_105 
REMARK       I    between atoms: CZ_104  and  NH2_106 
REMARK   61  A    between atoms: N_107  and  CA_108 
REMARK   62  A    between atoms: CA_108  and  C_109 
REMARK   63  A    between atoms: CA_108  and  CB_111 
REMARK       I    between atoms: C_109  and  N_118 
REMARK   64  A    between atoms: CB_111  and  CG_112 
REMARK   65  A    between atoms: CG_112  and  CD_113 
REMARK   66  A    between atoms: CD_113  and  NE_114 
REMARK       I    between atoms: NE_114  and  CZ_115 
REMARK       I    between atoms: CZ_115  and  NH1_116 
REMARK   67  A    between atoms: N_118  and  CA_119 
REMARK   68  A    between atoms: CA_119  and  C_120 
REMARK   69  A    between atoms: CA_119  and  CB_122 
REMARK       I    between atoms: C_120  and  N_124 
REMARK   70  A    between atoms: CB_122  and  OG_123 
REMARK   71  A    between atoms: N_124  and  CA_125 
REMARK   72  A    between atoms: CA_125  and  C_126 
REMARK   73  A    between atoms: CA_125  and  CB_128 
REMARK       I    between atoms: C_126  and  N_129 
REMARK   74  A    between atoms: N_129  and  CA_130 
REMARK   75  A    between atoms: CA_130  and  C_131 
REMARK   76  A    between atoms: CA_130  and  CB_133 
REMARK   77  A    between atoms: CB_133  and  CG1_134 
REMARK   78  A    between atoms: CB_133  and  CG2_135 
REMARK   79  A    between atoms: CG1_134  and  CD1_136 
ROOT
ATOM      1  CA  THR d   1       7.823 -30.537  34.042  0.00  0.00     0.069 C 
ATOM      2  H66 THR d   1       8.059 -30.152  35.045  0.00  0.00     0.078 H 
ATOM      3  H67 THR d   1       7.477 -31.578  34.121  0.00  0.00     0.078 H 
ENDROOT
BRANCH   1   4
ATOM      4  N   THR d   1       9.034 -30.523  33.258  0.00  0.00    -0.350 N 
ATOM      5  C   THR d   1       9.811 -29.451  33.243  0.00  0.00     0.242 C 
ATOM      6  O   THR d   1       9.585 -28.454  33.940  0.00  0.00    -0.271 OA
ATOM      7  H65 THR d   1       9.288 -31.328  32.722  0.00  0.00     0.163 HD
BRANCH   5   8
ATOM      8  CA  THR d   1      10.988 -29.444  32.283  0.00  0.00     0.109 C 
ATOM      9  H61 THR d   1      11.836 -28.938  32.768  0.00  0.00     0.090 H 
BRANCH   8  10
ATOM     10  N   THR d   1      11.423 -30.791  31.904  0.00  0.00    -0.344 N 
ATOM     11  C   THR d   1      11.886 -31.663  32.807  0.00  0.00     0.240 C 
ATOM     12  O   THR d   1      11.966 -31.390  34.011  0.00  0.00    -0.271 OA
ATOM     13  H60 THR d   1      11.372 -31.066  30.944  0.00  0.00     0.163 HD
BRANCH  11  14
ATOM     14  CA  THR d   1      12.336 -33.035  32.314  0.00  0.00     0.086 C 
ATOM     15  H56 THR d   1      12.085 -33.776  33.087  0.00  0.00     0.086 H 
BRANCH  14  16
ATOM     16  N   THR d   1      11.674 -33.432  31.070  0.00  0.00    -0.346 N 
ATOM     17  C   THR d   1      10.372 -33.679  31.028  0.00  0.00     0.241 C 
ATOM     18  O   THR d   1       9.639 -33.500  32.013  0.00  0.00    -0.271 OA
ATOM     19  H55 THR d   1      12.216 -33.519  30.234  0.00  0.00     0.163 HD
BRANCH  17  20
ATOM     20  CA  THR d   1       9.802 -34.156  29.691  0.00  0.00     0.092 C 
ATOM     21  H45 THR d   1       8.714 -33.994  29.713  0.00  0.00     0.088 H 
BRANCH  20  22
ATOM     22  N   THR d   1      10.364 -33.374  28.593  0.00  0.00    -0.346 N 
ATOM     23  C   THR d   1      10.245 -32.052  28.588  0.00  0.00     0.241 C 
ATOM     24  O   THR d   1       9.584 -31.445  29.443  0.00  0.00    -0.271 OA
ATOM     25  H44 THR d   1      10.839 -33.835  27.844  0.00  0.00     0.163 HD
BRANCH  23  26
ATOM     26  CA  THR d   1      10.912 -31.309  27.441  0.00  0.00     0.093 C 
ATOM     27  H36 THR d   1      10.929 -30.239  27.696  0.00  0.00     0.088 H 
BRANCH  26  28
ATOM     28  N   THR d   1      12.285 -31.772  27.265  0.00  0.00    -0.346 N 
ATOM     29  C   THR d   1      13.175 -31.621  28.240  0.00  0.00     0.241 C 
ATOM     30  O   THR d   1      12.905 -31.017  29.287  0.00  0.00    -0.271 OA
ATOM     31  H35 THR d   1      12.557 -32.205  26.406  0.00  0.00     0.163 HD
BRANCH  29  32
ATOM     32  CA  THR d   1      14.573 -32.183  27.999  0.00  0.00     0.098 C 
ATOM     33  H32 THR d   1      15.053 -32.355  28.974  0.00  0.00     0.088 H 
BRANCH  32  34
ATOM     34  N   THR d   1      14.515 -33.455  27.287  0.00  0.00    -0.346 N 
ATOM     35  C   THR d   1      13.904 -34.497  27.842  0.00  0.00     0.240 C 
ATOM     36  O   THR d   1      13.416 -34.445  28.974  0.00  0.00    -0.271 OA
ATOM     37  H31 THR d   1      14.934 -33.543  26.383  0.00  0.00     0.163 HD
BRANCH  35  38
ATOM     38  CA  THR d   1      13.804 -35.765  27.011  0.00  0.00     0.086 C 
ATOM     39  H27 THR d   1      12.965 -36.365  27.393  0.00  0.00     0.086 H 
BRANCH  38  40
ATOM     40  N   THR d   1      13.540 -35.437  25.615  0.00  0.00    -0.346 N 
ATOM     41  C   THR d   1      12.427 -34.788  25.291  0.00  0.00     0.241 C 
ATOM     42  O   THR d   1      11.560 -34.504  26.130  0.00  0.00    -0.271 OA
ATOM     43  H26 THR d   1      14.194 -35.699  24.905  0.00  0.00     0.163 HD
BRANCH  41  44
ATOM     44  CA  THR d   1      12.231 -34.448  23.828  0.00  0.00     0.093 C 
ATOM     45  H18 THR d   1      11.430 -33.698  23.750  0.00  0.00     0.088 H 
BRANCH  44  46
ATOM     46  N   THR d   1      13.447 -33.887  23.264  0.00  0.00    -0.346 N 
ATOM     47  C   THR d   1      13.984 -32.784  23.782  0.00  0.00     0.243 C 
ATOM     48  O   THR d   1      13.459 -32.175  24.720  0.00  0.00    -0.271 OA
ATOM     49  H17 THR d   1      13.883 -34.332  22.482  0.00  0.00     0.163 HD
BRANCH  47  50
ATOM     50  CA  THR d   1      15.285 -32.286  23.168  0.00  0.00     0.113 C 
ATOM     51  H11 THR d   1      15.757 -31.599  23.885  0.00  0.00     0.091 H 
BRANCH  50  52
ATOM     52  N   THR d   1      16.201 -33.391  22.910  0.00  0.00    -0.344 N 
ATOM     53  C   THR d   1      16.637 -34.135  23.922  0.00  0.00     0.251 C 
ATOM     54  O   THR d   1      16.303 -33.937  25.077  0.00  0.00    -0.271 OA
ATOM     55  H10 THR d   1      16.500 -33.588  21.976  0.00  0.00     0.163 HD
BRANCH  53  56
ATOM     56  CA  THR d   1      17.573 -35.264  23.578  0.00  0.00     0.199 C 
ATOM     57  H4  THR d   1      18.337 -34.914  22.868  0.00  0.00     0.103 H 
BRANCH  56  58
ATOM     58  N   THR d   1      18.227 -35.726  24.798  0.00  0.00    -0.064 N 
ATOM     59  H1  THR d   1      18.761 -34.971  25.199  0.00  0.00     0.275 HD
ATOM     60  H2  THR d   1      18.842 -36.494  24.579  0.00  0.00     0.275 HD
ATOM     61  H3  THR d   1      17.529 -36.032  25.458  0.00  0.00     0.275 HD
ENDBRANCH  56  58
BRANCH  56  62
ATOM     62  CB  THR d   1      16.748 -36.376  22.930  0.00  0.00     0.068 C 
ATOM     63  H5  THR d   1      16.342 -36.013  21.974  0.00  0.00     0.086 H 
BRANCH  62  64
ATOM     64  OG1 THR d   1      15.672 -36.724  23.805  0.00  0.00    -0.393 OA
ATOM     65  H6  THR d   1      15.125 -35.961  23.951  0.00  0.00     0.210 HD
ENDBRANCH  62  64
BRANCH  62  66
ATOM     66  CG2 THR d   1      17.598 -37.611  22.672  0.00  0.00    -0.050 C 
ATOM     67  H7  THR d   1      16.979 -38.392  22.206  0.00  0.00     0.031 H 
ATOM     68  H8  THR d   1      18.002 -37.983  23.625  0.00  0.00     0.031 H 
ATOM     69  H9  THR d   1      18.428 -37.351  21.998  0.00  0.00     0.031 H 
ENDBRANCH  62  66
ENDBRANCH  56  62
ENDBRANCH  53  56
ENDBRANCH  50  52
BRANCH  50  70
ATOM     70  CB  THR d   1      15.049 -31.539  21.873  0.00  0.00     0.060 C 
ATOM     71  H12 THR d   1      14.495 -32.180  21.172  0.00  0.00     0.086 H 
BRANCH  70  72
ATOM     72  OG1 THR d   1      16.336 -31.210  21.307  0.00  0.00    -0.393 OA
ATOM     73  H13 THR d   1      16.211 -30.739  20.491  0.00  0.00     0.210 HD
ENDBRANCH  70  72
BRANCH  70  74
ATOM     74  CG2 THR d   1      14.242 -30.293  22.143  0.00  0.00    -0.050 C 
ATOM     75  H14 THR d   1      14.073 -29.754  21.199  0.00  0.00     0.031 H 
ATOM     76  H15 THR d   1      14.791 -29.645  22.842  0.00  0.00     0.031 H 
ATOM     77  H16 THR d   1      13.274 -30.572  22.584  0.00  0.00     0.031 H 
ENDBRANCH  70  74
ENDBRANCH  50  70
ENDBRANCH  47  50
ENDBRANCH  44  46
BRANCH  44  78
ATOM     78  CB  THR d   1      11.817 -35.682  23.039  0.00  0.00    -0.014 C 
ATOM     79  H19 THR d   1      12.639 -36.412  23.073  0.00  0.00     0.043 H 
ATOM     80  H20 THR d   1      11.633 -35.386  21.996  0.00  0.00     0.043 H 
BRANCH  78  81
ATOM     81  CG  THR d   1      10.576 -36.334  23.576  0.00  0.00    -0.056 A 
ATOM     82  CD1 THR d   1      10.631 -37.571  24.172  0.00  0.00    -0.074 A 
ATOM     83  CE1 THR d   1       9.489 -38.159  24.679  0.00  0.00    -0.051 A 
ATOM     84  H21 THR d   1      11.580 -38.090  24.245  0.00  0.00     0.084 H 
ATOM     85  CZ  THR d   1       8.273 -37.501  24.597  0.00  0.00     0.065 A 
ATOM     86  H23 THR d   1       9.544 -39.138  25.142  0.00  0.00     0.087 H 
ATOM     87  CE2 THR d   1       8.200 -36.269  24.004  0.00  0.00    -0.051 A 
ATOM     88  CD2 THR d   1       9.348 -35.693  23.501  0.00  0.00    -0.074 A 
ATOM     89  H24 THR d   1       7.250 -35.752  23.931  0.00  0.00     0.087 H 
ATOM     90  H22 THR d   1       9.289 -34.716  23.036  0.00  0.00     0.084 H 
BRANCH  85  91
ATOM     91  OH  THR d   1       7.119 -38.087  25.087  0.00  0.00    -0.361 OA
ATOM     92  H25 THR d   1       7.330 -38.932  25.466  0.00  0.00     0.217 HD
ENDBRANCH  85  91
ENDBRANCH  78  81
ENDBRANCH  44  78
ENDBRANCH  41  44
ENDBRANCH  38  40
BRANCH  38  93
ATOM     93  CB  THR d   1      15.077 -36.591  27.129  0.00  0.00    -0.049 C 
ATOM     94  H28 THR d   1      15.262 -36.830  28.187  0.00  0.00     0.030 H 
ATOM     95  H29 THR d   1      15.925 -36.016  26.729  0.00  0.00     0.030 H 
ATOM     96  H30 THR d   1      14.963 -37.523  26.557  0.00  0.00     0.030 H 
ENDBRANCH  38  93
ENDBRANCH  35  38
ENDBRANCH  32  34
BRANCH  32  97
ATOM     97  CB  THR d   1      15.403 -31.164  27.220  0.00  0.00     0.043 C 
ATOM     98  H33 THR d   1      15.316 -30.187  27.717  0.00  0.00     0.052 H 
ATOM     99  H34 THR d   1      15.002 -31.092  26.198  0.00  0.00     0.052 H 
BRANCH  97 100
ATOM    100  CG  THR d   1      16.855 -31.533  27.140  0.00  0.00     0.175 C 
ATOM    101  OD1 THR d   1      17.304 -32.414  27.909  0.00  0.00    -0.648 OA
ATOM    102  OD2 THR d   1      17.533 -30.943  26.269  0.00  0.00    -0.648 OA
ENDBRANCH  97 100
ENDBRANCH  32  97
ENDBRANCH  29  32
ENDBRANCH  26  28
BRANCH  26 103
ATOM    103  CB  THR d   1      10.175 -31.473  26.120  0.00  0.00    -0.014 C 
ATOM    104  H37 THR d   1      10.265 -32.525  25.810  0.00  0.00     0.043 H 
ATOM    105  H38 THR d   1      10.665 -30.828  25.376  0.00  0.00     0.043 H 
BRANCH 103 106
ATOM    106  CG  THR d   1       8.701 -31.118  26.149  0.00  0.00    -0.056 A 
ATOM    107  CD1 THR d   1       7.751 -32.034  25.745  0.00  0.00    -0.077 A 
ATOM    108  CE1 THR d   1       6.403 -31.698  25.704  0.00  0.00    -0.082 A 
ATOM    109  H39 THR d   1       8.061 -33.031  25.455  0.00  0.00     0.084 H 
ATOM    110  CZ  THR d   1       6.003 -30.445  26.121  0.00  0.00    -0.083 A 
ATOM    111  H41 THR d   1       5.672 -32.414  25.347  0.00  0.00     0.083 H 
ATOM    112  CE2 THR d   1       6.935 -29.535  26.539  0.00  0.00    -0.082 A 
ATOM    113  H43 THR d   1       4.951 -30.182  26.117  0.00  0.00     0.083 H 
ATOM    114  CD2 THR d   1       8.289 -29.868  26.535  0.00  0.00    -0.077 A 
ATOM    115  H42 THR d   1       6.620 -28.553  26.874  0.00  0.00     0.083 H 
ATOM    116  H40 THR d   1       9.024 -29.131  26.840  0.00  0.00     0.084 H 
ENDBRANCH 103 106
ENDBRANCH  26 103
ENDBRANCH  23  26
ENDBRANCH  20  22
BRANCH  20 117
ATOM    117  CB  THR d   1      10.054 -35.658  29.435  0.00  0.00    -0.030 C 
ATOM    118  H46 THR d   1      11.140 -35.802  29.331  0.00  0.00     0.043 H 
BRANCH 117 119
ATOM    119  CG1 THR d   1       9.401 -36.119  28.123  0.00  0.00    -0.063 C 
ATOM    120  H47 THR d   1       9.408 -37.219  28.116  0.00  0.00     0.033 H 
ATOM    121  H48 THR d   1      10.018 -35.743  27.294  0.00  0.00     0.033 H 
BRANCH 119 122
ATOM    122  CD1 THR d   1       7.948 -35.659  27.870  0.00  0.00    -0.076 C 
ATOM    123  H52 THR d   1       7.601 -36.054  26.904  0.00  0.00     0.027 H 
ATOM    124  H53 THR d   1       7.909 -34.560  27.852  0.00  0.00     0.027 H 
ATOM    125  H54 THR d   1       7.299 -36.036  28.674  0.00  0.00     0.027 H 
ENDBRANCH 119 122
ENDBRANCH 117 119
BRANCH 117 126
ATOM    126  CG2 THR d   1       9.590 -36.492  30.628  0.00  0.00    -0.071 C 
ATOM    127  H49 THR d   1      10.081 -36.128  31.543  0.00  0.00     0.028 H 
ATOM    128  H50 THR d   1       9.856 -37.547  30.464  0.00  0.00     0.028 H 
ATOM    129  H51 THR d   1       8.499 -36.401  30.737  0.00  0.00     0.028 H 
ENDBRANCH 117 126
ENDBRANCH  20 117
ENDBRANCH  17  20
ENDBRANCH  14  16
BRANCH  14 130
ATOM    130  CB  THR d   1      13.850 -33.033  32.108  0.00  0.00    -0.049 C 
ATOM    131  H57 THR d   1      14.347 -32.735  33.043  0.00  0.00     0.030 H 
ATOM    132  H58 THR d   1      14.111 -32.321  31.311  0.00  0.00     0.030 H 
ATOM    133  H59 THR d   1      14.182 -34.042  31.822  0.00  0.00     0.030 H 
ENDBRANCH  14 130
ENDBRANCH  11  14
ENDBRANCH   8  10
BRANCH   8 134
ATOM    134  CB  THR d   1      10.561 -28.637  31.054  0.00  0.00     0.044 C 
ATOM    135  H62 THR d   1      11.299 -28.793  30.254  0.00  0.00     0.077 H 
ATOM    136  H63 THR d   1      10.532 -27.571  31.323  0.00  0.00     0.077 H 
BRANCH 134 137
ATOM    137  OG  THR d   1       9.286 -29.022  30.579  0.00  0.00    -0.398 OA
ATOM    138  H64 THR d   1       9.303 -29.941  30.338  0.00  0.00     0.209 HD
ENDBRANCH 134 137
ENDBRANCH   8 134
ENDBRANCH   5   8
ENDBRANCH   1   4
BRANCH   1 139
ATOM    139  C   THR d   1       6.701 -29.711  33.474  0.00  0.00     0.236 C 
ATOM    140  O   THR d   1       5.678 -29.536  34.136  0.00  0.00    -0.272 OA
ATOM    141  N   THR d   1       6.847 -29.200  32.266  0.00  0.00    -0.346 N 
ATOM    142  H68 THR d   1       7.685 -29.400  31.758  0.00  0.00     0.163 HD
BRANCH 141 143
ATOM    143  CA  THR d   1       5.837 -28.356  31.643  0.00  0.00     0.089 C 
ATOM    144  H69 THR d   1       5.029 -28.188  32.370  0.00  0.00     0.087 H 
BRANCH 143 145
ATOM    145  C   THR d   1       5.232 -29.038  30.423  0.00  0.00     0.241 C 
ATOM    146  O   THR d   1       5.031 -28.402  29.388  0.00  0.00    -0.271 OA
ATOM    147  N   THR d   1       4.920 -30.337  30.551  0.00  0.00    -0.344 N 
ATOM    148  H81 THR d   1       5.147 -30.807  31.404  0.00  0.00     0.163 HD
BRANCH 147 149
ATOM    149  CA  THR d   1       4.263 -31.084  29.491  0.00  0.00     0.113 C 
ATOM    150  H82 THR d   1       4.548 -30.613  28.539  0.00  0.00     0.091 H 
BRANCH 149 151
ATOM    151  C   THR d   1       2.746 -31.051  29.594  0.00  0.00     0.243 C 
ATOM    152  O   THR d   1       2.076 -31.458  28.648  0.00  0.00    -0.271 OA
ATOM    153  N   THR d   1       2.194 -30.583  30.711  0.00  0.00    -0.350 N 
ATOM    154  H88 THR d   1       2.788 -30.256  31.447  0.00  0.00     0.163 HD
BRANCH 153 155
ATOM    155  CA  THR d   1       0.765 -30.534  30.890  0.00  0.00     0.069 C 
ATOM    156  H89 THR d   1       0.526 -30.728  31.946  0.00  0.00     0.078 H 
ATOM    157  H90 THR d   1       0.295 -31.304  30.260  0.00  0.00     0.078 H 
BRANCH 155 158
ATOM    158  C   THR d   1       0.228 -29.179  30.501  0.00  0.00     0.236 C 
ATOM    159  O   THR d   1       0.924 -28.325  29.956  0.00  0.00    -0.272 OA
ATOM    160  N   THR d   1      -1.052 -28.997  30.764  0.00  0.00    -0.346 N 
ATOM    161  H91 THR d   1      -1.583 -29.726  31.196  0.00  0.00     0.163 HD
BRANCH 160 162
ATOM    162  CA  THR d   1      -1.688 -27.741  30.427  0.00  0.00     0.089 C 
ATOM    163  H92 THR d   1      -1.590 -27.576  29.344  0.00  0.00     0.087 H 
BRANCH 162 164
ATOM    164  C   THR d   1      -0.989 -26.606  31.152  0.00  0.00     0.241 C 
ATOM    165  O   THR d   1      -0.605 -26.729  32.322  0.00  0.00    -0.271 OA
ATOM    166  N   THR d   1      -0.778 -25.516  30.431  0.00  0.00    -0.346 N 
ATOM    167 4H10 THR d   1      -1.148 -25.470  29.503  0.00  0.00     0.163 HD
BRANCH 166 168
ATOM    168  CA  THR d   1      -0.027 -24.388  30.945  0.00  0.00     0.089 C 
ATOM    169 5H10 THR d   1       0.481 -24.677  31.877  0.00  0.00     0.087 H 
BRANCH 168 170
ATOM    170  C   THR d   1      -0.980 -23.243  31.229  0.00  0.00     0.241 C 
ATOM    171  O   THR d   1      -1.782 -22.865  30.373  0.00  0.00    -0.271 OA
ATOM    172  N   THR d   1      -0.866 -22.666  32.412  0.00  0.00    -0.344 N 
ATOM    173 7H11 THR d   1      -0.167 -22.989  33.050  0.00  0.00     0.163 HD
BRANCH 172 174
ATOM    174  CA  THR d   1      -1.735 -21.573  32.803  0.00  0.00     0.109 C 
ATOM    175 8H11 THR d   1      -2.705 -21.679  32.295  0.00  0.00     0.090 H 
BRANCH 174 176
ATOM    176  C   THR d   1      -1.107 -20.239  32.425  0.00  0.00     0.243 C 
ATOM    177  O   THR d   1       0.116 -20.107  32.341  0.00  0.00    -0.271 OA
ATOM    178  N   THR d   1      -1.962 -19.244  32.208  0.00  0.00    -0.346 N 
ATOM    179 2H12 THR d   1      -2.945 -19.430  32.212  0.00  0.00     0.163 HD
BRANCH 178 180
ATOM    180  CA  THR d   1      -1.494 -17.897  31.966  0.00  0.00     0.086 C 
ATOM    181 3H12 THR d   1      -0.810 -17.902  31.105  0.00  0.00     0.086 H 
BRANCH 180 182
ATOM    182  C   THR d   1      -0.762 -17.361  33.187  0.00  0.00     0.240 C 
ATOM    183  O   THR d   1      -0.994 -17.787  34.321  0.00  0.00    -0.271 OA
ATOM    184  N   THR d   1       0.110 -16.392  32.942  0.00  0.00    -0.344 N 
ATOM    185 7H12 THR d   1       0.255 -16.106  31.995  0.00  0.00     0.163 HD
BRANCH 184 186
ATOM    186  CA  THR d   1       0.871 -15.723  34.002  0.00  0.00     0.099 C 
ATOM    187 8H12 THR d   1       1.250 -16.496  34.687  0.00  0.00     0.090 H 
BRANCH 186 188
ATOM    188  C   THR d   1      -0.035 -14.798  34.793  0.00  0.00     0.197 C 
ATOM    189  O   THR d   1       0.287 -14.439  35.939  0.00  0.00    -0.646 OA
ATOM    190  OXT THR d   1      -1.088 -14.398  34.302  0.00  0.00    -0.646 OA
ENDBRANCH 186 188
BRANCH 186 191
ATOM    191  CB  THR d   1       2.099 -14.951  33.429  0.00  0.00    -0.029 C 
ATOM    192 9H12 THR d   1       2.656 -14.507  34.267  0.00  0.00     0.043 H 
BRANCH 191 193
ATOM    193  CG1 THR d   1       1.654 -13.829  32.495  0.00  0.00    -0.063 C 
ATOM    194 0H13 THR d   1       1.014 -13.140  33.066  0.00  0.00     0.033 H 
ATOM    195 1H13 THR d   1       1.072 -14.275  31.675  0.00  0.00     0.033 H 
BRANCH 193 196
ATOM    196  CD1 THR d   1       2.804 -13.015  31.878  0.00  0.00    -0.076 C 
ATOM    197 5H13 THR d   1       2.390 -12.234  31.223  0.00  0.00     0.027 H 
ATOM    198 6H13 THR d   1       3.451 -13.682  31.289  0.00  0.00     0.027 H 
ATOM    199 7H13 THR d   1       3.393 -12.547  32.680  0.00  0.00     0.027 H 
ENDBRANCH 193 196
ENDBRANCH 191 193
BRANCH 191 200
ATOM    200  CG2 THR d   1       3.008 -15.907  32.696  0.00  0.00    -0.070 C 
ATOM    201 2H13 THR d   1       3.322 -16.710  33.379  0.00  0.00     0.028 H 
ATOM    202 3H13 THR d   1       3.895 -15.366  32.335  0.00  0.00     0.028 H 
ATOM    203 4H13 THR d   1       2.470 -16.342  31.841  0.00  0.00     0.028 H 
ENDBRANCH 191 200
ENDBRANCH 186 191
ENDBRANCH 184 186
ENDBRANCH 180 182
BRANCH 180 204
ATOM    204  CB  THR d   1      -2.676 -16.993  31.669  0.00  0.00    -0.049 C 
ATOM    205 4H12 THR d   1      -2.318 -15.969  31.485  0.00  0.00     0.030 H 
ATOM    206 5H12 THR d   1      -3.362 -16.992  32.529  0.00  0.00     0.030 H 
ATOM    207 6H12 THR d   1      -3.205 -17.362  30.778  0.00  0.00     0.030 H 
ENDBRANCH 180 204
ENDBRANCH 178 180
ENDBRANCH 174 176
BRANCH 174 208
ATOM    208  CB  THR d   1      -1.940 -21.608  34.309  0.00  0.00     0.044 C 
ATOM    209 9H11 THR d   1      -2.371 -22.577  34.600  0.00  0.00     0.077 H 
ATOM    210 0H12 THR d   1      -2.623 -20.799  34.608  0.00  0.00     0.077 H 
BRANCH 208 211
ATOM    211  OG  THR d   1      -0.694 -21.434  34.944  0.00  0.00    -0.398 OA
ATOM    212 1H12 THR d   1      -0.106 -22.134  34.683  0.00  0.00     0.209 HD
ENDBRANCH 208 211
ENDBRANCH 174 208
ENDBRANCH 172 174
ENDBRANCH 168 170
BRANCH 168 213
ATOM    213  CB  THR d   1       1.014 -23.970  29.910  0.00  0.00    -0.036 C 
ATOM    214 6H10 THR d   1       1.528 -23.067  30.270  0.00  0.00     0.036 H 
ATOM    215 7H10 THR d   1       0.501 -23.747  28.962  0.00  0.00     0.036 H 
BRANCH 213 216
ATOM    216  CG  THR d   1       2.049 -25.056  29.663  0.00  0.00    -0.048 C 
ATOM    217 8H10 THR d   1       1.546 -26.033  29.701  0.00  0.00     0.035 H 
ATOM    218 9H10 THR d   1       2.808 -25.003  30.458  0.00  0.00     0.035 H 
BRANCH 216 219
ATOM    219  CD  THR d   1       2.744 -24.926  28.326  0.00  0.00     0.009 C 
ATOM    220 0H11 THR d   1       3.580 -25.640  28.281  0.00  0.00     0.064 H 
ATOM    221 1H11 THR d   1       3.130 -23.902  28.216  0.00  0.00     0.064 H 
BRANCH 219 222
ATOM    222  NE  THR d   1       1.812 -25.208  27.239  0.00  0.00    -0.227 N 
ATOM    223  CZ  THR d   1       2.163 -25.566  26.021  0.00  0.00     0.665 C 
ATOM    224  NH1 THR d   1       3.448 -25.737  25.693  0.00  0.00    -0.235 N 
ATOM    225  NH2 THR d   1       1.221 -25.748  25.106  0.00  0.00    -0.235 N 
ATOM    226 3H11 THR d   1       3.702 -26.017  24.735  0.00  0.00     0.174 HD
ATOM    227 4H11 THR d   1       4.184 -25.588  26.398  0.00  0.00     0.174 HD
ATOM    228 5H11 THR d   1       0.230 -25.617  25.354  0.00  0.00     0.174 HD
ATOM    229 6H11 THR d   1       1.480 -26.020  24.147  0.00  0.00     0.174 HD
ATOM    230 2H11 THR d   1       0.805 -25.121  27.439  0.00  0.00     0.177 HD
ENDBRANCH 219 222
ENDBRANCH 216 219
ENDBRANCH 213 216
ENDBRANCH 168 213
ENDBRANCH 166 168
ENDBRANCH 162 164
BRANCH 162 231
ATOM    231  CB  THR d   1      -3.170 -27.786  30.772  0.00  0.00    -0.036 C 
ATOM    232  H93 THR d   1      -3.601 -26.783  30.635  0.00  0.00     0.036 H 
ATOM    233  H94 THR d   1      -3.285 -28.095  31.821  0.00  0.00     0.036 H 
BRANCH 231 234
ATOM    234  CG  THR d   1      -3.901 -28.758  29.892  0.00  0.00    -0.048 C 
ATOM    235  H95 THR d   1      -3.522 -29.769  30.103  0.00  0.00     0.035 H 
ATOM    236  H96 THR d   1      -3.693 -28.500  28.843  0.00  0.00     0.035 H 
BRANCH 234 237
ATOM    237  CD  THR d   1      -5.386 -28.759  30.093  0.00  0.00     0.009 C 
ATOM    238  H97 THR d   1      -5.742 -27.736  30.283  0.00  0.00     0.064 H 
ATOM    239  H98 THR d   1      -5.652 -29.404  30.944  0.00  0.00     0.064 H 
BRANCH 237 240
ATOM    240  NE  THR d   1      -5.979 -29.274  28.874  0.00  0.00    -0.227 N 
ATOM    241  CZ  THR d   1      -6.107 -30.564  28.571  0.00  0.00     0.665 C 
ATOM    242  NH1 THR d   1      -5.708 -31.515  29.428  0.00  0.00    -0.235 N 
ATOM    243  NH2 THR d   1      -6.629 -30.902  27.385  0.00  0.00    -0.235 N 
ATOM    244 0H10 THR d   1      -5.813 -32.509  29.180  0.00  0.00     0.174 HD
ATOM    245 1H10 THR d   1      -5.296 -31.251  30.334  0.00  0.00     0.174 HD
ATOM    246 2H10 THR d   1      -6.934 -30.169  26.729  0.00  0.00     0.174 HD
ATOM    247 3H10 THR d   1      -6.725 -31.895  27.129  0.00  0.00     0.174 HD
ATOM    248  H99 THR d   1      -6.328 -28.588  28.189  0.00  0.00     0.177 HD
ENDBRANCH 237 240
ENDBRANCH 234 237
ENDBRANCH 231 234
ENDBRANCH 162 231
ENDBRANCH 160 162
ENDBRANCH 155 158
ENDBRANCH 153 155
ENDBRANCH 149 151
BRANCH 149 249
ATOM    249  CB  THR d   1       4.704 -32.551  29.445  0.00  0.00     0.060 C 
ATOM    250  H83 THR d   1       4.261 -33.016  28.552  0.00  0.00     0.086 H 
BRANCH 249 251
ATOM    251  OG1 THR d   1       4.238 -33.252  30.601  0.00  0.00    -0.393 OA
ATOM    252  H84 THR d   1       4.596 -32.846  31.382  0.00  0.00     0.210 HD
ENDBRANCH 249 251
BRANCH 249 253
ATOM    253  CG2 THR d   1       6.222 -32.669  29.345  0.00  0.00    -0.050 C 
ATOM    254  H85 THR d   1       6.506 -33.731  29.314  0.00  0.00     0.031 H 
ATOM    255  H86 THR d   1       6.685 -32.191  30.221  0.00  0.00     0.031 H 
ATOM    256  H87 THR d   1       6.569 -32.170  28.428  0.00  0.00     0.031 H 
ENDBRANCH 249 253
ENDBRANCH 149 249
ENDBRANCH 147 149
ENDBRANCH 143 145
BRANCH 143 257
ATOM    257  CB  THR d   1       6.457 -27.001  31.296  0.00  0.00    -0.036 C 
ATOM    258  H70 THR d   1       5.720 -26.397  30.746  0.00  0.00     0.036 H 
ATOM    259  H71 THR d   1       7.344 -27.161  30.665  0.00  0.00     0.036 H 
BRANCH 257 260
ATOM    260  CG  THR d   1       6.875 -26.248  32.575  0.00  0.00    -0.048 C 
ATOM    261  H72 THR d   1       7.649 -26.838  33.088  0.00  0.00     0.035 H 
ATOM    262  H73 THR d   1       5.994 -26.155  33.226  0.00  0.00     0.035 H 
BRANCH 260 263
ATOM    263  CD  THR d   1       7.419 -24.878  32.319  0.00  0.00     0.009 C 
ATOM    264  H74 THR d   1       8.261 -24.952  31.615  0.00  0.00     0.064 H 
ATOM    265  H75 THR d   1       7.771 -24.449  33.269  0.00  0.00     0.064 H 
BRANCH 263 266
ATOM    266  NE  THR d   1       6.397 -24.001  31.749  0.00  0.00    -0.227 N 
ATOM    267  CZ  THR d   1       5.537 -23.255  32.442  0.00  0.00     0.665 C 
ATOM    268  NH1 THR d   1       5.523 -23.285  33.773  0.00  0.00    -0.235 N 
ATOM    269  NH2 THR d   1       4.672 -22.493  31.776  0.00  0.00    -0.235 N 
ATOM    270  H77 THR d   1       4.852 -22.703  34.294  0.00  0.00     0.174 HD
ATOM    271  H78 THR d   1       6.183 -23.891  34.282  0.00  0.00     0.174 HD
ATOM    272  H79 THR d   1       4.688 -22.475  30.746  0.00  0.00     0.174 HD
ATOM    273  H80 THR d   1       3.986 -21.922  32.290  0.00  0.00     0.174 HD
ATOM    274  H76 THR d   1       6.337 -23.956  30.722  0.00  0.00     0.177 HD
ENDBRANCH 263 266
ENDBRANCH 260 263
ENDBRANCH 257 260
ENDBRANCH 143 257
ENDBRANCH 141 143
ENDBRANCH   1 139
TORSDOF 79
