REMARK  7 active torsions:
REMARK  status: ('A' for Active; 'I' for Inactive)
REMARK    1  A    between atoms: P_1  and  O5'_5 
REMARK    2  A    between atoms: O5'_5  and  C5'_6 
REMARK    3  A    between atoms: C5'_6  and  C4'_7 
REMARK    4  A    between atoms: C3'_9  and  O3'_10 
REMARK    5  A    between atoms: C2'_11  and  O2'_12 
REMARK    6  A    between atoms: C1'_13  and  N9_14 
REMARK    7  A    between atoms: C6_19  and  N6_20 
ROOT
ATOM      1  C4' 8BR d   1      30.710  31.340  14.594  0.00  0.00     0.089 C 
ATOM      2  O4' 8BR d   1      31.265  32.669  14.585  0.00  0.00    -0.353 OA
ATOM      3  C3' 8BR d   1      31.838  30.452  14.064  0.00  0.00     0.091 C 
ATOM      4  C2' 8BR d   1      32.612  31.365  13.106  0.00  0.00     0.105 C 
ATOM      5  C1' 8BR d   1      32.218  32.779  13.563  0.00  0.00     0.141 C 
ATOM      6  H3  8BR d   1      29.851  31.274  13.911  0.00  0.00     0.090 H 
ATOM      7  H4  8BR d   1      32.491  30.147  14.895  0.00  0.00     0.091 H 
ATOM      8  H6  8BR d   1      33.697  31.196  13.174  0.00  0.00     0.093 H 
ATOM      9  H8  8BR d   1      31.764  33.302  12.708  0.00  0.00     0.123 H 
ENDROOT
BRANCH   5  10
ATOM     10  N9  8BR d   1      33.365  33.583  14.030  0.00  0.00    -0.278 N 
ATOM     11  C8  8BR d   1      34.131  33.461  15.175  0.00  0.00     0.182 A 
ATOM     12 BR8  8BR d   1      33.707  32.307  16.577  0.00  0.00    -0.008 Br
ATOM     13  N7  8BR d   1      35.171  34.252  15.198  0.00  0.00    -0.216 NA
ATOM     14  C5  8BR d   1      35.085  34.956  14.006  0.00  0.00     0.151 A 
ATOM     15  C6  8BR d   1      35.923  35.930  13.429  0.00  0.00     0.155 A 
ATOM     16  C4  8BR d   1      33.973  34.571  13.283  0.00  0.00     0.168 A 
ATOM     17  N1  8BR d   1      35.567  36.425  12.223  0.00  0.00    -0.222 NA
ATOM     18  C2  8BR d   1      34.452  35.965  11.643  0.00  0.00     0.091 A 
ATOM     19  N3  8BR d   1      33.592  35.042  12.089  0.00  0.00    -0.221 NA
ATOM     20  H11 8BR d   1      34.213  36.400  10.679  0.00  0.00     0.146 H 
BRANCH  15  21
ATOM     21  N6  8BR d   1      37.055  36.360  13.989  0.00  0.00    -0.382 N 
ATOM     22  H9  8BR d   1      37.624  37.076  13.515  0.00  0.00     0.157 HD
ATOM     23  H10 8BR d   1      37.360  35.976  14.895  0.00  0.00     0.157 HD
ENDBRANCH  15  21
ENDBRANCH   5  10
BRANCH   4  24
ATOM     24  O2' 8BR d   1      32.161  31.185  11.776  0.00  0.00    -0.388 OA
ATOM     25  H7  8BR d   1      32.295  30.281  11.517  0.00  0.00     0.210 HD
ENDBRANCH   4  24
BRANCH   1  26
ATOM     26  C5' 8BR d   1      30.229  31.036  15.990  0.00  0.00     0.059 C 
ATOM     27  H1  8BR d   1      31.095  30.990  16.666  0.00  0.00     0.079 H 
ATOM     28  H2  8BR d   1      29.550  31.837  16.318  0.00  0.00     0.079 H 
BRANCH  26  29
ATOM     29  O5' 8BR d   1      29.540  29.796  16.035  0.00  0.00    -0.280 OA
BRANCH  29  30
ATOM     30  P   8BR d   1      29.310  29.042  17.413  0.00  0.00     0.422 P 
ATOM     31  O1P 8BR d   1      28.067  28.210  17.121  0.00  0.00    -0.617 OA
ATOM     32  O2P 8BR d   1      30.525  28.114  17.568  0.00  0.00    -0.617 OA
ATOM     33  O3P 8BR d   1      29.068  30.076  18.453  0.00  0.00    -0.617 OA
ENDBRANCH  29  30
ENDBRANCH  26  29
ENDBRANCH   1  26
BRANCH   3  34
ATOM     34  O3' 8BR d   1      31.359  29.275  13.427  0.00  0.00    -0.390 OA
ATOM     35  H5  8BR d   1      30.854  28.764  14.048  0.00  0.00     0.210 HD
ENDBRANCH   3  34
TORSDOF 7
