REMARK  5 active torsions:
REMARK  status: ('A' for Active; 'I' for Inactive)
REMARK    1  A    between atoms: C2_2  and  O9_9 
REMARK    2  A    between atoms: C3_3  and  O10_10 
REMARK    3  A    between atoms: C4_4  and  O11_11 
REMARK    4  A    between atoms: C5_5  and  C6_6 
REMARK    5  A    between atoms: C6_6  and  O12_12 
ROOT
ATOM      1  C1  9FQ d   1      57.633  66.808  61.545  0.00  0.00     0.113 C 
ATOM      2  C2  9FQ d   1      57.134  66.327  60.181  0.00  0.00     0.091 C 
ATOM      3  C3  9FQ d   1      58.290  65.908  59.243  0.00  0.00     0.088 C 
ATOM      4  C4  9FQ d   1      59.329  66.994  59.144  0.00  0.00     0.070 C 
ATOM      5  C5  9FQ d   1      59.946  67.290  60.499  0.00  0.00     0.023 C 
ATOM      6  C7  9FQ d   1      58.868  67.674  61.502  0.00  0.00     0.096 C 
ATOM      7  O8  9FQ d   1      56.624  67.683  62.142  0.00  0.00    -0.243 OA
ATOM      8  O13 9FQ d   1      58.292  68.973  61.173  0.00  0.00    -0.245 OA
ATOM      9  S14 9FQ d   1      56.991  69.187  61.982  0.00  0.00     0.403 S 
ATOM     10  O15 9FQ d   1      56.033  69.837  61.126  0.00  0.00    -0.169 OA
ATOM     11  O16 9FQ d   1      57.214  69.726  63.281  0.00  0.00    -0.169 OA
ATOM     12  H1  9FQ d   1      57.818  65.930  62.181  0.00  0.00     0.093 H 
ATOM     13  H2  9FQ d   1      56.627  67.180  59.706  0.00  0.00     0.091 H 
ATOM     14  H3  9FQ d   1      58.763  64.990  59.621  0.00  0.00     0.091 H 
ATOM     15  H4  9FQ d   1      58.854  67.909  58.761  0.00  0.00     0.087 H 
ATOM     16  H5  9FQ d   1      60.426  66.365  60.850  0.00  0.00     0.051 H 
ATOM     17  H8  9FQ d   1      59.334  67.696  62.498  0.00  0.00     0.090 H 
ENDROOT
BRANCH   5  18
ATOM     18  C6  9FQ d   1      61.021  68.379  60.456  0.00  0.00     0.025 C 
ATOM     19  H6  9FQ d   1      60.541  69.357  60.305  0.00  0.00     0.074 H 
ATOM     20  H7  9FQ d   1      61.710  68.176  59.623  0.00  0.00     0.074 H 
BRANCH  18  21
ATOM     21  O12 9FQ d   1      61.758  68.398  61.686  0.00  0.00    -0.400 OA
ATOM     22  H12 9FQ d   1      62.175  67.555  61.817  0.00  0.00     0.209 HD
ENDBRANCH  18  21
ENDBRANCH   5  18
BRANCH   4  23
ATOM     23  O11 9FQ d   1      60.361  66.578  58.236  0.00  0.00    -0.392 OA
ATOM     24  H11 9FQ d   1      59.978  66.392  57.387  0.00  0.00     0.210 HD
ENDBRANCH   4  23
BRANCH   3  25
ATOM     25  O10 9FQ d   1      57.699  65.662  57.942  0.00  0.00    -0.390 OA
ATOM     26  H10 9FQ d   1      58.377  65.391  57.334  0.00  0.00     0.210 HD
ENDBRANCH   3  25
BRANCH   2  27
ATOM     27  O9  9FQ d   1      56.173  65.288  60.311  0.00  0.00    -0.390 OA
ATOM     28  H9  9FQ d   1      56.591  64.515  60.672  0.00  0.00     0.210 HD
ENDBRANCH   2  27
TORSDOF 5
