REMARK  3 active torsions:
REMARK  status: ('A' for Active; 'I' for Inactive)
REMARK    1  A    between atoms: C5_5  and  C23_23 
REMARK    2  A    between atoms: C10_10  and  N15_15 
REMARK    3  A    between atoms: N15_15  and  C16_16 
ROOT
ATOM      1  C1  3NG d   1      28.767 119.292   0.278  0.00  0.00     0.071 A 
ATOM      2  C2  3NG d   1      28.111 120.321   1.113  0.00  0.00     0.005 A 
ATOM      3  C3  3NG d   1      28.498 120.439   2.439  0.00  0.00    -0.069 A 
ATOM      4  C4  3NG d   1      29.468 119.563   2.940  0.00  0.00    -0.066 A 
ATOM      5  C5  3NG d   1      30.065 118.589   2.134  0.00  0.00     0.043 A 
ATOM      6  C6  3NG d   1      29.738 118.483   0.810  0.00  0.00    -0.038 A 
ATOM      7  C7  3NG d   1      26.851 120.973  -0.954  0.00  0.00     0.024 A 
ATOM      8  C8  3NG d   1      27.103 121.186   0.480  0.00  0.00     0.008 A 
ATOM      9  N9  3NG d   1      28.470 119.128  -1.021  0.00  0.00    -0.230 NA
ATOM     10  C10 3NG d   1      27.591 119.896  -1.698  0.00  0.00     0.140 A 
ATOM     11  C11 3NG d   1      25.241 122.802  -0.751  0.00  0.00     0.003 A 
ATOM     12  N12 3NG d   1      25.513 122.972   0.560  0.00  0.00    -0.272 NA
ATOM     13  C13 3NG d   1      26.417 122.192   1.176  0.00  0.00     0.013 A 
ATOM     14  C14 3NG d   1      25.895 121.808  -1.520  0.00  0.00    -0.051 A 
ATOM     15  H1  3NG d   1      28.057 121.197   3.077  0.00  0.00     0.085 H 
ATOM     16  H2  3NG d   1      29.764 119.642   3.980  0.00  0.00     0.085 H 
ATOM     17  H3  3NG d   1      30.246 117.760   0.182  0.00  0.00     0.088 H 
ATOM     18  H4  3NG d   1      24.505 123.441  -1.226  0.00  0.00     0.114 H 
ATOM     19  H5  3NG d   1      26.620 122.343   2.230  0.00  0.00     0.116 H 
ATOM     20  H6  3NG d   1      25.645 121.697  -2.569  0.00  0.00     0.087 H 
ENDROOT
BRANCH  10  21
ATOM     21  N15 3NG d   1      27.309 119.590  -2.989  0.00  0.00    -0.340 N 
ATOM     22  H7  3NG d   1      26.748 120.284  -3.503  0.00  0.00     0.167 HD
BRANCH  21  23
ATOM     23  C16 3NG d   1      27.675 118.477  -3.695  0.00  0.00     0.035 A 
ATOM     24  C17 3NG d   1      28.323 117.326  -3.225  0.00  0.00    -0.036 A 
ATOM     25  C18 3NG d   1      28.672 116.311  -4.127  0.00  0.00     0.036 A 
ATOM     26  H8  3NG d   1      28.553 117.222  -2.171  0.00  0.00     0.089 H 
ATOM     27  C19 3NG d   1      28.399 116.427  -5.476  0.00  0.00    -0.062 A 
ATOM     28 CL22 3NG d   1      29.515 114.798  -3.654  0.00  0.00    -0.084 Cl
ATOM     29  C20 3NG d   1      27.761 117.560  -5.947  0.00  0.00    -0.079 A 
ATOM     30  H9  3NG d   1      28.683 115.636  -6.160  0.00  0.00     0.086 H 
ATOM     31  C21 3NG d   1      27.403 118.554  -5.055  0.00  0.00    -0.057 A 
ATOM     32  H10 3NG d   1      27.544 117.668  -7.004  0.00  0.00     0.083 H 
ATOM     33  H11 3NG d   1      26.889 119.430  -5.433  0.00  0.00     0.086 H 
ENDBRANCH  21  23
ENDBRANCH  10  21
BRANCH   5  34
ATOM     34  C23 3NG d   1      31.121 117.683   2.672  0.00  0.00     0.209 C 
ATOM     35  O24 3NG d   1      31.437 116.719   2.026  0.00  0.00    -0.644 OA
ATOM     36  O25 3NG d   1      31.762 117.989   3.809  0.00  0.00    -0.644 OA
ENDBRANCH   5  34
TORSDOF 3
