REMARK  4 active torsions:
REMARK  status: ('A' for Active; 'I' for Inactive)
REMARK    1  A    between atoms: C4_3  and  N1_1 
REMARK    2  A    between atoms: N3_2  and  C16_12 
REMARK    3  A    between atoms: C6_5  and  O1_19 
REMARK       I    between atoms: C11_15  and  N2_14 
REMARK    4  A    between atoms: C11_15  and  C1_17 
ROOT
ATOM      1  N3  9H5 d   1      91.943 100.541 -45.030  0.00  0.00    -0.072 N 
ATOM      2  C13 9H5 d   1      90.444 100.324 -45.179  0.00  0.00     0.098 C 
ATOM      3  C15 9H5 d   1      92.287  98.086 -45.189  0.00  0.00     0.021 C 
ATOM      4  C12 9H5 d   1      90.195  99.090 -46.043  0.00  0.00     0.021 C 
ATOM      5  C14 9H5 d   1      92.599  99.336 -44.372  0.00  0.00     0.098 C 
ATOM      6  N2  9H5 d   1      90.853  97.927 -45.453  0.00  0.00    -0.345 N 
ATOM      7  C11 9H5 d   1      90.091  96.778 -45.241  0.00  0.00     0.256 C 
ATOM      8  O2  9H5 d   1      88.889  96.728 -45.507  0.00  0.00    -0.267 OA
ATOM      9  H1  9H5 d   1      92.335 100.635 -45.954  0.00  0.00     0.279 HD
ATOM     10  H5  9H5 d   1      89.991 101.205 -45.658  0.00  0.00     0.078 H 
ATOM     11  H6  9H5 d   1      89.994 100.174 -44.186  0.00  0.00     0.078 H 
ATOM     12  H7  9H5 d   1      92.643  97.205 -44.635  0.00  0.00     0.067 H 
ATOM     13  H8  9H5 d   1      92.817  98.153 -46.151  0.00  0.00     0.067 H 
ATOM     14  H9  9H5 d   1      90.598  99.264 -47.052  0.00  0.00     0.067 H 
ATOM     15  H10 9H5 d   1      89.113  98.903 -46.108  0.00  0.00     0.067 H 
ATOM     16  H14 9H5 d   1      92.207  99.216 -43.351  0.00  0.00     0.078 H 
ATOM     17  H15 9H5 d   1      93.688  99.487 -44.331  0.00  0.00     0.078 H 
ENDROOT
BRANCH   7  18
ATOM     18  C1  9H5 d   1      90.663  95.549 -44.650  0.00  0.00     0.068 A 
ATOM     19  C6  9H5 d   1      91.058  95.513 -43.308  0.00  0.00     0.100 A 
ATOM     20  C5  9H5 d   1      91.582  94.321 -42.774  0.00  0.00     0.069 A 
ATOM     21  C4  9H5 d   1      91.681  93.176 -43.601  0.00  0.00     0.074 A 
ATOM     22  I2  9H5 d   1      92.159  94.259 -40.718  0.00  0.00    -0.039 I 
ATOM     23  C3  9H5 d   1      91.285  93.205 -44.966  0.00  0.00     0.036 A 
ATOM     24  C2  9H5 d   1      90.767  94.410 -45.466  0.00  0.00    -0.047 A 
ATOM     25  I1  9H5 d   1      91.367  91.565 -46.340  0.00  0.00    -0.042 I 
ATOM     26  H17 9H5 d   1      90.442  94.463 -46.499  0.00  0.00     0.087 H 
BRANCH  19  27
ATOM     27  O1  9H5 d   1      90.923  96.665 -42.569  0.00  0.00    -0.358 OA
ATOM     28  H16 9H5 d   1      90.009  96.924 -42.553  0.00  0.00     0.217 HD
ENDBRANCH  19  27
BRANCH  21  29
ATOM     29  N1  9H5 d   1      92.243  92.034 -42.994  0.00  0.00    -0.330 N 
ATOM     30  C7  9H5 d   1      91.620  90.902 -42.537  0.00  0.00    -0.015 A 
ATOM     31  C8  9H5 d   1      92.579  90.067 -41.998  0.00  0.00    -0.066 A 
ATOM     32  H2  9H5 d   1      90.552  90.696 -42.590  0.00  0.00     0.112 H 
ATOM     33  C9  9H5 d   1      93.836  90.701 -42.125  0.00  0.00    -0.066 A 
ATOM     34  H3  9H5 d   1      92.398  89.090 -41.553  0.00  0.00     0.085 H 
ATOM     35  C10 9H5 d   1      93.597  91.909 -42.743  0.00  0.00    -0.015 A 
ATOM     36  H18 9H5 d   1      94.800  90.313 -41.800  0.00  0.00     0.085 H 
ATOM     37  H4  9H5 d   1      94.355  92.649 -42.994  0.00  0.00     0.112 H 
ENDBRANCH  21  29
ENDBRANCH   7  18
BRANCH   1  38
ATOM     38  C16 9H5 d   1      92.224 101.812 -44.285  0.00  0.00     0.066 C 
ATOM     39  H11 9H5 d   1      93.311 101.948 -44.189  0.00  0.00     0.068 H 
ATOM     40  H12 9H5 d   1      91.772 101.758 -43.284  0.00  0.00     0.068 H 
ATOM     41  H13 9H5 d   1      91.795 102.662 -44.836  0.00  0.00     0.068 H 
ENDBRANCH   1  38
TORSDOF 4
