REMARK  4 active torsions:
REMARK  status: ('A' for Active; 'I' for Inactive)
REMARK    1  A    between atoms: C1_1  and  C11_14 
REMARK    2  A    between atoms: C4_4  and  N1_7 
REMARK    3  A    between atoms: C6_6  and  O2_16 
REMARK    4  A    between atoms: C11_14  and  O1_15 
ROOT
ATOM      1  C1  9H2 d   1      90.667  95.470 -44.747  0.00  0.00     0.001 A 
ATOM      2  C2  9H2 d   1      90.760  94.298 -45.510  0.00  0.00    -0.054 A 
ATOM      3  C3  9H2 d   1      91.246  93.104 -44.963  0.00  0.00     0.035 A 
ATOM      4  C4  9H2 d   1      91.651  93.070 -43.614  0.00  0.00     0.074 A 
ATOM      5  C5  9H2 d   1      91.571  94.244 -42.837  0.00  0.00     0.068 A 
ATOM      6  C6  9H2 d   1      91.082  95.435 -43.415  0.00  0.00     0.092 A 
ATOM      7  I1  9H2 d   1      92.168  94.239 -40.790  0.00  0.00    -0.039 I 
ATOM      8  I2  9H2 d   1      91.275  91.476 -46.313  0.00  0.00    -0.042 I 
ATOM      9  H1  9H2 d   1      90.448  94.316 -46.548  0.00  0.00     0.086 H 
ENDROOT
BRANCH   4  10
ATOM     10  N1  9H2 d   1      92.176  91.910 -42.994  0.00  0.00    -0.330 N 
ATOM     11  C7  9H2 d   1      91.497  90.815 -42.509  0.00  0.00    -0.015 A 
ATOM     12  C8  9H2 d   1      92.411  89.935 -41.967  0.00  0.00    -0.066 A 
ATOM     13  H2  9H2 d   1      90.419  90.668 -42.547  0.00  0.00     0.112 H 
ATOM     14  C9  9H2 d   1      93.693  90.509 -42.119  0.00  0.00    -0.066 A 
ATOM     15  H3  9H2 d   1      92.186  88.974 -41.507  0.00  0.00     0.085 H 
ATOM     16  C10 9H2 d   1      93.522  91.718 -42.753  0.00  0.00    -0.015 A 
ATOM     17  H4  9H2 d   1      94.638  90.076 -41.795  0.00  0.00     0.085 H 
ATOM     18  H5  9H2 d   1      94.318  92.411 -43.021  0.00  0.00     0.112 H 
ENDBRANCH   4  10
BRANCH   6  19
ATOM     19  O2  9H2 d   1      90.967  96.608 -42.713  0.00  0.00    -0.359 OA
ATOM     20  H9  9H2 d   1      91.823  96.870 -42.394  0.00  0.00     0.217 HD
ENDBRANCH   6  19
BRANCH   1  21
ATOM     21  C11 9H2 d   1      90.141  96.738 -45.366  0.00  0.00     0.043 C 
ATOM     22  H6  9H2 d   1      90.930  97.504 -45.343  0.00  0.00     0.081 H 
ATOM     23  H7  9H2 d   1      89.273  97.088 -44.788  0.00  0.00     0.081 H 
BRANCH  21  24
ATOM     24  O1  9H2 d   1      89.745  96.516 -46.715  0.00  0.00    -0.396 OA
ATOM     25  H8  9H2 d   1      90.493  96.216 -47.218  0.00  0.00     0.209 HD
ENDBRANCH  21  24
ENDBRANCH   1  21
TORSDOF 4
