REMARK  4 active torsions:
REMARK  status: ('A' for Active; 'I' for Inactive)
REMARK    1  A    between atoms: C3_17  and  N1_1 
REMARK    2  A    between atoms: C5_3  and  O2_22 
REMARK    3  A    between atoms: C6_4  and  C7_5 
REMARK    4  A    between atoms: C12_13  and  C2_16 
ROOT
ATOM      1  C4  9GZ d   1      91.742  94.203 -42.904  0.00  0.00     0.068 A 
ATOM      2  C5  9GZ d   1      91.233  95.397 -43.445  0.00  0.00     0.101 A 
ATOM      3  C6  9GZ d   1      90.825  95.449 -44.779  0.00  0.00     0.076 A 
ATOM      4  C1  9GZ d   1      90.944  94.293 -45.566  0.00  0.00    -0.051 A 
ATOM      5  C2  9GZ d   1      91.452  93.070 -45.084  0.00  0.00     0.004 A 
ATOM      6  C3  9GZ d   1      91.851  93.046 -43.715  0.00  0.00     0.069 A 
ATOM      7  I1  9GZ d   1      92.314  94.223 -40.844  0.00  0.00    -0.039 I 
ATOM      8  H5  9GZ d   1      90.628  94.344 -46.602  0.00  0.00     0.086 H 
ENDROOT
BRANCH   5   9
ATOM      9  C12 9GZ d   1      91.488  91.953 -46.071  0.00  0.00    -0.023 A 
ATOM     10  C13 9GZ d   1      90.296  91.461 -46.627  0.00  0.00    -0.069 A 
ATOM     11  C14 9GZ d   1      90.301  90.425 -47.563  0.00  0.00    -0.045 A 
ATOM     12  H3  9GZ d   1      89.351  91.895 -46.323  0.00  0.00     0.085 H 
ATOM     13  C15 9GZ d   1      91.511  89.865 -47.956  0.00  0.00     0.116 A 
ATOM     14  H7  9GZ d   1      89.369  90.060 -47.980  0.00  0.00     0.088 H 
ATOM     15  C16 9GZ d   1      92.705  90.332 -47.435  0.00  0.00    -0.045 A 
ATOM     16  F1  9GZ d   1      91.535  88.864 -48.844  0.00  0.00    -0.206 F 
ATOM     17  C17 9GZ d   1      92.676  91.359 -46.492  0.00  0.00    -0.069 A 
ATOM     18  H8  9GZ d   1      93.649  89.906 -47.755  0.00  0.00     0.088 H 
ATOM     19  H4  9GZ d   1      93.612  91.708 -46.071  0.00  0.00     0.085 H 
ENDBRANCH   5   9
BRANCH   6  20
ATOM     20  N1  9GZ d   1      92.394  91.893 -43.098  0.00  0.00    -0.331 N 
ATOM     21  C8  9GZ d   1      91.733  90.754 -42.694  0.00  0.00    -0.015 A 
ATOM     22  C9  9GZ d   1      92.643  89.897 -42.111  0.00  0.00    -0.066 A 
ATOM     23  H1  9GZ d   1      90.668  90.562 -42.815  0.00  0.00     0.112 H 
ATOM     24  C10 9GZ d   1      93.906  90.529 -42.153  0.00  0.00    -0.066 A 
ATOM     25  H9  9GZ d   1      92.428  88.914 -41.695  0.00  0.00     0.085 H 
ATOM     26  C11 9GZ d   1      93.727  91.753 -42.758  0.00  0.00    -0.015 A 
ATOM     27  H2  9GZ d   1      94.845  90.124 -41.778  0.00  0.00     0.085 H 
ATOM     28  H6  9GZ d   1      94.508  92.490 -42.939  0.00  0.00     0.112 H 
ENDBRANCH   6  20
BRANCH   3  29
ATOM     29  C7  9GZ d   1      90.272  96.698 -45.395  0.00  0.00     0.212 C 
ATOM     30  O1  9GZ d   1      89.905  96.627 -46.612  0.00  0.00    -0.644 OA
ATOM     31  O3  9GZ d   1      90.211  97.722 -44.647  0.00  0.00    -0.644 OA
ENDBRANCH   3  29
BRANCH   2  32
ATOM     32  O2  9GZ d   1      91.115  96.524 -42.669  0.00  0.00    -0.358 OA
ATOM     33  H10 9GZ d   1      91.631  97.225 -43.050  0.00  0.00     0.217 HD
ENDBRANCH   2  32
TORSDOF 4
