REMARK  7 active torsions:
REMARK  status: ('A' for Active; 'I' for Inactive)
REMARK    1  A    between atoms: C09_13  and  C10_1 
REMARK    2  A    between atoms: C02_6  and  O02_23 
REMARK    3  A    between atoms: N01_21  and  C03_7 
REMARK    4  A    between atoms: C05_9  and  O01_22 
REMARK    5  A    between atoms: C06_10  and  C07_11 
REMARK    6  A    between atoms: C08_12  and  C09_13 
REMARK    7  A    between atoms: O02_23  and  C08_12 
ROOT
ATOM      1  C01 9GK d   1      91.314  93.909 -45.563  0.00  0.00    -0.029 A 
ATOM      2  C02 9GK d   1      91.816  92.731 -44.987  0.00  0.00     0.098 A 
ATOM      3  C03 9GK d   1      92.115  92.748 -43.619  0.00  0.00     0.091 A 
ATOM      4  C04 9GK d   1      91.916  93.918 -42.859  0.00  0.00     0.070 A 
ATOM      5  C05 9GK d   1      91.414  95.082 -43.460  0.00  0.00     0.101 A 
ATOM      6  C06 9GK d   1      91.105  95.088 -44.819  0.00  0.00     0.077 A 
ATOM      7  I01 9GK d   1      92.333  93.997 -40.775  0.00  0.00    -0.039 I 
ATOM      8  H4  9GK d   1      91.078  93.912 -46.621  0.00  0.00     0.089 H 
ENDROOT
BRANCH   2   9
ATOM      9  O02 9GK d   1      92.028  91.559 -45.672  0.00  0.00    -0.348 OA
BRANCH   9  10
ATOM     10  C08 9GK d   1      91.025  91.208 -46.627  0.00  0.00     0.030 C 
ATOM     11  H5  9GK d   1      90.219  90.649 -46.130  0.00  0.00     0.075 H 
ATOM     12  H6  9GK d   1      90.612  92.120 -47.083  0.00  0.00     0.075 H 
BRANCH  10  13
ATOM     13  C09 9GK d   1      91.665  90.338 -47.704  0.00  0.00    -0.021 C 
ATOM     14  H7  9GK d   1      92.590  90.821 -48.053  0.00  0.00     0.043 H 
ATOM     15  H8  9GK d   1      91.904  89.354 -47.275  0.00  0.00     0.043 H 
BRANCH  13  16
ATOM     16  C10 9GK d   1      90.737  90.152 -48.873  0.00  0.00    -0.056 A 
ATOM     17  C15 9GK d   1      90.765  91.045 -49.947  0.00  0.00    -0.077 A 
ATOM     18  C14 9GK d   1      89.900  90.866 -51.025  0.00  0.00    -0.082 A 
ATOM     19  H2  9GK d   1      91.460  91.877 -49.942  0.00  0.00     0.084 H 
ATOM     20  C13 9GK d   1      89.008  89.797 -51.036  0.00  0.00    -0.083 A 
ATOM     21  H11 9GK d   1      89.922  91.561 -51.857  0.00  0.00     0.083 H 
ATOM     22  C12 9GK d   1      88.975  88.899 -49.974  0.00  0.00    -0.082 A 
ATOM     23  H1  9GK d   1      88.336  89.664 -51.876  0.00  0.00     0.083 H 
ATOM     24  C11 9GK d   1      89.834  89.081 -48.892  0.00  0.00    -0.077 A 
ATOM     25  H10 9GK d   1      88.285  88.063 -49.988  0.00  0.00     0.083 H 
ATOM     26  H9  9GK d   1      89.803  88.389 -48.059  0.00  0.00     0.084 H 
ENDBRANCH  13  16
ENDBRANCH  10  13
ENDBRANCH   9  10
ENDBRANCH   2   9
BRANCH   3  27
ATOM     27  N01 9GK d   1      92.640  91.641 -42.922  0.00  0.00    -0.329 N 
ATOM     28  C16 9GK d   1      91.946  90.583 -42.381  0.00  0.00    -0.015 A 
ATOM     29  C17 9GK d   1      92.838  89.771 -41.717  0.00  0.00    -0.066 A 
ATOM     30  H12 9GK d   1      90.873  90.416 -42.464  0.00  0.00     0.112 H 
ATOM     31  C18 9GK d   1      94.122  90.346 -41.840  0.00  0.00    -0.066 A 
ATOM     32  H3  9GK d   1      92.596  88.849 -41.190  0.00  0.00     0.085 H 
ATOM     33  C19 9GK d   1      93.972  91.506 -42.565  0.00  0.00    -0.015 A 
ATOM     34  H13 9GK d   1      95.052  89.948 -41.438  0.00  0.00     0.085 H 
ATOM     35  H14 9GK d   1      94.769  92.204 -42.817  0.00  0.00     0.112 H 
ENDBRANCH   3  27
BRANCH   6  36
ATOM     36  C07 9GK d   1      90.566  96.314 -45.505  0.00  0.00     0.212 C 
ATOM     37  O03 9GK d   1      90.271  96.189 -46.738  0.00  0.00    -0.644 OA
ATOM     38  O04 9GK d   1      90.440  97.356 -44.793  0.00  0.00    -0.644 OA
ENDBRANCH   6  36
BRANCH   5  39
ATOM     39  O01 9GK d   1      91.218  96.219 -42.715  0.00  0.00    -0.358 OA
ATOM     40  H15 9GK d   1      91.745  96.924 -43.071  0.00  0.00     0.217 HD
ENDBRANCH   5  39
TORSDOF 7
