REMARK  8 active torsions:
REMARK  status: ('A' for Active; 'I' for Inactive)
REMARK    1  A    between atoms: C7_6  and  N3_2 
REMARK    2  A    between atoms: N3_2  and  C13_9 
REMARK    3  A    between atoms: N3_2  and  C14_23 
REMARK    4  A    between atoms: N2_19  and  C4_3 
REMARK    5  A    between atoms: C6_5  and  O1_16 
REMARK    6  A    between atoms: C1_11  and  C8_7 
REMARK    7  A    between atoms: C13_9  and  C16_24 
REMARK    8  A    between atoms: C14_23  and  C15_10 
ROOT
ATOM      1  N1  9GH d   1      90.275  93.359 -46.756  0.00  0.00    -0.222 NA
ATOM      2  C4  9GH d   1      91.511  92.605 -43.394  0.00  0.00     0.077 A 
ATOM      3  C5  9GH d   1      91.484  93.864 -42.777  0.00  0.00     0.069 A 
ATOM      4  C6  9GH d   1      91.049  95.002 -43.465  0.00  0.00     0.103 A 
ATOM      5  C7  9GH d   1      90.438  92.083 -47.050  0.00  0.00     0.170 A 
ATOM      6  C1  9GH d   1      90.614  94.933 -44.801  0.00  0.00     0.105 A 
ATOM      7  C2  9GH d   1      90.648  93.667 -45.451  0.00  0.00     0.099 A 
ATOM      8  C3  9GH d   1      91.099  92.554 -44.734  0.00  0.00     0.067 A 
ATOM      9  S   9GH d   1      91.039  91.157 -45.729  0.00  0.00    -0.048 SA
ATOM     10  I   9GH d   1      92.064  94.091 -40.735  0.00  0.00    -0.039 I 
ENDROOT
BRANCH   5  11
ATOM     11  N3  9GH d   1      90.143  91.494 -48.251  0.00  0.00    -0.361 N 
BRANCH  11  12
ATOM     12  C13 9GH d   1      89.530  92.273 -49.327  0.00  0.00    -0.006 C 
ATOM     13  H2  9GH d   1      89.960  91.951 -50.287  0.00  0.00     0.063 H 
ATOM     14  H3  9GH d   1      89.752  93.338 -49.164  0.00  0.00     0.063 H 
BRANCH  12  15
ATOM     15  C16 9GH d   1      88.022  92.090 -49.381  0.00  0.00    -0.061 C 
ATOM     16  H13 9GH d   1      87.609  92.693 -50.203  0.00  0.00     0.029 H 
ATOM     17  H14 9GH d   1      87.579  92.416 -48.428  0.00  0.00     0.029 H 
ATOM     18  H15 9GH d   1      87.787  91.029 -49.551  0.00  0.00     0.029 H 
ENDBRANCH  12  15
ENDBRANCH  11  12
BRANCH  11  19
ATOM     19  C14 9GH d   1      90.369  90.072 -48.489  0.00  0.00    -0.006 C 
ATOM     20  H11 9GH d   1      89.764  89.756 -49.352  0.00  0.00     0.063 H 
ATOM     21  H12 9GH d   1      90.058  89.509 -47.597  0.00  0.00     0.063 H 
BRANCH  19  22
ATOM     22  C15 9GH d   1      91.829  89.769 -48.776  0.00  0.00    -0.061 C 
ATOM     23  H4  9GH d   1      91.952  88.690 -48.949  0.00  0.00     0.029 H 
ATOM     24  H5  9GH d   1      92.443  90.075 -47.916  0.00  0.00     0.029 H 
ATOM     25  H6  9GH d   1      92.149  90.322 -49.671  0.00  0.00     0.029 H 
ENDBRANCH  19  22
ENDBRANCH  11  19
ENDBRANCH   5  11
BRANCH   6  26
ATOM     26  C8  9GH d   1      90.149  96.170 -45.503  0.00  0.00     0.214 C 
ATOM     27  O2  9GH d   1      90.026  97.211 -44.778  0.00  0.00    -0.644 OA
ATOM     28  O3  9GH d   1      89.952  96.108 -46.757  0.00  0.00    -0.644 OA
ENDBRANCH   6  26
BRANCH   2  29
ATOM     29  N2  9GH d   1      92.019  91.475 -42.710  0.00  0.00    -0.330 N 
ATOM     30  C9  9GH d   1      93.349  91.391 -42.346  0.00  0.00    -0.015 A 
ATOM     31  C10 9GH d   1      93.567  90.201 -41.701  0.00  0.00    -0.066 A 
ATOM     32  H8  9GH d   1      94.105  92.150 -42.541  0.00  0.00     0.112 H 
ATOM     33  C11 9GH d   1      92.336  89.514 -41.685  0.00  0.00    -0.066 A 
ATOM     34  H1  9GH d   1      94.510  89.853 -41.282  0.00  0.00     0.085 H 
ATOM     35  C12 9GH d   1      91.411  90.309 -42.320  0.00  0.00    -0.015 A 
ATOM     36  H9  9GH d   1      92.151  88.533 -41.249  0.00  0.00     0.085 H 
ATOM     37  H10 9GH d   1      90.365  90.054 -42.486  0.00  0.00     0.112 H 
ENDBRANCH   2  29
BRANCH   4  38
ATOM     38  O1  9GH d   1      91.010  96.214 -42.819  0.00  0.00    -0.358 OA
ATOM     39  H7  9GH d   1      91.557  96.837 -43.283  0.00  0.00     0.217 HD
ENDBRANCH   4  38
TORSDOF 8
