REMARK  7 active torsions:
REMARK  status: ('A' for Active; 'I' for Inactive)
REMARK    1  A    between atoms: O09_10  and  C10_1 
REMARK    2  A    between atoms: O02_3  and  C01_2 
REMARK    3  A    between atoms: C03_4  and  O02_3 
REMARK    4  A    between atoms: C05_6  and  C03_4 
REMARK    5  A    between atoms: C06_7  and  C05_6 
REMARK    6  A    between atoms: C07_8  and  C06_7 
REMARK    7  A    between atoms: C07_8  and  O09_10 
ROOT
ATOM      1  C05 9HB d   1      -7.990  17.563 -19.467  0.00  0.00     0.024 C 
ATOM      2  H7  9HB d   1      -8.999  17.777 -19.086  0.00  0.00     0.048 H 
ATOM      3  H8  9HB d   1      -8.063  16.937 -20.368  0.00  0.00     0.048 H 
ENDROOT
BRANCH   1   4
ATOM      4  C03 9HB d   1      -7.262  16.777 -18.421  0.00  0.00     0.258 C 
ATOM      5  O04 9HB d   1      -6.434  17.325 -17.699  0.00  0.00    -0.265 OA
BRANCH   4   6
ATOM      6  O02 9HB d   1      -7.457  15.418 -18.380  0.00  0.00    -0.326 OA
BRANCH   6   7
ATOM      7  C01 9HB d   1      -6.780  14.594 -17.507  0.00  0.00     0.013 C 
ATOM      8  H4  9HB d   1      -7.102  13.553 -17.660  0.00  0.00     0.067 H 
ATOM      9  H5  9HB d   1      -6.999  14.897 -16.472  0.00  0.00     0.067 H 
ATOM     10  H6  9HB d   1      -5.699  14.674 -17.692  0.00  0.00     0.067 H 
ENDBRANCH   6   7
ENDBRANCH   4   6
ENDBRANCH   1   4
BRANCH   1  11
ATOM     11  C06 9HB d   1      -7.368  18.856 -19.860  0.00  0.00     0.024 C 
ATOM     12  H9  9HB d   1      -7.201  19.458 -18.954  0.00  0.00     0.048 H 
ATOM     13  H10 9HB d   1      -8.056  19.389 -20.533  0.00  0.00     0.048 H 
BRANCH  11  14
ATOM     14  C07 9HB d   1      -6.072  18.670 -20.554  0.00  0.00     0.258 C 
ATOM     15  O08 9HB d   1      -5.852  17.605 -21.087  0.00  0.00    -0.265 OA
BRANCH  14  16
ATOM     16  O09 9HB d   1      -5.238  19.713 -20.858  0.00  0.00    -0.326 OA
BRANCH  16  17
ATOM     17  C10 9HB d   1      -4.134  19.423 -21.661  0.00  0.00     0.013 C 
ATOM     18  H1  9HB d   1      -3.551  20.341 -21.828  0.00  0.00     0.067 H 
ATOM     19  H2  9HB d   1      -4.478  19.026 -22.628  0.00  0.00     0.067 H 
ATOM     20  H3  9HB d   1      -3.503  18.674 -21.160  0.00  0.00     0.067 H 
ENDBRANCH  16  17
ENDBRANCH  14  16
ENDBRANCH  11  14
ENDBRANCH   1  11
TORSDOF 7
