REMARK  16 active torsions:
REMARK  status: ('A' for Active; 'I' for Inactive)
REMARK    1  A    between atoms: C12_19  and  C13_2 
REMARK    2  A    between atoms: C14_20  and  C15_3 
REMARK    3  A    between atoms: C15_3  and  C16_21 
REMARK    4  A    between atoms: C17_4  and  C18_22 
REMARK    5  A    between atoms: C20_5  and  C21_6 
REMARK    6  A    between atoms: C18_22  and  C20_5 
REMARK    7  A    between atoms: C21_6  and  C22_7 
REMARK    8  A    between atoms: C21_6  and  C23_24 
REMARK    9  A    between atoms: C23_24  and  C26_8 
REMARK   10  A    between atoms: C26_8  and  C27_27 
REMARK   11  A    between atoms: C02_10  and  C01_9 
REMARK   12  A    between atoms: C05_13  and  O06_14 
REMARK   13  A    between atoms: C07_15  and  O08_16 
REMARK   14  A    between atoms: C18_22  and  C19_23 
REMARK   15  A    between atoms: C23_24  and  O24_25 
REMARK   16  A    between atoms: O24_25  and  C25_26 
ROOT
ATOM      1  C10 C3R d   1     -57.523   8.796  -1.006  0.00  0.00    -0.064 C 
ATOM      2  C02 C3R d   1     -56.343  10.358   0.759  0.00  0.00    -0.041 C 
ATOM      3  C03 C3R d   1     -56.789   9.400   1.812  0.00  0.00    -0.101 C 
ATOM      4  C04 C3R d   1     -56.177   8.273   2.166  0.00  0.00    -0.076 C 
ATOM      5  C05 C3R d   1     -56.585   7.278   3.200  0.00  0.00     0.085 C 
ATOM      6  C07 C3R d   1     -56.448   5.792   2.693  0.00  0.00     0.146 C 
ATOM      7  C09 C3R d   1     -57.258  10.242  -0.504  0.00  0.00    -0.059 C 
ATOM      8  C11 C3R d   1     -56.242   8.154  -1.590  0.00  0.00    -0.059 C 
ATOM      9  C12 C3R d   1     -56.360   6.651  -2.005  0.00  0.00    -0.028 C 
ATOM     10  C14 C3R d   1     -57.205   5.792  -1.006  0.00  0.00     0.072 C 
ATOM     11  O31 C3R d   1     -56.513   5.832   0.252  0.00  0.00    -0.309 OA
ATOM     12  C32 C3R d   1     -57.237   5.618   1.391  0.00  0.00     0.291 C 
ATOM     13  O33 C3R d   1     -58.411   5.311   1.363  0.00  0.00    -0.262 OA
ATOM     14  H1  C3R d   1     -58.296   8.825  -1.788  0.00  0.00     0.033 H 
ATOM     15  H2  C3R d   1     -57.877   8.184  -0.163  0.00  0.00     0.033 H 
ATOM     16  H16 C3R d   1     -55.329  10.069   0.446  0.00  0.00     0.045 H 
ATOM     17  H17 C3R d   1     -57.706   9.648   2.344  0.00  0.00     0.077 H 
ATOM     18  H18 C3R d   1     -55.256   8.047   1.630  0.00  0.00     0.080 H 
ATOM     19  H19 C3R d   1     -55.932   7.411   4.075  0.00  0.00     0.094 H 
ATOM     20  H21 C3R d   1     -55.399   5.474   2.604  0.00  0.00     0.103 H 
ATOM     21  H23 C3R d   1     -58.228  10.700  -0.263  0.00  0.00     0.034 H 
ATOM     22  H24 C3R d   1     -56.781  10.803  -1.321  0.00  0.00     0.034 H 
ATOM     23  H25 C3R d   1     -55.449   8.233  -0.831  0.00  0.00     0.033 H 
ATOM     24  H26 C3R d   1     -55.954   8.729  -2.483  0.00  0.00     0.033 H 
ATOM     25  H27 C3R d   1     -55.346   6.229  -2.060  0.00  0.00     0.043 H 
ATOM     26  H28 C3R d   1     -58.214   6.220  -0.913  0.00  0.00     0.092 H 
ENDROOT
BRANCH  10  27
ATOM     27  C15 C3R d   1     -57.308   4.330  -1.404  0.00  0.00    -0.057 C 
ATOM     28  C17 C3R d   1     -58.455   3.715  -1.711  0.00  0.00    -0.088 C 
ATOM     29  H6  C3R d   1     -59.343   4.343  -1.650  0.00  0.00     0.078 H 
BRANCH  28  30
ATOM     30  C18 C3R d   1     -58.712   2.292  -2.127  0.00  0.00     0.017 C 
ATOM     31  H32 C3R d   1     -57.819   1.699  -1.879  0.00  0.00     0.057 H 
BRANCH  30  32
ATOM     32  C20 C3R d   1     -58.913   2.204  -3.662  0.00  0.00     0.140 C 
ATOM     33  O30 C3R d   1     -59.972   1.748  -4.074  0.00  0.00    -0.297 OA
BRANCH  32  34
ATOM     34  C21 C3R d   1     -57.869   2.647  -4.656  0.00  0.00     0.026 C 
ATOM     35  H7  C3R d   1     -57.046   3.132  -4.111  0.00  0.00     0.055 H 
BRANCH  34  36
ATOM     36  C22 C3R d   1     -58.475   3.659  -5.631  0.00  0.00    -0.064 C 
ATOM     37  H8  C3R d   1     -58.871   4.518  -5.069  0.00  0.00     0.028 H 
ATOM     38  H9  C3R d   1     -59.291   3.182  -6.194  0.00  0.00     0.028 H 
ATOM     39  H10 C3R d   1     -57.699   4.004  -6.330  0.00  0.00     0.028 H 
ENDBRANCH  34  36
BRANCH  34  40
ATOM     40  C23 C3R d   1     -57.299   1.417  -5.424  0.00  0.00     0.057 C 
ATOM     41  H36 C3R d   1     -58.123   0.865  -5.901  0.00  0.00     0.085 H 
BRANCH  40  42
ATOM     42  C26 C3R d   1     -56.264   1.755  -6.489  0.00  0.00     0.040 C 
ATOM     43  H11 C3R d   1     -55.463   2.351  -6.028  0.00  0.00     0.053 H 
ATOM     44  H12 C3R d   1     -56.750   2.344  -7.281  0.00  0.00     0.053 H 
BRANCH  42  45
ATOM     45  C27 C3R d   1     -55.644   0.496  -7.118  0.00  0.00     0.175 C 
ATOM     46  O28 C3R d   1     -56.360  -0.524  -7.226  0.00  0.00    -0.648 OA
ATOM     47  O29 C3R d   1     -54.445   0.580  -7.471  0.00  0.00    -0.648 OA
ENDBRANCH  42  45
ENDBRANCH  40  42
BRANCH  40  48
ATOM     48  O24 C3R d   1     -56.697   0.637  -4.407  0.00  0.00    -0.389 OA
BRANCH  48  49
ATOM     49  C25 C3R d   1     -57.353  -0.568  -4.089  0.00  0.00     0.004 C 
ATOM     50  H37 C3R d   1     -56.800  -1.087  -3.292  0.00  0.00     0.066 H 
ATOM     51  H38 C3R d   1     -57.397  -1.209  -4.982  0.00  0.00     0.066 H 
ATOM     52  H39 C3R d   1     -58.374  -0.349  -3.744  0.00  0.00     0.066 H 
ENDBRANCH  48  49
ENDBRANCH  40  48
ENDBRANCH  34  40
ENDBRANCH  32  34
ENDBRANCH  30  32
BRANCH  30  53
ATOM     53  C19 C3R d   1     -59.888   1.710  -1.326  0.00  0.00    -0.063 C 
ATOM     54  H33 C3R d   1     -59.681   1.804  -0.250  0.00  0.00     0.028 H 
ATOM     55  H34 C3R d   1     -60.017   0.648  -1.583  0.00  0.00     0.028 H 
ATOM     56  H35 C3R d   1     -60.808   2.261  -1.572  0.00  0.00     0.028 H 
ENDBRANCH  30  53
ENDBRANCH  28  30
BRANCH  27  57
ATOM     57  C16 C3R d   1     -56.009   3.565  -1.449  0.00  0.00    -0.052 C 
ATOM     58  H29 C3R d   1     -56.206   2.525  -1.747  0.00  0.00     0.033 H 
ATOM     59  H30 C3R d   1     -55.541   3.579  -0.454  0.00  0.00     0.033 H 
ATOM     60  H31 C3R d   1     -55.333   4.034  -2.179  0.00  0.00     0.033 H 
ENDBRANCH  27  57
ENDBRANCH  10  27
BRANCH   9  61
ATOM     61  C13 C3R d   1     -57.029   6.550  -3.381  0.00  0.00    -0.070 C 
ATOM     62  H3  C3R d   1     -56.459   7.144  -4.110  0.00  0.00     0.028 H 
ATOM     63  H4  C3R d   1     -58.057   6.935  -3.318  0.00  0.00     0.028 H 
ATOM     64  H5  C3R d   1     -57.050   5.498  -3.702  0.00  0.00     0.028 H 
ENDBRANCH   9  61
BRANCH   6  65
ATOM     65  O08 C3R d   1     -57.196   5.033   3.599  0.00  0.00    -0.383 OA
ATOM     66  H22 C3R d   1     -56.838   5.141   4.472  0.00  0.00     0.210 HD
ENDBRANCH   6  65
BRANCH   5  67
ATOM     67  O06 C3R d   1     -57.918   7.477   3.594  0.00  0.00    -0.389 OA
ATOM     68  H20 C3R d   1     -58.152   6.832   4.251  0.00  0.00     0.210 HD
ENDBRANCH   5  67
BRANCH   2  69
ATOM     69  C01 C3R d   1     -56.244  11.772   1.355  0.00  0.00    -0.070 C 
ATOM     70  H13 C3R d   1     -55.583  11.754   2.234  0.00  0.00     0.028 H 
ATOM     71  H14 C3R d   1     -57.245  12.114   1.656  0.00  0.00     0.028 H 
ATOM     72  H15 C3R d   1     -55.833  12.460   0.601  0.00  0.00     0.028 H 
ENDBRANCH   2  69
TORSDOF 16
