REMARK  3 active torsions:
REMARK  status: ('A' for Active; 'I' for Inactive)
REMARK    1  A    between atoms: C2'_10  and  O2'_11 
REMARK    2  A    between atoms: C1'_12  and  N9_13 
REMARK    3  A    between atoms: C6_17  and  N6_18 
ROOT
ATOM      1  P   CMP d   1      -6.613  24.190 -14.306  0.00  0.00     0.408 P 
ATOM      2  O1P CMP d   1      -6.959  23.222 -15.445  0.00  0.00    -0.624 OA
ATOM      3  O2P CMP d   1      -6.747  25.617 -14.631  0.00  0.00    -0.624 OA
ATOM      4  O5' CMP d   1      -5.092  23.846 -13.896  0.00  0.00    -0.287 OA
ATOM      5  C5' CMP d   1      -4.602  24.361 -12.619  0.00  0.00     0.058 C 
ATOM      6  C4' CMP d   1      -5.578  23.821 -11.644  0.00  0.00     0.090 C 
ATOM      7  O4' CMP d   1      -5.362  24.258 -10.292  0.00  0.00    -0.353 OA
ATOM      8  C3' CMP d   1      -7.009  24.200 -11.880  0.00  0.00     0.106 C 
ATOM      9  O3' CMP d   1      -7.462  23.625 -13.107  0.00  0.00    -0.279 OA
ATOM     10  C2' CMP d   1      -7.697  23.745 -10.663  0.00  0.00     0.106 C 
ATOM     11  C1' CMP d   1      -6.584  24.105  -9.584  0.00  0.00     0.140 C 
ATOM     12  H1  CMP d   1      -4.602  25.461 -12.610  0.00  0.00     0.079 H 
ATOM     13  H2  CMP d   1      -3.587  23.993 -12.408  0.00  0.00     0.079 H 
ATOM     14  H3  CMP d   1      -5.490  22.725 -11.687  0.00  0.00     0.090 H 
ATOM     15  H4  CMP d   1      -7.107  25.293 -11.961  0.00  0.00     0.092 H 
ATOM     16  H5  CMP d   1      -8.649  24.276 -10.513  0.00  0.00     0.093 H 
ATOM     17  H7  CMP d   1      -6.512  23.326  -8.810  0.00  0.00     0.122 H 
ENDROOT
BRANCH  11  18
ATOM     18  N9  CMP d   1      -6.894  25.423  -8.991  0.00  0.00    -0.294 N 
ATOM     19  C8  CMP d   1      -6.700  26.619  -9.453  0.00  0.00     0.071 A 
ATOM     20  N7  CMP d   1      -7.120  27.542  -8.549  0.00  0.00    -0.236 NA
ATOM     21  H8  CMP d   1      -6.264  26.850 -10.424  0.00  0.00     0.144 H 
ATOM     22  C5  CMP d   1      -7.572  26.858  -7.466  0.00  0.00     0.149 A 
ATOM     23  C6  CMP d   1      -8.124  27.209  -6.134  0.00  0.00     0.155 A 
ATOM     24  C4  CMP d   1      -7.377  25.451  -7.724  0.00  0.00     0.167 A 
ATOM     25  N1  CMP d   1      -8.434  26.183  -5.303  0.00  0.00    -0.222 NA
ATOM     26  C2  CMP d   1      -8.243  24.858  -5.627  0.00  0.00     0.091 A 
ATOM     27  N3  CMP d   1      -7.714  24.514  -6.861  0.00  0.00    -0.222 NA
ATOM     28  H11 CMP d   1      -8.507  24.083  -4.916  0.00  0.00     0.146 H 
BRANCH  23  29
ATOM     29  N6  CMP d   1      -8.264  28.537  -5.903  0.00  0.00    -0.382 N 
ATOM     30  H9  CMP d   1      -8.640  28.866  -5.003  0.00  0.00     0.157 HD
ATOM     31  H10 CMP d   1      -7.994  29.217  -6.628  0.00  0.00     0.157 HD
ENDBRANCH  23  29
ENDBRANCH  11  18
BRANCH  10  32
ATOM     32  O2' CMP d   1      -7.890  22.330 -10.556  0.00  0.00    -0.388 OA
ATOM     33  H6  CMP d   1      -8.340  22.133  -9.742  0.00  0.00     0.210 HD
ENDBRANCH  10  32
TORSDOF 3
