REMARK  6 active torsions:
REMARK  status: ('A' for Active; 'I' for Inactive)
REMARK    1  A    between atoms: P_1  and  O5'_5 
REMARK    2  A    between atoms: O5'_5  and  C5'_6 
REMARK    3  A    between atoms: C5'_6  and  C4'_7 
REMARK    4  A    between atoms: C3'_9  and  O3'_10 
REMARK    5  A    between atoms: C2'_11  and  O2'_12 
REMARK    6  A    between atoms: C1'_13  and  N9_14 
ROOT
ATOM      1  C4' AMP d   1     -18.311  10.885   3.390  0.00  0.00     0.089 C 
ATOM      2  O4' AMP d   1     -17.520  11.889   4.047  0.00  0.00    -0.353 OA
ATOM      3  C3' AMP d   1     -17.670   9.541   3.753  0.00  0.00     0.091 C 
ATOM      4  C2' AMP d   1     -16.198   9.890   3.816  0.00  0.00     0.105 C 
ATOM      5  C1' AMP d   1     -16.245  11.288   4.386  0.00  0.00     0.139 C 
ATOM      6  H3  AMP d   1     -18.274  11.028   2.300  0.00  0.00     0.090 H 
ATOM      7  H4  AMP d   1     -18.023   9.213   4.742  0.00  0.00     0.091 H 
ATOM      8  H6  AMP d   1     -15.646   9.193   4.464  0.00  0.00     0.093 H 
ATOM      9  H8  AMP d   1     -15.434  11.886   3.945  0.00  0.00     0.122 H 
ENDROOT
BRANCH   5  10
ATOM     10  N9  AMP d   1     -16.070  11.250   5.852  0.00  0.00    -0.294 N 
ATOM     11  C8  AMP d   1     -17.008  11.126   6.829  0.00  0.00     0.071 A 
ATOM     12  N7  AMP d   1     -16.415  11.163   8.067  0.00  0.00    -0.236 NA
ATOM     13  H9  AMP d   1     -18.077  11.013   6.654  0.00  0.00     0.144 H 
ATOM     14  C5  AMP d   1     -15.086  11.328   7.856  0.00  0.00     0.149 A 
ATOM     15  C6  AMP d   1     -13.884  11.455   8.692  0.00  0.00     0.155 A 
ATOM     16  C4  AMP d   1     -14.859  11.374   6.392  0.00  0.00     0.167 A 
ATOM     17  N6  AMP d   1     -13.994  11.413  10.043  0.00  0.00    -0.382 N 
ATOM     18  N1  AMP d   1     -12.697  11.585   8.048  0.00  0.00    -0.222 NA
ATOM     19  H10 AMP d   1     -13.153  11.502  10.631  0.00  0.00     0.157 HD
ATOM     20  H11 AMP d   1     -14.918  11.292  10.481  0.00  0.00     0.157 HD
ATOM     21  C2  AMP d   1     -12.558  11.621   6.696  0.00  0.00     0.091 A 
ATOM     22  N3  AMP d   1     -13.611  11.516   5.864  0.00  0.00    -0.222 NA
ATOM     23  H12 AMP d   1     -11.566  11.738   6.274  0.00  0.00     0.146 H 
ENDBRANCH   5  10
BRANCH   4  24
ATOM     24  O2' AMP d   1     -15.585   9.947   2.517  0.00  0.00    -0.388 OA
ATOM     25  H7  AMP d   1     -14.666  10.168   2.611  0.00  0.00     0.210 HD
ENDBRANCH   4  24
BRANCH   1  26
ATOM     26  C5' AMP d   1     -19.759  10.983   3.849  0.00  0.00     0.059 C 
ATOM     27  H1  AMP d   1     -20.187  11.940   3.515  0.00  0.00     0.079 H 
ATOM     28  H2  AMP d   1     -20.338  10.152   3.419  0.00  0.00     0.079 H 
BRANCH  26  29
ATOM     29  O5' AMP d   1     -19.807  10.911   5.274  0.00  0.00    -0.280 OA
BRANCH  29  30
ATOM     30  P   AMP d   1     -21.172  10.733   6.159  0.00  0.00     0.422 P 
ATOM     31  O1P AMP d   1     -22.112  11.734   5.528  0.00  0.00    -0.617 OA
ATOM     32  O2P AMP d   1     -20.817  11.140   7.591  0.00  0.00    -0.617 OA
ATOM     33  O3P AMP d   1     -21.516   9.265   5.950  0.00  0.00    -0.617 OA
ENDBRANCH  29  30
ENDBRANCH  26  29
ENDBRANCH   1  26
BRANCH   3  34
ATOM     34  O3' AMP d   1     -17.951   8.495   2.817  0.00  0.00    -0.390 OA
ATOM     35  H5  AMP d   1     -17.623   8.742   1.960  0.00  0.00     0.210 HD
ENDBRANCH   3  34
TORSDOF 6
