REMARK WARNING: 32 MAX_TORS EXCEEDED!!!
REMARK  35 active torsions:
REMARK  status: ('A' for Active; 'I' for Inactive)
REMARK    1  A    between atoms: CA_2  and  CB_5 
REMARK    2  A    between atoms: CB_5  and  CG_6 
REMARK    3  A    between atoms: N_13  and  C1_12 
REMARK    4  A    between atoms: CA_14  and  CB_17 
REMARK    5  A    between atoms: CB_17  and  CG_18 
REMARK    6  A    between atoms: N_24  and  CM_30 
REMARK    7  A    between atoms: CD_26  and  CE_25 
REMARK    8  A    between atoms: CG_27  and  CD_26 
REMARK    9  A    between atoms: CB_28  and  CG_27 
REMARK   10  A    between atoms: CB_28  and  CA_29 
REMARK   11  A    between atoms: N_33  and  CN_37 
REMARK   12  A    between atoms: CA_39  and  CB_42 
REMARK   13  A    between atoms: CB_42  and  CG_43 
REMARK   14  A    between atoms: CA_47  and  CB_50 
REMARK   15  A    between atoms: CB_50  and  CG1_51 
REMARK   16  A    between atoms: CB_50  and  CG2_52 
REMARK   17  A    between atoms: N_54  and  C1_53 
REMARK   18  A    between atoms: CA_55  and  CB_58 
REMARK   19  A    between atoms: CB_58  and  CG_59 
REMARK   20  A    between atoms: CA_66  and  CB_69 
REMARK   21  A    between atoms: CB_69  and  CG_70 
REMARK   22  A    between atoms: CZ_75  and  OH_76 
REMARK   23  A    between atoms: N_77  and  CN_81 
REMARK   24  A    between atoms: CA_83  and  CB_86 
REMARK   25  A    between atoms: CB_86  and  CG_87 
REMARK   26  A    between atoms: CA_97  and  CB_100 
REMARK   27  A    between atoms: CB_100  and  CG_101 
REMARK   28  A    between atoms: CZ_106  and  OH_107 
REMARK   29  A    between atoms: CA_109  and  CB_112 
REMARK   30  A    between atoms: CB_112  and  CG_113 
REMARK   31  A    between atoms: CG_113  and  CD1_114 
REMARK   32  A    between atoms: CG_113  and  CD2_115 
REMARK   33  A    between atoms: CA_117  and  C_123 
REMARK       I    between atoms: C_123  and  N_125 
REMARK   34  A    between atoms: N_125  and  CA_126 
REMARK   35  A    between atoms: CA_126  and  C_127 
REMARK       I    between atoms: C_127  and  N_129 
ROOT
ATOM      1  N   PHE d   1      21.077   5.340 -11.923  0.00  0.00    -0.347 N 
ATOM      2  CA  PHE d   1      20.734   4.893 -13.264  0.00  0.00     0.093 C 
ATOM      3  C   PHE d   1      21.759   5.511 -14.208  0.00  0.00     0.243 C 
ATOM      4  O   PHE d   1      21.956   6.744 -14.131  0.00  0.00    -0.271 OA
ATOM      5  H1  PHE d   1      21.160   6.324 -11.764  0.00  0.00     0.163 HD
ATOM      6  H2  PHE d   1      20.782   3.796 -13.322  0.00  0.00     0.088 H 
ATOM      7  N   MEA d   1      22.402   4.729 -15.049  0.00  0.00    -0.341 N 
ATOM      8  CA  MEA d   1      23.586   5.265 -15.730  0.00  0.00     0.095 C 
ATOM      9  C   MEA d   1      23.553   4.917 -17.206  0.00  0.00     0.243 C 
ATOM     10  O   MEA d   1      24.251   3.973 -17.657  0.00  0.00    -0.271 OA
ATOM     11  N   MEA d   1      16.117   8.870 -20.627  0.00  0.00    -0.341 N 
ATOM     12  CA  MEA d   1      15.309   9.265 -19.432  0.00  0.00     0.095 C 
ATOM     13  C   MEA d   1      15.929  10.445 -18.676  0.00  0.00     0.241 C 
ATOM     14  O   MEA d   1      15.546  10.696 -17.527  0.00  0.00    -0.271 OA
ATOM     15  H13 MEA d   1      23.599   6.359 -15.618  0.00  0.00     0.088 H 
ATOM     16  H55 MEA d   1      14.331   9.595 -19.811  0.00  0.00     0.088 H 
ATOM     17  N   9KK d   1      22.767   5.599 -18.053  0.00  0.00    -0.341 N 
ATOM     18  CA  9KK d   1      22.714   5.247 -19.480  0.00  0.00     0.091 C 
ATOM     19  C   9KK d   1      22.711   6.490 -20.341  0.00  0.00     0.242 C 
ATOM     20  O   9KK d   1      21.731   6.766 -21.036  0.00  0.00    -0.271 OA
ATOM     21  H30 9KK d   1      23.612   4.660 -19.722  0.00  0.00     0.087 H 
ATOM     22  N   SAR d   1      23.836   7.225 -20.382  0.00  0.00    -0.346 N 
ATOM     23  CA  SAR d   1      23.837   8.385 -21.275  0.00  0.00     0.071 C 
ATOM     24  C   SAR d   1      22.651   9.282 -21.026  0.00  0.00     0.236 C 
ATOM     25  O   SAR d   1      22.409   9.658 -19.887  0.00  0.00    -0.272 OA
ATOM     26  N   SAR d   1      16.524  13.620 -16.718  0.00  0.00    -0.346 N 
ATOM     27  CA  SAR d   1      15.499  14.536 -16.196  0.00  0.00     0.071 C 
ATOM     28  C   SAR d   1      14.350  13.868 -15.516  0.00  0.00     0.236 C 
ATOM     29  O   SAR d   1      13.549  14.539 -14.875  0.00  0.00    -0.272 OA
ATOM     30  H34 SAR d   1      23.805   8.033 -22.317  0.00  0.00     0.078 H 
ATOM     31  H35 SAR d   1      24.760   8.961 -21.111  0.00  0.00     0.078 H 
ATOM     32  H72 SAR d   1      15.104  15.123 -17.038  0.00  0.00     0.078 H 
ATOM     33  H73 SAR d   1      15.980  15.211 -15.472  0.00  0.00     0.078 H 
ATOM     34  N   ASP d   1      21.962   9.695 -22.079  0.00  0.00    -0.346 N 
ATOM     35  CA  ASP d   1      20.845  10.636 -22.013  0.00  0.00     0.098 C 
ATOM     36  C   ASP d   1      19.502   9.947 -21.860  0.00  0.00     0.241 C 
ATOM     37  O   ASP d   1      18.460  10.619 -21.842  0.00  0.00    -0.271 OA
ATOM     38  H39 ASP d   1      22.223   9.340 -22.977  0.00  0.00     0.163 HD
ATOM     39  H40 ASP d   1      21.000  11.263 -21.123  0.00  0.00     0.088 H 
ATOM     40  N   VAL d   1      19.445   8.603 -21.734  0.00  0.00    -0.346 N 
ATOM     41  CA  VAL d   1      18.155   7.906 -21.679  0.00  0.00     0.092 C 
ATOM     42  C   VAL d   1      17.380   8.396 -20.479  0.00  0.00     0.243 C 
ATOM     43  O   VAL d   1      17.900   8.360 -19.345  0.00  0.00    -0.271 OA
ATOM     44  H43 VAL d   1      20.293   8.076 -21.677  0.00  0.00     0.163 HD
ATOM     45  H44 VAL d   1      17.585   8.122 -22.594  0.00  0.00     0.088 H 
ATOM     46  N   TYR d   1      16.844  11.198 -19.284  0.00  0.00    -0.346 N 
ATOM     47  CA  TYR d   1      17.500  12.281 -18.518  0.00  0.00     0.093 C 
ATOM     48  C   TYR d   1      16.432  13.210 -17.985  0.00  0.00     0.243 C 
ATOM     49  O   TYR d   1      15.525  13.590 -18.698  0.00  0.00    -0.271 OA
ATOM     50  N   TYR d   1      14.652  10.746 -13.543  0.00  0.00    -0.346 N 
ATOM     51  CA  TYR d   1      15.047   9.881 -12.489  0.00  0.00     0.093 C 
ATOM     52  C   TYR d   1      15.935  10.593 -11.483  0.00  0.00     0.241 C 
ATOM     53  O   TYR d   1      16.590  11.602 -11.784  0.00  0.00    -0.271 OA
ATOM     54  H63 TYR d   1      17.083  11.034 -20.241  0.00  0.00     0.163 HD
ATOM     55  H64 TYR d   1      18.074  11.854 -17.683  0.00  0.00     0.088 H 
ATOM     56  H87 TYR d   1      15.370  11.185 -14.084  0.00  0.00     0.163 HD
ATOM     57  H88 TYR d   1      14.136   9.556 -11.965  0.00  0.00     0.088 H 
ATOM     58  N   TRP d   1      14.213  12.515 -15.638  0.00  0.00    -0.346 N 
ATOM     59  CA  TRP d   1      13.060  11.816 -15.100  0.00  0.00     0.093 C 
ATOM     60  C   TRP d   1      13.365  11.013 -13.861  0.00  0.00     0.241 C 
ATOM     61  O   TRP d   1      12.437  10.550 -13.190  0.00  0.00    -0.271 OA
ATOM     62  H77 TRP d   1      14.924  11.993 -16.109  0.00  0.00     0.163 HD
ATOM     63  H78 TRP d   1      12.303  12.571 -14.842  0.00  0.00     0.088 H 
ATOM     64  N   LEU d   1      16.028  10.020 -10.290  0.00  0.00    -0.346 N 
ATOM     65  CA  LEU d   1      16.782  10.523  -9.147  0.00  0.00     0.089 C 
ATOM     66  C   LEU d   1      18.028   9.765  -8.828  0.00  0.00     0.241 C 
ATOM     67  O   LEU d   1      18.973  10.290  -8.190  0.00  0.00    -0.271 OA
ATOM     68  H96 LEU d   1      15.534   9.160 -10.162  0.00  0.00     0.163 HD
ATOM     69  H97 LEU d   1      17.090  11.548  -9.402  0.00  0.00     0.087 H 
ATOM     70  N   CCS d   1      18.102   8.477  -9.195  0.00  0.00    -0.345 N 
ATOM     71  CA  CCS d   1      19.267   7.683  -8.811  0.00  0.00     0.097 C 
ATOM     72  CB  CCS d   1      19.046   6.226  -9.135  0.00  0.00     0.004 C 
ATOM     73  SG  CCS d   1      20.280   5.125  -8.410  0.00  0.00    -0.157 SA
ATOM     74  CD  CCS d   1      21.634   5.156  -9.572  0.00  0.00     0.051 C 
ATOM     75  CE  CCS d   1      21.287   4.526 -10.899  0.00  0.00     0.227 C 
ATOM     76  OZ1 CCS d   1      21.219   3.295 -10.998  0.00  0.00    -0.273 OA
ATOM     77 7H10 CCS d   1      17.364   8.063  -9.728  0.00  0.00     0.163 HD
ATOM     78 8H10 CCS d   1      19.413   7.780  -7.725  0.00  0.00     0.088 H 
ATOM     79 9H10 CCS d   1      19.073   6.106 -10.228  0.00  0.00     0.052 H 
ATOM     80 0H11 CCS d   1      18.055   5.933  -8.758  0.00  0.00     0.052 H 
ATOM     81 1H11 CCS d   1      22.483   4.609  -9.136  0.00  0.00     0.063 H 
ATOM     82 2H11 CCS d   1      21.923   6.203  -9.746  0.00  0.00     0.063 H 
ENDROOT
BRANCH  59  83
ATOM     83  CB  TRP d   1      12.473  10.869 -16.137  0.00  0.00    -0.012 C 
ATOM     84  H79 TRP d   1      11.679  10.281 -15.653  0.00  0.00     0.044 H 
ATOM     85  H80 TRP d   1      13.273  10.195 -16.478  0.00  0.00     0.044 H 
BRANCH  83  86
ATOM     86  CG  TRP d   1      11.886  11.545 -17.342  0.00  0.00    -0.028 A 
ATOM     87  CD1 TRP d   1      11.641  12.884 -17.552  0.00  0.00    -0.015 A 
ATOM     88  NE1 TRP d   1      11.051  13.103 -18.762  0.00  0.00    -0.365 N 
ATOM     89  H81 TRP d   1      11.888  13.670 -16.840  0.00  0.00     0.112 H 
ATOM     90  CE2 TRP d   1      10.890  11.901 -19.386  0.00  0.00     0.042 A 
ATOM     91  H82 TRP d   1      10.774  14.020 -19.140  0.00  0.00     0.165 HD
ATOM     92  CD2 TRP d   1      11.424  10.903 -18.532  0.00  0.00    -0.002 A 
ATOM     93  CZ2 TRP d   1      10.361  11.606 -20.597  0.00  0.00    -0.056 A 
ATOM     94  CE3 TRP d   1      11.356   9.566 -18.959  0.00  0.00    -0.070 A 
ATOM     95  CZ3 TRP d   1      10.797   9.270 -20.169  0.00  0.00    -0.082 A 
ATOM     96  H83 TRP d   1      11.746   8.773 -18.331  0.00  0.00     0.084 H 
ATOM     97  CH2 TRP d   1      10.302  10.291 -21.010  0.00  0.00    -0.081 A 
ATOM     98  H85 TRP d   1      10.732   8.236 -20.489  0.00  0.00     0.083 H 
ATOM     99  H86 TRP d   1       9.877  10.042 -21.976  0.00  0.00     0.083 H 
ATOM    100  H84 TRP d   1       9.987  12.397 -21.237  0.00  0.00     0.086 H 
ENDBRANCH  83  86
ENDBRANCH  59  83
BRANCH  51 101
ATOM    101  CB  TYR d   1      15.763   8.616 -13.031  0.00  0.00    -0.014 C 
ATOM    102  H89 TYR d   1      15.070   8.085 -13.700  0.00  0.00     0.043 H 
ATOM    103  H90 TYR d   1      16.018   7.969 -12.179  0.00  0.00     0.043 H 
BRANCH 101 104
ATOM    104  CG  TYR d   1      17.029   8.917 -13.797  0.00  0.00    -0.056 A 
ATOM    105  CD1 TYR d   1      16.956   9.100 -15.167  0.00  0.00    -0.074 A 
ATOM    106  CE1 TYR d   1      18.072   9.406 -15.912  0.00  0.00    -0.051 A 
ATOM    107  H91 TYR d   1      15.998   9.000 -15.665  0.00  0.00     0.084 H 
ATOM    108  CZ  TYR d   1      19.299   9.572 -15.266  0.00  0.00     0.065 A 
ATOM    109  H93 TYR d   1      18.000   9.517 -16.988  0.00  0.00     0.087 H 
ATOM    110  CE2 TYR d   1      19.386   9.347 -13.912  0.00  0.00    -0.051 A 
ATOM    111  CD2 TYR d   1      18.240   9.046 -13.171  0.00  0.00    -0.074 A 
ATOM    112  H94 TYR d   1      20.349   9.403 -13.417  0.00  0.00     0.087 H 
ATOM    113  H92 TYR d   1      18.310   8.914 -12.097  0.00  0.00     0.084 H 
BRANCH 108 114
ATOM    114  OH  TYR d   1      20.451   9.862 -15.976  0.00  0.00    -0.361 OA
ATOM    115  H95 TYR d   1      20.233   9.991 -16.892  0.00  0.00     0.217 HD
ENDBRANCH 108 114
ENDBRANCH 101 104
ENDBRANCH  51 101
BRANCH  26 116
ATOM    116  CN  SAR d   1      17.570  13.170 -15.762  0.00  0.00    -0.015 C 
ATOM    117  H74 SAR d   1      18.269  12.494 -16.275  0.00  0.00     0.056 H 
ATOM    118  H75 SAR d   1      17.096  12.639 -14.923  0.00  0.00     0.056 H 
ATOM    119  H76 SAR d   1      18.118  14.044 -15.380  0.00  0.00     0.056 H 
ENDBRANCH  26 116
BRANCH  47 120
ATOM    120  CB  TYR d   1      18.445  13.065 -19.450  0.00  0.00    -0.014 C 
ATOM    121  H65 TYR d   1      17.845  13.649 -20.164  0.00  0.00     0.043 H 
ATOM    122  H66 TYR d   1      19.080  12.355 -20.000  0.00  0.00     0.043 H 
BRANCH 120 123
ATOM    123  CG  TYR d   1      19.323  14.004 -18.658  0.00  0.00    -0.056 A 
ATOM    124  CD1 TYR d   1      18.910  15.333 -18.401  0.00  0.00    -0.074 A 
ATOM    125  CE1 TYR d   1      19.710  16.162 -17.646  0.00  0.00    -0.051 A 
ATOM    126  H67 TYR d   1      17.968  15.697 -18.796  0.00  0.00     0.084 H 
ATOM    127  CZ  TYR d   1      20.912  15.738 -17.147  0.00  0.00     0.065 A 
ATOM    128  H69 TYR d   1      19.380  17.174 -17.442  0.00  0.00     0.087 H 
ATOM    129  CE2 TYR d   1      21.334  14.442 -17.380  0.00  0.00    -0.051 A 
ATOM    130  CD2 TYR d   1      20.517  13.610 -18.151  0.00  0.00    -0.074 A 
ATOM    131  H70 TYR d   1      22.273  14.081 -16.976  0.00  0.00     0.087 H 
ATOM    132  H68 TYR d   1      20.855  12.600 -18.353  0.00  0.00     0.084 H 
BRANCH 127 133
ATOM    133  OH  TYR d   1      21.641  16.610 -16.366  0.00  0.00    -0.361 OA
ATOM    134  H71 TYR d   1      21.728  16.252 -15.490  0.00  0.00     0.217 HD
ENDBRANCH 127 133
ENDBRANCH 120 123
ENDBRANCH  47 120
BRANCH  65 135
ATOM    135  CB  LEU d   1      15.896  10.601  -7.897  0.00  0.00    -0.035 C 
ATOM    136  H98 LEU d   1      16.522  10.928  -7.053  0.00  0.00     0.037 H 
ATOM    137  H99 LEU d   1      15.502   9.595  -7.693  0.00  0.00     0.037 H 
BRANCH 135 138
ATOM    138  CG  LEU d   1      14.717  11.558  -8.011  0.00  0.00    -0.059 C 
ATOM    139 0H10 LEU d   1      14.071  11.181  -8.818  0.00  0.00     0.038 H 
BRANCH 138 140
ATOM    140  CD1 LEU d   1      13.911  11.516  -6.704  0.00  0.00    -0.073 C 
ATOM    141 1H10 LEU d   1      13.057  12.205  -6.778  0.00  0.00     0.028 H 
ATOM    142 2H10 LEU d   1      14.556  11.819  -5.866  0.00  0.00     0.028 H 
ATOM    143 3H10 LEU d   1      13.544  10.493  -6.532  0.00  0.00     0.028 H 
ENDBRANCH 138 140
BRANCH 138 144
ATOM    144  CD2 LEU d   1      15.091  12.990  -8.381  0.00  0.00    -0.073 C 
ATOM    145 4H10 LEU d   1      15.666  12.988  -9.319  0.00  0.00     0.028 H 
ATOM    146 5H10 LEU d   1      15.701  13.429  -7.578  0.00  0.00     0.028 H 
ATOM    147 6H10 LEU d   1      14.176  13.585  -8.513  0.00  0.00     0.028 H 
ENDBRANCH 138 144
ENDBRANCH 135 138
ENDBRANCH  65 135
BRANCH  12 148
ATOM    148  CB  MEA d   1      15.047   8.111 -18.452  0.00  0.00    -0.014 C 
ATOM    149  H56 MEA d   1      14.347   8.467 -17.683  0.00  0.00     0.043 H 
ATOM    150  H57 MEA d   1      16.003   7.839 -17.980  0.00  0.00     0.043 H 
BRANCH 148 151
ATOM    151  CG  MEA d   1      14.462   6.868 -19.081  0.00  0.00    -0.056 A 
ATOM    152  CD1 MEA d   1      13.559   6.920 -20.144  0.00  0.00    -0.077 A 
ATOM    153  CE1 MEA d   1      13.022   5.745 -20.685  0.00  0.00    -0.082 A 
ATOM    154  H58 MEA d   1      13.270   7.880 -20.555  0.00  0.00     0.084 H 
ATOM    155  CZ  MEA d   1      13.420   4.507 -20.184  0.00  0.00    -0.083 A 
ATOM    156  H59 MEA d   1      12.299   5.798 -21.491  0.00  0.00     0.083 H 
ATOM    157  CE2 MEA d   1      14.300   4.445 -19.150  0.00  0.00    -0.082 A 
ATOM    158  H60 MEA d   1      13.028   3.594 -20.619  0.00  0.00     0.083 H 
ATOM    159  CD2 MEA d   1      14.814   5.619 -18.568  0.00  0.00    -0.077 A 
ATOM    160  H61 MEA d   1      14.610   3.479 -18.769  0.00  0.00     0.083 H 
ATOM    161  H62 MEA d   1      15.485   5.553 -17.719  0.00  0.00     0.084 H 
ENDBRANCH 148 151
ENDBRANCH  12 148
BRANCH  71 162
ATOM    162  C   CCS d   1      20.525   8.205  -9.521  0.00  0.00     0.241 C 
ATOM    163  O   CCS d   1      20.628   8.159 -10.739  0.00  0.00    -0.271 OA
ATOM    164  N   GLY d   1      21.576   8.575  -8.753  0.00  0.00    -0.351 N 
ATOM    165 3H11 GLY d   1      21.453   8.518  -7.762  0.00  0.00     0.163 HD
BRANCH 164 166
ATOM    166  CA  GLY d   1      22.883   9.053  -9.233  0.00  0.00     0.069 C 
ATOM    167 4H11 GLY d   1      23.027   8.754 -10.282  0.00  0.00     0.078 H 
ATOM    168 5H11 GLY d   1      23.686   8.624  -8.616  0.00  0.00     0.078 H 
BRANCH 166 169
ATOM    169  C   GLY d   1      22.901  10.538  -9.124  0.00  0.00     0.233 C 
ATOM    170  O   GLY d   1      21.937  11.168  -8.695  0.00  0.00    -0.272 OA
ATOM    171  N   NH2 d   1      24.040  11.057  -9.560  0.00  0.00    -0.369 N 
ATOM    172 6H11 NH2 d   1      24.178  12.047  -9.540  0.00  0.00     0.159 HD
ATOM    173 7H11 NH2 d   1      24.761  10.458  -9.909  0.00  0.00     0.159 HD
ENDBRANCH 166 169
ENDBRANCH 164 166
ENDBRANCH  71 162
BRANCH  11 174
ATOM    174  C1  MEA d   1      15.468   9.057 -21.929  0.00  0.00    -0.015 C 
ATOM    175  H52 MEA d   1      16.151   8.735 -22.729  0.00  0.00     0.056 H 
ATOM    176  H53 MEA d   1      15.219  10.120 -22.065  0.00  0.00     0.056 H 
ATOM    177  H54 MEA d   1      14.547   8.456 -21.970  0.00  0.00     0.056 H 
ENDBRANCH  11 174
BRANCH  41 178
ATOM    178  CB  VAL d   1      18.386   6.365 -21.570  0.00  0.00    -0.033 C 
ATOM    179  H45 VAL d   1      19.005   6.160 -20.684  0.00  0.00     0.042 H 
BRANCH 178 180
ATOM    180  CG1 VAL d   1      17.053   5.674 -21.407  0.00  0.00    -0.071 C 
ATOM    181  H46 VAL d   1      17.210   4.588 -21.330  0.00  0.00     0.028 H 
ATOM    182  H47 VAL d   1      16.418   5.892 -22.279  0.00  0.00     0.028 H 
ATOM    183  H48 VAL d   1      16.560   6.039 -20.494  0.00  0.00     0.028 H 
ENDBRANCH 178 180
BRANCH 178 184
ATOM    184  CG2 VAL d   1      19.106   5.840 -22.793  0.00  0.00    -0.071 C 
ATOM    185  H49 VAL d   1      20.074   6.353 -22.897  0.00  0.00     0.028 H 
ATOM    186  H50 VAL d   1      18.494   6.027 -23.688  0.00  0.00     0.028 H 
ATOM    187  H51 VAL d   1      19.274   4.758 -22.683  0.00  0.00     0.028 H 
ENDBRANCH 178 184
ENDBRANCH  41 178
BRANCH  35 188
ATOM    188  CB  ASP d   1      20.815  11.538 -23.212  0.00  0.00     0.043 C 
ATOM    189  H41 ASP d   1      19.840  12.047 -23.231  0.00  0.00     0.052 H 
ATOM    190  H42 ASP d   1      20.920  10.913 -24.111  0.00  0.00     0.052 H 
BRANCH 188 191
ATOM    191  CG  ASP d   1      21.897  12.598 -23.250  0.00  0.00     0.175 C 
ATOM    192  OD1 ASP d   1      21.851  13.436 -24.172  0.00  0.00    -0.648 OA
ATOM    193  OD2 ASP d   1      22.780  12.611 -22.345  0.00  0.00    -0.648 OA
ENDBRANCH 188 191
ENDBRANCH  35 188
BRANCH   2 194
ATOM    194  CB  PHE d   1      19.320   5.360 -13.626  0.00  0.00    -0.014 C 
ATOM    195  H3  PHE d   1      19.297   6.458 -13.565  0.00  0.00     0.043 H 
ATOM    196  H4  PHE d   1      18.621   4.937 -12.889  0.00  0.00     0.043 H 
BRANCH 194 197
ATOM    197  CG  PHE d   1      18.852   4.958 -14.999  0.00  0.00    -0.056 A 
ATOM    198  CD1 PHE d   1      18.532   3.627 -15.297  0.00  0.00    -0.077 A 
ATOM    199  CE1 PHE d   1      18.100   3.286 -16.558  0.00  0.00    -0.082 A 
ATOM    200  H5  PHE d   1      18.625   2.864 -14.532  0.00  0.00     0.084 H 
ATOM    201  CZ  PHE d   1      17.981   4.231 -17.560  0.00  0.00    -0.083 A 
ATOM    202  H7  PHE d   1      17.847   2.253 -16.770  0.00  0.00     0.083 H 
ATOM    203  CE2 PHE d   1      18.291   5.550 -17.256  0.00  0.00    -0.082 A 
ATOM    204  H9  PHE d   1      17.655   3.950 -18.555  0.00  0.00     0.083 H 
ATOM    205  CD2 PHE d   1      18.737   5.914 -15.997  0.00  0.00    -0.077 A 
ATOM    206  H8  PHE d   1      18.181   6.311 -18.021  0.00  0.00     0.083 H 
ATOM    207  H6  PHE d   1      18.996   6.946 -15.791  0.00  0.00     0.084 H 
ENDBRANCH 194 197
ENDBRANCH   2 194
BRANCH   7 208
ATOM    208  C1  MEA d   1      22.162   3.291 -15.229  0.00  0.00    -0.015 C 
ATOM    209  H10 MEA d   1      21.255   2.999 -14.679  0.00  0.00     0.056 H 
ATOM    210  H11 MEA d   1      23.023   2.725 -14.844  0.00  0.00     0.056 H 
ATOM    211  H12 MEA d   1      22.028   3.073 -16.299  0.00  0.00     0.056 H 
ENDBRANCH   7 208
BRANCH   8 212
ATOM    212  CB  MEA d   1      24.882   4.665 -15.087  0.00  0.00    -0.014 C 
ATOM    213  H14 MEA d   1      25.765   5.043 -15.622  0.00  0.00     0.043 H 
ATOM    214  H15 MEA d   1      24.852   3.568 -15.158  0.00  0.00     0.043 H 
BRANCH 212 215
ATOM    215  CG  MEA d   1      24.962   5.082 -13.603  0.00  0.00    -0.056 A 
ATOM    216  CD1 MEA d   1      24.452   4.302 -12.605  0.00  0.00    -0.077 A 
ATOM    217  CE1 MEA d   1      24.521   4.662 -11.247  0.00  0.00    -0.082 A 
ATOM    218  H16 MEA d   1      23.974   3.366 -12.870  0.00  0.00     0.084 H 
ATOM    219  CZ  MEA d   1      25.057   5.836 -10.866  0.00  0.00    -0.083 A 
ATOM    220  H17 MEA d   1      24.136   3.983 -10.495  0.00  0.00     0.083 H 
ATOM    221  CE2 MEA d   1      25.577   6.630 -11.838  0.00  0.00    -0.082 A 
ATOM    222  H18 MEA d   1      25.073   6.136  -9.825  0.00  0.00     0.083 H 
ATOM    223  CD2 MEA d   1      25.551   6.274 -13.189  0.00  0.00    -0.077 A 
ATOM    224  H19 MEA d   1      26.029   7.574 -11.555  0.00  0.00     0.083 H 
ATOM    225  H20 MEA d   1      25.995   6.935 -13.925  0.00  0.00     0.084 H 
ENDBRANCH 212 215
ENDBRANCH   8 212
BRANCH  22 226
ATOM    226  CN  SAR d   1      25.072   6.917 -19.649  0.00  0.00    -0.015 C 
ATOM    227  H36 SAR d   1      24.915   6.025 -19.025  0.00  0.00     0.056 H 
ATOM    228  H37 SAR d   1      25.341   7.770 -19.009  0.00  0.00     0.056 H 
ATOM    229  H38 SAR d   1      25.885   6.725 -20.365  0.00  0.00     0.056 H 
ENDBRANCH  22 226
BRANCH  17 230
ATOM    230  CM  9KK d   1      21.906   6.694 -17.623  0.00  0.00    -0.015 C 
ATOM    231  H31 9KK d   1      22.035   6.860 -16.543  0.00  0.00     0.056 H 
ATOM    232  H32 9KK d   1      20.857   6.439 -17.832  0.00  0.00     0.056 H 
ATOM    233  H33 9KK d   1      22.177   7.609 -18.169  0.00  0.00     0.056 H 
ENDBRANCH  17 230
BRANCH  18 234
ATOM    234  CB  9KK d   1      21.475   4.386 -19.790  0.00  0.00    -0.038 C 
ATOM    235  H28 9KK d   1      20.600   4.960 -19.450  0.00  0.00     0.036 H 
ATOM    236  H29 9KK d   1      21.437   4.272 -20.883  0.00  0.00     0.036 H 
BRANCH 234 237
ATOM    237  CG  9KK d   1      21.331   2.963 -19.191  0.00  0.00    -0.063 C 
ATOM    238  H26 9KK d   1      22.256   2.401 -19.390  0.00  0.00     0.033 H 
ATOM    239  H27 9KK d   1      21.183   3.051 -18.105  0.00  0.00     0.033 H 
BRANCH 237 240
ATOM    240  CD  9KK d   1      20.099   2.158 -19.812  0.00  0.00    -0.068 C 
ATOM    241  H24 9KK d   1      19.212   2.808 -19.815  0.00  0.00     0.032 H 
ATOM    242  H25 9KK d   1      20.345   1.868 -20.844  0.00  0.00     0.032 H 
BRANCH 240 243
ATOM    243  CE  9KK d   1      19.799   0.931 -19.022  0.00  0.00    -0.077 C 
ATOM    244  H21 9KK d   1      18.948   0.402 -19.476  0.00  0.00     0.027 H 
ATOM    245  H22 9KK d   1      19.547   1.212 -17.989  0.00  0.00     0.027 H 
ATOM    246  H23 9KK d   1      20.680   0.273 -19.018  0.00  0.00     0.027 H 
ENDBRANCH 240 243
ENDBRANCH 237 240
ENDBRANCH 234 237
ENDBRANCH  18 234
TORSDOF 35
