REMARK  6 active torsions:
REMARK  status: ('A' for Active; 'I' for Inactive)
REMARK    1  A    between atoms: C3_3  and  C2_2 
REMARK    2  A    between atoms: C2_2  and  N_19 
REMARK    3  A    between atoms: C10_7  and  C7_15 
REMARK    4  A    between atoms: C15_14  and  C16_11 
REMARK    5  A    between atoms: N_19  and  C1_20 
REMARK    6  A    between atoms: N_19  and  C_21 
ROOT
ATOM      1  N1  9K2 d   1      29.542  43.293  65.936  0.00  0.00    -0.176 NA
ATOM      2  C3  9K2 d   1      28.305  42.983  66.351  0.00  0.00     0.093 A 
ATOM      3  C6  9K2 d   1      26.561  43.302  62.583  0.00  0.00    -0.070 C 
ATOM      4  C8  9K2 d   1      26.156  42.712  64.920  0.00  0.00    -0.058 C 
ATOM      5  C9  9K2 d   1      27.528  43.037  65.147  0.00  0.00     0.021 A 
ATOM      6  C7  9K2 d   1      25.623  42.961  63.586  0.00  0.00    -0.024 C 
ATOM      7  C5  9K2 d   1      27.844  43.597  62.809  0.00  0.00    -0.054 C 
ATOM      8  C4  9K2 d   1      28.343  43.422  64.138  0.00  0.00     0.062 A 
ATOM      9  N2  9K2 d   1      29.598  43.573  64.627  0.00  0.00    -0.277 N 
ATOM     10  H3  9K2 d   1      26.213  43.325  61.557  0.00  0.00     0.084 H 
ATOM     11  H4  9K2 d   1      25.537  42.297  65.707  0.00  0.00     0.086 H 
ATOM     12  H11 9K2 d   1      28.485  43.957  62.012  0.00  0.00     0.087 H 
ATOM     13  H12 9K2 d   1      30.435  43.850  64.094  0.00  0.00     0.189 HD
ENDROOT
BRANCH   6  14
ATOM     14  C10 9K2 d   1      24.250  42.577  63.308  0.00  0.00    -0.020 A 
ATOM     15  C11 9K2 d   1      23.921  41.282  63.783  0.00  0.00    -0.069 A 
ATOM     16  C12 9K2 d   1      22.617  40.724  63.627  0.00  0.00    -0.045 A 
ATOM     17  H5  9K2 d   1      24.685  40.697  64.281  0.00  0.00     0.085 H 
ATOM     18  C13 9K2 d   1      21.630  41.478  62.972  0.00  0.00     0.117 A 
ATOM     19  H6  9K2 d   1      22.392  39.734  64.008  0.00  0.00     0.088 H 
ATOM     20  F   9K2 d   1      20.369  41.001  62.758  0.00  0.00    -0.206 F 
ATOM     21  C14 9K2 d   1      21.970  42.750  62.509  0.00  0.00    -0.039 A 
ATOM     22  C15 9K2 d   1      23.243  43.305  62.701  0.00  0.00    -0.048 A 
ATOM     23  H10 9K2 d   1      21.222  43.330  61.981  0.00  0.00     0.089 H 
BRANCH  22  24
ATOM     24  C16 9K2 d   1      23.490  44.704  62.162  0.00  0.00    -0.050 C 
ATOM     25  H7  9K2 d   1      22.561  45.097  61.723  0.00  0.00     0.033 H 
ATOM     26  H8  9K2 d   1      24.273  44.667  61.390  0.00  0.00     0.033 H 
ATOM     27  H9  9K2 d   1      23.815  45.361  62.982  0.00  0.00     0.033 H 
ENDBRANCH  22  24
ENDBRANCH   6  14
BRANCH   2  28
ATOM     28  C2  9K2 d   1      27.909  42.569  67.785  0.00  0.00     0.124 C 
ATOM     29  H1  9K2 d   1      26.839  42.754  67.961  0.00  0.00     0.086 H 
ATOM     30  H2  9K2 d   1      28.504  43.121  68.527  0.00  0.00     0.086 H 
BRANCH  28  31
ATOM     31  N   9K2 d   1      28.204  41.133  67.849  0.00  0.00    -0.073 N 
ATOM     32  H13 9K2 d   1      27.810  41.002  68.768  0.00  0.00     0.279 HD
BRANCH  31  33
ATOM     33  C1  9K2 d   1      29.557  40.629  68.166  0.00  0.00     0.066 C 
ATOM     34  H14 9K2 d   1      29.549  39.529  68.160  0.00  0.00     0.068 H 
ATOM     35  H15 9K2 d   1      29.858  40.988  69.161  0.00  0.00     0.068 H 
ATOM     36  H16 9K2 d   1      30.270  40.995  67.413  0.00  0.00     0.068 H 
ENDBRANCH  31  33
BRANCH  31  37
ATOM     37  C   9K2 d   1      27.373  40.140  67.162  0.00  0.00     0.066 C 
ATOM     38  H17 9K2 d   1      26.383  40.572  66.954  0.00  0.00     0.068 H 
ATOM     39  H18 9K2 d   1      27.259  39.252  67.801  0.00  0.00     0.068 H 
ATOM     40  H19 9K2 d   1      27.854  39.851  66.216  0.00  0.00     0.068 H 
ENDBRANCH  31  37
ENDBRANCH  28  31
ENDBRANCH   2  28
TORSDOF 6
