REMARK  6 active torsions:
REMARK  status: ('A' for Active; 'I' for Inactive)
REMARK    1  A    between atoms: C6_4  and  N2_13 
REMARK    2  A    between atoms: C11_5  and  N3_15 
REMARK    3  A    between atoms: S_34  and  C12_10 
REMARK    4  A    between atoms: N1_12  and  C3_14 
REMARK    5  A    between atoms: N3_15  and  S_34 
REMARK    6  A    between atoms: N_16  and  C_17 
ROOT
ATOM      1  C4  9KW d   1      20.580  -0.487   9.097  0.00  0.00     0.066 A 
ATOM      2  C5  9KW d   1      21.351  -0.081   8.016  0.00  0.00    -0.032 A 
ATOM      3  C6  9KW d   1      22.677  -0.479   7.885  0.00  0.00     0.040 A 
ATOM      4  C11 9KW d   1      23.239  -1.321   8.850  0.00  0.00     0.066 A 
ATOM      5  N1  9KW d   1      19.239  -0.076   9.227  0.00  0.00    -0.312 N 
ATOM      6  N   9KW d   1      20.367  -1.733  11.177  0.00  0.00    -0.312 N 
ATOM      7  O   9KW d   1      18.347  -1.785  12.246  0.00  0.00    -0.262 OA
ATOM      8  C1  9KW d   1      19.043  -1.382  11.323  0.00  0.00     0.316 A 
ATOM      9  C2  9KW d   1      18.434  -0.477  10.267  0.00  0.00     0.316 A 
ATOM     10  C22 9KW d   1      22.471  -1.731   9.936  0.00  0.00    -0.027 A 
ATOM     11  C23 9KW d   1      21.149  -1.323  10.079  0.00  0.00     0.066 A 
ATOM     12  O1  9KW d   1      17.258  -0.143  10.360  0.00  0.00    -0.262 OA
ATOM     13  H2  9KW d   1      20.911   0.559   7.260  0.00  0.00     0.090 H 
ATOM     14  H28 9KW d   1      22.911  -2.380  10.684  0.00  0.00     0.090 H 
ENDROOT
BRANCH   4  15
ATOM     15  N3  9KW d   1      24.580  -1.769   8.719  0.00  0.00    -0.279 N 
ATOM     16  H15 9KW d   1      24.868  -2.165   7.847  0.00  0.00     0.179 HD
BRANCH  15  17
ATOM     17  S   9KW d   1      25.674  -1.667   9.930  0.00  0.00     0.263 S 
ATOM     18  O3  9KW d   1      26.883  -2.196   9.378  0.00  0.00    -0.200 OA
ATOM     19  O4  9KW d   1      25.113  -2.262  11.104  0.00  0.00    -0.200 OA
BRANCH  17  20
ATOM     20  C12 9KW d   1      25.925   0.044  10.253  0.00  0.00     0.080 A 
ATOM     21  C13 9KW d   1      26.340   0.885   9.238  0.00  0.00    -0.060 A 
ATOM     22  C14 9KW d   1      26.502   2.231   9.503  0.00  0.00    -0.075 A 
ATOM     23  H11 9KW d   1      26.536   0.493   8.246  0.00  0.00     0.085 H 
ATOM     24  C15 9KW d   1      26.261   2.756  10.771  0.00  0.00    -0.052 A 
ATOM     25  H1  9KW d   1      26.824   2.893   8.707  0.00  0.00     0.084 H 
ATOM     26  C16 9KW d   1      26.354   4.244  10.999  0.00  0.00    -0.040 C 
ATOM     27  C20 9KW d   1      25.869   1.889  11.806  0.00  0.00    -0.050 A 
ATOM     28  C17 9KW d   1      26.436   4.614  12.464  0.00  0.00    -0.061 C 
ATOM     29  H19 9KW d   1      25.462   4.721  10.566  0.00  0.00     0.040 H 
ATOM     30  H20 9KW d   1      27.254   4.621  10.492  0.00  0.00     0.040 H 
ATOM     31  C18 9KW d   1      25.353   3.884  13.237  0.00  0.00    -0.061 C 
ATOM     32  H21 9KW d   1      26.296   5.699  12.575  0.00  0.00     0.033 H 
ATOM     33  H22 9KW d   1      27.422   4.329  12.859  0.00  0.00     0.033 H 
ATOM     34  C19 9KW d   1      25.651   2.400  13.208  0.00  0.00    -0.040 C 
ATOM     35  H23 9KW d   1      24.375   4.074  12.772  0.00  0.00     0.033 H 
ATOM     36  H24 9KW d   1      25.339   4.238  14.278  0.00  0.00     0.033 H 
ATOM     37  H25 9KW d   1      24.803   1.860  13.654  0.00  0.00     0.040 H 
ATOM     38  H26 9KW d   1      26.559   2.209  13.799  0.00  0.00     0.040 H 
ATOM     39  C21 9KW d   1      25.697   0.535  11.527  0.00  0.00    -0.054 A 
ATOM     40  H27 9KW d   1      25.382  -0.140  12.315  0.00  0.00     0.086 H 
ENDBRANCH  17  20
ENDBRANCH  15  17
ENDBRANCH   4  15
BRANCH   3  41
ATOM     41  N2  9KW d   1      23.474  -0.029   6.816  0.00  0.00    -0.277 NA
ATOM     42  C7  9KW d   1      23.812   1.393   6.898  0.00  0.00     0.004 C 
ATOM     43  C8  9KW d   1      24.741   1.763   5.773  0.00  0.00     0.031 C 
ATOM     44  H3  9KW d   1      22.892   1.992   6.824  0.00  0.00     0.059 H 
ATOM     45  H4  9KW d   1      24.305   1.596   7.860  0.00  0.00     0.059 H 
ATOM     46  O2  9KW d   1      24.166   1.469   4.508  0.00  0.00    -0.389 OA
ATOM     47  H5  9KW d   1      25.677   1.196   5.881  0.00  0.00     0.076 H 
ATOM     48  H6  9KW d   1      24.956   2.840   5.826  0.00  0.00     0.076 H 
ATOM     49  C9  9KW d   1      23.897   0.077   4.420  0.00  0.00     0.031 C 
ATOM     50  C10 9KW d   1      22.941  -0.372   5.496  0.00  0.00     0.004 C 
ATOM     51  H7  9KW d   1      23.455  -0.140   3.436  0.00  0.00     0.076 H 
ATOM     52  H8  9KW d   1      24.841  -0.477   4.528  0.00  0.00     0.076 H 
ATOM     53  H9  9KW d   1      22.805  -1.462   5.430  0.00  0.00     0.059 H 
ATOM     54  H10 9KW d   1      21.972   0.128   5.354  0.00  0.00     0.059 H 
ENDBRANCH   3  41
BRANCH   6  55
ATOM     55  C   9KW d   1      20.974  -2.514  12.251  0.00  0.00    -0.011 C 
ATOM     56  H16 9KW d   1      20.215  -2.740  13.014  0.00  0.00     0.057 H 
ATOM     57  H17 9KW d   1      21.792  -1.937  12.707  0.00  0.00     0.057 H 
ATOM     58  H18 9KW d   1      21.372  -3.454  11.841  0.00  0.00     0.057 H 
ENDBRANCH   6  55
BRANCH   5  59
ATOM     59  C3  9KW d   1      18.656   0.824   8.235  0.00  0.00    -0.011 C 
ATOM     60  H12 9KW d   1      19.408   1.060   7.467  0.00  0.00     0.057 H 
ATOM     61  H13 9KW d   1      18.332   1.752   8.728  0.00  0.00     0.057 H 
ATOM     62  H14 9KW d   1      17.790   0.338   7.763  0.00  0.00     0.057 H 
ENDBRANCH   5  59
TORSDOF 6
