REMARK  2 active torsions:
REMARK  status: ('A' for Active; 'I' for Inactive)
REMARK    1  A    between atoms: N2_12  and  C10_7 
REMARK    2  A    between atoms: N1_11  and  C1_8 
ROOT
ATOM      1  C2  9KT d   1       7.038 -11.134   4.812  0.00  0.00     0.064 A 
ATOM      2  C3  9KT d   1       6.513 -10.398   5.871  0.00  0.00    -0.055 A 
ATOM      3  C4  9KT d   1       7.319 -10.070   6.960  0.00  0.00    -0.081 A 
ATOM      4  C5  9KT d   1       8.648 -10.482   6.985  0.00  0.00    -0.081 A 
ATOM      5  C6  9KT d   1       9.172 -11.217   5.927  0.00  0.00    -0.055 A 
ATOM      6  C7  9KT d   1       8.365 -11.546   4.841  0.00  0.00     0.064 A 
ATOM      7  C8  9KT d   1       8.077 -12.560   2.770  0.00  0.00     0.316 A 
ATOM      8  C9  9KT d   1       6.755 -12.157   2.741  0.00  0.00     0.316 A 
ATOM      9  N1  9KT d   1       6.258 -11.450   3.764  0.00  0.00    -0.312 N 
ATOM     10  N2  9KT d   1       8.859 -12.250   3.816  0.00  0.00    -0.312 N 
ATOM     11  O1  9KT d   1       8.537 -13.208   1.837  0.00  0.00    -0.262 OA
ATOM     12  O2  9KT d   1       6.045 -12.453   1.780  0.00  0.00    -0.262 OA
ATOM     13  H1  9KT d   1       5.477 -10.080   5.849  0.00  0.00     0.087 H 
ATOM     14  H2  9KT d   1       6.912  -9.496   7.785  0.00  0.00     0.083 H 
ATOM     15  H3  9KT d   1       9.276 -10.229   7.831  0.00  0.00     0.083 H 
ATOM     16  H4  9KT d   1      10.209 -11.534   5.948  0.00  0.00     0.087 H 
ENDROOT
BRANCH   9  17
ATOM     17  C1  9KT d   1       4.844 -11.011   3.744  0.00  0.00    -0.011 C 
ATOM     18  H8  9KT d   1       4.622 -10.448   4.662  0.00  0.00     0.057 H 
ATOM     19  H9  9KT d   1       4.187 -11.892   3.686  0.00  0.00     0.057 H 
ATOM     20  H10 9KT d   1       4.672 -10.367   2.869  0.00  0.00     0.057 H 
ENDBRANCH   9  17
BRANCH  10  21
ATOM     21  C10 9KT d   1      10.273 -12.693   3.822  0.00  0.00    -0.011 C 
ATOM     22  H5  9KT d   1      10.760 -12.354   4.748  0.00  0.00     0.057 H 
ATOM     23  H6  9KT d   1      10.796 -12.263   2.955  0.00  0.00     0.057 H 
ATOM     24  H7  9KT d   1      10.313 -13.791   3.768  0.00  0.00     0.057 H 
ENDBRANCH  10  21
TORSDOF 2
