REMARK WARNING: 32 MAX_TORS EXCEEDED!!!
REMARK  37 active torsions:
REMARK  status: ('A' for Active; 'I' for Inactive)
REMARK    1  A    between atoms: CA_2  and  CB_5 
REMARK    2  A    between atoms: CB_5  and  CG_6 
REMARK    3  A    between atoms: N_12  and  CM_13 
REMARK    4  A    between atoms: CA_14  and  CB_15 
REMARK    5  A    between atoms: CA_19  and  CB_22 
REMARK    6  A    between atoms: CB_22  and  CG_23 
REMARK       I    between atoms: CG_23  and  ND2_25 
REMARK    7  A    between atoms: CA_34  and  CB_37 
REMARK    8  A    between atoms: CB_37  and  CG_38 
REMARK    9  A    between atoms: CA_44  and  CB_47 
REMARK   10  A    between atoms: CB_47  and  CG_48 
REMARK   11  A    between atoms: CG_48  and  CD1_49 
REMARK   12  A    between atoms: CG_48  and  CD2_50 
REMARK   13  A    between atoms: CA_52  and  CB_55 
REMARK   14  A    between atoms: CB_55  and  OG_56 
REMARK   15  A    between atoms: CA_58  and  CB_61 
REMARK   16  A    between atoms: CB_61  and  CG_62 
REMARK   17  A    between atoms: CA_72  and  CB_75 
REMARK   18  A    between atoms: CB_75  and  OG_76 
REMARK   19  A    between atoms: CA_78  and  CB_81 
REMARK   20  A    between atoms: CB_81  and  CG_82 
REMARK   21  A    between atoms: N_91  and  CM_97 
REMARK   22  A    between atoms: CD_93  and  CE_92 
REMARK   23  A    between atoms: CG_94  and  CD_93 
REMARK   24  A    between atoms: CB_95  and  CG_94 
REMARK   25  A    between atoms: CA_96  and  CB_95 
REMARK   26  A    between atoms: N_100  and  CM_106 
REMARK   27  A    between atoms: CD_102  and  CE_101 
REMARK   28  A    between atoms: CG_103  and  CD_102 
REMARK   29  A    between atoms: CB_104  and  CG_103 
REMARK   30  A    between atoms: CB_104  and  CA_105 
REMARK   31  A    between atoms: CA_110  and  CB_113 
REMARK   32  A    between atoms: CB_113  and  CG_114 
REMARK   33  A    between atoms: CG_114  and  CD_115 
REMARK   34  A    between atoms: CD_115  and  NE_116 
REMARK       I    between atoms: NE_116  and  CZ_117 
REMARK       I    between atoms: CZ_117  and  NH1_118 
REMARK   35  A    between atoms: CA_121  and  C_127 
REMARK       I    between atoms: C_127  and  N_129 
REMARK   36  A    between atoms: N_129  and  CA_130 
REMARK   37  A    between atoms: CA_130  and  C_131 
REMARK       I    between atoms: C_131  and  N_133 
ROOT
ATOM      1  N   PHE d   1     -20.466  20.251  18.499  0.00  0.00    -0.347 N 
ATOM      2  CA  PHE d   1     -19.279  20.758  19.085  0.00  0.00     0.093 C 
ATOM      3  C   PHE d   1     -19.657  21.621  20.168  0.00  0.00     0.243 C 
ATOM      4  O   PHE d   1     -19.886  21.034  21.181  0.00  0.00    -0.271 OA
ATOM      5  H1  PHE d   1     -20.387  19.955  17.547  0.00  0.00     0.163 HD
ATOM      6  H2  PHE d   1     -18.765  19.890  19.524  0.00  0.00     0.088 H 
ATOM      7  N   MAA d   1     -19.815  22.887  20.038  0.00  0.00    -0.342 N 
ATOM      8  CA  MAA d   1     -19.428  23.668  21.189  0.00  0.00     0.088 C 
ATOM      9  C   MAA d   1     -20.091  23.361  22.485  0.00  0.00     0.241 C 
ATOM     10  O   MAA d   1     -19.616  23.713  23.468  0.00  0.00    -0.271 OA
ATOM     11  H13 MAA d   1     -18.340  23.581  21.326  0.00  0.00     0.087 H 
ATOM     12  N   ASN d   1     -21.195  22.710  22.437  0.00  0.00    -0.346 N 
ATOM     13  CA  ASN d   1     -22.139  22.460  23.478  0.00  0.00     0.097 C 
ATOM     14  C   ASN d   1     -21.840  21.321  24.407  0.00  0.00     0.243 C 
ATOM     15  O   ASN d   1     -21.672  20.220  23.991  0.00  0.00    -0.271 OA
ATOM     16  H17 ASN d   1     -21.427  22.323  21.545  0.00  0.00     0.163 HD
ATOM     17  H18 ASN d   1     -22.241  23.375  24.080  0.00  0.00     0.088 H 
ATOM     18  N   PRO d   1     -21.749  21.613  25.670  0.00  0.00    -0.337 N 
ATOM     19  CA  PRO d   1     -21.722  20.737  26.788  0.00  0.00     0.091 C 
ATOM     20  C   PRO d   1     -22.066  19.322  26.841  0.00  0.00     0.241 C 
ATOM     21  O   PRO d   1     -21.132  18.754  27.223  0.00  0.00    -0.271 OA
ATOM     22  CB  PRO d   1     -22.241  21.466  27.955  0.00  0.00    -0.036 C 
ATOM     23  CG  PRO d   1     -22.288  22.866  27.487  0.00  0.00    -0.048 C 
ATOM     24  CD  PRO d   1     -21.520  22.894  26.220  0.00  0.00    -0.001 C 
ATOM     25  H23 PRO d   1     -20.639  20.677  26.972  0.00  0.00     0.087 H 
ATOM     26  H24 PRO d   1     -21.566  21.361  28.817  0.00  0.00     0.036 H 
ATOM     27  H25 PRO d   1     -23.244  21.108  28.229  0.00  0.00     0.036 H 
ATOM     28  H26 PRO d   1     -21.827  23.534  28.229  0.00  0.00     0.035 H 
ATOM     29  H27 PRO d   1     -23.328  23.176  27.311  0.00  0.00     0.035 H 
ATOM     30  H28 PRO d   1     -21.894  23.683  25.550  0.00  0.00     0.064 H 
ATOM     31  H29 PRO d   1     -20.449  23.054  26.413  0.00  0.00     0.064 H 
ATOM     32  N   HIS d   1     -23.048  18.506  26.683  0.00  0.00    -0.346 N 
ATOM     33  CA  HIS d   1     -24.438  18.366  26.386  0.00  0.00     0.094 C 
ATOM     34  C   HIS d   1     -24.585  17.612  25.169  0.00  0.00     0.241 C 
ATOM     35  O   HIS d   1     -25.509  16.886  25.112  0.00  0.00    -0.271 OA
ATOM     36  H30 HIS d   1     -22.687  17.585  26.829  0.00  0.00     0.163 HD
ATOM     37  H31 HIS d   1     -24.717  17.636  27.160  0.00  0.00     0.088 H 
ATOM     38  N   LEU d   1     -23.710  17.722  24.243  0.00  0.00    -0.346 N 
ATOM     39  CA  LEU d   1     -23.918  17.030  23.029  0.00  0.00     0.089 C 
ATOM     40  C   LEU d   1     -23.022  15.910  22.713  0.00  0.00     0.241 C 
ATOM     41  O   LEU d   1     -23.366  14.866  23.074  0.00  0.00    -0.271 OA
ATOM     42  H37 LEU d   1     -22.895  18.286  24.375  0.00  0.00     0.163 HD
ATOM     43  H38 LEU d   1     -24.912  16.567  23.117  0.00  0.00     0.087 H 
ATOM     44  N   SER d   1     -21.969  16.038  22.022  0.00  0.00    -0.344 N 
ATOM     45  CA  SER d   1     -21.193  14.933  21.636  0.00  0.00     0.109 C 
ATOM     46  C   SER d   1     -20.445  15.338  20.527  0.00  0.00     0.243 C 
ATOM     47  O   SER d   1     -21.002  15.766  19.578  0.00  0.00    -0.271 OA
ATOM     48  N   SER d   1     -17.204  15.368  17.918  0.00  0.00    -0.344 N 
ATOM     49  CA  SER d   1     -16.184  15.174  17.006  0.00  0.00     0.109 C 
ATOM     50  C   SER d   1     -15.606  14.011  16.432  0.00  0.00     0.243 C 
ATOM     51  O   SER d   1     -16.439  13.207  16.148  0.00  0.00    -0.271 OA
ATOM     52  H48 SER d   1     -21.681  16.954  21.742  0.00  0.00     0.163 HD
ATOM     53  H49 SER d   1     -20.567  14.607  22.480  0.00  0.00     0.090 H 
ATOM     54  H63 SER d   1     -17.571  16.295  17.835  0.00  0.00     0.163 HD
ATOM     55  H64 SER d   1     -16.560  15.680  16.105  0.00  0.00     0.090 H 
ATOM     56  N   TRP d   1     -19.203  15.237  20.702  0.00  0.00    -0.346 N 
ATOM     57  CA  TRP d   1     -18.389  15.781  19.709  0.00  0.00     0.093 C 
ATOM     58  C   TRP d   1     -17.822  14.730  18.833  0.00  0.00     0.241 C 
ATOM     59  O   TRP d   1     -17.993  13.567  19.000  0.00  0.00    -0.271 OA
ATOM     60  N   TRP d   1     -14.323  13.927  16.061  0.00  0.00    -0.346 N 
ATOM     61  CA  TRP d   1     -13.166  14.804  15.972  0.00  0.00     0.093 C 
ATOM     62  C   TRP d   1     -12.931  15.286  14.619  0.00  0.00     0.243 C 
ATOM     63  O   TRP d   1     -13.022  14.432  13.825  0.00  0.00    -0.271 OA
ATOM     64  H53 TRP d   1     -18.820  14.790  21.511  0.00  0.00     0.163 HD
ATOM     65  H54 TRP d   1     -19.062  16.347  19.048  0.00  0.00     0.088 H 
ATOM     66  H68 TRP d   1     -14.096  13.001  15.760  0.00  0.00     0.163 HD
ATOM     67  H69 TRP d   1     -13.250  15.637  16.685  0.00  0.00     0.088 H 
ATOM     68  N   9KK d   1     -12.632  16.538  14.291  0.00  0.00    -0.341 N 
ATOM     69  CA  9KK d   1     -12.077  17.566  15.219  0.00  0.00     0.091 C 
ATOM     70  C   9KK d   1     -12.897  18.531  16.039  0.00  0.00     0.243 C 
ATOM     71  O   9KK d   1     -12.792  18.553  17.242  0.00  0.00    -0.271 OA
ATOM     72  N   9KK d   1     -13.637  19.416  15.480  0.00  0.00    -0.341 N 
ATOM     73  CA  9KK d   1     -14.788  19.893  16.220  0.00  0.00     0.091 C 
ATOM     74  C   9KK d   1     -15.886  20.510  15.476  0.00  0.00     0.241 C 
ATOM     75  O   9KK d   1     -15.768  21.617  15.090  0.00  0.00    -0.271 OA
ATOM     76  H87 9KK d   1     -11.572  16.960  15.985  0.00  0.00     0.087 H 
ATOM     77 0H10 9KK d   1     -15.209  19.043  16.777  0.00  0.00     0.087 H 
ATOM     78  N   ARG d   1     -16.999  19.962  15.166  0.00  0.00    -0.346 N 
ATOM     79  CA  ARG d   1     -17.479  18.639  15.112  0.00  0.00     0.089 C 
ATOM     80  C   ARG d   1     -18.444  18.169  16.096  0.00  0.00     0.241 C 
ATOM     81  O   ARG d   1     -18.185  18.068  17.211  0.00  0.00    -0.271 OA
ATOM     82 4H10 ARG d   1     -17.693  20.631  14.899  0.00  0.00     0.163 HD
ATOM     83 5H10 ARG d   1     -18.178  18.773  14.274  0.00  0.00     0.087 H 
ATOM     84  N   CCS d   1     -19.579  17.822  15.599  0.00  0.00    -0.345 N 
ATOM     85  CA  CCS d   1     -20.493  17.107  16.376  0.00  0.00     0.097 C 
ATOM     86  CB  CCS d   1     -21.903  17.526  16.235  0.00  0.00     0.004 C 
ATOM     87  SG  CCS d   1     -22.014  19.170  16.640  0.00  0.00    -0.157 SA
ATOM     88  CD  CCS d   1     -22.605  19.386  18.219  0.00  0.00     0.051 C 
ATOM     89  CE  CCS d   1     -21.638  20.120  19.032  0.00  0.00     0.227 C 
ATOM     90  OZ2 CCS d   1     -22.062  20.451  20.045  0.00  0.00    -0.273 OA
ATOM     91 7H11 CCS d   1     -19.807  18.064  14.656  0.00  0.00     0.163 HD
ATOM     92 8H11 CCS d   1     -20.207  17.238  17.430  0.00  0.00     0.088 H 
ATOM     93 9H11 CCS d   1     -22.537  16.933  16.911  0.00  0.00     0.052 H 
ATOM     94 0H12 CCS d   1     -22.233  17.376  15.197  0.00  0.00     0.052 H 
ATOM     95 1H12 CCS d   1     -22.788  18.402  18.675  0.00  0.00     0.063 H 
ATOM     96 2H12 CCS d   1     -23.547  19.952  18.178  0.00  0.00     0.063 H 
ENDROOT
BRANCH  57  97
ATOM     97  CB  TRP d   1     -17.460  16.841  20.296  0.00  0.00    -0.012 C 
ATOM     98  H55 TRP d   1     -16.985  17.378  19.462  0.00  0.00     0.044 H 
ATOM     99  H56 TRP d   1     -16.689  16.328  20.889  0.00  0.00     0.044 H 
BRANCH  97 100
ATOM    100  CG  TRP d   1     -18.131  17.851  21.178  0.00  0.00    -0.028 A 
ATOM    101  CD1 TRP d   1     -19.433  18.181  21.358  0.00  0.00    -0.015 A 
ATOM    102  NE1 TRP d   1     -19.578  19.123  22.284  0.00  0.00    -0.365 N 
ATOM    103  H57 TRP d   1     -20.259  17.730  20.811  0.00  0.00     0.112 H 
ATOM    104  CE2 TRP d   1     -18.424  19.452  22.793  0.00  0.00     0.042 A 
ATOM    105  H58 TRP d   1     -20.479  19.537  22.562  0.00  0.00     0.165 HD
ATOM    106  CD2 TRP d   1     -17.427  18.674  22.134  0.00  0.00    -0.002 A 
ATOM    107  CZ2 TRP d   1     -18.017  20.333  23.720  0.00  0.00    -0.056 A 
ATOM    108  CE3 TRP d   1     -16.117  18.798  22.415  0.00  0.00    -0.070 A 
ATOM    109  CZ3 TRP d   1     -15.754  19.689  23.354  0.00  0.00    -0.082 A 
ATOM    110  H59 TRP d   1     -15.376  18.197  21.900  0.00  0.00     0.084 H 
ATOM    111  CH2 TRP d   1     -16.692  20.432  23.990  0.00  0.00    -0.081 A 
ATOM    112  H61 TRP d   1     -14.707  19.814  23.604  0.00  0.00     0.083 H 
ATOM    113  H62 TRP d   1     -16.369  21.136  24.748  0.00  0.00     0.083 H 
ATOM    114  H60 TRP d   1     -18.735  20.954  24.244  0.00  0.00     0.086 H 
ENDBRANCH  97 100
ENDBRANCH  57  97
BRANCH  45 115
ATOM    115  CB  SER d   1     -21.930  13.788  21.053  0.00  0.00     0.044 C 
ATOM    116  H50 SER d   1     -21.210  13.035  20.700  0.00  0.00     0.077 H 
ATOM    117  H51 SER d   1     -22.538  14.140  20.206  0.00  0.00     0.077 H 
BRANCH 115 118
ATOM    118  OG  SER d   1     -22.771  13.209  22.018  0.00  0.00    -0.398 OA
ATOM    119  H52 SER d   1     -23.395  13.857  22.323  0.00  0.00     0.209 HD
ENDBRANCH 115 118
ENDBRANCH  45 115
BRANCH  49 120
ATOM    120  CB  SER d   1     -15.205  16.025  17.593  0.00  0.00     0.044 C 
ATOM    121  H65 SER d   1     -14.325  15.473  17.954  0.00  0.00     0.077 H 
ATOM    122  H66 SER d   1     -15.612  16.641  18.408  0.00  0.00     0.077 H 
BRANCH 120 123
ATOM    123  OG  SER d   1     -14.943  16.759  16.447  0.00  0.00    -0.398 OA
ATOM    124  H67 SER d   1     -14.282  17.414  16.636  0.00  0.00     0.209 HD
ENDBRANCH 120 123
ENDBRANCH  49 120
BRANCH  39 125
ATOM    125  CB  LEU d   1     -24.024  18.056  21.949  0.00  0.00    -0.035 C 
ATOM    126  H39 LEU d   1     -23.410  17.733  21.095  0.00  0.00     0.037 H 
ATOM    127  H40 LEU d   1     -23.642  19.013  22.334  0.00  0.00     0.037 H 
BRANCH 125 128
ATOM    128  CG  LEU d   1     -25.444  18.257  21.475  0.00  0.00    -0.059 C 
ATOM    129  H41 LEU d   1     -25.739  17.359  20.913  0.00  0.00     0.038 H 
BRANCH 128 130
ATOM    130  CD1 LEU d   1     -26.389  18.417  22.624  0.00  0.00    -0.073 C 
ATOM    131  H42 LEU d   1     -27.410  18.561  22.241  0.00  0.00     0.028 H 
ATOM    132  H43 LEU d   1     -26.095  19.292  23.222  0.00  0.00     0.028 H 
ATOM    133  H44 LEU d   1     -26.357  17.515  23.253  0.00  0.00     0.028 H 
ENDBRANCH 128 130
BRANCH 128 134
ATOM    134  CD2 LEU d   1     -25.561  19.449  20.550  0.00  0.00    -0.073 C 
ATOM    135  H45 LEU d   1     -24.865  19.328  19.707  0.00  0.00     0.028 H 
ATOM    136  H46 LEU d   1     -25.312  20.367  21.102  0.00  0.00     0.028 H 
ATOM    137  H47 LEU d   1     -26.591  19.518  20.169  0.00  0.00     0.028 H 
ENDBRANCH 128 134
ENDBRANCH 125 128
ENDBRANCH  39 125
BRANCH  61 138
ATOM    138  CB  TRP d   1     -11.998  13.948  16.231  0.00  0.00    -0.012 C 
ATOM    139  H70 TRP d   1     -12.037  13.079  15.558  0.00  0.00     0.044 H 
ATOM    140  H71 TRP d   1     -12.032  13.605  17.276  0.00  0.00     0.044 H 
BRANCH 138 141
ATOM    141  CG  TRP d   1     -10.737  14.667  16.007  0.00  0.00    -0.028 A 
ATOM    142  CD1 TRP d   1     -10.036  14.746  14.868  0.00  0.00    -0.015 A 
ATOM    143  NE1 TRP d   1      -8.928  15.434  15.047  0.00  0.00    -0.365 N 
ATOM    144  H72 TRP d   1     -10.341  14.301  13.922  0.00  0.00     0.112 H 
ATOM    145  CE2 TRP d   1      -8.817  15.836  16.285  0.00  0.00     0.042 A 
ATOM    146  H73 TRP d   1      -8.239  15.630  14.307  0.00  0.00     0.165 HD
ATOM    147  CD2 TRP d   1      -9.965  15.368  16.991  0.00  0.00    -0.002 A 
ATOM    148  CZ2 TRP d   1      -7.880  16.541  16.999  0.00  0.00    -0.056 A 
ATOM    149  CE3 TRP d   1     -10.133  15.618  18.307  0.00  0.00    -0.070 A 
ATOM    150  CZ3 TRP d   1      -9.182  16.334  18.972  0.00  0.00    -0.082 A 
ATOM    151  H74 TRP d   1     -11.012  15.255  18.828  0.00  0.00     0.084 H 
ATOM    152  CH2 TRP d   1      -8.069  16.795  18.331  0.00  0.00    -0.081 A 
ATOM    153  H76 TRP d   1      -9.312  16.541  20.028  0.00  0.00     0.083 H 
ATOM    154  H77 TRP d   1      -7.329  17.366  18.880  0.00  0.00     0.083 H 
ATOM    155  H75 TRP d   1      -6.984  16.899  16.505  0.00  0.00     0.086 H 
ENDBRANCH 138 141
ENDBRANCH  61 138
BRANCH  68 156
ATOM    156  CM  9KK d   1     -12.787  16.885  12.913  0.00  0.00    -0.015 C 
ATOM    157  H88 9KK d   1     -13.204  16.028  12.364  0.00  0.00     0.056 H 
ATOM    158  H89 9KK d   1     -11.807  17.150  12.489  0.00  0.00     0.056 H 
ATOM    159  H90 9KK d   1     -13.469  17.744  12.825  0.00  0.00     0.056 H 
ENDBRANCH  68 156
BRANCH  33 160
ATOM    160  CB  HIS d   1     -25.539  19.344  26.586  0.00  0.00     0.002 C 
ATOM    161  H32 HIS d   1     -26.504  18.833  26.455  0.00  0.00     0.046 H 
ATOM    162  H33 HIS d   1     -25.446  20.149  25.842  0.00  0.00     0.046 H 
BRANCH 160 163
ATOM    163  CG  HIS d   1     -25.480  19.922  27.930  0.00  0.00     0.030 A 
ATOM    164  ND1 HIS d   1     -25.223  19.285  29.038  0.00  0.00    -0.353 N 
ATOM    165  CE1 HIS d   1     -25.239  20.155  30.027  0.00  0.00     0.063 A 
ATOM    166  H34 HIS d   1     -25.039  18.275  29.125  0.00  0.00     0.166 HD
ATOM    167  NE2 HIS d   1     -25.516  21.347  29.513  0.00  0.00    -0.254 NA
ATOM    168  H36 HIS d   1     -25.058  19.936  31.078  0.00  0.00     0.143 H 
ATOM    169  CD2 HIS d   1     -25.661  21.232  28.205  0.00  0.00     0.025 A 
ATOM    170  H35 HIS d   1     -25.881  22.028  27.495  0.00  0.00     0.117 H 
ENDBRANCH 160 163
ENDBRANCH  33 160
BRANCH  69 171
ATOM    171  CB  9KK d   1     -10.980  18.338  14.496  0.00  0.00    -0.038 C 
ATOM    172  H85 9KK d   1     -10.180  17.624  14.252  0.00  0.00     0.036 H 
ATOM    173  H86 9KK d   1     -11.413  18.735  13.566  0.00  0.00     0.036 H 
BRANCH 171 174
ATOM    174  CG  9KK d   1     -10.343  19.502  15.235  0.00  0.00    -0.063 C 
ATOM    175  H83 9KK d   1     -10.071  20.282  14.508  0.00  0.00     0.033 H 
ATOM    176  H84 9KK d   1     -11.068  19.909  15.955  0.00  0.00     0.033 H 
BRANCH 174 177
ATOM    177  CD  9KK d   1      -9.117  19.072  15.969  0.00  0.00    -0.068 C 
ATOM    178  H81 9KK d   1      -9.400  18.778  16.991  0.00  0.00     0.032 H 
ATOM    179  H82 9KK d   1      -8.676  18.209  15.448  0.00  0.00     0.032 H 
BRANCH 177 180
ATOM    180  CE  9KK d   1      -8.089  20.171  16.046  0.00  0.00    -0.077 C 
ATOM    181  H78 9KK d   1      -7.206  19.809  16.594  0.00  0.00     0.027 H 
ATOM    182  H79 9KK d   1      -8.517  21.037  16.572  0.00  0.00     0.027 H 
ATOM    183  H80 9KK d   1      -7.793  20.468  15.029  0.00  0.00     0.027 H 
ENDBRANCH 177 180
ENDBRANCH 174 177
ENDBRANCH 171 174
ENDBRANCH  69 171
BRANCH  72 184
ATOM    184  CM  9KK d   1     -13.345  19.921  14.188  0.00  0.00    -0.015 C 
ATOM    185 1H10 9KK d   1     -12.438  19.434  13.800  0.00  0.00     0.056 H 
ATOM    186 2H10 9KK d   1     -13.181  21.007  14.247  0.00  0.00     0.056 H 
ATOM    187 3H10 9KK d   1     -14.189  19.713  13.514  0.00  0.00     0.056 H 
ENDBRANCH  72 184
BRANCH  73 188
ATOM    188  CB  9KK d   1     -14.230  20.915  17.182  0.00  0.00    -0.038 C 
ATOM    189  H98 9KK d   1     -15.062  21.329  17.770  0.00  0.00     0.036 H 
ATOM    190  H99 9KK d   1     -13.521  20.409  17.854  0.00  0.00     0.036 H 
BRANCH 188 191
ATOM    191  CG  9KK d   1     -13.510  22.058  16.500  0.00  0.00    -0.063 C 
ATOM    192  H96 9KK d   1     -12.770  21.648  15.797  0.00  0.00     0.033 H 
ATOM    193  H97 9KK d   1     -14.242  22.666  15.948  0.00  0.00     0.033 H 
BRANCH 191 194
ATOM    194  CD  9KK d   1     -12.807  22.927  17.501  0.00  0.00    -0.068 C 
ATOM    195  H94 9KK d   1     -13.392  23.850  17.631  0.00  0.00     0.032 H 
ATOM    196  H95 9KK d   1     -12.758  22.386  18.457  0.00  0.00     0.032 H 
BRANCH 194 197
ATOM    197  CE  9KK d   1     -11.417  23.302  17.100  0.00  0.00    -0.077 C 
ATOM    198  H91 9KK d   1     -10.969  23.936  17.880  0.00  0.00     0.027 H 
ATOM    199  H92 9KK d   1     -11.446  23.855  16.150  0.00  0.00     0.027 H 
ATOM    200  H93 9KK d   1     -10.813  22.391  16.976  0.00  0.00     0.027 H 
ENDBRANCH 194 197
ENDBRANCH 191 194
ENDBRANCH 188 191
ENDBRANCH  73 188
BRANCH  13 201
ATOM    201  CB  ASN d   1     -23.437  22.140  22.790  0.00  0.00     0.036 C 
ATOM    202  H19 ASN d   1     -23.273  21.254  22.159  0.00  0.00     0.051 H 
ATOM    203  H20 ASN d   1     -23.701  22.999  22.155  0.00  0.00     0.051 H 
BRANCH 201 204
ATOM    204  CG  ASN d   1     -24.613  21.853  23.687  0.00  0.00     0.217 C 
ATOM    205  OD1 ASN d   1     -25.573  21.392  23.210  0.00  0.00    -0.274 OA
ATOM    206  ND2 ASN d   1     -24.648  22.102  24.958  0.00  0.00    -0.370 N 
ATOM    207  H21 ASN d   1     -25.467  21.883  25.488  0.00  0.00     0.159 HD
ATOM    208  H22 ASN d   1     -23.856  22.514  25.409  0.00  0.00     0.159 HD
ENDBRANCH 201 204
ENDBRANCH  13 201
BRANCH  79 209
ATOM    209  CB  ARG d   1     -16.594  17.613  14.488  0.00  0.00    -0.036 C 
ATOM    210 6H10 ARG d   1     -17.178  16.704  14.282  0.00  0.00     0.036 H 
ATOM    211 7H10 ARG d   1     -15.771  17.372  15.177  0.00  0.00     0.036 H 
BRANCH 209 212
ATOM    212  CG  ARG d   1     -16.027  18.147  13.199  0.00  0.00    -0.048 C 
ATOM    213 8H10 ARG d   1     -14.951  17.920  13.183  0.00  0.00     0.035 H 
ATOM    214 9H10 ARG d   1     -16.172  19.237  13.191  0.00  0.00     0.035 H 
BRANCH 212 215
ATOM    215  CD  ARG d   1     -16.633  17.593  11.947  0.00  0.00     0.009 C 
ATOM    216 0H11 ARG d   1     -17.680  17.917  11.851  0.00  0.00     0.064 H 
ATOM    217 1H11 ARG d   1     -16.588  16.494  11.952  0.00  0.00     0.064 H 
BRANCH 215 218
ATOM    218  NE  ARG d   1     -15.849  18.119  10.880  0.00  0.00    -0.227 N 
ATOM    219  CZ  ARG d   1     -15.376  17.355   9.950  0.00  0.00     0.665 C 
ATOM    220  NH1 ARG d   1     -14.544  17.816   9.164  0.00  0.00    -0.235 N 
ATOM    221  NH2 ARG d   1     -15.731  16.099   9.850  0.00  0.00    -0.235 N 
ATOM    222 3H11 ARG d   1     -14.157  17.222   8.417  0.00  0.00     0.174 HD
ATOM    223 4H11 ARG d   1     -14.237  18.795   9.255  0.00  0.00     0.174 HD
ATOM    224 5H11 ARG d   1     -16.425  15.707  10.502  0.00  0.00     0.174 HD
ATOM    225 6H11 ARG d   1     -15.316  15.503   9.119  0.00  0.00     0.174 HD
ATOM    226 2H11 ARG d   1     -15.655  19.130  10.849  0.00  0.00     0.177 HD
ENDBRANCH 215 218
ENDBRANCH 212 215
ENDBRANCH 209 212
ENDBRANCH  79 209
BRANCH   8 227
ATOM    227  CB  MAA d   1     -19.816  25.073  20.839  0.00  0.00    -0.049 C 
ATOM    228  H14 MAA d   1     -19.554  25.744  21.671  0.00  0.00     0.030 H 
ATOM    229  H15 MAA d   1     -20.900  25.120  20.658  0.00  0.00     0.030 H 
ATOM    230  H16 MAA d   1     -19.279  25.387  19.932  0.00  0.00     0.030 H 
ENDBRANCH   8 227
BRANCH  85 231
ATOM    231  C   CCS d   1     -20.409  15.691  16.032  0.00  0.00     0.241 C 
ATOM    232  O   CCS d   1     -20.028  15.316  14.986  0.00  0.00    -0.271 OA
ATOM    233  N   GLY d   1     -20.794  14.878  16.946  0.00  0.00    -0.351 N 
ATOM    234 3H12 GLY d   1     -21.035  15.228  17.851  0.00  0.00     0.163 HD
BRANCH 233 235
ATOM    235  CA  GLY d   1     -20.881  13.494  16.685  0.00  0.00     0.069 C 
ATOM    236 4H12 GLY d   1     -20.657  12.921  17.597  0.00  0.00     0.078 H 
ATOM    237 5H12 GLY d   1     -20.172  13.213  15.892  0.00  0.00     0.078 H 
BRANCH 235 238
ATOM    238  C   GLY d   1     -22.273  13.229  16.244  0.00  0.00     0.233 C 
ATOM    239  O   GLY d   1     -23.202  13.702  16.831  0.00  0.00    -0.272 OA
ATOM    240  N   NH2 d   1     -22.365  12.448  15.198  0.00  0.00    -0.369 N 
ATOM    241 6H12 NH2 d   1     -23.263  12.212  14.827  0.00  0.00     0.159 HD
ATOM    242 7H12 NH2 d   1     -21.537  12.087  14.769  0.00  0.00     0.159 HD
ENDBRANCH 235 238
ENDBRANCH 233 235
ENDBRANCH  85 231
BRANCH   7 243
ATOM    243  CM  MAA d   1     -20.398  23.454  18.850  0.00  0.00    -0.015 C 
ATOM    244  H10 MAA d   1     -20.601  22.654  18.123  0.00  0.00     0.056 H 
ATOM    245  H11 MAA d   1     -19.699  24.180  18.409  0.00  0.00     0.056 H 
ATOM    246  H12 MAA d   1     -21.339  23.961  19.110  0.00  0.00     0.056 H 
ENDBRANCH   7 243
BRANCH   2 247
ATOM    247  CB  PHE d   1     -18.263  21.405  18.191  0.00  0.00    -0.014 C 
ATOM    248  H3  PHE d   1     -18.757  22.210  17.627  0.00  0.00     0.043 H 
ATOM    249  H4  PHE d   1     -17.881  20.647  17.491  0.00  0.00     0.043 H 
BRANCH 247 250
ATOM    250  CG  PHE d   1     -17.103  21.990  18.937  0.00  0.00    -0.056 A 
ATOM    251  CD1 PHE d   1     -16.582  23.184  18.565  0.00  0.00    -0.077 A 
ATOM    252  CE1 PHE d   1     -15.520  23.710  19.242  0.00  0.00    -0.082 A 
ATOM    253  H5  PHE d   1     -17.010  23.723  17.727  0.00  0.00     0.084 H 
ATOM    254  CZ  PHE d   1     -14.969  23.061  20.302  0.00  0.00    -0.083 A 
ATOM    255  H7  PHE d   1     -15.108  24.663  18.929  0.00  0.00     0.083 H 
ATOM    256  CE2 PHE d   1     -15.478  21.869  20.682  0.00  0.00    -0.082 A 
ATOM    257  H9  PHE d   1     -14.131  23.495  20.836  0.00  0.00     0.083 H 
ATOM    258  CD2 PHE d   1     -16.544  21.340  20.001  0.00  0.00    -0.077 A 
ATOM    259  H8  PHE d   1     -15.046  21.334  21.520  0.00  0.00     0.083 H 
ATOM    260  H6  PHE d   1     -16.952  20.386  20.313  0.00  0.00     0.084 H 
ENDBRANCH 247 250
ENDBRANCH   2 247
TORSDOF 36
