REMARK  15 active torsions:
REMARK  status: ('A' for Active; 'I' for Inactive)
REMARK    1  A    between atoms: P_2  and  O5'_5 
REMARK    2  A    between atoms: O5'_5  and  C5'_6 
REMARK    3  A    between atoms: C5'_6  and  C4'_7 
REMARK    4  A    between atoms: C3'_9  and  O3'_10 
REMARK    5  A    between atoms: O3'_10  and  P_24 
REMARK    6  A    between atoms: C2'_11  and  O2'_12 
REMARK    7  A    between atoms: C1'_13  and  N9_14 
REMARK    8  A    between atoms: C6_18  and  N6_19 
REMARK    9  A    between atoms: P_24  and  O5'_27 
REMARK   10  A    between atoms: O5'_27  and  C5'_28 
REMARK   11  A    between atoms: C5'_28  and  C4'_29 
REMARK   12  A    between atoms: C3'_31  and  O3'_32 
REMARK   13  A    between atoms: C2'_33  and  O2'_34 
REMARK   14  A    between atoms: C1'_35  and  N9_36 
REMARK   15  A    between atoms: C6_40  and  N6_41 
ROOT
ATOM      1  O3'   A d   1       1.610 -10.056 -13.006  0.00  0.00    -0.279 OA
ENDROOT
BRANCH   1   2
ATOM      2  C3'   A d   1       1.487  -8.639 -12.860  0.00  0.00     0.106 C 
ATOM      3  C4'   A d   1       2.840  -7.939 -12.994  0.00  0.00     0.090 C 
ATOM      4  O4'   A d   1       3.309  -7.662 -11.645  0.00  0.00    -0.353 OA
ATOM      5  H3    A d   1       3.541  -8.614 -13.508  0.00  0.00     0.090 H 
ATOM      6  C1'   A d   1       2.329  -8.031 -10.689  0.00  0.00     0.140 C 
ATOM      7  C2'   A d   1       1.016  -8.260 -11.453  0.00  0.00     0.106 C 
ATOM      8  H7    A d   1       2.622  -8.952 -10.163  0.00  0.00     0.122 H 
ATOM      9  H5    A d   1       0.442  -7.323 -11.500  0.00  0.00     0.093 H 
ATOM     10  H4    A d   1       0.783  -8.262 -13.616  0.00  0.00     0.092 H 
BRANCH   3  11
ATOM     11  C5'   A d   1       2.786  -6.633 -13.747  0.00  0.00     0.059 C 
ATOM     12  H1    A d   1       3.774  -6.152 -13.705  0.00  0.00     0.079 H 
ATOM     13  H2    A d   1       2.519  -6.832 -14.795  0.00  0.00     0.079 H 
BRANCH  11  14
ATOM     14  O5'   A d   1       1.818  -5.759 -13.178  0.00  0.00    -0.280 OA
BRANCH  14  15
ATOM     15  P     A d   1       1.271  -4.496 -13.973  0.00  0.00     0.422 P 
ATOM     16  OP3   A d   1       0.532  -4.980 -15.159  0.00  0.00    -0.617 OA
ATOM     17  OP1   A d   1       2.458  -3.723 -14.433  0.00  0.00    -0.617 OA
ATOM     18  OP2   A d   1       0.305  -3.801 -13.087  0.00  0.00    -0.617 OA
ENDBRANCH  14  15
ENDBRANCH  11  14
ENDBRANCH   3  11
BRANCH   6  19
ATOM     19  N9    A d   1       2.216  -6.922  -9.731  0.00  0.00    -0.294 N 
ATOM     20  C8    A d   1       1.870  -5.631 -10.056  0.00  0.00     0.071 A 
ATOM     21  N7    A d   1       1.809  -4.805  -9.034  0.00  0.00    -0.236 NA
ATOM     22  H8    A d   1       1.663  -5.318 -11.078  0.00  0.00     0.144 H 
ATOM     23  C5    A d   1       2.139  -5.606  -7.959  0.00  0.00     0.149 A 
ATOM     24  C6    A d   1       2.245  -5.308  -6.589  0.00  0.00     0.155 A 
ATOM     25  C4    A d   1       2.389  -6.912  -8.358  0.00  0.00     0.167 A 
ATOM     26  N1    A d   1       2.586  -6.312  -5.758  0.00  0.00    -0.222 NA
ATOM     27  C2    A d   1       2.802  -7.526  -6.277  0.00  0.00     0.091 A 
ATOM     28  N3    A d   1       2.730  -7.932  -7.545  0.00  0.00    -0.222 NA
ATOM     29  H11   A d   1       3.076  -8.293  -5.561  0.00  0.00     0.146 H 
BRANCH  24  30
ATOM     30  N6    A d   1       2.021  -4.084  -6.098  0.00  0.00    -0.382 N 
ATOM     31  H9    A d   1       2.110  -3.910  -5.087  0.00  0.00     0.157 HD
ATOM     32  H10   A d   1       1.759  -3.315  -6.731  0.00  0.00     0.157 HD
ENDBRANCH  24  30
ENDBRANCH   6  19
BRANCH   7  33
ATOM     33  O2'   A d   1       0.203  -9.233 -10.826  0.00  0.00    -0.388 OA
ATOM     34  H6    A d   1      -0.576  -9.378 -11.350  0.00  0.00     0.210 HD
ENDBRANCH   7  33
ENDBRANCH   1   2
BRANCH   1  35
ATOM     35  P     A d   1       0.500 -10.885 -13.846  0.00  0.00     0.408 P 
ATOM     36  OP1   A d   1      -0.814 -10.672 -13.191  0.00  0.00    -0.624 OA
ATOM     37  OP2   A d   1       0.976 -12.258 -14.136  0.00  0.00    -0.624 OA
BRANCH  35  38
ATOM     38  O5'   A d   1       0.390 -10.131 -15.245  0.00  0.00    -0.287 OA
BRANCH  38  39
ATOM     39  C5'   A d   1       1.533  -9.907 -16.056  0.00  0.00     0.058 C 
ATOM     40  H12   A d   1       1.803 -10.845 -16.564  0.00  0.00     0.079 H 
ATOM     41  H13   A d   1       2.368  -9.582 -15.418  0.00  0.00     0.079 H 
BRANCH  39  42
ATOM     42  C4'   A d   1       1.261  -8.846 -17.091  0.00  0.00     0.089 C 
ATOM     43  O4'   A d   1       2.528  -8.415 -17.648  0.00  0.00    -0.353 OA
ATOM     44  C1'   A d   1       2.568  -8.681 -19.033  0.00  0.00     0.139 C 
ATOM     45  C2'   A d   1       1.453  -9.693 -19.308  0.00  0.00     0.105 C 
ATOM     46  H19   A d   1       2.390  -7.764 -19.614  0.00  0.00     0.122 H 
ATOM     47  C3'   A d   1       0.406  -9.300 -18.272  0.00  0.00     0.091 C 
ATOM     48  H17   A d   1       1.805 -10.717 -19.116  0.00  0.00     0.093 H 
ATOM     49  H15   A d   1      -0.247 -10.144 -18.007  0.00  0.00     0.091 H 
ATOM     50  H14   A d   1       0.759  -8.001 -16.596  0.00  0.00     0.090 H 
BRANCH  44  51
ATOM     51  N9    A d   1       3.904  -9.204 -19.338  0.00  0.00    -0.294 N 
ATOM     52  C8    A d   1       4.860  -8.679 -20.172  0.00  0.00     0.071 A 
ATOM     53  N7    A d   1       5.955  -9.397 -20.246  0.00  0.00    -0.236 NA
ATOM     54  H20   A d   1       4.721  -7.750 -20.723  0.00  0.00     0.144 H 
ATOM     55  C5    A d   1       5.706 -10.471 -19.404  0.00  0.00     0.149 A 
ATOM     56  C6    A d   1       6.474 -11.588 -19.037  0.00  0.00     0.155 A 
ATOM     57  C4    A d   1       4.448 -10.364 -18.837  0.00  0.00     0.167 A 
ATOM     58  N1    A d   1       5.931 -12.464 -18.170  0.00  0.00    -0.222 NA
ATOM     59  C2    A d   1       4.700 -12.232 -17.696  0.00  0.00     0.091 A 
ATOM     60  N3    A d   1       3.881 -11.222 -17.965  0.00  0.00    -0.222 NA
ATOM     61  H23   A d   1       4.321 -12.969 -16.998  0.00  0.00     0.146 H 
BRANCH  56  62
ATOM     62  N6    A d   1       7.696 -11.849 -19.496  0.00  0.00    -0.382 N 
ATOM     63  H21   A d   1       8.197 -12.691 -19.178  0.00  0.00     0.157 HD
ATOM     64  H22   A d   1       8.141 -11.209 -20.169  0.00  0.00     0.157 HD
ENDBRANCH  56  62
ENDBRANCH  44  51
BRANCH  45  65
ATOM     65  O2'   A d   1       1.007  -9.627 -20.645  0.00  0.00    -0.388 OA
ATOM     66  H18   A d   1       1.713  -9.885 -21.226  0.00  0.00     0.210 HD
ENDBRANCH  45  65
BRANCH  47  67
ATOM     67  O3'   A d   1      -0.368  -8.200 -18.757  0.00  0.00    -0.390 OA
ATOM     68  H16   A d   1      -0.898  -8.487 -19.491  0.00  0.00     0.210 HD
ENDBRANCH  47  67
ENDBRANCH  39  42
ENDBRANCH  38  39
ENDBRANCH  35  38
ENDBRANCH   1  35
TORSDOF 15
