REMARK  9 active torsions:
REMARK  status: ('A' for Active; 'I' for Inactive)
REMARK    1  A    between atoms: CAL_10  and  CAA_1 
REMARK    2  A    between atoms: CAR_13  and  CAB_2 
REMARK    3  A    between atoms: CAS_14  and  CAC_3 
REMARK    4  A    between atoms: CAX_19  and  CAD_4 
REMARK    5  A    between atoms: NAY_23  and  CAE_5 
REMARK    6  A    between atoms: NAZ_24  and  CAL_10 
REMARK    7  A    between atoms: CAP_11  and  CAQ_12 
REMARK       I    between atoms: NAO_22  and  CAP_11 
REMARK    8  A    between atoms: CAX_19  and  CAT_15 
REMARK    9  A    between atoms: CAX_19  and  NAO_22 
ROOT
ATOM      1  CAH 9L5 d   1      10.504 -11.140   6.919  0.00  0.00    -0.065 A 
ATOM      2  CAI 9L5 d   1      10.325 -11.777   5.686  0.00  0.00    -0.054 A 
ATOM      3  CAK 9L5 d   1       8.358 -10.089   6.671  0.00  0.00    -0.040 A 
ATOM      4  CAQ 9L5 d   1       9.510 -10.297   7.413  0.00  0.00     0.034 A 
ATOM      5  CAR 9L5 d   1       6.863 -11.086   3.584  0.00  0.00     0.092 A 
ATOM      6  CAU 9L5 d   1       7.826 -11.941   3.054  0.00  0.00     0.274 A 
ATOM      7  CAV 9L5 d   1       8.184 -10.716   5.447  0.00  0.00     0.061 A 
ATOM      8  CAW 9L5 d   1       9.160 -11.569   4.942  0.00  0.00     0.064 A 
ATOM      9  NAN 9L5 d   1       7.057 -10.494   4.765  0.00  0.00    -0.351 N 
ATOM     10  NAZ 9L5 d   1       8.959 -12.162   3.749  0.00  0.00    -0.311 N 
ATOM     11  OAG 9L5 d   1       7.652 -12.492   1.965  0.00  0.00    -0.266 OA
ATOM     12  H15 9L5 d   1      11.412 -11.302   7.488  0.00  0.00     0.085 H 
ATOM     13  H16 9L5 d   1      11.096 -12.437   5.305  0.00  0.00     0.087 H 
ATOM     14  H18 9L5 d   1       7.586  -9.430   7.051  0.00  0.00     0.088 H 
ATOM     15  H22 9L5 d   1       6.337  -9.866   5.150  0.00  0.00     0.166 HD
ENDROOT
BRANCH   4  16
ATOM     16  CAP 9L5 d   1       9.603  -9.611   8.623  0.00  0.00     0.252 C 
ATOM     17  NAO 9L5 d   1      10.837  -9.456   9.124  0.00  0.00    -0.348 N 
ATOM     18  H23 9L5 d   1      11.602  -9.880   8.639  0.00  0.00     0.163 HD
ATOM     19  OAF 9L5 d   1       8.591  -9.126   9.122  0.00  0.00    -0.268 OA
BRANCH  17  20
ATOM     20  CAX 9L5 d   1      11.127  -8.691  10.357  0.00  0.00     0.038 C 
ATOM     21  H21 9L5 d   1      12.164  -8.900  10.657  0.00  0.00     0.079 H 
BRANCH  20  22
ATOM     22  CAD 9L5 d   1      10.978  -7.195  10.059  0.00  0.00    -0.053 C 
ATOM     23  H9  9L5 d   1      11.635  -6.921   9.220  0.00  0.00     0.030 H 
ATOM     24  H10 9L5 d   1      11.259  -6.614  10.950  0.00  0.00     0.030 H 
ATOM     25  H11 9L5 d   1       9.933  -6.976   9.793  0.00  0.00     0.030 H 
ENDBRANCH  20  22
BRANCH  20  26
ATOM     26  CAT 9L5 d   1      10.201  -9.050  11.530  0.00  0.00     0.007 A 
ATOM     27  CAJ 9L5 d   1       9.397  -8.205  12.163  0.00  0.00     0.032 A 
ATOM     28  NAM 9L5 d   1       8.779  -8.912  13.115  0.00  0.00    -0.184 NA
ATOM     29  H17 9L5 d   1       9.266  -7.145  11.949  0.00  0.00     0.118 H 
ATOM     30  NAY 9L5 d   1       9.167 -10.106  13.085  0.00  0.00    -0.278 N 
ATOM     31  CAS 9L5 d   1      10.060 -10.229  12.107  0.00  0.00     0.036 A 
BRANCH  30  32
ATOM     32  CAE 9L5 d   1       8.706 -11.186  13.986  0.00  0.00     0.002 C 
ATOM     33  H12 9L5 d   1       7.966 -10.783  14.693  0.00  0.00     0.059 H 
ATOM     34  H13 9L5 d   1       9.564 -11.589  14.544  0.00  0.00     0.059 H 
ATOM     35  H14 9L5 d   1       8.246 -11.989  13.391  0.00  0.00     0.059 H 
ENDBRANCH  30  32
BRANCH  31  36
ATOM     36  CAC 9L5 d   1      10.789 -11.516  11.717  0.00  0.00    -0.035 C 
ATOM     37  H6  9L5 d   1      11.466 -11.313  10.874  0.00  0.00     0.035 H 
ATOM     38  H7  9L5 d   1      10.054 -12.279  11.421  0.00  0.00     0.035 H 
ATOM     39  H8  9L5 d   1      11.372 -11.882  12.575  0.00  0.00     0.035 H 
ENDBRANCH  31  36
ENDBRANCH  20  26
ENDBRANCH  17  20
ENDBRANCH   4  16
BRANCH  10  40
ATOM     40  CAL 9L5 d   1       9.979 -13.062   3.190  0.00  0.00    -0.000 C 
ATOM     41  H19 9L5 d   1      10.505 -13.571   4.011  0.00  0.00     0.064 H 
ATOM     42  H20 9L5 d   1       9.492 -13.810   2.547  0.00  0.00     0.064 H 
BRANCH  40  43
ATOM     43  CAA 9L5 d   1      10.986 -12.264   2.363  0.00  0.00    -0.061 C 
ATOM     44  H1  9L5 d   1      11.744 -12.946   1.950  0.00  0.00     0.029 H 
ATOM     45  H2  9L5 d   1      11.476 -11.516   3.004  0.00  0.00     0.029 H 
ATOM     46  H3  9L5 d   1      10.463 -11.755   1.540  0.00  0.00     0.029 H 
ENDBRANCH  40  43
ENDBRANCH  10  40
BRANCH   5  47
ATOM     47  CAB 9L5 d   1       5.689 -10.841   2.895  0.00  0.00    -0.091 C 
ATOM     48  H4  9L5 d   1       4.940 -10.171   3.316  0.00  0.00     0.070 H 
ATOM     49  H5  9L5 d   1       5.513 -11.318   1.932  0.00  0.00     0.070 H 
ENDBRANCH   5  47
TORSDOF 9
