REMARK  7 active torsions:
REMARK  status: ('A' for Active; 'I' for Inactive)
REMARK    1  A    between atoms: CAP_12  and  CAA_1 
REMARK    2  A    between atoms: NBD_27  and  CAB_2 
REMARK    3  A    between atoms: NBE_28  and  CAP_12 
REMARK    4  A    between atoms: CAT_13  and  CAV_15 
REMARK       I    between atoms: NAR_25  and  CAT_13 
REMARK    5  A    between atoms: CBC_22  and  CAW_16 
REMARK    6  A    between atoms: CBC_22  and  CAX_17 
REMARK    7  A    between atoms: CBC_22  and  NAR_25 
ROOT
ATOM      1  CAT 9LT d   1      12.456   2.851  -2.035  0.00  0.00     0.252 C 
ATOM      2  NAR 9LT d   1      12.761   4.024  -1.446  0.00  0.00    -0.341 N 
ATOM      3  OAC 9LT d   1      11.527   2.140  -1.624  0.00  0.00    -0.268 OA
ATOM      4  H19 9LT d   1      13.503   4.581  -1.820  0.00  0.00     0.164 HD
ENDROOT
BRANCH   2   5
ATOM      5  CBC 9LT d   1      12.020   4.508  -0.254  0.00  0.00     0.096 C 
ATOM      6  H18 9LT d   1      10.947   4.439  -0.488  0.00  0.00     0.092 H 
BRANCH   5   7
ATOM      7  CAW 9LT d   1      12.321   5.845   0.009  0.00  0.00    -0.025 A 
ATOM      8  CAJ 9LT d   1      11.355   6.832  -0.169  0.00  0.00    -0.074 A 
ATOM      9  CAG 9LT d   1      11.660   8.162   0.100  0.00  0.00    -0.080 A 
ATOM     10  H10 9LT d   1      10.364   6.564  -0.518  0.00  0.00     0.084 H 
ATOM     11  CAI 9LT d   1      12.928   8.505   0.551  0.00  0.00    -0.046 A 
ATOM     12  H7  9LT d   1      10.909   8.930  -0.042  0.00  0.00     0.083 H 
ATOM     13  CAU 9LT d   1      13.887   7.517   0.737  0.00  0.00     0.117 A 
ATOM     14  H9  9LT d   1      13.169   9.541   0.757  0.00  0.00     0.088 H 
ATOM     15  CAN 9LT d   1      13.587   6.188   0.463  0.00  0.00    -0.037 A 
ATOM     16  FAF 9LT d   1      15.119   7.840   1.176  0.00  0.00    -0.206 F 
ATOM     17  H14 9LT d   1      14.340   5.421   0.604  0.00  0.00     0.089 H 
ENDBRANCH   5   7
BRANCH   5  18
ATOM     18  CAX 9LT d   1      12.271   3.676   1.016  0.00  0.00     0.133 A 
ATOM     19  NAQ 9LT d   1      13.383   3.017   1.315  0.00  0.00    -0.243 NA
ATOM     20  CAH 9LT d   1      13.177   2.443   2.500  0.00  0.00     0.019 A 
ATOM     21  CAM 9LT d   1      11.949   2.757   2.920  0.00  0.00    -0.003 A 
ATOM     22  H8  9LT d   1      13.892   1.821   3.037  0.00  0.00     0.117 H 
ATOM     23  NBD 9LT d   1      11.381   3.527   1.993  0.00  0.00    -0.346 N 
ATOM     24  H13 9LT d   1      11.492   2.439   3.856  0.00  0.00     0.113 H 
BRANCH  23  25
ATOM     25  CAB 9LT d   1      10.023   4.115   2.036  0.00  0.00    -0.013 C 
ATOM     26  H4  9LT d   1       9.523   3.815   2.969  0.00  0.00     0.057 H 
ATOM     27  H5  9LT d   1       9.440   3.755   1.175  0.00  0.00     0.057 H 
ATOM     28  H6  9LT d   1      10.097   5.212   1.996  0.00  0.00     0.057 H 
ENDBRANCH  23  25
ENDBRANCH   5  18
ENDBRANCH   2   5
BRANCH   1  29
ATOM     29  CAV 9LT d   1      13.157   2.546  -3.220  0.00  0.00     0.034 A 
ATOM     30  CAK 9LT d   1      14.446   3.004  -3.508  0.00  0.00    -0.065 A 
ATOM     31  CAL 9LT d   1      15.067   2.669  -4.719  0.00  0.00    -0.054 A 
ATOM     32  H11 9LT d   1      14.970   3.623  -2.789  0.00  0.00     0.085 H 
ATOM     33  CBB 9LT d   1      14.394   1.889  -5.669  0.00  0.00     0.064 A 
ATOM     34  H12 9LT d   1      16.074   3.015  -4.922  0.00  0.00     0.087 H 
ATOM     35  CBA 9LT d   1      13.107   1.450  -5.377  0.00  0.00     0.063 A 
ATOM     36  NBE 9LT d   1      14.973   1.557  -6.848  0.00  0.00    -0.308 N 
ATOM     37  CAO 9LT d   1      12.501   1.779  -4.173  0.00  0.00    -0.040 A 
ATOM     38  NAS 9LT d   1      12.407   0.669  -6.295  0.00  0.00    -0.317 N 
ATOM     39  H15 9LT d   1      11.495   1.430  -3.972  0.00  0.00     0.088 H 
ATOM     40  CAY 9LT d   1      13.023   0.354  -7.495  0.00  0.00     0.314 A 
ATOM     41  H20 9LT d   1      11.483   0.344  -6.092  0.00  0.00     0.169 HD
ATOM     42  CAZ 9LT d   1      14.314   0.799  -7.762  0.00  0.00     0.316 A 
ATOM     43  OAD 9LT d   1      12.413  -0.327  -8.321  0.00  0.00    -0.262 OA
ATOM     44  OAE 9LT d   1      14.839   0.498  -8.842  0.00  0.00    -0.262 OA
BRANCH  36  45
ATOM     45  CAP 9LT d   1      16.334   2.050  -7.148  0.00  0.00     0.000 C 
ATOM     46  H16 9LT d   1      16.892   2.184  -6.210  0.00  0.00     0.064 H 
ATOM     47  H17 9LT d   1      16.857   1.322  -7.785  0.00  0.00     0.064 H 
BRANCH  45  48
ATOM     48  CAA 9LT d   1      16.232   3.400  -7.885  0.00  0.00    -0.061 C 
ATOM     49  H1  9LT d   1      17.242   3.772  -8.111  0.00  0.00     0.029 H 
ATOM     50  H2  9LT d   1      15.708   4.127  -7.247  0.00  0.00     0.029 H 
ATOM     51  H3  9LT d   1      15.673   3.265  -8.823  0.00  0.00     0.029 H 
ENDBRANCH  45  48
ENDBRANCH  36  45
ENDBRANCH   1  29
TORSDOF 7
