REMARK  6 active torsions:
REMARK  status: ('A' for Active; 'I' for Inactive)
REMARK    1  A    between atoms: CAS_12  and  CAA_1 
REMARK    2  A    between atoms: CAU_14  and  CAB_2 
REMARK    3  A    between atoms: CAQ_10  and  CAX_17 
REMARK       I    between atoms: NAN_20  and  CAQ_10 
REMARK    4  A    between atoms: CAT_13  and  NAN_20 
REMARK    5  A    between atoms: OAO_22  and  CAV_15 
REMARK    6  A    between atoms: CAW_16  and  OAO_22 
ROOT
ATOM      1  CAG 9LK d   1       8.376  -9.433   7.928  0.00  0.00    -0.052 A 
ATOM      2  CAJ 9LK d   1       8.578  -8.827   9.166  0.00  0.00    -0.029 A 
ATOM      3  CAK 9LK d   1      10.633 -10.185   7.951  0.00  0.00     0.031 A 
ATOM      4  CAT 9LK d   1       9.411 -10.121   7.294  0.00  0.00     0.052 A 
ATOM      5  CAW 9LK d   1       9.823  -8.899   9.787  0.00  0.00     0.169 A 
ATOM      6  NAL 9LK d   1      10.819  -9.572   9.196  0.00  0.00    -0.235 NA
ATOM      7  H9  9LK d   1       7.404  -9.369   7.452  0.00  0.00     0.087 H 
ATOM      8  H12 9LK d   1       7.764  -8.298   9.648  0.00  0.00     0.090 H 
ATOM      9  H13 9LK d   1      11.457 -10.719   7.492  0.00  0.00     0.118 H 
ENDROOT
BRANCH   4  10
ATOM     10  NAN 9LK d   1       9.319 -10.751   6.102  0.00  0.00    -0.320 N 
ATOM     11  CAQ 9LK d   1       8.249 -10.687   5.267  0.00  0.00     0.282 C 
ATOM     12  OAC 9LK d   1       7.230 -10.020   5.448  0.00  0.00    -0.265 OA
ATOM     13  H14 9LK d   1      10.098 -11.307   5.812  0.00  0.00     0.169 HD
BRANCH  11  14
ATOM     14  CAX 9LK d   1       8.426 -11.424   4.158  0.00  0.00     0.169 A 
ATOM     15  CAU 9LK d   1       7.606 -11.642   3.116  0.00  0.00     0.072 A 
ATOM     16  NAM 9LK d   1       8.213 -12.446   2.241  0.00  0.00    -0.231 NA
ATOM     17  CAS 9LK d   1       9.413 -12.719   2.748  0.00  0.00     0.142 A 
ATOM     18  OAP 9LK d   1       9.584 -12.121   3.923  0.00  0.00    -0.289 OA
BRANCH  15  19
ATOM     19  CAB 9LK d   1       6.189 -11.105   2.880  0.00  0.00    -0.033 C 
ATOM     20  H4  9LK d   1       5.808 -11.484   1.920  0.00  0.00     0.035 H 
ATOM     21  H5  9LK d   1       6.213 -10.005   2.856  0.00  0.00     0.035 H 
ATOM     22  H6  9LK d   1       5.529 -11.440   3.694  0.00  0.00     0.035 H 
ENDBRANCH  15  19
BRANCH  17  23
ATOM     23  CAA 9LK d   1      10.462 -13.612   2.091  0.00  0.00    -0.015 C 
ATOM     24  H1  9LK d   1      10.078 -13.982   1.129  0.00  0.00     0.038 H 
ATOM     25  H2  9LK d   1      10.683 -14.464   2.750  0.00  0.00     0.038 H 
ATOM     26  H3  9LK d   1      11.381 -13.033   1.920  0.00  0.00     0.038 H 
ENDBRANCH  17  23
ENDBRANCH  11  14
ENDBRANCH   4  10
BRANCH   5  27
ATOM     27  OAO 9LK d   1      10.055  -8.335  11.010  0.00  0.00    -0.292 OA
BRANCH  27  28
ATOM     28  CAV 9LK d   1       9.757  -7.020  11.220  0.00  0.00     0.078 A 
ATOM     29  CAH 9LK d   1       9.250  -6.657  12.463  0.00  0.00    -0.049 A 
ATOM     30  CAE 9LK d   1       8.941  -5.332  12.739  0.00  0.00    -0.059 A 
ATOM     31  H10 9LK d   1       9.095  -7.415  13.223  0.00  0.00     0.087 H 
ATOM     32  CAR 9LK d   1       9.149  -4.357  11.774  0.00  0.00     0.034 A 
ATOM     33  H7  9LK d   1       8.538  -5.059  13.707  0.00  0.00     0.086 H 
ATOM     34  CAF 9LK d   1       9.665  -4.713  10.532  0.00  0.00    -0.059 A 
ATOM     35 CL   9LK d   1       8.765  -2.705  12.128  0.00  0.00    -0.084 Cl
ATOM     36  CAI 9LK d   1       9.974  -6.042  10.253  0.00  0.00    -0.049 A 
ATOM     37  H8  9LK d   1       9.827  -3.952   9.777  0.00  0.00     0.086 H 
ATOM     38  H11 9LK d   1      10.382  -6.314   9.286  0.00  0.00     0.087 H 
ENDBRANCH  27  28
ENDBRANCH   5  27
TORSDOF 6
