REMARK  7 active torsions:
REMARK  status: ('A' for Active; 'I' for Inactive)
REMARK    1  A    between atoms: S_12  and  C_7 
REMARK    2  A    between atoms: B_25  and  O2_10 
REMARK    3  A    between atoms: N1_15  and  S_12 
REMARK    4  A    between atoms: C12_22  and  N2_18 
REMARK    5  A    between atoms: C13_23  and  C12_22 
REMARK    6  A    between atoms: C18_24  and  B_25 
REMARK    7  A    between atoms: B_25  and  O1_26 
ROOT
ATOM      1  N1  9LQ d   1      -7.124  12.147  -8.859  0.00  0.00    -0.305 N 
ATOM      2  C20 9LQ d   1      -6.637  13.189  -7.937  0.00  0.00     0.028 C 
ATOM      3  C19 9LQ d   1      -5.223  13.039  -7.681  0.00  0.00     0.099 C 
ATOM      4  N2  9LQ d   1      -4.352  13.488  -8.767  0.00  0.00    -0.066 N 
ATOM      5  C11 9LQ d   1      -4.628  12.861 -10.062  0.00  0.00     0.085 C 
ATOM      6  C10 9LQ d   1      -5.920  13.250 -10.767  0.00  0.00    -0.027 C 
ATOM      7  C9  9LQ d   1      -7.149  12.478 -10.299  0.00  0.00     0.007 C 
ATOM      8  H9  9LQ d   1      -7.184  13.111  -6.986  0.00  0.00     0.067 H 
ATOM      9  H10 9LQ d   1      -6.818  14.177  -8.384  0.00  0.00     0.067 H 
ATOM     10  H11 9LQ d   1      -5.020  11.974  -7.497  0.00  0.00     0.078 H 
ATOM     11  H12 9LQ d   1      -4.975  13.620  -6.781  0.00  0.00     0.078 H 
ATOM     12  H13 9LQ d   1      -4.669  14.433  -8.915  0.00  0.00     0.280 HD
ATOM     13  H14 9LQ d   1      -4.654  11.773  -9.903  0.00  0.00     0.076 H 
ATOM     14  H15 9LQ d   1      -3.796  13.114 -10.735  0.00  0.00     0.076 H 
ATOM     15  H16 9LQ d   1      -5.791  13.072 -11.845  0.00  0.00     0.037 H 
ATOM     16  H17 9LQ d   1      -6.099  14.321 -10.591  0.00  0.00     0.037 H 
ATOM     17  H18 9LQ d   1      -8.041  13.089 -10.501  0.00  0.00     0.065 H 
ATOM     18  H19 9LQ d   1      -7.210  11.540 -10.871  0.00  0.00     0.065 H 
ENDROOT
BRANCH   4  19
ATOM     19  C12 9LQ d   1      -2.932  13.696  -8.440  0.00  0.00     0.107 C 
ATOM     20  H20 9LQ d   1      -2.483  14.327  -9.222  0.00  0.00     0.083 H 
ATOM     21  H21 9LQ d   1      -2.431  12.717  -8.426  0.00  0.00     0.083 H 
BRANCH  19  22
ATOM     22  C13 9LQ d   1      -2.714  14.364  -7.103  0.00  0.00    -0.035 A 
ATOM     23  C18 9LQ d   1      -2.986  15.734  -6.888  0.00  0.00    -0.064 A 
ATOM     24  C17 9LQ d   1      -2.739  16.255  -5.611  0.00  0.00    -0.085 A 
ATOM     25  C16 9LQ d   1      -2.284  15.458  -4.578  0.00  0.00    -0.083 A 
ATOM     26  H25 9LQ d   1      -2.909  17.310  -5.429  0.00  0.00     0.082 H 
ATOM     27  C15 9LQ d   1      -2.044  14.123  -4.793  0.00  0.00    -0.082 A 
ATOM     28  H26 9LQ d   1      -2.116  15.887  -3.597  0.00  0.00     0.083 H 
ATOM     29  C14 9LQ d   1      -2.244  13.579  -6.047  0.00  0.00    -0.076 A 
ATOM     30  H27 9LQ d   1      -1.698  13.496  -3.979  0.00  0.00     0.083 H 
ATOM     31  H28 9LQ d   1      -2.033  12.529  -6.214  0.00  0.00     0.084 H 
BRANCH  23  32
ATOM     32  B   9LQ d   1      -3.647  16.712  -7.940  0.00  0.00     0.360 B 
BRANCH  32  33
ATOM     33  O2  9LQ d   1      -4.610  16.200  -8.752  0.00  0.00     0.000 OA
ATOM     34  H5  9LQ d   1      -4.357  16.325  -9.659  0.00  0.00     0.000 HD
ATOM     35  H6  9LQ d   1      -4.357  16.325  -9.659  0.00  0.00     0.000 HD
ENDBRANCH  32  33
BRANCH  32  36
ATOM     36  O1  9LQ d   1      -3.335  18.039  -8.026  0.00  0.00    -0.463 OA
ATOM     37  H24 9LQ d   1      -4.107  18.558  -7.833  0.00  0.00     0.182 HD
ENDBRANCH  32  36
ENDBRANCH  23  32
ENDBRANCH  19  22
ENDBRANCH   4  19
BRANCH   1  38
ATOM     38  S   9LQ d   1      -8.069  10.993  -8.184  0.00  0.00     0.261 S 
ATOM     39  O   9LQ d   1      -7.418  10.579  -6.982  0.00  0.00    -0.200 OA
ATOM     40  O3  9LQ d   1      -8.334  10.034  -9.212  0.00  0.00    -0.200 OA
BRANCH  38  41
ATOM     41  C   9LQ d   1      -9.608  11.732  -7.744  0.00  0.00     0.090 A 
ATOM     42  C1  9LQ d   1      -9.732  13.089  -7.868  0.00  0.00    -0.059 A 
ATOM     43  C2  9LQ d   1     -10.945  13.706  -7.618  0.00  0.00    -0.081 A 
ATOM     44  H1  9LQ d   1      -8.875  13.684  -8.164  0.00  0.00     0.085 H 
ATOM     45  C3  9LQ d   1     -12.038  12.973  -7.262  0.00  0.00    -0.071 A 
ATOM     46  H2  9LQ d   1     -11.027  14.783  -7.706  0.00  0.00     0.083 H 
ATOM     47  C4  9LQ d   1     -11.951  11.568  -7.118  0.00  0.00    -0.007 A 
ATOM     48  H3  9LQ d   1     -12.984  13.472  -7.087  0.00  0.00     0.084 H 
ATOM     49  C5  9LQ d   1     -10.709  10.923  -7.339  0.00  0.00     0.000 A 
ATOM     50  C8  9LQ d   1     -13.063  10.746  -6.844  0.00  0.00     0.013 A 
ATOM     51  C6  9LQ d   1     -10.672   9.515  -7.234  0.00  0.00    -0.054 A 
ATOM     52  C7  9LQ d   1     -11.819   8.840  -6.957  0.00  0.00     0.003 A 
ATOM     53  H4  9LQ d   1      -9.740   8.979  -7.373  0.00  0.00     0.087 H 
ATOM     54  N   9LQ d   1     -13.011   9.428  -6.766  0.00  0.00    -0.272 NA
ATOM     55  H7  9LQ d   1     -11.768   7.760  -6.886  0.00  0.00     0.114 H 
ATOM     56  H8  9LQ d   1     -14.022  11.226  -6.687  0.00  0.00     0.116 H 
ENDBRANCH  38  41
ENDBRANCH   1  38
TORSDOF 7
