REMARK  4 active torsions:
REMARK  status: ('A' for Active; 'I' for Inactive)
REMARK    1  A    between atoms: C6_6  and  C5_5 
REMARK    2  A    between atoms: C7_7  and  C6_6 
REMARK    3  A    between atoms: N1_21  and  C11_9 
REMARK    4  A    between atoms: C10_19  and  C9_17 
REMARK       I    between atoms: C10_19  and  N1_21 
ROOT
ATOM      1  C7  MOL d   1      41.068  -1.056  12.040  0.00  0.00     0.033 A 
ATOM      2  C8  MOL d   1      40.964  -1.278  13.406  0.00  0.00    -0.009 A 
ATOM      3  C16 MOL d   1      42.460  -0.984  11.750  0.00  0.00    -0.037 A 
ATOM      4  C9  MOL d   1      43.140  -1.190  12.930  0.00  0.00     0.101 A 
ATOM      5  N   MOL d   1      42.206  -1.358  13.924  0.00  0.00    -0.361 N 
ATOM      6  H4  MOL d   1      40.035  -1.372  13.966  0.00  0.00     0.112 H 
ATOM      7  H7  MOL d   1      42.906  -0.800  10.774  0.00  0.00     0.088 H 
ATOM      8  H8  MOL d   1      42.423  -1.521  14.918  0.00  0.00     0.165 HD
ENDROOT
BRANCH   4   9
ATOM      9  C10 MOL d   1      44.585  -1.269  13.265  0.00  0.00     0.272 C 
ATOM     10  O   MOL d   1      44.951  -1.363  14.433  0.00  0.00    -0.266 OA
ATOM     11  N1  MOL d   1      45.437  -1.131  12.217  0.00  0.00    -0.320 N 
ATOM     12  H9  MOL d   1      45.013  -0.906  11.340  0.00  0.00     0.169 HD
BRANCH  11  13
ATOM     13  C11 MOL d   1      46.850  -1.263  12.201  0.00  0.00     0.052 A 
ATOM     14  C12 MOL d   1      47.530  -1.934  11.195  0.00  0.00    -0.054 A 
ATOM     15  C13 MOL d   1      48.876  -2.208  11.357  0.00  0.00    -0.064 A 
ATOM     16  H5  MOL d   1      47.013  -2.240  10.293  0.00  0.00     0.087 H 
ATOM     17  C14 MOL d   1      49.499  -1.792  12.518  0.00  0.00     0.002 A 
ATOM     18  H11 MOL d   1      49.430  -2.737  10.590  0.00  0.00     0.085 H 
ATOM     19  N2  MOL d   1      48.874  -1.117  13.492  0.00  0.00    -0.271 NA
ATOM     20  H10 MOL d   1      50.550  -2.024  12.648  0.00  0.00     0.114 H 
ATOM     21  C15 MOL d   1      47.575  -0.845  13.317  0.00  0.00     0.028 A 
ATOM     22  H6  MOL d   1      47.061  -0.272  14.080  0.00  0.00     0.118 H 
ENDBRANCH  11  13
ENDBRANCH   4   9
BRANCH   1  23
ATOM     23  C6  MOL d   1      39.974  -1.047  11.061  0.00  0.00     0.198 C 
ATOM     24  O1  MOL d   1      38.841  -1.391  11.376  0.00  0.00    -0.286 OA
BRANCH  23  25
ATOM     25  C5  MOL d   1      40.265  -0.683   9.640  0.00  0.00     0.071 A 
ATOM     26  C4  MOL d   1      40.715   0.584   9.274  0.00  0.00     0.132 A 
ATOM     27  C3  MOL d   1      40.972   0.957   7.981  0.00  0.00    -0.045 A 
ATOM     28  F   MOL d   1      40.976   1.480  10.257  0.00  0.00    -0.205 F 
ATOM     29  C2  MOL d   1      40.814   0.018   6.977  0.00  0.00    -0.079 A 
ATOM     30  H3  MOL d   1      41.292   1.966   7.749  0.00  0.00     0.088 H 
ATOM     31  C1  MOL d   1      40.396  -1.266   7.275  0.00  0.00    -0.065 A 
ATOM     32  H2  MOL d   1      41.020   0.291   5.948  0.00  0.00     0.083 H 
ATOM     33  C   MOL d   1      40.114  -1.606   8.584  0.00  0.00     0.028 A 
ATOM     34  H1  MOL d   1      40.290  -2.002   6.486  0.00  0.00     0.085 H 
ATOM     35 BR   MOL d   1      39.486  -3.365   8.888  0.00  0.00    -0.050 Br
ENDBRANCH  23  25
ENDBRANCH   1  23
TORSDOF 4
