REMARK  6 active torsions:
REMARK  status: ('A' for Active; 'I' for Inactive)
REMARK    1  A    between atoms: C14_5  and  C16_7 
REMARK    2  A    between atoms: C02_9  and  C01_8 
REMARK    3  A    between atoms: C03_10  and  C02_9 
REMARK    4  A    between atoms: C03_10  and  C04_11 
REMARK    5  A    between atoms: C05_12  and  C03_10 
REMARK    6  A    between atoms: C04_11  and  S01_21 
REMARK       I    between atoms: C05_12  and  N01_17 
ROOT
ATOM      1  C03 MOL d   1      74.445   8.612  59.434  0.00  0.00     0.035 C 
ATOM      2  H13 MOL d   1      75.129   8.106  60.132  0.00  0.00     0.056 H 
ENDROOT
BRANCH   1   3
ATOM      3  C02 MOL d   1      73.490   9.396  60.343  0.00  0.00    -0.029 C 
ATOM      4  H11 MOL d   1      72.856   8.688  60.897  0.00  0.00     0.041 H 
ATOM      5  H12 MOL d   1      74.078   9.995  61.054  0.00  0.00     0.041 H 
BRANCH   3   6
ATOM      6  C01 MOL d   1      72.602  10.325  59.520  0.00  0.00    -0.057 A 
ATOM      7  C10 MOL d   1      72.734  10.373  58.142  0.00  0.00    -0.077 A 
ATOM      8  C09 MOL d   1      71.926  11.216  57.397  0.00  0.00    -0.082 A 
ATOM      9  H1  MOL d   1      73.470   9.751  57.646  0.00  0.00     0.084 H 
ATOM     10  C08 MOL d   1      70.985  12.010  58.030  0.00  0.00    -0.083 A 
ATOM     11  H19 MOL d   1      72.030  11.254  56.319  0.00  0.00     0.083 H 
ATOM     12  C07 MOL d   1      70.851  11.963  59.407  0.00  0.00    -0.082 A 
ATOM     13  H18 MOL d   1      70.352  12.669  57.447  0.00  0.00     0.083 H 
ATOM     14  C06 MOL d   1      71.659  11.119  60.152  0.00  0.00    -0.077 A 
ATOM     15  H17 MOL d   1      70.115  12.586  59.902  0.00  0.00     0.083 H 
ATOM     16  H16 MOL d   1      71.553  11.080  61.230  0.00  0.00     0.084 H 
ENDBRANCH   3   6
ENDBRANCH   1   3
BRANCH   1  17
ATOM     17  C04 MOL d   1      75.396   9.448  58.546  0.00  0.00    -0.014 C 
ATOM     18  H14 MOL d   1      76.433   9.144  58.754  0.00  0.00     0.049 H 
ATOM     19  H15 MOL d   1      75.268  10.512  58.795  0.00  0.00     0.049 H 
BRANCH  17  20
ATOM     20  S01 MOL d   1      75.065   9.219  56.772  0.00  0.00    -0.181 SA
ATOM     21  H20 MOL d   1      75.707   9.782  56.236  0.00  0.00     0.101 HD
ENDBRANCH  17  20
ENDBRANCH   1  17
BRANCH   1  22
ATOM     22  C05 MOL d   1      73.729   7.502  58.746  0.00  0.00     0.225 C 
ATOM     23  N01 MOL d   1      74.240   6.147  58.610  0.00  0.00    -0.337 N 
ATOM     24  C13 MOL d   1      75.494   5.883  59.190  0.00  0.00    -0.001 C 
ATOM     25  C14 MOL d   1      73.572   5.011  57.906  0.00  0.00     0.098 C 
ATOM     26  C12 MOL d   1      75.746   4.519  59.787  0.00  0.00    -0.050 C 
ATOM     27  H6  MOL d   1      76.251   6.039  58.408  0.00  0.00     0.064 H 
ATOM     28  H7  MOL d   1      75.640   6.620  59.994  0.00  0.00     0.064 H 
ATOM     29  C11 MOL d   1      75.086   3.346  59.122  0.00  0.00    -0.061 C 
ATOM     30  H4  MOL d   1      76.832   4.344  59.765  0.00  0.00     0.035 H 
ATOM     31  H5  MOL d   1      75.400   4.546  60.831  0.00  0.00     0.035 H 
ATOM     32  C15 MOL d   1      73.660   3.710  58.710  0.00  0.00    -0.036 C 
ATOM     33  H2  MOL d   1      75.057   2.499  59.823  0.00  0.00     0.033 H 
ATOM     34  H3  MOL d   1      75.662   3.063  58.228  0.00  0.00     0.033 H 
ATOM     35  H9  MOL d   1      73.052   3.821  59.620  0.00  0.00     0.036 H 
ATOM     36  H10 MOL d   1      73.255   2.892  58.096  0.00  0.00     0.036 H 
ATOM     37  H8  MOL d   1      72.510   5.262  57.770  0.00  0.00     0.089 H 
ATOM     38  O01 MOL d   1      72.728   7.819  58.284  0.00  0.00    -0.273 OA
BRANCH  25  39
ATOM     39  C16 MOL d   1      74.215   4.821  56.532  0.00  0.00     0.196 C 
ATOM     40  O02 MOL d   1      74.689   3.700  56.208  0.00  0.00    -0.646 OA
ATOM     41  O03 MOL d   1      74.271   5.785  55.724  0.00  0.00    -0.646 OA
ENDBRANCH  25  39
ENDBRANCH   1  22
TORSDOF 6
