REMARK  8 active torsions:
REMARK  status: ('A' for Active; 'I' for Inactive)
REMARK    1  A    between atoms: C2_2  and  C1_1 
REMARK    2  A    between atoms: C1_1  and  C_32 
REMARK       I    between atoms: N_30  and  C2_2 
REMARK    3  A    between atoms: C16_10  and  O1_4 
REMARK    4  A    between atoms: O1_4  and  C17_11 
REMARK    5  A    between atoms: N4_19  and  C14_8 
REMARK    6  A    between atoms: C18_12  and  C20_14 
REMARK    7  A    between atoms: N1_26  and  C7_25 
REMARK    8  A    between atoms: C5_27  and  N1_26 
ROOT
ATOM      1  C11 9NQ d   1       8.275 -29.111 -25.877  0.00  0.00     0.001 C 
ATOM      2  C12 9NQ d   1       7.640 -31.121 -24.434  0.00  0.00     0.024 C 
ATOM      3  C13 9NQ d   1       6.236 -30.891 -24.943  0.00  0.00     0.030 A 
ATOM      4  N4  9NQ d   1       8.554 -30.005 -24.746  0.00  0.00    -0.375 N 
ATOM      5  C10 9NQ d   1       6.851 -28.598 -25.825  0.00  0.00    -0.009 C 
ATOM      6  C9  9NQ d   1       5.872 -29.723 -25.633  0.00  0.00     0.049 A 
ATOM      7  N3  9NQ d   1       4.652 -29.532 -26.160  0.00  0.00    -0.246 NA
ATOM      8  C8  9NQ d   1       3.772 -30.520 -25.977  0.00  0.00     0.089 A 
ATOM      9  N2  9NQ d   1       3.953 -31.686 -25.351  0.00  0.00    -0.224 NA
ATOM     10  C7  9NQ d   1       5.194 -31.874 -24.845  0.00  0.00     0.135 A 
ATOM     11  H5  9NQ d   1       8.425 -29.663 -26.817  0.00  0.00     0.064 H 
ATOM     12  H6  9NQ d   1       8.967 -28.256 -25.839  0.00  0.00     0.064 H 
ATOM     13  H7  9NQ d   1       8.035 -32.038 -24.896  0.00  0.00     0.071 H 
ATOM     14  H8  9NQ d   1       7.601 -31.248 -23.342  0.00  0.00     0.071 H 
ATOM     15  H14 9NQ d   1       6.622 -28.081 -26.768  0.00  0.00     0.044 H 
ATOM     16  H15 9NQ d   1       6.755 -27.892 -24.987  0.00  0.00     0.044 H 
ATOM     17  H16 9NQ d   1       2.783 -30.354 -26.390  0.00  0.00     0.146 H 
ENDROOT
BRANCH  10  18
ATOM     18  N1  9NQ d   1       5.460 -33.079 -24.277  0.00  0.00    -0.368 N 
ATOM     19  H17 9NQ d   1       6.411 -33.221 -23.908  0.00  0.00     0.161 HD
BRANCH  18  20
ATOM     20  C5  9NQ d   1       4.522 -34.195 -24.140  0.00  0.00     0.028 C 
ATOM     21  C4  9NQ d   1       5.226 -35.448 -23.669  0.00  0.00    -0.030 C 
ATOM     22  C3  9NQ d   1       5.226 -35.284 -22.160  0.00  0.00    -0.001 C 
ATOM     23  H19 9NQ d   1       4.673 -36.350 -23.970  0.00  0.00     0.038 H 
ATOM     24  H20 9NQ d   1       6.252 -35.498 -24.062  0.00  0.00     0.038 H 
ATOM     25  N   9NQ d   1       3.937 -34.636 -21.896  0.00  0.00    -0.350 N 
ATOM     26  H3  9NQ d   1       6.062 -34.649 -21.832  0.00  0.00     0.064 H 
ATOM     27  H4  9NQ d   1       5.288 -36.260 -21.657  0.00  0.00     0.064 H 
ATOM     28  C2  9NQ d   1       3.377 -34.623 -20.664  0.00  0.00     0.219 C 
ATOM     29  C6  9NQ d   1       3.409 -34.011 -23.113  0.00  0.00     0.016 C 
ATOM     30  O   9NQ d   1       3.946 -35.110 -19.698  0.00  0.00    -0.273 OA
ATOM     31  H21 9NQ d   1       2.487 -34.514 -23.442  0.00  0.00     0.067 H 
ATOM     32  H22 9NQ d   1       3.204 -32.943 -22.946  0.00  0.00     0.067 H 
ATOM     33  H18 9NQ d   1       4.070 -34.368 -25.128  0.00  0.00     0.075 H 
BRANCH  28  34
ATOM     34  C1  9NQ d   1       2.021 -33.970 -20.493  0.00  0.00     0.006 C 
ATOM     35  H1  9NQ d   1       1.244 -34.740 -20.610  0.00  0.00     0.046 H 
ATOM     36  H2  9NQ d   1       1.900 -33.205 -21.274  0.00  0.00     0.046 H 
BRANCH  34  37
ATOM     37  C   9NQ d   1       1.849 -33.319 -19.157  0.00  0.00    -0.068 C 
ATOM     38  H23 9NQ d   1       0.849 -32.865 -19.096  0.00  0.00     0.028 H 
ATOM     39  H24 9NQ d   1       2.614 -32.539 -19.028  0.00  0.00     0.028 H 
ATOM     40  H25 9NQ d   1       1.958 -34.074 -18.364  0.00  0.00     0.028 H 
ENDBRANCH  34  37
ENDBRANCH  28  34
ENDBRANCH  18  20
ENDBRANCH  10  18
BRANCH   4  41
ATOM     41  C14 9NQ d   1       9.726 -29.836 -24.027  0.00  0.00     0.049 A 
ATOM     42  C15 9NQ d   1      10.882 -29.376 -24.654  0.00  0.00     0.030 A 
ATOM     43  N5  9NQ d   1      12.057 -29.270 -24.019  0.00  0.00    -0.234 NA
ATOM     44  H9  9NQ d   1      10.829 -29.092 -25.699  0.00  0.00     0.118 H 
ATOM     45  C16 9NQ d   1      12.094 -29.613 -22.741  0.00  0.00     0.179 A 
ATOM     46  C18 9NQ d   1      11.000 -30.068 -21.989  0.00  0.00     0.102 A 
ATOM     47  C19 9NQ d   1       9.798 -30.185 -22.678  0.00  0.00    -0.037 A 
ATOM     48  H13 9NQ d   1       8.915 -30.548 -22.166  0.00  0.00     0.088 H 
BRANCH  45  49
ATOM     49  O1  9NQ d   1      13.235 -29.554 -22.022  0.00  0.00    -0.339 OA
BRANCH  49  50
ATOM     50  C17 9NQ d   1      14.395 -29.020 -22.658  0.00  0.00     0.012 C 
ATOM     51  H10 9NQ d   1      15.240 -29.036 -21.953  0.00  0.00     0.067 H 
ATOM     52  H11 9NQ d   1      14.198 -27.984 -22.970  0.00  0.00     0.067 H 
ATOM     53  H12 9NQ d   1      14.642 -29.628 -23.541  0.00  0.00     0.067 H 
ENDBRANCH  49  50
ENDBRANCH  45  49
BRANCH  46  54
ATOM     54  C20 9NQ d   1      10.983 -30.355 -20.512  0.00  0.00     0.421 C 
ATOM     55  F2  9NQ d   1      11.708 -29.488 -19.824  0.00  0.00    -0.166 F 
ATOM     56  F   9NQ d   1       9.765 -30.279 -19.984  0.00  0.00    -0.166 F 
ATOM     57  F1  9NQ d   1      11.455 -31.564 -20.222  0.00  0.00    -0.166 F 
ENDBRANCH  46  54
ENDBRANCH   4  41
TORSDOF 8
