REMARK  0 active torsions:
REMARK  status: ('A' for Active; 'I' for Inactive)
ROOT
ATOM      1  CAV SY9 d   1      12.122   4.025 -29.167  0.00  0.00     0.118 C 
ATOM      2  CAU SY9 d   1      10.892   3.651 -29.977  0.00  0.00    -0.030 C 
ATOM      3  CAT SY9 d   1       9.748   4.602 -29.597  0.00  0.00    -0.021 C 
ATOM      4  CAN SY9 d   1      10.137   5.985 -30.148  0.00  0.00    -0.000 C 
ATOM      5  CAK SY9 d   1      11.454   6.511 -29.577  0.00  0.00     0.040 C 
ATOM      6  NAH SY9 d   1      11.984   7.468 -30.582  0.00  0.00    -0.311 N 
ATOM      7  CAA SY9 d   1      13.135   6.908 -31.204  0.00  0.00     0.044 A 
ATOM      8  CAF SY9 d   1      13.887   7.395 -32.268  0.00  0.00    -0.056 A 
ATOM      9  CAE SY9 d   1      15.007   6.682 -32.670  0.00  0.00    -0.081 A 
ATOM     10  CAD SY9 d   1      15.354   5.497 -32.044  0.00  0.00    -0.082 A 
ATOM     11  CAC SY9 d   1      14.598   5.013 -30.991  0.00  0.00    -0.074 A 
ATOM     12  CAB SY9 d   1      13.491   5.730 -30.559  0.00  0.00    -0.018 A 
ATOM     13  CAG SY9 d   1      12.604   5.484 -29.371  0.00  0.00     0.041 C 
ATOM     14  CAW SY9 d   1      13.330   5.745 -28.044  0.00  0.00    -0.027 C 
ATOM     15  CAX SY9 d   1      12.395   5.100 -27.036  0.00  0.00     0.085 C 
ATOM     16  NAY SY9 d   1      11.877   3.888 -27.703  0.00  0.00    -0.062 N 
ATOM     17  CAS SY9 d   1      10.470   3.622 -27.375  0.00  0.00     0.104 C 
ATOM     18  CAR SY9 d   1       9.532   4.555 -28.096  0.00  0.00    -0.051 C 
ATOM     19  CAQ SY9 d   1       8.636   5.304 -27.477  0.00  0.00    -0.076 C 
ATOM     20  CAP SY9 d   1       7.797   6.305 -28.208  0.00  0.00     0.035 C 
ATOM     21  OAO SY9 d   1       8.605   7.365 -28.753  0.00  0.00    -0.381 OA
ATOM     22  CAM SY9 d   1       9.117   7.122 -30.066  0.00  0.00     0.053 C 
ATOM     23  CAL SY9 d   1       9.763   8.445 -30.484  0.00  0.00     0.034 C 
ATOM     24  CAI SY9 d   1      11.117   8.366 -31.144  0.00  0.00     0.227 C 
ATOM     25  OAJ SY9 d   1      11.403   9.040 -32.119  0.00  0.00    -0.273 OA
ATOM     26  H1  SY9 d   1      12.932   3.343 -29.464  0.00  0.00     0.086 H 
ATOM     27  H2  SY9 d   1      10.602   2.614 -29.753  0.00  0.00     0.037 H 
ATOM     28  H3  SY9 d   1      11.112   3.746 -31.050  0.00  0.00     0.037 H 
ATOM     29  H4  SY9 d   1       8.817   4.278 -30.085  0.00  0.00     0.048 H 
ATOM     30  H5  SY9 d   1      10.304   5.816 -31.222  0.00  0.00     0.048 H 
ATOM     31  H6  SY9 d   1      11.247   7.012 -28.620  0.00  0.00     0.076 H 
ATOM     32  H7  SY9 d   1      13.604   8.312 -32.772  0.00  0.00     0.086 H 
ATOM     33  H8  SY9 d   1      15.617   7.057 -33.483  0.00  0.00     0.083 H 
ATOM     34  H9  SY9 d   1      16.224   4.945 -32.381  0.00  0.00     0.083 H 
ATOM     35  H10 SY9 d   1      14.868   4.081 -30.507  0.00  0.00     0.084 H 
ATOM     36  H11 SY9 d   1      13.439   6.823 -27.854  0.00  0.00     0.037 H 
ATOM     37  H12 SY9 d   1      14.321   5.268 -28.031  0.00  0.00     0.037 H 
ATOM     38  H13 SY9 d   1      11.570   5.783 -26.784  0.00  0.00     0.076 H 
ATOM     39  H14 SY9 d   1      12.942   4.832 -26.120  0.00  0.00     0.076 H 
ATOM     40  H15 SY9 d   1      12.411   3.099 -27.373  0.00  0.00     0.280 HD
ATOM     41  H16 SY9 d   1      10.329   3.746 -26.291  0.00  0.00     0.083 H 
ATOM     42  H17 SY9 d   1      10.229   2.587 -27.660  0.00  0.00     0.083 H 
ATOM     43  H18 SY9 d   1       8.504   5.189 -26.402  0.00  0.00     0.080 H 
ATOM     44  H19 SY9 d   1       7.064   6.736 -27.511  0.00  0.00     0.080 H 
ATOM     45  H20 SY9 d   1       7.269   5.799 -29.029  0.00  0.00     0.080 H 
ATOM     46  H21 SY9 d   1       8.282   6.881 -30.740  0.00  0.00     0.084 H 
ATOM     47  H22 SY9 d   1       9.870   9.063 -29.580  0.00  0.00     0.051 H 
ATOM     48  H23 SY9 d   1       9.079   8.941 -31.188  0.00  0.00     0.051 H 
ENDROOT
TORSDOF 0
