REMARK  13 active torsions:
REMARK  status: ('A' for Active; 'I' for Inactive)
REMARK    1  A    between atoms: O1_1  and  C1_3 
REMARK    2  A    between atoms: C2_4  and  O1_1 
REMARK    3  A    between atoms: C4_6  and  N1_7 
REMARK    4  A    between atoms: N2_10  and  C7_11 
REMARK    5  A    between atoms: N3_17  and  C12_16 
REMARK    6  A    between atoms: C13_18  and  N3_17 
REMARK    7  A    between atoms: N5_26  and  C20_27 
REMARK    8  A    between atoms: C21_29  and  C22_30 
REMARK       I    between atoms: C22_30  and  N7_31 
REMARK    9  A    between atoms: N7_31  and  C23_32 
REMARK   10  A    between atoms: C24_33  and  C25_34 
REMARK   11  A    between atoms: C25_34  and  C26_35 
REMARK   12  A    between atoms: C30_39  and  C31_40 
REMARK   13  A    between atoms: C31_40  and  C32_41 
ROOT
ATOM      1  C13 C5N d   1      -0.579 -10.408 -18.474  0.00  0.00     0.727 A 
ATOM      2  N4  C5N d   1      -0.685 -10.293 -19.817  0.00  0.00    -0.074 NA
ATOM      3  C14 C5N d   1      -0.127 -11.248 -20.547  0.00  0.00     0.033 A 
ATOM      4  C15 C5N d   1       0.575 -12.367 -19.942  0.00  0.00     0.014 A 
ATOM      5  C16 C5N d   1       1.186 -13.482 -20.759  0.00  0.00    -0.068 C 
ATOM      6  C17 C5N d   1       2.180 -14.405 -20.074  0.00  0.00    -0.067 C 
ATOM      7  C18 C5N d   1       2.000 -14.477 -18.585  0.00  0.00     0.031 A 
ATOM      8  C19 C5N d   1       1.300 -13.512 -17.894  0.00  0.00     0.095 A 
ATOM      9  N5  C5N d   1       1.338 -13.845 -16.579  0.00  0.00    -0.270 N 
ATOM     10  N6  C5N d   1       2.065 -14.991 -16.416  0.00  0.00    -0.166 NA
ATOM     11  C21 C5N d   1       2.474 -15.369 -17.640  0.00  0.00     0.157 A 
ATOM     12  C33 C5N d   1       0.635 -12.399 -18.551  0.00  0.00     0.117 A 
ATOM     13  N8  C5N d   1       0.055 -11.420 -17.824  0.00  0.00    -0.060 NA
ATOM     14  H20 C5N d   1      -0.196 -11.193 -21.627  0.00  0.00     0.117 H 
ATOM     15  H21 C5N d   1       0.923 -13.619 -21.802  0.00  0.00     0.085 H 
ATOM     16  H22 C5N d   1       2.945 -14.958 -20.608  0.00  0.00     0.085 H 
ENDROOT
BRANCH   1  17
ATOM     17  N3  C5N d   1      -1.155  -9.454 -17.682  0.00  0.00    -0.185 N 
ATOM     18  H19 C5N d   1      -1.557  -8.647 -18.180  0.00  0.00     0.184 HD
BRANCH  17  19
ATOM     19  C12 C5N d   1      -1.275  -9.424 -16.269  0.00  0.00     0.082 A 
ATOM     20  C2  C5N d   1      -0.961  -8.234 -15.597  0.00  0.00     0.097 A 
ATOM     21  C3  C5N d   1      -1.042  -8.196 -14.209  0.00  0.00    -0.023 A 
ATOM     22  C4  C5N d   1      -1.440  -9.322 -13.485  0.00  0.00     0.033 A 
ATOM     23  H4  C5N d   1      -0.793  -7.282 -13.683  0.00  0.00     0.091 H 
ATOM     24  C10 C5N d   1      -1.742 -10.498 -14.170  0.00  0.00    -0.055 A 
ATOM     25  C11 C5N d   1      -1.666 -10.552 -15.544  0.00  0.00    -0.052 A 
ATOM     26  H17 C5N d   1      -2.040 -11.380 -13.615  0.00  0.00     0.087 H 
ATOM     27  H18 C5N d   1      -1.910 -11.472 -16.064  0.00  0.00     0.087 H 
BRANCH  20  28
ATOM     28  O1  C5N d   1      -0.575  -7.171 -16.361  0.00  0.00    -0.354 OA
BRANCH  28  29
ATOM     29  C1  C5N d   1      -1.147  -5.895 -16.088  0.00  0.00     0.010 C 
ATOM     30  H1  C5N d   1      -0.735  -5.152 -16.786  0.00  0.00     0.066 H 
ATOM     31  H2  C5N d   1      -0.909  -5.600 -15.055  0.00  0.00     0.066 H 
ATOM     32  H3  C5N d   1      -2.239  -5.948 -16.212  0.00  0.00     0.066 H 
ENDBRANCH  28  29
ENDBRANCH  20  28
BRANCH  22  33
ATOM     33  N1  C5N d   1      -1.514  -9.271 -12.077  0.00  0.00    -0.378 N 
ATOM     34  C5  C5N d   1      -0.382  -8.805 -11.275  0.00  0.00     0.018 C 
ATOM     35  C6  C5N d   1      -0.111  -9.740 -10.118  0.00  0.00     0.098 C 
ATOM     36  H5  C5N d   1      -0.609  -7.803 -10.881  0.00  0.00     0.066 H 
ATOM     37  H6  C5N d   1       0.513  -8.754 -11.913  0.00  0.00     0.066 H 
ATOM     38  N2  C5N d   1      -1.314  -9.933  -9.307  0.00  0.00    -0.072 N 
ATOM     39  H7  C5N d   1       0.683  -9.312  -9.488  0.00  0.00     0.078 H 
ATOM     40  H8  C5N d   1       0.218 -10.713 -10.511  0.00  0.00     0.078 H 
ATOM     41  C8  C5N d   1      -2.365 -10.520 -10.138  0.00  0.00     0.098 C 
ATOM     42  H9  C5N d   1      -1.627  -9.036  -8.970  0.00  0.00     0.279 HD
ATOM     43  C9  C5N d   1      -2.711  -9.639 -11.319  0.00  0.00     0.018 C 
ATOM     44  H13 C5N d   1      -3.267 -10.661  -9.524  0.00  0.00     0.078 H 
ATOM     45  H14 C5N d   1      -2.020 -11.495 -10.511  0.00  0.00     0.078 H 
ATOM     46  H15 C5N d   1      -3.401 -10.182 -11.981  0.00  0.00     0.066 H 
ATOM     47  H16 C5N d   1      -3.199  -8.724 -10.952  0.00  0.00     0.066 H 
BRANCH  38  48
ATOM     48  C7  C5N d   1      -1.031 -10.792  -8.156  0.00  0.00     0.066 C 
ATOM     49  H10 C5N d   1      -1.948 -10.923  -7.562  0.00  0.00     0.068 H 
ATOM     50  H11 C5N d   1      -0.254 -10.326  -7.533  0.00  0.00     0.068 H 
ATOM     51  H12 C5N d   1      -0.679 -11.773  -8.508  0.00  0.00     0.068 H 
ENDBRANCH  38  48
ENDBRANCH  22  33
ENDBRANCH  17  19
ENDBRANCH   1  17
BRANCH   9  52
ATOM     52  C20 C5N d   1       0.737 -13.172 -15.439  0.00  0.00     0.003 C 
ATOM     53  H23 C5N d   1       0.975 -13.726 -14.519  0.00  0.00     0.059 H 
ATOM     54  H24 C5N d   1      -0.354 -13.132 -15.571  0.00  0.00     0.059 H 
ATOM     55  H25 C5N d   1       1.136 -12.149 -15.365  0.00  0.00     0.059 H 
ENDBRANCH   9  52
BRANCH  11  56
ATOM     56  C22 C5N d   1       3.289 -16.588 -17.854  0.00  0.00     0.277 C 
ATOM     57  O2  C5N d   1       3.663 -16.890 -18.988  0.00  0.00    -0.266 OA
ATOM     58  N7  C5N d   1       3.534 -17.348 -16.753  0.00  0.00    -0.321 N 
ATOM     59  H26 C5N d   1       3.243 -16.975 -15.872  0.00  0.00     0.169 HD
BRANCH  58  60
ATOM     60  C23 C5N d   1       4.170 -18.633 -16.735  0.00  0.00     0.047 A 
ATOM     61  C24 C5N d   1       5.561 -18.692 -16.598  0.00  0.00    -0.031 A 
ATOM     62  C27 C5N d   1       6.161 -19.953 -16.596  0.00  0.00    -0.075 A 
ATOM     63  C28 C5N d   1       5.417 -21.105 -16.728  0.00  0.00    -0.082 A 
ATOM     64  H32 C5N d   1       7.237 -20.027 -16.488  0.00  0.00     0.084 H 
ATOM     65  C29 C5N d   1       4.049 -21.022 -16.866  0.00  0.00    -0.075 A 
ATOM     66  H33 C5N d   1       5.906 -22.072 -16.723  0.00  0.00     0.083 H 
ATOM     67  C30 C5N d   1       3.391 -19.790 -16.875  0.00  0.00    -0.031 A 
ATOM     68  H34 C5N d   1       3.470 -21.933 -16.970  0.00  0.00     0.084 H 
BRANCH  61  69
ATOM     69  C25 C5N d   1       6.415 -17.455 -16.447  0.00  0.00    -0.042 C 
ATOM     70  H27 C5N d   1       5.939 -16.638 -17.008  0.00  0.00     0.039 H 
ATOM     71  H28 C5N d   1       7.405 -17.666 -16.877  0.00  0.00     0.039 H 
BRANCH  69  72
ATOM     72  C26 C5N d   1       6.607 -16.999 -15.024  0.00  0.00    -0.073 C 
ATOM     73  H29 C5N d   1       7.238 -16.098 -15.010  0.00  0.00     0.028 H 
ATOM     74  H30 C5N d   1       7.095 -17.797 -14.446  0.00  0.00     0.028 H 
ATOM     75  H31 C5N d   1       5.628 -16.769 -14.578  0.00  0.00     0.028 H 
ENDBRANCH  69  72
ENDBRANCH  61  69
BRANCH  67  76
ATOM     76  C31 C5N d   1       1.887 -19.755 -17.020  0.00  0.00    -0.042 C 
ATOM     77  H35 C5N d   1       1.590 -20.564 -17.704  0.00  0.00     0.039 H 
ATOM     78  H36 C5N d   1       1.607 -18.785 -17.456  0.00  0.00     0.039 H 
BRANCH  76  79
ATOM     79  C32 C5N d   1       1.122 -19.928 -15.726  0.00  0.00    -0.073 C 
ATOM     80  H37 C5N d   1       0.042 -19.889 -15.931  0.00  0.00     0.028 H 
ATOM     81  H38 C5N d   1       1.393 -19.121 -15.029  0.00  0.00     0.028 H 
ATOM     82  H39 C5N d   1       1.375 -20.900 -15.277  0.00  0.00     0.028 H 
ENDBRANCH  76  79
ENDBRANCH  67  76
ENDBRANCH  58  60
ENDBRANCH  11  56
TORSDOF 13
