REMARK  12 active torsions:
REMARK  status: ('A' for Active; 'I' for Inactive)
REMARK    1  A    between atoms: C01_6  and  C38_38 
REMARK    2  A    between atoms: C03_8  and  C32_32 
REMARK    3  A    between atoms: C10_15  and  C04_9 
REMARK    4  A    between atoms: N05_10  and  C06_11 
REMARK    5  A    between atoms: C06_11  and  C07_12 
REMARK    6  A    between atoms: C07_12  and  C08_13 
REMARK    7  A    between atoms: C08_13  and  C09_14 
REMARK    8  A    between atoms: N11_16  and  C10_15 
REMARK    9  A    between atoms: C12_17  and  N11_16 
REMARK   10  A    between atoms: N11_16  and  C22_22 
REMARK   11  A    between atoms: C12_17  and  C13_18 
REMARK   12  A    between atoms: C22_22  and  C23_23 
ROOT
ATOM      1  C01 9P2 d   1     102.449 -14.099  32.942  0.00  0.00     0.141 A 
ATOM      2  N02 9P2 d   1     103.606 -14.892  32.779  0.00  0.00    -0.228 NA
ATOM      3  C03 9P2 d   1     104.697 -14.142  33.026  0.00  0.00     0.093 A 
ATOM      4  C04 9P2 d   1     104.238 -12.834  33.376  0.00  0.00     0.069 A 
ATOM      5  N05 9P2 d   1     102.844 -12.857  33.290  0.00  0.00    -0.331 N 
ENDROOT
BRANCH   4   6
ATOM      6  C10 9P2 d   1     105.126 -11.573  33.743  0.00  0.00     0.124 C 
ATOM      7  H14 9P2 d   1     106.191 -11.841  33.677  0.00  0.00     0.085 H 
ATOM      8  H15 9P2 d   1     104.893 -11.244  34.766  0.00  0.00     0.085 H 
BRANCH   6   9
ATOM      9  N11 9P2 d   1     104.836 -10.501  32.810  0.00  0.00    -0.058 N 
ATOM     10  H16 9P2 d   1     103.838 -10.510  32.666  0.00  0.00     0.281 HD
BRANCH   9  11
ATOM     11  C12 9P2 d   1     105.454 -10.742  31.467  0.00  0.00     0.108 C 
ATOM     12  H17 9P2 d   1     106.322 -11.411  31.562  0.00  0.00     0.083 H 
ATOM     13  H18 9P2 d   1     105.772  -9.790  31.018  0.00  0.00     0.083 H 
BRANCH  11  14
ATOM     14  C13 9P2 d   1     104.374 -11.397  30.608  0.00  0.00    -0.030 A 
ATOM     15  C18 9P2 d   1     104.570 -12.648  30.018  0.00  0.00    -0.040 A 
ATOM     16  C17 9P2 d   1     103.477 -13.254  29.206  0.00  0.00     0.105 A 
ATOM     17  H2  9P2 d   1     105.509 -13.173  30.150  0.00  0.00     0.088 H 
ATOM     18  C16 9P2 d   1     102.308 -12.603  29.052  0.00  0.00     0.105 A 
ATOM     19  O19 9P2 d   1     103.400 -14.503  28.487  0.00  0.00    -0.323 OA
ATOM     20  C15 9P2 d   1     102.111 -11.354  29.647  0.00  0.00    -0.047 A 
ATOM     21  O21 9P2 d   1     101.413 -13.376  28.233  0.00  0.00    -0.323 OA
ATOM     22  C14 9P2 d   1     103.189 -10.750  30.453  0.00  0.00    -0.072 A 
ATOM     23  H1  9P2 d   1     101.170 -10.831  29.517  0.00  0.00     0.087 H 
ATOM     24  H19 9P2 d   1     103.035  -9.786  30.924  0.00  0.00     0.084 H 
ATOM     25  C20 9P2 d   1     102.003 -14.652  28.081  0.00  0.00     0.115 C 
ATOM     26  H3  9P2 d   1     101.495 -15.386  28.723  0.00  0.00     0.118 H 
ATOM     27  H4  9P2 d   1     101.943 -14.978  27.032  0.00  0.00     0.118 H 
ENDBRANCH  11  14
ENDBRANCH   9  11
BRANCH   9  28
ATOM     28  C22 9P2 d   1     105.152  -9.203  33.363  0.00  0.00     0.108 C 
ATOM     29  H20 9P2 d   1     105.657  -8.586  32.605  0.00  0.00     0.083 H 
ATOM     30  H21 9P2 d   1     105.808  -9.319  34.238  0.00  0.00     0.083 H 
BRANCH  28  31
ATOM     31  C23 9P2 d   1     103.802  -8.524  33.793  0.00  0.00    -0.030 A 
ATOM     32  C24 9P2 d   1     103.611  -8.084  35.074  0.00  0.00    -0.040 A 
ATOM     33  C25 9P2 d   1     102.304  -7.448  35.451  0.00  0.00     0.105 A 
ATOM     34  H22 9P2 d   1     104.398  -8.194  35.812  0.00  0.00     0.088 H 
ATOM     35  O26 9P2 d   1     101.849  -6.930  36.623  0.00  0.00    -0.323 OA
ATOM     36  C29 9P2 d   1     101.298  -7.310  34.513  0.00  0.00     0.105 A 
ATOM     37  C27 9P2 d   1     100.668  -6.225  36.311  0.00  0.00     0.115 C 
ATOM     38  O28 9P2 d   1     100.223  -6.708  35.106  0.00  0.00    -0.323 OA
ATOM     39  H23 9P2 d   1     100.879  -5.148  36.232  0.00  0.00     0.118 H 
ATOM     40  H24 9P2 d   1      99.910  -6.394  37.090  0.00  0.00     0.118 H 
ATOM     41  C30 9P2 d   1     101.498  -7.776  33.171  0.00  0.00    -0.047 A 
ATOM     42  C31 9P2 d   1     102.746  -8.382  32.815  0.00  0.00    -0.072 A 
ATOM     43  H25 9P2 d   1     100.711  -7.670  32.433  0.00  0.00     0.087 H 
ATOM     44  H26 9P2 d   1     102.900  -8.738  31.803  0.00  0.00     0.084 H 
ENDBRANCH  28  31
ENDBRANCH   9  28
ENDBRANCH   6   9
ENDBRANCH   4   6
BRANCH   3  45
ATOM     45  C32 9P2 d   1     105.985 -14.593  32.977  0.00  0.00    -0.005 A 
ATOM     46  C33 9P2 d   1     106.464 -15.248  31.845  0.00  0.00    -0.071 A 
ATOM     47  C34 9P2 d   1     107.801 -15.726  31.822  0.00  0.00    -0.082 A 
ATOM     48  H27 9P2 d   1     105.819 -15.392  30.986  0.00  0.00     0.084 H 
ATOM     49  C35 9P2 d   1     108.637 -15.554  32.932  0.00  0.00    -0.083 A 
ATOM     50  H28 9P2 d   1     108.177 -16.228  30.938  0.00  0.00     0.083 H 
ATOM     51  C36 9P2 d   1     108.147 -14.896  34.092  0.00  0.00    -0.082 A 
ATOM     52  H29 9P2 d   1     109.656 -15.922  32.906  0.00  0.00     0.083 H 
ATOM     53  C37 9P2 d   1     106.834 -14.429  34.115  0.00  0.00    -0.071 A 
ATOM     54  H30 9P2 d   1     108.790 -14.758  34.954  0.00  0.00     0.083 H 
ATOM     55  H31 9P2 d   1     106.454 -13.938  35.003  0.00  0.00     0.084 H 
ENDBRANCH   3  45
BRANCH   5  56
ATOM     56  C06 9P2 d   1     102.017 -11.757  33.584  0.00  0.00     0.002 C 
ATOM     57  H5  9P2 d   1     101.030 -11.884  33.116  0.00  0.00     0.065 H 
ATOM     58  H6  9P2 d   1     102.477 -10.825  33.224  0.00  0.00     0.065 H 
BRANCH  56  59
ATOM     59  C07 9P2 d   1     101.884 -11.731  35.112  0.00  0.00    -0.050 C 
ATOM     60  H7  9P2 d   1     102.854 -11.429  35.534  0.00  0.00     0.035 H 
ATOM     61  H8  9P2 d   1     101.638 -12.748  35.450  0.00  0.00     0.035 H 
BRANCH  59  62
ATOM     62  C08 9P2 d   1     100.798 -10.764  35.661  0.00  0.00    -0.067 C 
ATOM     63  H9  9P2 d   1      99.824 -11.026  35.222  0.00  0.00     0.032 H 
ATOM     64  H10 9P2 d   1     101.059  -9.731  35.386  0.00  0.00     0.032 H 
BRANCH  62  65
ATOM     65  C09 9P2 d   1     100.709 -10.876  37.220  0.00  0.00    -0.076 C 
ATOM     66  H11 9P2 d   1      99.937 -10.187  37.594  0.00  0.00     0.027 H 
ATOM     67  H12 9P2 d   1     101.681 -10.613  37.663  0.00  0.00     0.027 H 
ATOM     68  H13 9P2 d   1     100.446 -11.907  37.499  0.00  0.00     0.027 H 
ENDBRANCH  62  65
ENDBRANCH  59  62
ENDBRANCH  56  59
ENDBRANCH   5  56
BRANCH   1  69
ATOM     69  C38 9P2 d   1     101.076 -14.591  32.744  0.00  0.00     0.010 A 
ATOM     70  C39 9P2 d   1     100.160 -13.894  31.936  0.00  0.00    -0.069 A 
ATOM     71  C40 9P2 d   1      98.869 -14.366  31.751  0.00  0.00    -0.082 A 
ATOM     72  H32 9P2 d   1     100.467 -12.975  31.451  0.00  0.00     0.085 H 
ATOM     73  C41 9P2 d   1      98.479 -15.533  32.347  0.00  0.00    -0.083 A 
ATOM     74  H33 9P2 d   1      98.171 -13.811  31.135  0.00  0.00     0.083 H 
ATOM     75  C42 9P2 d   1      99.398 -16.242  33.149  0.00  0.00    -0.082 A 
ATOM     76  H34 9P2 d   1      97.473 -15.910  32.205  0.00  0.00     0.083 H 
ATOM     77  C43 9P2 d   1     100.691 -15.758  33.331  0.00  0.00    -0.069 A 
ATOM     78  H35 9P2 d   1      99.096 -17.168  33.626  0.00  0.00     0.083 H 
ATOM     79  H36 9P2 d   1     101.394 -16.312  33.942  0.00  0.00     0.085 H 
ENDBRANCH   1  69
TORSDOF 12
