REMARK  3 active torsions:
REMARK  status: ('A' for Active; 'I' for Inactive)
REMARK    1  A    between atoms: C03_3  and  C08_7 
REMARK    2  A    between atoms: C08_7  and  C09_8 
REMARK       I    between atoms: N14_13  and  C15_14 
REMARK    3  A    between atoms: C15_14  and  C17_16 
ROOT
ATOM      1  C09 SVF d   1     -19.483  -8.440  -8.120  0.00  0.00    -0.047 C 
ATOM      2  C10 SVF d   1     -20.712  -8.190  -8.969  0.00  0.00    -0.046 C 
ATOM      3  C11 SVF d   1     -18.808  -9.715  -8.576  0.00  0.00    -0.046 C 
ATOM      4  C12 SVF d   1     -20.314  -8.080 -10.426  0.00  0.00    -0.002 C 
ATOM      5  C13 SVF d   1     -18.418  -9.599 -10.031  0.00  0.00    -0.002 C 
ATOM      6  N14 SVF d   1     -19.616  -9.305 -10.831  0.00  0.00    -0.352 N 
ATOM      7  C15 SVF d   1     -19.808  -9.842 -12.057  0.00  0.00     0.215 C 
ATOM      8  O16 SVF d   1     -20.402  -9.231 -12.927  0.00  0.00    -0.274 OA
ATOM      9  H7  SVF d   1     -18.782  -7.604  -8.261  0.00  0.00     0.040 H 
ATOM     10  H8  SVF d   1     -21.192  -7.253  -8.650  0.00  0.00     0.035 H 
ATOM     11  H9  SVF d   1     -21.418  -9.025  -8.845  0.00  0.00     0.035 H 
ATOM     12  H10 SVF d   1     -19.501 -10.560  -8.451  0.00  0.00     0.035 H 
ATOM     13  H11 SVF d   1     -17.907  -9.887  -7.970  0.00  0.00     0.035 H 
ATOM     14  H12 SVF d   1     -19.647  -7.215 -10.561  0.00  0.00     0.064 H 
ATOM     15  H13 SVF d   1     -21.214  -7.949 -11.044  0.00  0.00     0.064 H 
ATOM     16  H14 SVF d   1     -17.973 -10.546 -10.369  0.00  0.00     0.064 H 
ATOM     17  H15 SVF d   1     -17.686  -8.787 -10.152  0.00  0.00     0.064 H 
ENDROOT
BRANCH   1  18
ATOM     18  C08 SVF d   1     -19.844  -8.503  -6.696  0.00  0.00    -0.037 C 
ATOM     19  H5  SVF d   1     -20.759  -7.912  -6.547  0.00  0.00     0.040 H 
ATOM     20  H6  SVF d   1     -20.040  -9.554  -6.438  0.00  0.00     0.040 H 
BRANCH  18  21
ATOM     21  C03 SVF d   1     -18.814  -7.991  -5.783  0.00  0.00    -0.058 A 
ATOM     22  C01 SVF d   1     -19.136  -7.473  -4.538  0.00  0.00    -0.074 A 
ATOM     23  C02 SVF d   1     -18.143  -6.944  -3.731  0.00  0.00    -0.045 A 
ATOM     24  H1  SVF d   1     -20.165  -7.482  -4.197  0.00  0.00     0.084 H 
ATOM     25  C04 SVF d   1     -16.849  -6.950  -4.185  0.00  0.00     0.116 A 
ATOM     26  H2  SVF d   1     -18.384  -6.532  -2.758  0.00  0.00     0.088 H 
ATOM     27  C06 SVF d   1     -16.507  -7.447  -5.414  0.00  0.00    -0.045 A 
ATOM     28  F07 SVF d   1     -15.868  -6.417  -3.387  0.00  0.00    -0.206 F 
ATOM     29  C05 SVF d   1     -17.499  -7.975  -6.222  0.00  0.00    -0.074 A 
ATOM     30  H4  SVF d   1     -15.476  -7.427  -5.749  0.00  0.00     0.088 H 
ATOM     31  H3  SVF d   1     -17.248  -8.376  -7.197  0.00  0.00     0.084 H 
ENDBRANCH  18  21
ENDBRANCH   1  18
BRANCH   7  32
ATOM     32  C17 SVF d   1     -18.989 -11.036 -12.455  0.00  0.00    -0.003 C 
ATOM     33  H16 SVF d   1     -19.265 -11.347 -13.473  0.00  0.00     0.040 H 
ATOM     34  H17 SVF d   1     -19.181 -11.862 -11.755  0.00  0.00     0.040 H 
ATOM     35  H18 SVF d   1     -17.921 -10.773 -12.429  0.00  0.00     0.040 H 
ENDBRANCH   7  32
TORSDOF 3
