REMARK  13 active torsions:
REMARK  status: ('A' for Active; 'I' for Inactive)
REMARK    1  A    between atoms: OAH_1  and  CBA_2 
REMARK    2  A    between atoms: CAY_3  and  OAF_4 
REMARK    3  A    between atoms: CBC_8  and  CAW_9 
REMARK       I    between atoms: CAW_9  and  N_11 
REMARK    4  A    between atoms: N_11  and  CA_12 
REMARK    5  A    between atoms: CA_12  and  C_13 
REMARK    6  A    between atoms: CA_12  and  CB_16 
REMARK    7  A    between atoms: CB_16  and  CAP_17 
REMARK    8  A    between atoms: CAP_17  and  CAO_18 
REMARK    9  A    between atoms: CAO_18  and  CAQ_19 
REMARK   10  A    between atoms: CAQ_19  and  NAS_20 
REMARK       I    between atoms: NAS_20  and  CAV_21 
REMARK   11  A    between atoms: CAV_21  and  CBB_23 
REMARK   12  A    between atoms: CAX_27  and  OAE_28 
REMARK   13  A    between atoms: CAZ_29  and  OAG_30 
ROOT
ATOM      1  CAP 95B d   1     -11.055   4.450   1.877  0.00  0.00    -0.061 C 
ATOM      2  H10 95B d   1     -10.606   4.000   2.775  0.00  0.00     0.033 H 
ATOM      3  H11 95B d   1     -10.265   4.674   1.145  0.00  0.00     0.033 H 
ENDROOT
BRANCH   1   4
ATOM      4  CB  95B d   1     -11.701   5.785   2.294  0.00  0.00    -0.037 C 
ATOM      5  H8  95B d   1     -12.009   6.317   1.382  0.00  0.00     0.036 H 
ATOM      6  H9  95B d   1     -12.588   5.562   2.906  0.00  0.00     0.036 H 
BRANCH   4   7
ATOM      7  CA  95B d   1     -10.765   6.726   3.116  0.00  0.00     0.096 C 
ATOM      8  H7  95B d   1     -10.994   7.758   2.812  0.00  0.00     0.089 H 
BRANCH   7   9
ATOM      9  N   95B d   1      -9.366   6.441   2.810  0.00  0.00    -0.342 N 
ATOM     10  CAW 95B d   1      -8.373   7.341   2.837  0.00  0.00     0.255 C 
ATOM     11  OAC 95B d   1      -8.529   8.508   3.193  0.00  0.00    -0.268 OA
ATOM     12  H6  95B d   1      -9.130   5.502   2.561  0.00  0.00     0.163 HD
BRANCH  10  13
ATOM     13  CBC 95B d   1      -7.039   6.858   2.374  0.00  0.00     0.068 A 
ATOM     14  CBA 95B d   1      -6.718   5.487   2.428  0.00  0.00     0.114 A 
ATOM     15  CAY 95B d   1      -5.483   5.044   1.960  0.00  0.00     0.099 A 
ATOM     16  CAL 95B d   1      -4.568   5.949   1.435  0.00  0.00    -0.048 A 
ATOM     17  CAJ 95B d   1      -4.887   7.306   1.372  0.00  0.00    -0.079 A 
ATOM     18  H3  95B d   1      -3.607   5.601   1.075  0.00  0.00     0.087 H 
ATOM     19  CAN 95B d   1      -6.095   7.745   1.830  0.00  0.00    -0.065 A 
ATOM     20  H4  95B d   1      -4.175   8.011   0.959  0.00  0.00     0.083 H 
ATOM     21  H5  95B d   1      -6.332   8.801   1.773  0.00  0.00     0.085 H 
BRANCH  14  22
ATOM     22  OAH 95B d   1      -7.539   4.526   2.940  0.00  0.00    -0.357 OA
ATOM     23  H1  95B d   1      -7.725   3.880   2.269  0.00  0.00     0.217 HD
ENDBRANCH  14  22
BRANCH  15  24
ATOM     24  OAF 95B d   1      -5.294   3.694   2.069  0.00  0.00    -0.358 OA
ATOM     25  H2  95B d   1      -5.354   3.440   2.982  0.00  0.00     0.217 HD
ENDBRANCH  15  24
ENDBRANCH  10  13
ENDBRANCH   7   9
BRANCH   7  26
ATOM     26  C   95B d   1     -10.911   6.642   4.650  0.00  0.00     0.196 C 
ATOM     27  OXT 95B d   1     -11.550   5.680   5.146  0.00  0.00    -0.646 OA
ATOM     28  O   95B d   1     -10.300   7.515   5.308  0.00  0.00    -0.646 OA
ENDBRANCH   7  26
ENDBRANCH   4   7
ENDBRANCH   1   4
BRANCH   1  29
ATOM     29  CAO 95B d   1     -11.977   3.427   1.261  0.00  0.00    -0.050 C 
ATOM     30  H12 95B d   1     -12.905   3.931   0.954  0.00  0.00     0.035 H 
ATOM     31  H13 95B d   1     -12.208   2.662   2.017  0.00  0.00     0.035 H 
BRANCH  29  32
ATOM     32  CAQ 95B d   1     -11.376   2.744   0.052  0.00  0.00    -0.004 C 
ATOM     33  H14 95B d   1     -11.220   3.496  -0.735  0.00  0.00     0.064 H 
ATOM     34  H15 95B d   1     -12.081   1.980  -0.306  0.00  0.00     0.064 H 
BRANCH  32  35
ATOM     35  NAS 95B d   1     -10.098   2.100   0.342  0.00  0.00    -0.357 N 
ATOM     36  CAV 95B d   1      -9.636   1.096  -0.414  0.00  0.00     0.254 C 
ATOM     37  OAB 95B d   1     -10.262   0.704  -1.399  0.00  0.00    -0.268 OA
ATOM     38  H16 95B d   1      -9.556   2.415   1.121  0.00  0.00     0.162 HD
BRANCH  36  39
ATOM     39  CBB 95B d   1      -8.361   0.426  -0.032  0.00  0.00     0.067 A 
ATOM     40  CAM 95B d   1      -7.912  -0.725  -0.691  0.00  0.00    -0.065 A 
ATOM     41  CAI 95B d   1      -6.734  -1.316  -0.343  0.00  0.00    -0.079 A 
ATOM     42  H17 95B d   1      -8.509  -1.152  -1.489  0.00  0.00     0.085 H 
ATOM     43  CAK 95B d   1      -5.982  -0.831   0.734  0.00  0.00    -0.048 A 
ATOM     44  H18 95B d   1      -6.376  -2.170  -0.906  0.00  0.00     0.083 H 
ATOM     45  CAX 95B d   1      -6.412   0.286   1.424  0.00  0.00     0.099 A 
ATOM     46  H19 95B d   1      -5.065  -1.331   1.026  0.00  0.00     0.087 H 
ATOM     47  CAZ 95B d   1      -7.590   0.905   1.037  0.00  0.00     0.114 A 
BRANCH  45  48
ATOM     48  OAE 95B d   1      -5.772   0.849   2.500  0.00  0.00    -0.358 OA
ATOM     49  H20 95B d   1      -6.263   1.606   2.798  0.00  0.00     0.217 HD
ENDBRANCH  45  48
BRANCH  47  50
ATOM     50  OAG 95B d   1      -7.932   1.997   1.744  0.00  0.00    -0.357 OA
ATOM     51  H21 95B d   1      -8.042   1.760   2.657  0.00  0.00     0.217 HD
ENDBRANCH  47  50
ENDBRANCH  36  39
ENDBRANCH  32  35
ENDBRANCH  29  32
ENDBRANCH   1  29
TORSDOF 13
