REMARK  10 active torsions:
REMARK  status: ('A' for Active; 'I' for Inactive)
REMARK    1  A    between atoms: C10_5  and  C11_6 
REMARK    2  A    between atoms: N1_29  and  C10_5 
REMARK    3  A    between atoms: C17_12  and  C18_13 
REMARK    4  A    between atoms: C17_12  and  C19_14 
REMARK    5  A    between atoms: C17_12  and  C20_16 
REMARK    6  A    between atoms: N2_30  and  C17_12 
REMARK    7  A    between atoms: C6_22  and  C21_17 
REMARK       I    between atoms: N1_29  and  C22_18 
REMARK    8  A    between atoms: C8_24  and  C7_23 
REMARK    9  A    between atoms: C9_25  and  C8_24 
REMARK   10  A    between atoms: C8_24  and  N1_29 
REMARK       I    between atoms: C9_25  and  N2_30 
ROOT
ATOM      1  C8  B5K d   1      57.287  -1.220  19.371  0.00  0.00     0.120 C 
ATOM      2  H19 B5K d   1      58.095  -0.604  19.791  0.00  0.00     0.096 H 
ENDROOT
BRANCH   1   3
ATOM      3  C7  B5K d   1      56.859  -0.359  18.225  0.00  0.00     0.020 A 
ATOM      4  C4  B5K d   1      57.922   0.600  17.946  0.00  0.00     0.002 A 
ATOM      5  C3  B5K d   1      57.430   1.443  16.841  0.00  0.00     0.045 A 
ATOM      6  C5  B5K d   1      59.168   0.751  18.522  0.00  0.00    -0.069 A 
ATOM      7  N   B5K d   1      56.181   1.033  16.510  0.00  0.00    -0.349 N 
ATOM      8  C2  B5K d   1      58.289   2.431  16.382  0.00  0.00    -0.035 A 
ATOM      9  C6  B5K d   1      55.755  -0.004  17.273  0.00  0.00     0.120 A 
ATOM     10  H1  B5K d   1      55.618   1.462  15.762  0.00  0.00     0.166 HD
ATOM     11  C1  B5K d   1      59.546   2.573  16.976  0.00  0.00     0.036 A 
ATOM     12  H13 B5K d   1      57.989   3.086  15.572  0.00  0.00     0.089 H 
ATOM     13  C   B5K d   1      59.978   1.755  18.020  0.00  0.00    -0.061 A 
ATOM     14 CL   B5K d   1      60.659   3.844  16.390  0.00  0.00    -0.084 Cl
ATOM     15  H2  B5K d   1      60.964   1.908  18.445  0.00  0.00     0.086 H 
ATOM     16  H18 B5K d   1      59.498   0.111  19.332  0.00  0.00     0.085 H 
BRANCH   9  17
ATOM     17  C21 B5K d   1      54.428  -0.678  17.159  0.00  0.00     0.227 C 
ATOM     18  O1  B5K d   1      53.753  -0.478  16.124  0.00  0.00    -0.643 OA
ATOM     19  O2  B5K d   1      53.999  -1.397  18.081  0.00  0.00    -0.643 OA
ENDBRANCH   9  17
ENDBRANCH   1   3
BRANCH   1  20
ATOM     20  C9  B5K d   1      58.018  -2.524  19.141  0.00  0.00     0.246 C 
ATOM     21  O   B5K d   1      58.369  -3.097  20.158  0.00  0.00    -0.271 OA
ATOM     22  N2  B5K d   1      58.288  -2.978  17.912  0.00  0.00    -0.351 N 
ATOM     23  H20 B5K d   1      57.633  -2.800  17.178  0.00  0.00     0.163 HD
BRANCH  22  24
ATOM     24  C17 B5K d   1      59.508  -3.727  17.602  0.00  0.00     0.022 C 
BRANCH  24  25
ATOM     25  C18 B5K d   1      59.585  -3.956  16.101  0.00  0.00    -0.054 C 
ATOM     26  H7  B5K d   1      60.500  -4.518  15.862  0.00  0.00     0.030 H 
ATOM     27  H8  B5K d   1      59.605  -2.986  15.583  0.00  0.00     0.030 H 
ATOM     28  H9  B5K d   1      58.706  -4.529  15.772  0.00  0.00     0.030 H 
ENDBRANCH  24  25
BRANCH  24  29
ATOM     29  C19 B5K d   1      59.561  -5.093  18.283  0.00  0.00    -0.054 C 
ATOM     30  H10 B5K d   1      59.507  -4.961  19.374  0.00  0.00     0.030 H 
ATOM     31  H11 B5K d   1      60.503  -5.597  18.021  0.00  0.00     0.030 H 
ATOM     32  H12 B5K d   1      58.711  -5.704  17.945  0.00  0.00     0.030 H 
ENDBRANCH  24  29
BRANCH  24  33
ATOM     33  C20 B5K d   1      60.720  -2.904  18.024  0.00  0.00    -0.054 C 
ATOM     34  H14 B5K d   1      60.683  -1.920  17.534  0.00  0.00     0.030 H 
ATOM     35  H15 B5K d   1      61.640  -3.428  17.726  0.00  0.00     0.030 H 
ATOM     36  H16 B5K d   1      60.711  -2.771  19.116  0.00  0.00     0.030 H 
ENDBRANCH  24  33
ENDBRANCH  22  24
ENDBRANCH   1  20
BRANCH   1  37
ATOM     37  N1  B5K d   1      56.342  -1.277  20.481  0.00  0.00    -0.337 N 
ATOM     38  C22 B5K d   1      55.397  -2.104  20.588  0.00  0.00     0.172 C 
ATOM     39  O3  B5K d   1      54.757  -2.159  21.626  0.00  0.00    -0.283 OA
ATOM     40  H17 B5K d   1      55.153  -2.766  19.759  0.00  0.00     0.180 H 
BRANCH  37  41
ATOM     41  C10 B5K d   1      56.667  -0.289  21.500  0.00  0.00     0.022 C 
ATOM     42  H3  B5K d   1      56.251  -0.623  22.462  0.00  0.00     0.071 H 
ATOM     43  H4  B5K d   1      57.761  -0.211  21.581  0.00  0.00     0.071 H 
BRANCH  41  44
ATOM     44  C11 B5K d   1      56.105   1.078  21.175  0.00  0.00    -0.034 A 
ATOM     45  C12 B5K d   1      56.919   2.206  21.311  0.00  0.00    -0.035 A 
ATOM     46  C13 B5K d   1      56.436   3.483  21.035  0.00  0.00     0.158 A 
ATOM     47  H5  B5K d   1      57.946   2.085  21.637  0.00  0.00     0.089 H 
ATOM     48  C14 B5K d   1      55.031   3.635  20.597  0.00  0.00     0.193 A 
ATOM     49  F2  B5K d   1      57.219   4.570  21.160  0.00  0.00    -0.203 F 
ATOM     50  C15 B5K d   1      54.204   2.414  20.473  0.00  0.00     0.158 A 
ATOM     51  F   B5K d   1      54.522   4.848  20.320  0.00  0.00    -0.200 F 
ATOM     52  C16 B5K d   1      54.775   1.183  20.771  0.00  0.00    -0.035 A 
ATOM     53  F1  B5K d   1      52.923   2.499  20.078  0.00  0.00    -0.203 F 
ATOM     54  H6  B5K d   1      54.173   0.285  20.688  0.00  0.00     0.089 H 
ENDBRANCH  41  44
ENDBRANCH  37  41
ENDBRANCH   1  37
TORSDOF 10
