REMARK  15 active torsions:
REMARK  status: ('A' for Active; 'I' for Inactive)
REMARK    1  A    between atoms: C6_18  and  O5_1 
REMARK    2  A    between atoms: C9_7  and  O4_2 
REMARK    3  A    between atoms: S_37  and  C8_8 
REMARK    4  A    between atoms: C5_17  and  O2_12 
REMARK    5  A    between atoms: O10_39  and  C1_13 
REMARK    6  A    between atoms: C2_14  and  O_38 
REMARK    7  A    between atoms: C3_15  and  N_33 
REMARK    8  A    between atoms: C4_16  and  C5_17 
REMARK    9  A    between atoms: C7_20  and  S_37 
REMARK   10  A    between atoms: C10_21  and  O7_34 
REMARK   11  A    between atoms: C14_23  and  C16_35 
REMARK   12  A    between atoms: C22_31  and  C26_28 
REMARK   13  A    between atoms: C16_35  and  O8_36 
REMARK   14  A    between atoms: C29_40  and  O10_39 
REMARK   15  A    between atoms: C29_40  and  C_41 
ROOT
ATOM      1  O1  9Q5 d   1     -20.596   7.722  -0.718  0.00  0.00    -0.363 OA
ATOM      2  C1  9Q5 d   1     -18.023   8.054  -1.798  0.00  0.00     0.099 C 
ATOM      3  C2  9Q5 d   1     -18.935   9.213  -1.487  0.00  0.00     0.097 C 
ATOM      4  C4  9Q5 d   1     -19.821   6.564  -1.106  0.00  0.00     0.087 C 
ATOM      5  C6  9Q5 d   1     -18.337   6.824  -0.913  0.00  0.00     0.090 C 
ATOM      6  C7  9Q5 d   1     -20.396   8.796  -1.573  0.00  0.00     0.112 C 
ATOM      7  H7  9Q5 d   1     -18.146   7.773  -2.854  0.00  0.00     0.092 H 
ATOM      8  H8  9Q5 d   1     -18.734   9.554  -0.461  0.00  0.00     0.092 H 
ATOM      9  H10 9Q5 d   1     -19.993   6.343  -2.170  0.00  0.00     0.090 H 
ATOM     10  H13 9Q5 d   1     -17.754   5.957  -1.256  0.00  0.00     0.091 H 
ATOM     11  H14 9Q5 d   1     -20.668   8.530  -2.605  0.00  0.00     0.104 H 
ENDROOT
BRANCH   6  12
ATOM     12  S   9Q5 d   1     -21.385  10.157  -0.983  0.00  0.00    -0.100 SA
BRANCH  12  13
ATOM     13  C8  9Q5 d   1     -23.067   9.670  -1.135  0.00  0.00     0.112 C 
ATOM     14  C9  9Q5 d   1     -23.866   9.857   0.161  0.00  0.00     0.093 C 
ATOM     15  C3  9Q5 d   1     -25.236   9.309  -0.049  0.00  0.00     0.086 C 
ATOM     16  H4  9Q5 d   1     -23.930  10.927   0.408  0.00  0.00     0.091 H 
ATOM     17  C10 9Q5 d   1     -25.791   9.950  -1.309  0.00  0.00     0.086 C 
ATOM     18  H9  9Q5 d   1     -25.152   8.225  -0.219  0.00  0.00     0.083 H 
ATOM     19  C14 9Q5 d   1     -24.869   9.795  -2.543  0.00  0.00     0.087 C 
ATOM     20  H15 9Q5 d   1     -26.770   9.496  -1.525  0.00  0.00     0.090 H 
ATOM     21  O3  9Q5 d   1     -23.605  10.334  -2.308  0.00  0.00    -0.363 OA
ATOM     22  H16 9Q5 d   1     -24.769   8.720  -2.752  0.00  0.00     0.090 H 
ATOM     23  H5  9Q5 d   1     -23.081   8.590  -1.343  0.00  0.00     0.104 H 
BRANCH  14  24
ATOM     24  O4  9Q5 d   1     -23.224   9.169   1.215  0.00  0.00    -0.390 OA
ATOM     25  H2  9Q5 d   1     -23.174   8.244   1.004  0.00  0.00     0.210 HD
ENDBRANCH  14  24
BRANCH  15  26
ATOM     26  N   9Q5 d   1     -26.109   9.501   1.106  0.00  0.00    -0.273 N 
ATOM     27  N2  9Q5 d   1     -26.110  10.699   1.705  0.00  0.00     0.005 NA
ATOM     28  N1  9Q5 d   1     -27.059  10.677   2.774  0.00  0.00    -0.158 NA
ATOM     29  C22 9Q5 d   1     -27.609   9.449   2.859  0.00  0.00     0.101 A 
ATOM     30  C21 9Q5 d   1     -26.966   8.702   1.834  0.00  0.00     0.025 A 
ATOM     31  H21 9Q5 d   1     -27.128   7.641   1.649  0.00  0.00     0.117 H 
BRANCH  29  32
ATOM     32  C26 9Q5 d   1     -28.595   9.089   3.944  0.00  0.00    -0.002 A 
ATOM     33  C27 9Q5 d   1     -29.049   7.823   4.252  0.00  0.00    -0.034 A 
ATOM     34  C28 9Q5 d   1     -29.969   7.630   5.334  0.00  0.00     0.117 A 
ATOM     35  H18 9Q5 d   1     -28.709   6.971   3.674  0.00  0.00     0.089 H 
ATOM     36  F2  9Q5 d   1     -30.372   6.412   5.661  0.00  0.00    -0.206 F 
ATOM     37  C23 9Q5 d   1     -30.444   8.707   6.056  0.00  0.00    -0.046 A 
ATOM     38  C24 9Q5 d   1     -29.998   9.982   5.733  0.00  0.00    -0.079 A 
ATOM     39  H17 9Q5 d   1     -31.154   8.560   6.862  0.00  0.00     0.088 H 
ATOM     40  C25 9Q5 d   1     -29.076  10.139   4.698  0.00  0.00    -0.070 A 
ATOM     41  H20 9Q5 d   1     -30.362  10.845   6.279  0.00  0.00     0.083 H 
ATOM     42  H19 9Q5 d   1     -28.719  11.138   4.475  0.00  0.00     0.084 H 
ENDBRANCH  29  32
ENDBRANCH  15  26
BRANCH  17  43
ATOM     43  O7  9Q5 d   1     -25.936  11.380  -1.127  0.00  0.00    -0.391 OA
ATOM     44  H22 9Q5 d   1     -26.496  11.548  -0.378  0.00  0.00     0.210 HD
ENDBRANCH  17  43
BRANCH  19  45
ATOM     45  C16 9Q5 d   1     -25.406  10.498  -3.811  0.00  0.00     0.043 C 
ATOM     46  H23 9Q5 d   1     -25.767  11.505  -3.555  0.00  0.00     0.078 H 
ATOM     47  H24 9Q5 d   1     -26.230   9.912  -4.243  0.00  0.00     0.078 H 
BRANCH  45  48
ATOM     48  O8  9Q5 d   1     -24.328  10.591  -4.754  0.00  0.00    -0.398 OA
ATOM     49  H25 9Q5 d   1     -23.618  11.095  -4.373  0.00  0.00     0.209 HD
ENDBRANCH  45  48
ENDBRANCH  19  45
ENDBRANCH  12  13
ENDBRANCH   6  12
BRANCH   3  50
ATOM     50  O   9Q5 d   1     -18.652  10.280  -2.385  0.00  0.00    -0.389 OA
ATOM     51  H26 9Q5 d   1     -17.736  10.520  -2.311  0.00  0.00     0.210 HD
ENDBRANCH   3  50
BRANCH   4  52
ATOM     52  C5  9Q5 d   1     -20.353   5.421  -0.274  0.00  0.00     0.043 C 
ATOM     53  H11 9Q5 d   1     -19.866   4.490  -0.600  0.00  0.00     0.078 H 
ATOM     54  H12 9Q5 d   1     -20.112   5.611   0.782  0.00  0.00     0.078 H 
BRANCH  52  55
ATOM     55  O2  9Q5 d   1     -21.790   5.267  -0.405  0.00  0.00    -0.398 OA
ATOM     56  H6  9Q5 d   1     -22.220   6.065  -0.120  0.00  0.00     0.209 HD
ENDBRANCH  52  55
ENDBRANCH   4  52
BRANCH   2  57
ATOM     57  O10 9Q5 d   1     -16.723   8.455  -1.576  0.00  0.00    -0.352 OA
BRANCH  57  58
ATOM     58  C29 9Q5 d   1     -15.727   7.688  -2.194  0.00  0.00     0.025 C 
ATOM     59  H27 9Q5 d   1     -15.838   6.707  -2.654  0.00  0.00     0.123 H 
BRANCH  58  60
ATOM     60  C   9Q5 d   1     -14.489   8.497  -2.089  0.00  0.00     0.044 C 
ATOM     61  C13 9Q5 d   1     -13.347   7.883  -2.746  0.00  0.00     0.296 C 
ATOM     62  O6  9Q5 d   1     -12.156   8.497  -2.570  0.00  0.00    -0.274 OA
ATOM     63  O9  9Q5 d   1     -13.451   6.723  -3.233  0.00  0.00    -0.259 OA
ATOM     64  C11 9Q5 d   1     -12.008   9.732  -1.940  0.00  0.00     0.089 A 
ATOM     65  C17 9Q5 d   1     -10.742  10.340  -1.902  0.00  0.00    -0.046 A 
ATOM     66  C12 9Q5 d   1     -13.187  10.380  -1.365  0.00  0.00     0.022 A 
ATOM     67  C18 9Q5 d   1     -10.567  11.559  -1.242  0.00  0.00    -0.040 A 
ATOM     68  H3  9Q5 d   1      -9.898   9.862  -2.386  0.00  0.00     0.087 H 
ATOM     69  C19 9Q5 d   1     -11.630  12.207  -0.598  0.00  0.00     0.155 A 
ATOM     70  H30 9Q5 d   1      -9.584  12.015  -1.228  0.00  0.00     0.088 H 
ATOM     71  C20 9Q5 d   1     -13.016  11.639  -0.641  0.00  0.00     0.164 A 
ATOM     72  F   9Q5 d   1     -11.521  13.418   0.013  0.00  0.00    -0.203 F 
ATOM     73  F1  9Q5 d   1     -14.100  12.245  -0.020  0.00  0.00    -0.202 F 
ATOM     74  C15 9Q5 d   1     -14.446   9.721  -1.438  0.00  0.00    -0.004 C 
ATOM     75  H28 9Q5 d   1     -15.142  10.396  -1.958  0.00  0.00     0.048 H 
ATOM     76  H29 9Q5 d   1     -14.794   9.559  -0.407  0.00  0.00     0.048 H 
ENDBRANCH  58  60
ENDBRANCH  57  58
ENDBRANCH   2  57
BRANCH   5  77
ATOM     77  O5  9Q5 d   1     -18.033   7.068   0.466  0.00  0.00    -0.390 OA
ATOM     78  H1  9Q5 d   1     -17.109   7.271   0.554  0.00  0.00     0.210 HD
ENDBRANCH   5  77
TORSDOF 15
