REMARK  2 active torsions:
REMARK  status: ('A' for Active; 'I' for Inactive)
REMARK    1  A    between atoms: C1_5  and  C_3 
REMARK    2  A    between atoms: C4_14  and  C3_13 
ROOT
ATOM      1  N   9QK d   1      -7.275  11.566 -11.778  0.00  0.00    -0.247 NA
ATOM      2  C1  9QK d   1      -6.459   9.032 -12.656  0.00  0.00     0.055 A 
ATOM      3  C10 9QK d   1      -7.337  10.489 -10.935  0.00  0.00     0.068 A 
ATOM      4  C11 9QK d   1      -7.840  10.684  -9.625  0.00  0.00    -0.054 A 
ATOM      5  C12 9QK d   1      -7.921   9.637  -8.746  0.00  0.00    -0.081 A 
ATOM      6  C13 9QK d   1      -7.508   8.368  -9.119  0.00  0.00    -0.082 A 
ATOM      7  C14 9QK d   1      -7.022   8.136 -10.375  0.00  0.00    -0.070 A 
ATOM      8  C15 9QK d   1      -6.928   9.183 -11.321  0.00  0.00     0.010 A 
ATOM      9  C2  9QK d   1      -6.386  10.136 -13.468  0.00  0.00    -0.037 A 
ATOM     10  C3  9QK d   1      -6.815  11.383 -13.007  0.00  0.00     0.069 A 
ATOM     11  H2  9QK d   1      -8.164  11.671  -9.316  0.00  0.00     0.087 H 
ATOM     12  H3  9QK d   1      -8.312   9.803  -7.749  0.00  0.00     0.083 H 
ATOM     13  H4  9QK d   1      -7.571   7.552  -8.408  0.00  0.00     0.083 H 
ATOM     14  H5  9QK d   1      -6.705   7.137 -10.650  0.00  0.00     0.084 H 
ATOM     15  H6  9QK d   1      -5.993  10.040 -14.474  0.00  0.00     0.088 H 
ENDROOT
BRANCH  10  16
ATOM     16  C4  9QK d   1      -6.822  12.567 -13.903  0.00  0.00    -0.004 A 
ATOM     17  C5  9QK d   1      -7.727  13.607 -13.693  0.00  0.00    -0.034 A 
ATOM     18  C6  9QK d   1      -7.723  14.680 -14.553  0.00  0.00     0.117 A 
ATOM     19  H7  9QK d   1      -8.424  13.570 -12.864  0.00  0.00     0.089 H 
ATOM     20  C7  9QK d   1      -6.867  14.790 -15.611  0.00  0.00    -0.046 A 
ATOM     21  F   9QK d   1      -8.621  15.679 -14.345  0.00  0.00    -0.206 F 
ATOM     22  C8  9QK d   1      -5.967  13.759 -15.820  0.00  0.00    -0.079 A 
ATOM     23  H8  9QK d   1      -6.891  15.655 -16.265  0.00  0.00     0.088 H 
ATOM     24  C9  9QK d   1      -5.945  12.659 -14.978  0.00  0.00    -0.071 A 
ATOM     25  H1  9QK d   1      -5.273  13.813 -16.651  0.00  0.00     0.083 H 
ATOM     26  H9  9QK d   1      -5.235  11.860 -15.160  0.00  0.00     0.084 H 
ENDBRANCH  10  16
BRANCH   2  27
ATOM     27  C   9QK d   1      -6.164   7.688 -13.258  0.00  0.00     0.210 C 
ATOM     28  O   9QK d   1      -4.892   7.466 -13.454  0.00  0.00    -0.644 OA
ATOM     29  O1  9QK d   1      -7.063   6.882 -13.552  0.00  0.00    -0.644 OA
ENDBRANCH   2  27
TORSDOF 2
