REMARK  2 active torsions:
REMARK  status: ('A' for Active; 'I' for Inactive)
REMARK    1  A    between atoms: C1_1  and  C_14 
REMARK    2  A    between atoms: C3_3  and  C4_4 
ROOT
ATOM      1  C1  9QT d   1       5.824  -8.746 -12.479  0.00  0.00     0.055 A 
ATOM      2  C2  9QT d   1       5.749  -9.855 -13.292  0.00  0.00    -0.037 A 
ATOM      3  C3  9QT d   1       6.359 -11.053 -12.918  0.00  0.00     0.069 A 
ATOM      4  C11 9QT d   1       7.755 -10.269  -9.691  0.00  0.00    -0.054 A 
ATOM      5  C12 9QT d   1       7.811  -9.234  -8.796  0.00  0.00    -0.081 A 
ATOM      6  C14 9QT d   1       6.539  -7.831 -10.252  0.00  0.00    -0.070 A 
ATOM      7  N   9QT d   1       7.009 -11.193 -11.771  0.00  0.00    -0.247 NA
ATOM      8  C10 9QT d   1       7.067 -10.115 -10.918  0.00  0.00     0.068 A 
ATOM      9  C13 9QT d   1       7.195  -8.026  -9.071  0.00  0.00    -0.082 A 
ATOM     10  C15 9QT d   1       6.465  -8.868 -11.218  0.00  0.00     0.010 A 
ATOM     11  H1  9QT d   1       5.211  -9.797 -14.231  0.00  0.00     0.088 H 
ATOM     12  H5  9QT d   1       8.240 -11.210  -9.459  0.00  0.00     0.087 H 
ATOM     13  H6  9QT d   1       8.344  -9.363  -7.861  0.00  0.00     0.083 H 
ATOM     14  H7  9QT d   1       6.070  -6.875 -10.454  0.00  0.00     0.084 H 
ATOM     15  H8  9QT d   1       7.234  -7.226  -8.341  0.00  0.00     0.083 H 
ENDROOT
BRANCH   3  16
ATOM     16  C4  9QT d   1       6.340 -12.229 -13.827  0.00  0.00    -0.003 A 
ATOM     17  C5  9QT d   1       5.533 -12.216 -14.964  0.00  0.00    -0.033 A 
ATOM     18  C6  9QT d   1       5.536 -13.307 -15.790  0.00  0.00     0.118 A 
ATOM     19  H2  9QT d   1       4.913 -11.356 -15.190  0.00  0.00     0.089 H 
ATOM     20  C7  9QT d   1       6.292 -14.422 -15.570  0.00  0.00    -0.025 A 
ATOM     21  F   9QT d   1       4.746 -13.287 -16.900  0.00  0.00    -0.206 F 
ATOM     22  C8  9QT d   1       7.097 -14.419 -14.452  0.00  0.00     0.037 A 
ATOM     23  H3  9QT d   1       6.260 -15.271 -16.244  0.00  0.00     0.090 H 
ATOM     24  C9  9QT d   1       7.133 -13.354 -13.569  0.00  0.00    -0.050 A 
ATOM     25 CL   9QT d   1       8.150 -15.780 -14.190  0.00  0.00    -0.084 Cl
ATOM     26  H4  9QT d   1       7.766 -13.390 -12.690  0.00  0.00     0.087 H 
ENDBRANCH   3  16
BRANCH   1  27
ATOM     27  C   9QT d   1       5.434  -7.424 -13.065  0.00  0.00     0.210 C 
ATOM     28  O   9QT d   1       4.350  -7.197 -13.579  0.00  0.00    -0.644 OA
ATOM     29  O1  9QT d   1       6.409  -6.550 -13.031  0.00  0.00    -0.644 OA
ENDBRANCH   1  27
TORSDOF 2
