REMARK  8 active torsions:
REMARK  status: ('A' for Active; 'I' for Inactive)
REMARK    1  A    between atoms: C6_23  and  C1_1 
REMARK    2  A    between atoms: C2_2  and  O5_4 
REMARK    3  A    between atoms: C12_7  and  C13_8 
REMARK    4  A    between atoms: C13_8  and  C14_9 
REMARK    5  A    between atoms: C17_27  and  C20_13 
REMARK    6  A    between atoms: C25_30  and  N29_17 
REMARK       I    between atoms: N27_32  and  C6_23 
REMARK    7  A    between atoms: C23_29  and  N27_32 
REMARK    8  A    between atoms: N27_32  and  C28_33 
ROOT
ATOM      1  C1  9R8 d   1      66.684  34.193  23.699  0.00  0.00     0.066 A 
ATOM      2  C2  9R8 d   1      65.513  33.856  24.430  0.00  0.00     0.083 A 
ATOM      3  C3  9R8 d   1      65.576  33.210  25.646  0.00  0.00    -0.022 A 
ATOM      4  C8  9R8 d   1      68.022  33.302  25.477  0.00  0.00     0.020 A 
ATOM      5  C9  9R8 d   1      66.843  32.943  26.186  0.00  0.00     0.065 A 
ATOM      6  C12 9R8 d   1      69.123  32.934  26.362  0.00  0.00     0.071 A 
ATOM      7  C4  9R8 d   1      67.954  33.879  24.206  0.00  0.00    -0.051 A 
ATOM      8  N10 9R8 d   1      67.230  32.435  27.393  0.00  0.00    -0.277 N 
ATOM      9  N11 9R8 d   1      68.624  32.446  27.461  0.00  0.00    -0.178 NA
ATOM     10  H1  9R8 d   1      64.673  32.917  26.170  0.00  0.00     0.091 H 
ATOM     11  H22 9R8 d   1      68.852  34.077  23.631  0.00  0.00     0.086 H 
ATOM     12  H23 9R8 d   1      66.597  32.099  28.132  0.00  0.00     0.189 HD
ENDROOT
BRANCH   1  13
ATOM     13  C6  9R8 d   1      66.539  34.876  22.391  0.00  0.00     0.260 C 
ATOM     14  O7  9R8 d   1      65.833  34.338  21.541  0.00  0.00    -0.267 OA
ATOM     15  N27 9R8 d   1      67.131  36.084  22.191  0.00  0.00    -0.318 N 
BRANCH  15  16
ATOM     16  C23 9R8 d   1      67.965  36.725  23.143  0.00  0.00     0.037 A 
ATOM     17  C22 9R8 d   1      67.453  37.251  24.342  0.00  0.00    -0.055 A 
ATOM     18  C21 9R8 d   1      68.273  37.913  25.254  0.00  0.00    -0.060 A 
ATOM     19  H12 9R8 d   1      66.397  37.139  24.562  0.00  0.00     0.087 H 
ATOM     20  C25 9R8 d   1      69.650  37.999  25.009  0.00  0.00     0.010 A 
ATOM     21  H11 9R8 d   1      67.849  38.358  26.147  0.00  0.00     0.086 H 
ATOM     22  C26 9R8 d   1      70.148  37.515  23.783  0.00  0.00    -0.060 A 
ATOM     23  C24 9R8 d   1      69.342  36.851  22.868  0.00  0.00    -0.055 A 
ATOM     24  H25 9R8 d   1      71.195  37.666  23.546  0.00  0.00     0.086 H 
ATOM     25  H13 9R8 d   1      69.764  36.437  21.959  0.00  0.00     0.087 H 
BRANCH  20  26
ATOM     26  N29 9R8 d   1      70.518  38.687  25.920  0.00  0.00    -0.279 NA
ATOM     27  C30 9R8 d   1      69.910  39.029  27.235  0.00  0.00     0.003 C 
ATOM     28  C31 9R8 d   1      70.836  39.942  28.058  0.00  0.00     0.031 C 
ATOM     29  H14 9R8 d   1      69.728  38.102  27.798  0.00  0.00     0.059 H 
ATOM     30  H15 9R8 d   1      68.955  39.547  27.064  0.00  0.00     0.059 H 
ATOM     31  O32 9R8 d   1      72.145  39.359  28.053  0.00  0.00    -0.389 OA
ATOM     32  H16 9R8 d   1      70.465  40.018  29.091  0.00  0.00     0.076 H 
ATOM     33  H17 9R8 d   1      70.871  40.944  27.606  0.00  0.00     0.076 H 
ATOM     34  C33 9R8 d   1      72.747  39.154  26.760  0.00  0.00     0.031 C 
ATOM     35  C34 9R8 d   1      71.879  38.117  26.021  0.00  0.00     0.003 C 
ATOM     36  H18 9R8 d   1      72.767  40.099  26.198  0.00  0.00     0.076 H 
ATOM     37  H19 9R8 d   1      73.773  38.775  26.876  0.00  0.00     0.076 H 
ATOM     38  H20 9R8 d   1      72.286  37.931  25.016  0.00  0.00     0.059 H 
ATOM     39  H21 9R8 d   1      71.853  37.174  26.587  0.00  0.00     0.059 H 
ENDBRANCH  20  26
ENDBRANCH  15  16
BRANCH  15  40
ATOM     40  C28 9R8 d   1      66.945  36.740  20.889  0.00  0.00    -0.011 C 
ATOM     41  H26 9R8 d   1      66.278  36.129  20.263  0.00  0.00     0.057 H 
ATOM     42  H27 9R8 d   1      67.919  36.848  20.390  0.00  0.00     0.057 H 
ATOM     43  H28 9R8 d   1      66.498  37.734  21.040  0.00  0.00     0.057 H 
ENDBRANCH  15  40
ENDBRANCH   1  13
BRANCH   2  44
ATOM     44  O5  9R8 d   1      64.310  34.205  23.920  0.00  0.00    -0.360 OA
ATOM     45  H2  9R8 d   1      64.435  34.638  23.084  0.00  0.00     0.217 HD
ENDBRANCH   2  44
BRANCH   6  46
ATOM     46  C13 9R8 d   1      70.596  33.214  26.143  0.00  0.00     0.002 C 
ATOM     47  H3  9R8 d   1      71.132  32.889  27.047  0.00  0.00     0.049 H 
ATOM     48  H4  9R8 d   1      70.711  34.301  26.019  0.00  0.00     0.049 H 
BRANCH  46  49
ATOM     49  C14 9R8 d   1      71.256  32.552  24.963  0.00  0.00    -0.052 A 
ATOM     50  C15 9R8 d   1      71.663  33.344  23.887  0.00  0.00    -0.076 A 
ATOM     51  C18 9R8 d   1      72.373  32.758  22.838  0.00  0.00    -0.082 A 
ATOM     52  H5  9R8 d   1      71.430  34.403  23.867  0.00  0.00     0.084 H 
ATOM     53  C16 9R8 d   1      72.712  31.412  22.880  0.00  0.00    -0.077 A 
ATOM     54  H24 9R8 d   1      72.662  33.359  21.983  0.00  0.00     0.083 H 
ATOM     55  C17 9R8 d   1      72.303  30.638  23.960  0.00  0.00    -0.061 A 
ATOM     56  H6  9R8 d   1      73.290  30.969  22.078  0.00  0.00     0.084 H 
ATOM     57  C19 9R8 d   1      71.598  31.209  25.022  0.00  0.00    -0.071 A 
ATOM     58  H7  9R8 d   1      71.321  30.610  25.882  0.00  0.00     0.085 H 
BRANCH  55  59
ATOM     59  C20 9R8 d   1      72.657  29.193  24.044  0.00  0.00    -0.051 C 
ATOM     60  H8  9R8 d   1      73.206  28.897  23.138  0.00  0.00     0.033 H 
ATOM     61  H9  9R8 d   1      71.738  28.595  24.128  0.00  0.00     0.033 H 
ATOM     62  H10 9R8 d   1      73.289  29.021  24.928  0.00  0.00     0.033 H 
ENDBRANCH  55  59
ENDBRANCH  46  49
ENDBRANCH   6  46
TORSDOF 8
