REMARK  12 active torsions:
REMARK  status: ('A' for Active; 'I' for Inactive)
REMARK    1  A    between atoms: C08_5  and  C10_1 
REMARK    2  A    between atoms: C10_1  and  C18_11 
REMARK    3  A    between atoms: C09_6  and  C13_2 
REMARK    4  A    between atoms: C13_2  and  O02_12 
REMARK    5  A    between atoms: O05_14  and  C15_3 
REMARK    6  A    between atoms: P01_18  and  C03_4 
REMARK    7  A    between atoms: C08_5  and  C09_6 
REMARK    8  A    between atoms: C11_7  and  C08_5 
REMARK    9  A    between atoms: C09_6  and  C12_8 
REMARK   10  A    between atoms: C12_8  and  C14_9 
REMARK   11  A    between atoms: O02_12  and  C16_10 
REMARK   12  A    between atoms: O05_14  and  P01_18 
ROOT
ATOM      1  C08 9SW d   1       0.667 -22.482 -23.335  0.00  0.00    -0.019 C 
ATOM      2  H7  9SW d   1       1.751 -22.359 -23.194  0.00  0.00     0.048 H 
ENDROOT
BRANCH   1   3
ATOM      3  C10 9SW d   1       0.481 -23.693 -24.265  0.00  0.00    -0.061 C 
ATOM      4  H1  9SW d   1       1.091 -23.532 -25.166  0.00  0.00     0.033 H 
ATOM      5  H2  9SW d   1      -0.581 -23.750 -24.547  0.00  0.00     0.033 H 
BRANCH   3   6
ATOM      6  C18 9SW d   1       0.888 -25.043 -23.643  0.00  0.00    -0.076 C 
ATOM      7  H16 9SW d   1       0.723 -25.848 -24.374  0.00  0.00     0.027 H 
ATOM      8  H17 9SW d   1       0.280 -25.232 -22.746  0.00  0.00     0.027 H 
ATOM      9  H18 9SW d   1       1.952 -25.013 -23.365  0.00  0.00     0.027 H 
ENDBRANCH   3   6
ENDBRANCH   1   3
BRANCH   1  10
ATOM     10  C09 9SW d   1       0.130 -21.075 -23.925  0.00  0.00     0.094 C 
ATOM     11  H8  9SW d   1       0.912 -20.327 -23.729  0.00  0.00     0.068 H 
BRANCH  10  12
ATOM     12  C13 9SW d   1      -0.083 -21.150 -25.435  0.00  0.00     0.270 C 
ATOM     13  O06 9SW d   1      -0.954 -21.791 -25.971  0.00  0.00    -0.264 OA
BRANCH  12  14
ATOM     14  O02 9SW d   1       0.820 -20.375 -26.117  0.00  0.00    -0.326 OA
BRANCH  14  15
ATOM     15  C16 9SW d   1       0.288 -19.713 -27.254  0.00  0.00     0.013 C 
ATOM     16  H13 9SW d   1       1.079 -19.119 -27.735  0.00  0.00     0.067 H 
ATOM     17  H14 9SW d   1      -0.531 -19.049 -26.942  0.00  0.00     0.067 H 
ATOM     18  H15 9SW d   1      -0.095 -20.458 -27.966  0.00  0.00     0.067 H 
ENDBRANCH  14  15
ENDBRANCH  12  14
ENDBRANCH  10  12
BRANCH  10  19
ATOM     19  C12 9SW d   1      -1.159 -20.572 -23.270  0.00  0.00     0.137 C 
ATOM     20  O04 9SW d   1      -2.220 -21.153 -23.427  0.00  0.00    -0.297 OA
BRANCH  19  21
ATOM     21  C14 9SW d   1      -1.155 -19.326 -22.424  0.00  0.00    -0.020 C 
ATOM     22  H10 9SW d   1      -2.171 -19.135 -22.048  0.00  0.00     0.037 H 
ATOM     23  H11 9SW d   1      -0.823 -18.471 -23.032  0.00  0.00     0.037 H 
ATOM     24  H12 9SW d   1      -0.469 -19.461 -21.575  0.00  0.00     0.037 H 
ENDBRANCH  19  21
ENDBRANCH  10  19
ENDBRANCH   1  10
BRANCH   1  25
ATOM     25  C11 9SW d   1       0.063 -22.794 -21.959  0.00  0.00    -0.089 C 
ATOM     26  C03 9SW d   1       1.002 -23.015 -20.975  0.00  0.00     0.005 C 
ATOM     27  H6  9SW d   1       1.984 -23.358 -21.298  0.00  0.00     0.096 H 
ATOM     28  H9  9SW d   1      -1.010 -22.837 -21.777  0.00  0.00     0.077 H 
BRANCH  26  29
ATOM     29  P01 9SW d   1       0.760 -22.792 -19.217  0.00  0.00     0.273 P 
ATOM     30  O07 9SW d   1       2.080 -22.185 -18.657  0.00  0.00    -0.643 OA
ATOM     31  O17 9SW d   1       0.517 -24.210 -18.601  0.00  0.00    -0.643 OA
BRANCH  29  32
ATOM     32  O05 9SW d   1      -0.477 -21.832 -19.120  0.00  0.00    -0.314 OA
BRANCH  32  33
ATOM     33  C15 9SW d   1      -0.268 -20.451 -19.163  0.00  0.00     0.014 C 
ATOM     34  H3  9SW d   1      -1.234 -19.931 -19.083  0.00  0.00     0.067 H 
ATOM     35  H4  9SW d   1       0.215 -20.183 -20.114  0.00  0.00     0.067 H 
ATOM     36  H5  9SW d   1       0.379 -20.152 -18.326  0.00  0.00     0.067 H 
ENDBRANCH  32  33
ENDBRANCH  29  32
ENDBRANCH  26  29
ENDBRANCH   1  25
TORSDOF 12
