REMARK  22 active torsions:
REMARK  status: ('A' for Active; 'I' for Inactive)
REMARK    1  A    between atoms: CBA_2  and  OAH_1 
REMARK    2  A    between atoms: CAY_3  and  OAF_4 
REMARK    3  A    between atoms: CAW_9  and  CBC_8 
REMARK       I    between atoms: N_11  and  CAW_9 
REMARK    4  A    between atoms: CA_12  and  N_11 
REMARK    5  A    between atoms: C_13  and  CA_12 
REMARK    6  A    between atoms: CA_12  and  CB_15 
REMARK       I    between atoms: N1_30  and  C_13 
REMARK    7  A    between atoms: CB_15  and  CAP_16 
REMARK    8  A    between atoms: CAP_16  and  CAO_17 
REMARK    9  A    between atoms: CAO_17  and  CAQ_18 
REMARK   10  A    between atoms: CAQ_18  and  NAS_19 
REMARK       I    between atoms: NAS_19  and  CAV_20 
REMARK   11  A    between atoms: CAV_20  and  CBB_22 
REMARK   12  A    between atoms: CAX_26  and  OAE_27 
REMARK   13  A    between atoms: CAZ_28  and  OAG_29 
REMARK   14  A    between atoms: C1_31  and  N1_30 
REMARK   15  A    between atoms: C2_32  and  C1_31 
REMARK   16  A    between atoms: S1_36  and  C5_35 
REMARK   17  A    between atoms: N2_39  and  S1_36 
REMARK   18  A    between atoms: C17_49  and  C22_54 
REMARK   19  A    between atoms: C19_51  and  C24_56 
REMARK   20  A    between atoms: C20_52  and  C21_53 
REMARK   21  A    between atoms: C20_52  and  C25_57 
REMARK   22  A    between atoms: C21_53  and  C26_58 
ROOT
ATOM      1  H23 95B d   1     -16.662  12.789   3.637  0.00  0.00     0.071 H 
ATOM      2  H24 95B d   1     -15.470  11.740   4.477  0.00  0.00     0.071 H 
ATOM      3  C1  9RT d   1     -15.845  12.066   3.496  0.00  0.00     0.019 C 
ENDROOT
BRANCH   3   4
ATOM      4  N1  9RT d   1     -14.741  12.751   2.785  0.00  0.00    -0.355 N 
ATOM      5  C   95B d   1     -13.720  13.378   2.276  0.00  0.00     0.240 C 
ATOM      6  OXT 95B d   1     -13.175  14.006   3.217  0.00  0.00    -0.271 OA
ATOM      7  H22 95B d   1     -15.134  12.558   1.886  0.00  0.00     0.162 HD
BRANCH   5   8
ATOM      8  CA  95B d   1     -13.099  13.622   0.883  0.00  0.00     0.089 C 
ATOM      9  H7  95B d   1     -13.173  14.697   0.664  0.00  0.00     0.087 H 
BRANCH   8  10
ATOM     10  N   95B d   1     -11.674  13.269   0.883  0.00  0.00    -0.344 N 
ATOM     11  CAW 95B d   1     -10.642  14.111   0.634  0.00  0.00     0.255 C 
ATOM     12  OAC 95B d   1     -10.783  15.329   0.464  0.00  0.00    -0.268 OA
ATOM     13  H6  95B d   1     -11.443  12.317   1.086  0.00  0.00     0.163 HD
BRANCH  11  14
ATOM     14  CBC 95B d   1      -9.302  13.488   0.377  0.00  0.00     0.068 A 
ATOM     15  CBA 95B d   1      -9.070  12.100   0.512  0.00  0.00     0.114 A 
ATOM     16  CAY 95B d   1      -7.845  11.539   0.155  0.00  0.00     0.099 A 
ATOM     17  CAL 95B d   1      -6.812  12.355  -0.264  0.00  0.00    -0.048 A 
ATOM     18  CAJ 95B d   1      -7.019  13.733  -0.376  0.00  0.00    -0.079 A 
ATOM     19  H3  95B d   1      -5.845  11.928  -0.505  0.00  0.00     0.087 H 
ATOM     20  CAN 95B d   1      -8.240  14.277  -0.096  0.00  0.00    -0.065 A 
ATOM     21  H4  95B d   1      -6.203  14.375  -0.688  0.00  0.00     0.083 H 
ATOM     22  H5  95B d   1      -8.393  15.340  -0.242  0.00  0.00     0.085 H 
BRANCH  15  23
ATOM     23  OAH 95B d   1      -9.991  11.236   1.000  0.00  0.00    -0.357 OA
ATOM     24  H1  95B d   1     -10.181  10.574   0.345  0.00  0.00     0.217 HD
ENDBRANCH  15  23
BRANCH  16  25
ATOM     25  OAF 95B d   1      -7.756  10.184   0.307  0.00  0.00    -0.358 OA
ATOM     26  H2  95B d   1      -7.901   9.959   1.218  0.00  0.00     0.217 HD
ENDBRANCH  16  25
ENDBRANCH  11  14
ENDBRANCH   8  10
BRANCH   8  27
ATOM     27  CB  95B d   1     -13.908  12.862  -0.217  0.00  0.00    -0.038 C 
ATOM     28  H8  95B d   1     -13.709  13.363  -1.176  0.00  0.00     0.036 H 
ATOM     29  H9  95B d   1     -14.975  12.959   0.033  0.00  0.00     0.036 H 
BRANCH  27  30
ATOM     30  CAP 95B d   1     -13.614  11.359  -0.411  0.00  0.00    -0.061 C 
ATOM     31  H10 95B d   1     -14.176  10.787   0.342  0.00  0.00     0.033 H 
ATOM     32  H11 95B d   1     -12.536  11.187  -0.273  0.00  0.00     0.033 H 
BRANCH  30  33
ATOM     33  CAO 95B d   1     -14.018  10.870  -1.808  0.00  0.00    -0.050 C 
ATOM     34  H12 95B d   1     -13.308  11.313  -2.522  0.00  0.00     0.035 H 
ATOM     35  H13 95B d   1     -15.028  11.259  -2.006  0.00  0.00     0.035 H 
BRANCH  33  36
ATOM     36  CAQ 95B d   1     -14.055   9.367  -2.089  0.00  0.00    -0.004 C 
ATOM     37  H14 95B d   1     -14.274   9.211  -3.156  0.00  0.00     0.064 H 
ATOM     38  H15 95B d   1     -14.850   8.912  -1.481  0.00  0.00     0.064 H 
BRANCH  36  39
ATOM     39  NAS 95B d   1     -12.789   8.719  -1.769  0.00  0.00    -0.357 N 
ATOM     40  CAV 95B d   1     -12.211   7.784  -2.542  0.00  0.00     0.254 C 
ATOM     41  OAB 95B d   1     -12.679   7.461  -3.634  0.00  0.00    -0.268 OA
ATOM     42  H16 95B d   1     -12.323   8.986  -0.925  0.00  0.00     0.162 HD
BRANCH  40  43
ATOM     43  CBB 95B d   1     -11.022   7.058  -1.997  0.00  0.00     0.067 A 
ATOM     44  CAM 95B d   1     -10.584   5.848  -2.568  0.00  0.00    -0.065 A 
ATOM     45  CAI 95B d   1      -9.517   5.162  -2.033  0.00  0.00    -0.079 A 
ATOM     46  H17 95B d   1     -11.093   5.452  -3.439  0.00  0.00     0.085 H 
ATOM     47  CAK 95B d   1      -8.834   5.666  -0.912  0.00  0.00    -0.048 A 
ATOM     48  H18 95B d   1      -9.201   4.226  -2.479  0.00  0.00     0.083 H 
ATOM     49  CAX 95B d   1      -9.257   6.851  -0.318  0.00  0.00     0.099 A 
ATOM     50  H19 95B d   1      -7.980   5.132  -0.511  0.00  0.00     0.087 H 
ATOM     51  CAZ 95B d   1     -10.344   7.548  -0.853  0.00  0.00     0.114 A 
BRANCH  49  52
ATOM     52  OAE 95B d   1      -8.717   7.427   0.801  0.00  0.00    -0.358 OA
ATOM     53  H20 95B d   1      -9.185   8.229   1.000  0.00  0.00     0.217 HD
ENDBRANCH  49  52
BRANCH  51  54
ATOM     54  OAG 95B d   1     -10.650   8.724  -0.231  0.00  0.00    -0.357 OA
ATOM     55  H21 95B d   1      -9.904   9.310  -0.280  0.00  0.00     0.217 HD
ENDBRANCH  51  54
ENDBRANCH  40  43
ENDBRANCH  36  39
ENDBRANCH  33  36
ENDBRANCH  30  33
ENDBRANCH  27  30
ENDBRANCH   8  27
ENDBRANCH   5   8
ENDBRANCH   3   4
BRANCH   3  56
ATOM     56  C2  9RT d   1     -16.408  10.854   2.781  0.00  0.00    -0.040 A 
ATOM     57  C3  9RT d   1     -16.439   9.611   3.395  0.00  0.00    -0.074 A 
ATOM     58  C4  9RT d   1     -16.952   8.505   2.743  0.00  0.00    -0.060 A 
ATOM     59  H25 95B d   1     -16.055   9.505   4.403  0.00  0.00     0.084 H 
ATOM     60  C5  9RT d   1     -17.469   8.643   1.462  0.00  0.00     0.081 A 
ATOM     61  H26 95B d   1     -16.951   7.536   3.229  0.00  0.00     0.085 H 
ATOM     62  C12 9RT d   1     -17.425   9.867   0.822  0.00  0.00    -0.060 A 
ATOM     63  C13 9RT d   1     -16.910  10.963   1.492  0.00  0.00    -0.074 A 
ATOM     64  H34 95B d   1     -17.790   9.968  -0.194  0.00  0.00     0.085 H 
ATOM     65  H35 95B d   1     -16.898  11.928   0.999  0.00  0.00     0.084 H 
BRANCH  60  66
ATOM     66  S1  9RT d   1     -18.104   7.228   0.616  0.00  0.00     0.279 S 
ATOM     67  O1  9RT d   1     -19.136   6.645   1.415  0.00  0.00    -0.199 OA
ATOM     68  O2  9RT d   1     -18.362   7.570  -0.747  0.00  0.00    -0.199 OA
BRANCH  66  69
ATOM     69  N2  9RT d   1     -16.895   6.167   0.595  0.00  0.00    -0.197 N 
ATOM     70  C6  9RT d   1     -15.544   6.654   0.840  0.00  0.00     0.061 C 
ATOM     71  C7  9RT d   1     -14.486   5.744   0.282  0.00  0.00     0.030 A 
ATOM     72  H28 9RT d   1     -15.394   6.742   1.926  0.00  0.00     0.077 H 
ATOM     73  H29 9RT d   1     -15.437   7.644   0.373  0.00  0.00     0.077 H 
ATOM     74  C8  9RT d   1     -13.162   5.877   0.629  0.00  0.00    -0.063 A 
ATOM     75  N3  9RT d   1     -14.911   4.820  -0.583  0.00  0.00    -0.178 NA
ATOM     76  C9  9RT d   1     -12.244   5.010   0.077  0.00  0.00    -0.080 A 
ATOM     77  H30 9RT d   1     -12.847   6.648   1.323  0.00  0.00     0.086 H 
ATOM     78  C10 9RT d   1     -12.670   4.055  -0.817  0.00  0.00    -0.065 A 
ATOM     79  H31 9RT d   1     -11.196   5.080   0.345  0.00  0.00     0.083 H 
ATOM     80  C11 9RT d   1     -14.007   3.982  -1.105  0.00  0.00     0.010 A 
ATOM     81  H32 9RT d   1     -11.964   3.377  -1.282  0.00  0.00     0.085 H 
ATOM     82  C23 RIR d   1     -14.841   2.709  -1.677  0.00  0.00    -0.020 C 
ATOM     83  C18 RIR d   1     -16.110   2.917  -0.902  0.00  0.00    -0.008 A 
ATOM     84  H40 9RT d   1     -14.357   1.752  -1.433  0.00  0.00     0.043 H 
ATOM     85  H41 9RT d   1     -15.002   2.772  -2.763  0.00  0.00     0.043 H 
ATOM     86  C17 RIR d   1     -16.443   2.304   0.273  0.00  0.00    -0.017 A 
ATOM     87  C19 RIR d   1     -17.139   3.751  -1.253  0.00  0.00    -0.017 A 
ATOM     88 IR1  RIR d   1     -16.409   4.295   0.519  0.00  0.00     0.000 Ir
ATOM     89  C21 RIR d   1     -17.682   2.764   0.658  0.00  0.00    -0.018 A 
ATOM     90  C20 RIR d   1     -18.113   3.654  -0.291  0.00  0.00    -0.018 A 
BRANCH  86  91
ATOM     91  C22 RIR d   1     -15.613   1.297   1.013  0.00  0.00    -0.067 C 
ATOM     92  H37 9RT d   1     -14.673   1.125   0.468  0.00  0.00     0.028 H 
ATOM     93  H38 9RT d   1     -16.169   0.351   1.093  0.00  0.00     0.028 H 
ATOM     94  H39 9RT d   1     -15.388   1.676   2.021  0.00  0.00     0.028 H 
ENDBRANCH  86  91
BRANCH  89  95
ATOM     95  C26 RIR d   1     -18.438   2.344   1.884  0.00  0.00    -0.067 C 
ATOM     96  H48 9RT d   1     -17.838   1.620   2.454  0.00  0.00     0.028 H 
ATOM     97  H49 9RT d   1     -19.389   1.879   1.587  0.00  0.00     0.028 H 
ATOM     98  H50 9RT d   1     -18.641   3.226   2.510  0.00  0.00     0.028 H 
ENDBRANCH  89  95
BRANCH  87  99
ATOM     99  C24 RIR d   1     -17.187   4.623  -2.473  0.00  0.00    -0.067 C 
ATOM    100  H42 9RT d   1     -16.264   4.488  -3.057  0.00  0.00     0.028 H 
ATOM    101  H43 9RT d   1     -17.277   5.676  -2.168  0.00  0.00     0.028 H 
ATOM    102  H44 9RT d   1     -18.055   4.344  -3.089  0.00  0.00     0.028 H 
ENDBRANCH  87  99
BRANCH  90 103
ATOM    103  C25 RIR d   1     -19.415   4.390  -0.271  0.00  0.00    -0.067 C 
ATOM    104  H45 9RT d   1     -19.486   5.033  -1.161  0.00  0.00     0.028 H 
ATOM    105  H46 9RT d   1     -19.471   5.011   0.635  0.00  0.00     0.028 H 
ATOM    106  H47 9RT d   1     -20.245   3.668  -0.273  0.00  0.00     0.028 H 
ENDBRANCH  90 103
ENDBRANCH  66  69
ENDBRANCH  60  66
ENDBRANCH   3  56
TORSDOF 22
