REMARK WARNING: 32 MAX_TORS EXCEEDED!!!
REMARK  87 active torsions:
REMARK  status: ('A' for Active; 'I' for Inactive)
REMARK    1  A    between atoms: N_1  and  CA_2 
REMARK    2  A    between atoms: CA_2  and  C_3 
REMARK    3  A    between atoms: CA_2  and  CB_5 
REMARK       I    between atoms: C_3  and  N_6 
REMARK    4  A    between atoms: N_6  and  CA_7 
REMARK    5  A    between atoms: CA_7  and  C_8 
REMARK    6  A    between atoms: CA_7  and  CB_10 
REMARK       I    between atoms: C_8  and  N_11 
REMARK    7  A    between atoms: N_11  and  CA_12 
REMARK    8  A    between atoms: CA_12  and  C_13 
REMARK    9  A    between atoms: CA_12  and  CB_15 
REMARK       I    between atoms: C_13  and  N_17 
REMARK   10  A    between atoms: CB_15  and  OG_16 
REMARK   11  A    between atoms: N_17  and  CA_18 
REMARK   12  A    between atoms: CA_18  and  C_19 
REMARK   13  A    between atoms: CA_18  and  CB_21 
REMARK       I    between atoms: C_19  and  N_22 
REMARK   14  A    between atoms: N_22  and  CA_23 
REMARK   15  A    between atoms: CA_23  and  C_24 
REMARK   16  A    between atoms: CA_23  and  CB_26 
REMARK       I    between atoms: C_24  and  N_30 
REMARK   17  A    between atoms: CB_26  and  CG_27 
REMARK   18  A    between atoms: CG_27  and  CD1_28 
REMARK   19  A    between atoms: CG_27  and  CD2_29 
REMARK   20  A    between atoms: N_30  and  CA_31 
REMARK   21  A    between atoms: CA_31  and  C_32 
REMARK   22  A    between atoms: CA_31  and  CB_34 
REMARK       I    between atoms: C_32  and  N_41 
REMARK   23  A    between atoms: CB_34  and  CG_35 
REMARK   24  A    between atoms: CG_35  and  CD_36 
REMARK   25  A    between atoms: CD_36  and  NE_37 
REMARK       I    between atoms: NE_37  and  CZ_38 
REMARK       I    between atoms: CZ_38  and  NH1_39 
REMARK       I    between atoms: CZ_38  and  NH2_40 
REMARK   26  A    between atoms: N_41  and  CA_42 
REMARK   27  A    between atoms: CA_42  and  C_43 
REMARK   28  A    between atoms: CA_42  and  CB_45 
REMARK       I    between atoms: C_43  and  N_50 
REMARK   29  A    between atoms: CB_45  and  CG_46 
REMARK   30  A    between atoms: CG_46  and  CD_47 
REMARK   31  A    between atoms: CD_47  and  CE_48 
REMARK   32  A    between atoms: CE_48  and  NZ_49 
REMARK   33  A    between atoms: N_50  and  CA_51 
REMARK   34  A    between atoms: CA_51  and  C_52 
REMARK   35  A    between atoms: CA_51  and  CB_54 
REMARK       I    between atoms: C_52  and  N_59 
REMARK   36  A    between atoms: CB_54  and  CG_55 
REMARK   37  A    between atoms: CG_55  and  CD_56 
REMARK       I    between atoms: CD_56  and  NE2_58 
REMARK   38  A    between atoms: N_59  and  CA_60 
REMARK   39  A    between atoms: CA_60  and  CB_61 
REMARK   40  A    between atoms: CA_60  and  C_63 
REMARK   41  A    between atoms: CB_61  and  OG_62 
REMARK   42  A    between atoms: OG_62  and  P_65 
REMARK       I    between atoms: C_63  and  N_69 
REMARK   43  A    between atoms: N_69  and  CA_70 
REMARK   44  A    between atoms: CA_70  and  C_71 
REMARK   45  A    between atoms: CA_70  and  CB_73 
REMARK       I    between atoms: C_71  and  N_77 
REMARK   46  A    between atoms: CB_73  and  CG_74 
REMARK   47  A    between atoms: CG_74  and  CD1_75 
REMARK   48  A    between atoms: CG_74  and  CD2_76 
REMARK   49  A    between atoms: N_77  and  CA_78 
REMARK   50  A    between atoms: CA_78  and  C_79 
REMARK   51  A    between atoms: CA_78  and  CB_81 
REMARK       I    between atoms: C_79  and  N_89 
REMARK   52  A    between atoms: CB_81  and  CG_82 
REMARK   53  A    between atoms: CZ_87  and  OH_88 
REMARK   54  A    between atoms: N_89  and  CA_90 
REMARK   55  A    between atoms: CA_90  and  C_91 
REMARK   56  A    between atoms: CA_90  and  CB_93 
REMARK       I    between atoms: C_91  and  N_97 
REMARK   57  A    between atoms: CB_93  and  CG_94 
REMARK   58  A    between atoms: CG_94  and  CD1_95 
REMARK   59  A    between atoms: CG_94  and  CD2_96 
REMARK   60  A    between atoms: N_97  and  CA_98 
REMARK   61  A    between atoms: CA_98  and  C_99 
REMARK   62  A    between atoms: CA_98  and  CB_101 
REMARK       I    between atoms: C_99  and  N_106 
REMARK   63  A    between atoms: CB_101  and  CG_102 
REMARK   64  A    between atoms: CG_102  and  CD_103 
REMARK   65  A    between atoms: CD_103  and  CE_104 
REMARK   66  A    between atoms: CE_104  and  NZ_105 
REMARK   67  A    between atoms: N_106  and  CA_107 
REMARK   68  A    between atoms: CA_107  and  C_108 
REMARK   69  A    between atoms: CA_107  and  CB_110 
REMARK       I    between atoms: C_108  and  N_117 
REMARK   70  A    between atoms: CB_110  and  CG_111 
REMARK   71  A    between atoms: N_117  and  CA_118 
REMARK   72  A    between atoms: CA_118  and  C_119 
REMARK   73  A    between atoms: CA_118  and  CB_121 
REMARK       I    between atoms: C_119  and  N_125 
REMARK   74  A    between atoms: CB_121  and  CG_122 
REMARK   75  A    between atoms: CA_126  and  C_127 
REMARK       I    between atoms: C_127  and  N_132 
REMARK   76  A    between atoms: N_132  and  CA_133 
REMARK   77  A    between atoms: CA_133  and  C_134 
REMARK   78  A    between atoms: CA_133  and  CB_136 
REMARK       I    between atoms: C_134  and  N_140 
REMARK   79  A    between atoms: CB_136  and  CG_137 
REMARK   80  A    between atoms: CG_137  and  CD1_138 
REMARK   81  A    between atoms: CG_137  and  CD2_139 
REMARK   82  A    between atoms: N_140  and  CA_141 
REMARK   83  A    between atoms: CA_141  and  C_142 
REMARK   84  A    between atoms: CA_141  and  CB_144 
REMARK   85  A    between atoms: CB_144  and  CG_145 
REMARK   86  A    between atoms: CG_145  and  CD1_146 
REMARK   87  A    between atoms: CG_145  and  CD2_147 
ROOT
ATOM      1  CA  LEU d   1     167.180 -31.297 164.912  0.00  0.00     0.089 C 
ATOM      2  H73 LEU d   1     168.192 -31.522 164.544  0.00  0.00     0.087 H 
ENDROOT
BRANCH   1   3
ATOM      3  N   LEU d   1     166.534 -30.427 163.936  0.00  0.00    -0.346 N 
ATOM      4  C   SEP d   1     166.572 -30.667 162.630  0.00  0.00     0.243 C 
ATOM      5  O   SEP d   1     167.146 -31.633 162.135  0.00  0.00    -0.271 OA
ATOM      6  H72 LEU d   1     166.044 -29.619 164.262  0.00  0.00     0.163 HD
BRANCH   4   7
ATOM      7  CA  SEP d   1     165.867 -29.645 161.754  0.00  0.00     0.110 C 
ATOM      8  H69 SEP d   1     165.511 -30.156 160.847  0.00  0.00     0.090 H 
BRANCH   7   9
ATOM      9  N   SEP d   1     164.717 -29.079 162.445  0.00  0.00    -0.344 N 
ATOM     10  C   GLN d   1     163.635 -29.798 162.713  0.00  0.00     0.241 C 
ATOM     11  O   GLN d   1     163.504 -30.965 162.355  0.00  0.00    -0.271 OA
ATOM     12  H68 SEP d   1     164.744 -28.120 162.726  0.00  0.00     0.163 HD
BRANCH  10  13
ATOM     13  CA  GLN d   1     162.534 -29.083 163.486  0.00  0.00     0.090 C 
ATOM     14  H61 GLN d   1     161.978 -29.836 164.064  0.00  0.00     0.087 H 
BRANCH  13  15
ATOM     15  N   GLN d   1     163.068 -28.096 164.426  0.00  0.00    -0.346 N 
ATOM     16  C   LYS d   1     163.827 -28.432 165.467  0.00  0.00     0.241 C 
ATOM     17  O   LYS d   1     164.159 -29.593 165.711  0.00  0.00    -0.271 OA
ATOM     18  H60 GLN d   1     162.854 -27.130 164.280  0.00  0.00     0.163 HD
BRANCH  16  19
ATOM     19  CA  LYS d   1     164.284 -27.284 166.364  0.00  0.00     0.089 C 
ATOM     20  H48 LYS d   1     165.130 -27.637 166.972  0.00  0.00     0.087 H 
BRANCH  19  21
ATOM     21  N   LYS d   1     164.732 -26.128 165.592  0.00  0.00    -0.346 N 
ATOM     22  C   ARG d   1     165.821 -26.173 164.829  0.00  0.00     0.241 C 
ATOM     23  O   ARG d   1     166.541 -27.169 164.748  0.00  0.00    -0.271 OA
ATOM     24  H47 LYS d   1     164.206 -25.279 165.638  0.00  0.00     0.163 HD
BRANCH  22  25
ATOM     25  CA  ARG d   1     166.150 -24.903 164.045  0.00  0.00     0.089 C 
ATOM     26  H35 ARG d   1     166.553 -25.197 163.065  0.00  0.00     0.087 H 
BRANCH  25  27
ATOM     27  N   ARG d   1     164.948 -24.102 163.823  0.00  0.00    -0.346 N 
ATOM     28  C   LEU d   1     164.038 -24.448 162.917  0.00  0.00     0.241 C 
ATOM     29  O   LEU d   1     164.157 -25.438 162.195  0.00  0.00    -0.271 OA
ATOM     30  H34 ARG d   1     164.806 -23.274 164.365  0.00  0.00     0.163 HD
BRANCH  28  31
ATOM     31  CA  LEU d   1     162.808 -23.550 162.805  0.00  0.00     0.089 C 
ATOM     32  H24 LEU d   1     162.026 -24.115 162.276  0.00  0.00     0.087 H 
BRANCH  31  33
ATOM     33  N   LEU d   1     162.272 -23.160 164.108  0.00  0.00    -0.346 N 
ATOM     34  C   ALA d   1     161.724 -24.050 164.930  0.00  0.00     0.240 C 
ATOM     35  O   ALA d   1     161.642 -25.246 164.657  0.00  0.00    -0.271 OA
ATOM     36  H23 LEU d   1     162.319 -22.201 164.388  0.00  0.00     0.163 HD
BRANCH  34  37
ATOM     37  CA  ALA d   1     161.193 -23.523 166.264  0.00  0.00     0.086 C 
ATOM     38  H19 ALA d   1     161.299 -24.328 167.007  0.00  0.00     0.086 H 
BRANCH  37  39
ATOM     39  N   ALA d   1     161.935 -22.363 166.759  0.00  0.00    -0.346 N 
ATOM     40  C   SER d   1     163.230 -22.427 167.056  0.00  0.00     0.243 C 
ATOM     41  O   SER d   1     163.897 -23.453 166.917  0.00  0.00    -0.271 OA
ATOM     42  H18 ALA d   1     161.453 -21.495 166.878  0.00  0.00     0.163 HD
BRANCH  40  43
ATOM     43  CA  SER d   1     163.873 -21.148 167.594  0.00  0.00     0.109 C 
ATOM     44  H14 SER d   1     164.965 -21.271 167.541  0.00  0.00     0.090 H 
BRANCH  43  45
ATOM     45  N   SER d   1     163.520 -19.963 166.816  0.00  0.00    -0.344 N 
ATOM     46  C   GLU d   1     163.934 -19.792 165.566  0.00  0.00     0.240 C 
ATOM     47  O   GLU d   1     164.614 -20.624 164.967  0.00  0.00    -0.271 OA
ATOM     48  H13 SER d   1     162.949 -19.259 167.238  0.00  0.00     0.163 HD
BRANCH  46  49
ATOM     49  CA  GLU d   1     163.514 -18.494 164.883  0.00  0.00     0.086 C 
ATOM     50  H9  GLU d   1     163.173 -18.739 163.866  0.00  0.00     0.086 H 
BRANCH  49  51
ATOM     51  N   GLU d   1     162.415 -17.828 165.577  0.00  0.00    -0.346 N 
ATOM     52  C   LYS d   1     161.151 -17.987 165.200  0.00  0.00     0.248 C 
ATOM     53  O   LYS d   1     160.815 -18.701 164.255  0.00  0.00    -0.271 OA
ATOM     54  H8  GLU d   1     162.619 -17.236 166.357  0.00  0.00     0.163 HD
BRANCH  52  55
ATOM     55  CA  LYS d   1     160.111 -17.227 166.012  0.00  0.00     0.172 C 
ATOM     56  H4  LYS d   1     159.112 -17.561 165.694  0.00  0.00     0.098 H 
BRANCH  55  57
ATOM     57  N   LYS d   1     160.246 -17.494 167.440  0.00  0.00    -0.067 N 
ATOM     58  H1  LYS d   1     159.544 -16.977 167.946  0.00  0.00     0.275 HD
ATOM     59  H2  LYS d   1     161.162 -17.210 167.750  0.00  0.00     0.275 HD
ATOM     60  H3  LYS d   1     160.125 -18.480 167.610  0.00  0.00     0.275 HD
ENDBRANCH  55  57
BRANCH  55  61
ATOM     61  CB  LYS d   1     160.234 -15.729 165.733  0.00  0.00    -0.042 C 
ATOM     62  H5  LYS d   1     160.130 -15.547 164.653  0.00  0.00     0.030 H 
ATOM     63  H6  LYS d   1     161.218 -15.373 166.071  0.00  0.00     0.030 H 
ATOM     64  H7  LYS d   1     159.443 -15.189 166.274  0.00  0.00     0.030 H 
ENDBRANCH  55  61
ENDBRANCH  52  55
ENDBRANCH  49  51
BRANCH  49  65
ATOM     65  CB  GLU d   1     164.716 -17.557 164.779  0.00  0.00    -0.049 C 
ATOM     66  H10 GLU d   1     165.536 -18.070 164.255  0.00  0.00     0.030 H 
ATOM     67  H11 GLU d   1     165.047 -17.272 165.788  0.00  0.00     0.030 H 
ATOM     68  H12 GLU d   1     164.430 -16.655 164.219  0.00  0.00     0.030 H 
ENDBRANCH  49  65
ENDBRANCH  46  49
ENDBRANCH  43  45
BRANCH  43  69
ATOM     69  CB  SER d   1     163.480 -20.954 169.058  0.00  0.00     0.044 C 
ATOM     70  H15 SER d   1     163.973 -20.050 169.446  0.00  0.00     0.077 H 
ATOM     71  H16 SER d   1     163.809 -21.829 169.638  0.00  0.00     0.077 H 
BRANCH  69  72
ATOM     72  OG  SER d   1     162.076 -20.810 169.192  0.00  0.00    -0.398 OA
ATOM     73  H17 SER d   1     161.857 -20.691 170.109  0.00  0.00     0.209 HD
ENDBRANCH  69  72
ENDBRANCH  43  69
ENDBRANCH  40  43
ENDBRANCH  37  39
BRANCH  37  74
ATOM     74  CB  ALA d   1     159.710 -23.183 166.136  0.00  0.00    -0.049 C 
ATOM     75  H20 ALA d   1     159.163 -24.062 165.763  0.00  0.00     0.030 H 
ATOM     76  H21 ALA d   1     159.585 -22.348 165.431  0.00  0.00     0.030 H 
ATOM     77  H22 ALA d   1     159.314 -22.895 167.121  0.00  0.00     0.030 H 
ENDBRANCH  37  74
ENDBRANCH  34  37
ENDBRANCH  31  33
BRANCH  31  78
ATOM     78  CB  LEU d   1     163.144 -22.308 161.979  0.00  0.00    -0.035 C 
ATOM     79  H25 LEU d   1     164.012 -22.545 161.347  0.00  0.00     0.037 H 
ATOM     80  H26 LEU d   1     163.407 -21.498 162.675  0.00  0.00     0.037 H 
BRANCH  78  81
ATOM     81  CG  LEU d   1     162.022 -21.804 161.071  0.00  0.00    -0.059 C 
ATOM     82  H27 LEU d   1     161.447 -22.672 160.717  0.00  0.00     0.038 H 
BRANCH  81  83
ATOM     83  CD1 LEU d   1     161.078 -20.886 161.826  0.00  0.00    -0.073 C 
ATOM     84  H28 LEU d   1     160.283 -20.540 161.149  0.00  0.00     0.028 H 
ATOM     85  H29 LEU d   1     161.637 -20.019 162.208  0.00  0.00     0.028 H 
ATOM     86  H30 LEU d   1     160.630 -21.433 162.668  0.00  0.00     0.028 H 
ENDBRANCH  81  83
BRANCH  81  87
ATOM     87  CD2 LEU d   1     162.611 -21.097 159.868  0.00  0.00    -0.073 C 
ATOM     88  H31 LEU d   1     163.291 -21.780 159.338  0.00  0.00     0.028 H 
ATOM     89  H32 LEU d   1     163.170 -20.210 160.201  0.00  0.00     0.028 H 
ATOM     90  H33 LEU d   1     161.801 -20.787 159.192  0.00  0.00     0.028 H 
ENDBRANCH  81  87
ENDBRANCH  78  81
ENDBRANCH  31  78
ENDBRANCH  28  31
ENDBRANCH  25  27
BRANCH  25  91
ATOM     91  CB  ARG d   1     167.217 -24.089 164.780  0.00  0.00    -0.036 C 
ATOM     92  H36 ARG d   1     168.030 -24.769 165.073  0.00  0.00     0.036 H 
ATOM     93  H37 ARG d   1     166.761 -23.653 165.681  0.00  0.00     0.036 H 
BRANCH  91  94
ATOM     94  CG  ARG d   1     167.812 -22.960 163.950  0.00  0.00    -0.048 C 
ATOM     95  H38 ARG d   1     168.372 -22.289 164.619  0.00  0.00     0.035 H 
ATOM     96  H39 ARG d   1     166.991 -22.403 163.475  0.00  0.00     0.035 H 
BRANCH  94  97
ATOM     97  CD  ARG d   1     168.754 -23.461 162.863  0.00  0.00     0.009 C 
ATOM     98  H40 ARG d   1     168.970 -22.633 162.172  0.00  0.00     0.064 H 
ATOM     99  H41 ARG d   1     168.260 -24.277 162.315  0.00  0.00     0.064 H 
BRANCH  97 100
ATOM    100  NE  ARG d   1     170.014 -23.957 163.410  0.00  0.00    -0.227 N 
ATOM    101  CZ  ARG d   1     170.982 -24.506 162.683  0.00  0.00     0.665 C 
ATOM    102  NH1 ARG d   1     170.841 -24.629 161.370  0.00  0.00    -0.235 N 
ATOM    103  NH2 ARG d   1     172.095 -24.924 163.269  0.00  0.00    -0.235 N 
ATOM    104  H43 ARG d   1     171.593 -25.055 160.809  0.00  0.00     0.174 HD
ATOM    105  H44 ARG d   1     169.980 -24.299 160.911  0.00  0.00     0.174 HD
ATOM    106  H45 ARG d   1     172.207 -24.830 164.288  0.00  0.00     0.174 HD
ATOM    107  H46 ARG d   1     172.848 -25.343 162.705  0.00  0.00     0.174 HD
ATOM    108  H42 ARG d   1     170.162 -23.876 164.426  0.00  0.00     0.177 HD
ENDBRANCH  97 100
ENDBRANCH  94  97
ENDBRANCH  91  94
ENDBRANCH  25  91
ENDBRANCH  22  25
ENDBRANCH  19  21
BRANCH  19 109
ATOM    109  CB  LYS d   1     163.140 -26.890 167.300  0.00  0.00    -0.038 C 
ATOM    110  H49 LYS d   1     162.547 -27.791 167.514  0.00  0.00     0.036 H 
ATOM    111  H50 LYS d   1     162.511 -26.152 166.780  0.00  0.00     0.036 H 
BRANCH 109 112
ATOM    112  CG  LYS d   1     163.579 -26.288 168.624  0.00  0.00    -0.061 C 
ATOM    113  H51 LYS d   1     164.276 -25.459 168.432  0.00  0.00     0.033 H 
ATOM    114  H52 LYS d   1     164.084 -27.060 169.224  0.00  0.00     0.033 H 
BRANCH 112 115
ATOM    115  CD  LYS d   1     162.374 -25.763 169.393  0.00  0.00    -0.043 C 
ATOM    116  H53 LYS d   1     161.784 -26.618 169.755  0.00  0.00     0.035 H 
ATOM    117  H54 LYS d   1     161.758 -25.153 168.716  0.00  0.00     0.035 H 
BRANCH 115 118
ATOM    118  CE  LYS d   1     162.786 -24.911 170.583  0.00  0.00     0.080 C 
ATOM    119  H55 LYS d   1     163.485 -24.134 170.241  0.00  0.00     0.075 H 
ATOM    120  H56 LYS d   1     163.284 -25.551 171.326  0.00  0.00     0.075 H 
BRANCH 118 121
ATOM    121  NZ  LYS d   1     161.607 -24.256 171.220  0.00  0.00    -0.079 N 
ATOM    122  H57 LYS d   1     161.914 -23.700 172.003  0.00  0.00     0.274 HD
ATOM    123  H58 LYS d   1     160.963 -24.962 171.541  0.00  0.00     0.274 HD
ATOM    124  H59 LYS d   1     161.148 -23.663 170.547  0.00  0.00     0.274 HD
ENDBRANCH 118 121
ENDBRANCH 115 118
ENDBRANCH 112 115
ENDBRANCH 109 112
ENDBRANCH  19 109
ENDBRANCH  16  19
ENDBRANCH  13  15
BRANCH  13 125
ATOM    125  CB  GLN d   1     161.568 -28.414 162.508  0.00  0.00    -0.030 C 
ATOM    126  H62 GLN d   1     162.038 -28.398 161.514  0.00  0.00     0.037 H 
ATOM    127  H63 GLN d   1     161.392 -27.383 162.847  0.00  0.00     0.037 H 
BRANCH 125 128
ATOM    128  CG  GLN d   1     160.220 -29.116 162.389  0.00  0.00     0.011 C 
ATOM    129  H64 GLN d   1     160.394 -30.177 162.155  0.00  0.00     0.047 H 
ATOM    130  H65 GLN d   1     159.650 -28.649 161.572  0.00  0.00     0.047 H 
BRANCH 128 131
ATOM    131  CD  GLN d   1     159.404 -29.026 163.666  0.00  0.00     0.215 C 
ATOM    132  OE1 GLN d   1     159.088 -27.933 164.135  0.00  0.00    -0.274 OA
ATOM    133  NE2 GLN d   1     159.056 -30.177 164.233  0.00  0.00    -0.370 N 
ATOM    134  H66 GLN d   1     158.518 -30.177 165.076  0.00  0.00     0.159 HD
ATOM    135  H67 GLN d   1     159.332 -31.043 163.816  0.00  0.00     0.159 HD
ENDBRANCH 128 131
ENDBRANCH 125 128
ENDBRANCH  13 125
ENDBRANCH  10  13
ENDBRANCH   7   9
BRANCH   7 136
ATOM    136  CB  SEP d   1     166.827 -28.526 161.334  0.00  0.00     0.059 C 
ATOM    137  H70 SEP d   1     166.832 -27.751 162.115  0.00  0.00     0.079 H 
ATOM    138  H71 SEP d   1     166.472 -28.091 160.388  0.00  0.00     0.079 H 
BRANCH 136 139
ATOM    139  OG  SEP d   1     168.149 -28.999 161.152  0.00  0.00    -0.280 OA
BRANCH 139 140
ATOM    140  P   SEP d   1     169.145 -27.786 161.484  0.00  0.00     0.422 P 
ATOM    141  O1P SEP d   1     168.793 -26.539 160.538  0.00  0.00    -0.617 OA
ATOM    142  O2P SEP d   1     170.665 -28.233 161.234  0.00  0.00    -0.617 OA
ATOM    143  O3P SEP d   1     168.954 -27.357 163.017  0.00  0.00    -0.617 OA
ENDBRANCH 139 140
ENDBRANCH 136 139
ENDBRANCH   7 136
ENDBRANCH   4   7
ENDBRANCH   1   3
BRANCH   1 144
ATOM    144  C   LEU d   1     166.445 -32.617 165.098  0.00  0.00     0.241 C 
ATOM    145  O   LEU d   1     167.063 -33.679 165.114  0.00  0.00    -0.271 OA
ATOM    146  N   TYR d   1     165.126 -32.546 165.251  0.00  0.00    -0.346 N 
ATOM    147  H83 TYR d   1     164.682 -31.650 165.251  0.00  0.00     0.163 HD
BRANCH 146 148
ATOM    148  CA  TYR d   1     164.311 -33.747 165.419  0.00  0.00     0.093 C 
ATOM    149  H84 TYR d   1     164.691 -34.292 166.295  0.00  0.00     0.088 H 
BRANCH 148 150
ATOM    150  C   TYR d   1     164.406 -34.669 164.205  0.00  0.00     0.241 C 
ATOM    151  O   TYR d   1     164.298 -35.887 164.332  0.00  0.00    -0.271 OA
ATOM    152  N   LEU d   1     164.607 -34.078 163.031  0.00  0.00    -0.346 N 
ATOM    153  H92 LEU d   1     164.659 -33.080 162.995  0.00  0.00     0.163 HD
BRANCH 152 154
ATOM    154  CA  LEU d   1     164.754 -34.839 161.792  0.00  0.00     0.089 C 
ATOM    155  H93 LEU d   1     163.869 -35.482 161.681  0.00  0.00     0.087 H 
BRANCH 154 156
ATOM    156  C   LEU d   1     165.992 -35.729 161.804  0.00  0.00     0.241 C 
ATOM    157  O   LEU d   1     165.972 -36.840 161.276  0.00  0.00    -0.271 OA
ATOM    158  N   LYS d   1     167.067 -35.239 162.413  0.00  0.00    -0.346 N 
ATOM    159 3H10 LYS d   1     167.002 -34.361 162.886  0.00  0.00     0.163 HD
BRANCH 158 160
ATOM    160  CA  LYS d   1     168.341 -35.954 162.407  0.00  0.00     0.089 C 
ATOM    161 4H10 LYS d   1     168.435 -36.439 161.424  0.00  0.00     0.087 H 
BRANCH 160 162
ATOM    162  C   LYS d   1     168.476 -37.043 163.468  0.00  0.00     0.241 C 
ATOM    163  O   LYS d   1     169.088 -38.083 163.217  0.00  0.00    -0.271 OA
ATOM    164  N   PHE d   1     167.912 -36.819 164.651  0.00  0.00    -0.346 N 
ATOM    165 6H11 PHE d   1     167.331 -36.016 164.786  0.00  0.00     0.163 HD
BRANCH 164 166
ATOM    166  CA  PHE d   1     168.144 -37.750 165.754  0.00  0.00     0.093 C 
ATOM    167 7H11 PHE d   1     168.917 -38.456 165.417  0.00  0.00     0.088 H 
BRANCH 166 168
ATOM    168  C   PHE d   1     166.945 -38.583 166.201  0.00  0.00     0.241 C 
ATOM    169  O   PHE d   1     167.093 -39.770 166.480  0.00  0.00    -0.271 OA
ATOM    170  N   ASP d   1     165.765 -37.979 166.277  0.00  0.00    -0.345 N 
ATOM    171 5H12 ASP d   1     165.674 -37.017 166.019  0.00  0.00     0.163 HD
BRANCH 170 172
ATOM    172  CA  ASP d   1     164.604 -38.729 166.739  0.00  0.00     0.099 C 
ATOM    173 6H12 ASP d   1     164.888 -39.268 167.655  0.00  0.00     0.088 H 
BRANCH 172 174
ATOM    174  C   ASP d   1     164.173 -39.766 165.696  0.00  0.00     0.243 C 
ATOM    175  O   ASP d   1     164.217 -39.505 164.497  0.00  0.00    -0.271 OA
ATOM    176  N   PRO d   1     163.752 -40.952 166.162  0.00  0.00    -0.337 N 
ATOM    177  CA  PRO d   1     163.445 -42.117 165.320  0.00  0.00     0.091 C 
ATOM    178  CD  PRO d   1     163.950 -41.339 167.570  0.00  0.00    -0.001 C 
ATOM    179  CB  PRO d   1     162.960 -43.155 166.326  0.00  0.00    -0.036 C 
ATOM    180 9H12 PRO d   1     164.361 -42.456 164.814  0.00  0.00     0.087 H 
ATOM    181  CG  PRO d   1     163.633 -42.813 167.591  0.00  0.00    -0.048 C 
ATOM    182 0H13 PRO d   1     163.241 -44.167 166.001  0.00  0.00     0.036 H 
ATOM    183 1H13 PRO d   1     161.868 -43.098 166.443  0.00  0.00     0.036 H 
ATOM    184 2H13 PRO d   1     164.563 -43.393 167.687  0.00  0.00     0.035 H 
ATOM    185 3H13 PRO d   1     162.970 -43.040 168.439  0.00  0.00     0.035 H 
ATOM    186 4H13 PRO d   1     163.267 -40.783 168.228  0.00  0.00     0.064 H 
ATOM    187 5H13 PRO d   1     164.989 -41.158 167.883  0.00  0.00     0.064 H 
BRANCH 177 188
ATOM    188  C   PRO d   1     162.359 -41.912 164.267  0.00  0.00     0.241 C 
ATOM    189  O   PRO d   1     162.375 -42.627 163.259  0.00  0.00    -0.271 OA
ATOM    190  N   LEU d   1     161.415 -41.004 164.516  0.00  0.00    -0.346 N 
ATOM    191 6H13 LEU d   1     161.431 -40.509 165.385  0.00  0.00     0.163 HD
BRANCH 190 192
ATOM    192  CA  LEU d   1     160.353 -40.713 163.547  0.00  0.00     0.089 C 
ATOM    193 7H13 LEU d   1     159.651 -40.020 164.034  0.00  0.00     0.087 H 
BRANCH 192 194
ATOM    194  C   LEU d   1     159.555 -41.936 163.111  0.00  0.00     0.241 C 
ATOM    195  O   LEU d   1     158.812 -42.510 163.910  0.00  0.00    -0.271 OA
ATOM    196  N   LEU d   1     159.828 -42.391 161.889  0.00  0.00    -0.345 N 
ATOM    197 7H14 LEU d   1     160.637 -42.030 161.424  0.00  0.00     0.163 HD
BRANCH 196 198
ATOM    198  CA  LEU d   1     159.018 -43.386 161.184  0.00  0.00     0.096 C 
ATOM    199 8H14 LEU d   1     158.143 -42.866 160.766  0.00  0.00     0.089 H 
BRANCH 198 200
ATOM    200  C   LEU d   1     158.507 -44.538 162.045  0.00  0.00     0.196 C 
ATOM    201  O   LEU d   1     157.366 -44.511 162.515  0.00  0.00    -0.646 OA
ATOM    202  OXT LEU d   1     159.228 -45.511 162.282  0.00  0.00    -0.646 OA
ENDBRANCH 198 200
BRANCH 198 203
ATOM    203  CB  LEU d   1     159.840 -43.975 160.038  0.00  0.00    -0.034 C 
ATOM    204 9H14 LEU d   1     159.222 -44.763 159.584  0.00  0.00     0.037 H 
ATOM    205 0H15 LEU d   1     160.733 -44.427 160.495  0.00  0.00     0.037 H 
BRANCH 203 206
ATOM    206  CG  LEU d   1     160.337 -43.098 158.889  0.00  0.00    -0.059 C 
ATOM    207 1H15 LEU d   1     159.730 -42.182 158.846  0.00  0.00     0.038 H 
BRANCH 206 208
ATOM    208  CD1 LEU d   1     161.804 -42.714 159.078  0.00  0.00    -0.073 C 
ATOM    209 2H15 LEU d   1     162.130 -42.085 158.237  0.00  0.00     0.028 H 
ATOM    210 3H15 LEU d   1     162.420 -43.625 159.114  0.00  0.00     0.028 H 
ATOM    211 4H15 LEU d   1     161.919 -42.156 160.019  0.00  0.00     0.028 H 
ENDBRANCH 206 208
BRANCH 206 212
ATOM    212  CD2 LEU d   1     160.183 -43.869 157.592  0.00  0.00    -0.073 C 
ATOM    213 5H15 LEU d   1     159.128 -44.147 157.454  0.00  0.00     0.028 H 
ATOM    214 6H15 LEU d   1     160.799 -44.779 157.631  0.00  0.00     0.028 H 
ATOM    215 7H15 LEU d   1     160.510 -43.240 156.751  0.00  0.00     0.028 H 
ENDBRANCH 206 212
ENDBRANCH 203 206
ENDBRANCH 198 203
ENDBRANCH 196 198
ENDBRANCH 192 194
BRANCH 192 216
ATOM    216  CB  LEU d   1     160.932 -40.011 162.308  0.00  0.00    -0.035 C 
ATOM    217 8H13 LEU d   1     160.229 -40.177 161.479  0.00  0.00     0.037 H 
ATOM    218 9H13 LEU d   1     161.893 -40.494 162.077  0.00  0.00     0.037 H 
BRANCH 216 219
ATOM    219  CG  LEU d   1     161.189 -38.502 162.393  0.00  0.00    -0.059 C 
ATOM    220 0H14 LEU d   1     161.956 -38.303 163.156  0.00  0.00     0.038 H 
BRANCH 219 221
ATOM    221  CD1 LEU d   1     161.655 -37.959 161.060  0.00  0.00    -0.073 C 
ATOM    222 1H14 LEU d   1     161.832 -36.877 161.147  0.00  0.00     0.028 H 
ATOM    223 2H14 LEU d   1     160.883 -38.144 160.298  0.00  0.00     0.028 H 
ATOM    224 3H14 LEU d   1     162.589 -38.461 160.766  0.00  0.00     0.028 H 
ENDBRANCH 219 221
BRANCH 219 225
ATOM    225  CD2 LEU d   1     159.887 -37.815 162.779  0.00  0.00    -0.073 C 
ATOM    226 4H14 LEU d   1     159.540 -38.204 163.748  0.00  0.00     0.028 H 
ATOM    227 5H14 LEU d   1     159.126 -38.014 162.011  0.00  0.00     0.028 H 
ATOM    228 6H14 LEU d   1     160.054 -36.731 162.858  0.00  0.00     0.028 H 
ENDBRANCH 219 225
ENDBRANCH 216 219
ENDBRANCH 192 216
ENDBRANCH 190 192
ENDBRANCH 177 188
ENDBRANCH 172 174
BRANCH 172 229
ATOM    229  CB  ASP d   1     163.457 -37.780 167.085  0.00  0.00     0.043 C 
ATOM    230 7H12 ASP d   1     163.783 -36.748 166.889  0.00  0.00     0.052 H 
ATOM    231 8H12 ASP d   1     163.216 -37.893 168.152  0.00  0.00     0.052 H 
BRANCH 229 232
ATOM    232  CG  ASP d   1     162.209 -38.055 166.276  0.00  0.00     0.175 C 
ATOM    233  OD1 ASP d   1     161.520 -39.063 166.553  0.00  0.00    -0.648 OA
ATOM    234  OD2 ASP d   1     161.903 -37.251 165.370  0.00  0.00    -0.648 OA
ENDBRANCH 229 232
ENDBRANCH 172 229
ENDBRANCH 170 172
ENDBRANCH 166 168
BRANCH 166 235
ATOM    235  CB  PHE d   1     168.686 -36.984 166.966  0.00  0.00    -0.014 C 
ATOM    236 8H11 PHE d   1     168.936 -37.711 167.753  0.00  0.00     0.043 H 
ATOM    237 9H11 PHE d   1     167.899 -36.307 167.329  0.00  0.00     0.043 H 
BRANCH 235 238
ATOM    238  CG  PHE d   1     169.909 -36.170 166.668  0.00  0.00    -0.056 A 
ATOM    239  CD1 PHE d   1     171.149 -36.780 166.562  0.00  0.00    -0.077 A 
ATOM    240  CE1 PHE d   1     172.280 -36.040 166.291  0.00  0.00    -0.082 A 
ATOM    241 0H12 PHE d   1     171.231 -37.853 166.694  0.00  0.00     0.084 H 
ATOM    242  CZ  PHE d   1     172.184 -34.673 166.120  0.00  0.00    -0.083 A 
ATOM    243 2H12 PHE d   1     173.244 -36.531 166.212  0.00  0.00     0.083 H 
ATOM    244  CE2 PHE d   1     170.955 -34.051 166.223  0.00  0.00    -0.082 A 
ATOM    245 4H12 PHE d   1     173.072 -34.089 165.905  0.00  0.00     0.083 H 
ATOM    246  CD2 PHE d   1     169.825 -34.800 166.495  0.00  0.00    -0.077 A 
ATOM    247 3H12 PHE d   1     170.877 -32.978 166.091  0.00  0.00     0.083 H 
ATOM    248 1H12 PHE d   1     168.862 -34.308 166.574  0.00  0.00     0.084 H 
ENDBRANCH 235 238
ENDBRANCH 166 235
ENDBRANCH 164 166
ENDBRANCH 160 162
BRANCH 160 249
ATOM    249  CB  LYS d   1     169.499 -34.965 162.570  0.00  0.00    -0.038 C 
ATOM    250 5H10 LYS d   1     170.440 -35.535 162.580  0.00  0.00     0.036 H 
ATOM    251 6H10 LYS d   1     169.375 -34.445 163.531  0.00  0.00     0.036 H 
BRANCH 249 252
ATOM    252  CG  LYS d   1     169.587 -33.920 161.471  0.00  0.00    -0.061 C 
ATOM    253 7H10 LYS d   1     168.616 -33.412 161.379  0.00  0.00     0.033 H 
ATOM    254 8H10 LYS d   1     169.832 -34.417 160.521  0.00  0.00     0.033 H 
BRANCH 252 255
ATOM    255  CD  LYS d   1     170.661 -32.887 161.783  0.00  0.00    -0.043 C 
ATOM    256 9H10 LYS d   1     171.648 -33.369 161.719  0.00  0.00     0.035 H 
ATOM    257 0H11 LYS d   1     170.504 -32.507 162.803  0.00  0.00     0.035 H 
BRANCH 255 258
ATOM    258  CE  LYS d   1     170.621 -31.717 160.810  0.00  0.00     0.080 C 
ATOM    259 1H11 LYS d   1     169.650 -31.209 160.902  0.00  0.00     0.075 H 
ATOM    260 2H11 LYS d   1     170.739 -32.100 159.786  0.00  0.00     0.075 H 
BRANCH 258 261
ATOM    261  NZ  LYS d   1     171.710 -30.736 161.089  0.00  0.00    -0.079 N 
ATOM    262 3H11 LYS d   1     171.655 -29.976 160.429  0.00  0.00     0.274 HD
ATOM    263 4H11 LYS d   1     172.604 -31.193 161.002  0.00  0.00     0.274 HD
ATOM    264 5H11 LYS d   1     171.606 -30.376 162.025  0.00  0.00     0.274 HD
ENDBRANCH 258 261
ENDBRANCH 255 258
ENDBRANCH 252 255
ENDBRANCH 249 252
ENDBRANCH 160 249
ENDBRANCH 158 160
ENDBRANCH 154 156
BRANCH 154 265
ATOM    265  CB  LEU d   1     164.825 -33.894 160.590  0.00  0.00    -0.035 C 
ATOM    266  H94 LEU d   1     165.347 -34.432 159.785  0.00  0.00     0.037 H 
ATOM    267  H95 LEU d   1     165.423 -33.023 160.897  0.00  0.00     0.037 H 
BRANCH 265 268
ATOM    268  CG  LEU d   1     163.519 -33.359 160.001  0.00  0.00    -0.059 C 
ATOM    269  H96 LEU d   1     162.847 -33.092 160.829  0.00  0.00     0.038 H 
BRANCH 268 270
ATOM    270  CD1 LEU d   1     163.796 -32.113 159.181  0.00  0.00    -0.073 C 
ATOM    271  H97 LEU d   1     162.853 -31.734 158.761  0.00  0.00     0.028 H 
ATOM    272  H98 LEU d   1     164.489 -32.359 158.363  0.00  0.00     0.028 H 
ATOM    273  H99 LEU d   1     164.246 -31.343 159.825  0.00  0.00     0.028 H 
ENDBRANCH 268 270
BRANCH 268 274
ATOM    274  CD2 LEU d   1     162.831 -34.414 159.146  0.00  0.00    -0.073 C 
ATOM    275 0H10 LEU d   1     162.637 -35.310 159.754  0.00  0.00     0.028 H 
ATOM    276 1H10 LEU d   1     163.480 -34.680 158.299  0.00  0.00     0.028 H 
ATOM    277 2H10 LEU d   1     161.878 -34.015 158.767  0.00  0.00     0.028 H 
ENDBRANCH 268 274
ENDBRANCH 265 268
ENDBRANCH 154 265
ENDBRANCH 152 154
ENDBRANCH 148 150
BRANCH 148 278
ATOM    278  CB  TYR d   1     162.843 -33.390 165.674  0.00  0.00    -0.014 C 
ATOM    279  H85 TYR d   1     162.280 -34.327 165.801  0.00  0.00     0.043 H 
ATOM    280  H86 TYR d   1     162.464 -32.851 164.793  0.00  0.00     0.043 H 
BRANCH 278 281
ATOM    281  CG  TYR d   1     162.601 -32.527 166.893  0.00  0.00    -0.056 A 
ATOM    282  CD1 TYR d   1     163.214 -32.814 168.106  0.00  0.00    -0.074 A 
ATOM    283  CE1 TYR d   1     162.988 -32.031 169.224  0.00  0.00    -0.051 A 
ATOM    284  H87 TYR d   1     163.881 -33.666 168.178  0.00  0.00     0.084 H 
ATOM    285  CZ  TYR d   1     162.131 -30.952 169.138  0.00  0.00     0.065 A 
ATOM    286  H89 TYR d   1     163.481 -32.263 170.161  0.00  0.00     0.087 H 
ATOM    287  CE2 TYR d   1     161.507 -30.653 167.948  0.00  0.00    -0.051 A 
ATOM    288  CD2 TYR d   1     161.740 -31.439 166.837  0.00  0.00    -0.074 A 
ATOM    289  H90 TYR d   1     160.836 -29.804 167.883  0.00  0.00     0.087 H 
ATOM    290  H88 TYR d   1     161.242 -31.202 165.904  0.00  0.00     0.084 H 
BRANCH 285 291
ATOM    291  OH  TYR d   1     161.896 -30.164 170.243  0.00  0.00    -0.361 OA
ATOM    292  H91 TYR d   1     162.395 -30.497 170.980  0.00  0.00     0.217 HD
ENDBRANCH 285 291
ENDBRANCH 278 281
ENDBRANCH 148 278
ENDBRANCH 146 148
ENDBRANCH   1 144
BRANCH   1 293
ATOM    293  CB  LEU d   1     167.305 -30.581 166.259  0.00  0.00    -0.035 C 
ATOM    294  H74 LEU d   1     167.150 -31.327 167.052  0.00  0.00     0.037 H 
ATOM    295  H75 LEU d   1     166.512 -29.821 166.311  0.00  0.00     0.037 H 
BRANCH 293 296
ATOM    296  CG  LEU d   1     168.639 -29.884 166.526  0.00  0.00    -0.059 C 
ATOM    297  H76 LEU d   1     169.132 -29.686 165.563  0.00  0.00     0.038 H 
BRANCH 296 298
ATOM    298  CD1 LEU d   1     168.409 -28.562 167.231  0.00  0.00    -0.073 C 
ATOM    299  H77 LEU d   1     169.376 -28.072 167.417  0.00  0.00     0.028 H 
ATOM    300  H78 LEU d   1     167.899 -28.741 168.189  0.00  0.00     0.028 H 
ATOM    301  H79 LEU d   1     167.785 -27.913 166.599  0.00  0.00     0.028 H 
ENDBRANCH 296 298
BRANCH 296 302
ATOM    302  CD2 LEU d   1     169.540 -30.782 167.356  0.00  0.00    -0.073 C 
ATOM    303  H80 LEU d   1     169.695 -31.735 166.828  0.00  0.00     0.028 H 
ATOM    304  H81 LEU d   1     169.068 -30.975 168.331  0.00  0.00     0.028 H 
ATOM    305  H82 LEU d   1     170.510 -30.287 167.510  0.00  0.00     0.028 H 
ENDBRANCH 296 302
ENDBRANCH 293 296
ENDBRANCH   1 293
TORSDOF 87
