REMARK  7 active torsions:
REMARK  status: ('A' for Active; 'I' for Inactive)
REMARK    1  A    between atoms: C1_1  and  O1_8 
REMARK    2  A    between atoms: C2_2  and  O2_9 
REMARK    3  A    between atoms: C3_3  and  O3_10 
REMARK    4  A    between atoms: C4_4  and  O4_11 
REMARK    5  A    between atoms: C5_5  and  C6_6 
REMARK    6  A    between atoms: C6_6  and  O6_13 
REMARK    7  A    between atoms: O1_8  and  C7_7 
ROOT
ATOM      1  C1  AMG d   1       3.284 -27.558 -58.262  0.00  0.00     0.158 C 
ATOM      2  C2  AMG d   1       4.174 -28.570 -59.036  0.00  0.00     0.110 C 
ATOM      3  C3  AMG d   1       5.417 -27.893 -59.629  0.00  0.00     0.092 C 
ATOM      4  C4  AMG d   1       5.023 -26.617 -60.410  0.00  0.00     0.090 C 
ATOM      5  C5  AMG d   1       4.100 -25.688 -59.572  0.00  0.00     0.089 C 
ATOM      6  O5  AMG d   1       2.999 -26.403 -59.047  0.00  0.00    -0.349 OA
ATOM      7  H1  AMG d   1       2.338 -28.059 -58.008  0.00  0.00     0.133 H 
ATOM      8  H2  AMG d   1       3.589 -28.998 -59.863  0.00  0.00     0.094 H 
ATOM      9  H3  AMG d   1       6.095 -27.612 -58.810  0.00  0.00     0.091 H 
ATOM     10  H4  AMG d   1       5.937 -26.065 -60.673  0.00  0.00     0.091 H 
ATOM     11  H5  AMG d   1       4.683 -25.322 -58.714  0.00  0.00     0.090 H 
ENDROOT
BRANCH   1  12
ATOM     12  O1  AMG d   1       3.905 -27.119 -57.071  0.00  0.00    -0.363 OA
BRANCH  12  13
ATOM     13  C7  AMG d   1       3.051 -26.551 -56.084  0.00  0.00     0.007 C 
ATOM     14  H8  AMG d   1       3.649 -26.250 -55.211  0.00  0.00     0.066 H 
ATOM     15  H9  AMG d   1       2.301 -27.294 -55.776  0.00  0.00     0.066 H 
ATOM     16  H10 AMG d   1       2.543 -25.669 -56.502  0.00  0.00     0.066 H 
ENDBRANCH  12  13
ENDBRANCH   1  12
BRANCH   2  17
ATOM     17  O2  AMG d   1       4.524 -29.587 -58.157  0.00  0.00    -0.388 OA
ATOM     18  H11 AMG d   1       3.736 -29.986 -57.807  0.00  0.00     0.210 HD
ENDBRANCH   2  17
BRANCH   3  19
ATOM     19  O3  AMG d   1       6.071 -28.785 -60.474  0.00  0.00    -0.390 OA
ATOM     20  H12 AMG d   1       6.309 -29.565 -59.986  0.00  0.00     0.210 HD
ENDBRANCH   3  19
BRANCH   5  21
ATOM     21  C6  AMG d   1       3.692 -24.423 -60.434  0.00  0.00     0.043 C 
ATOM     22  H6  AMG d   1       2.929 -24.722 -61.167  0.00  0.00     0.078 H 
ATOM     23  H7  AMG d   1       4.582 -24.049 -60.962  0.00  0.00     0.078 H 
BRANCH  21  24
ATOM     24  O6  AMG d   1       3.177 -23.401 -59.637  0.00  0.00    -0.398 OA
ATOM     25  H14 AMG d   1       3.833 -23.134 -59.004  0.00  0.00     0.209 HD
ENDBRANCH  21  24
ENDBRANCH   5  21
BRANCH   4  26
ATOM     26  O4  AMG d   1       4.354 -26.989 -61.576  0.00  0.00    -0.390 OA
ATOM     27  H13 AMG d   1       4.139 -26.212 -62.078  0.00  0.00     0.210 HD
ENDBRANCH   4  26
TORSDOF 7
