REMARK  15 active torsions:
REMARK  status: ('A' for Active; 'I' for Inactive)
REMARK    1  A    between atoms: C10_1  and  O09_41 
REMARK    2  A    between atoms: C13_2  and  C14_16 
REMARK    3  A    between atoms: S18_50  and  C17_3 
REMARK    4  A    between atoms: C21_4  and  C22_5 
REMARK    5  A    between atoms: C22_5  and  O23_46 
REMARK    6  A    between atoms: C24_6  and  O25_47 
REMARK    7  A    between atoms: C26_7  and  N27_36 
REMARK    8  A    between atoms: C08_14  and  C07_13 
REMARK    9  A    between atoms: O09_41  and  C08_14 
REMARK   10  A    between atoms: C11_15  and  O12_42 
REMARK   11  A    between atoms: C14_16  and  O15_43 
REMARK   12  A    between atoms: C19_17  and  S18_50 
REMARK   13  A    between atoms: C29_18  and  C30_19 
REMARK   14  A    between atoms: C41_25  and  O42_48 
REMARK   15  A    between atoms: C43_26  and  O44_49 
ROOT
ATOM      1  C10 9SK d   1     -23.981  10.444  -0.562  0.00  0.00     0.094 C 
ATOM      2  C13 9SK d   1     -23.594  10.587  -3.045  0.00  0.00     0.087 C 
ATOM      3  C17 9SK d   1     -21.730  10.427  -1.638  0.00  0.00     0.112 C 
ATOM      4  C11 9SK d   1     -24.511  10.993  -1.894  0.00  0.00     0.090 C 
ATOM      5  C43 9SK d   1     -22.500  10.808  -0.393  0.00  0.00     0.096 C 
ATOM      6  O16 9SK d   1     -22.303  10.995  -2.789  0.00  0.00    -0.363 OA
ATOM      7  H1  9SK d   1     -24.083   9.349  -0.581  0.00  0.00     0.091 H 
ATOM      8  H2  9SK d   1     -23.589   9.489  -3.111  0.00  0.00     0.090 H 
ATOM      9  H3  9SK d   1     -21.780   9.333  -1.741  0.00  0.00     0.104 H 
ATOM     10  H13 9SK d   1     -25.524  10.608  -2.084  0.00  0.00     0.091 H 
ATOM     11  H20 9SK d   1     -22.413  11.895  -0.246  0.00  0.00     0.092 H 
ENDROOT
BRANCH   3  12
ATOM     12  S18 9SK d   1     -20.016  10.885  -1.505  0.00  0.00    -0.100 SA
BRANCH  12  13
ATOM     13  C19 9SK d   1     -19.148   9.373  -2.018  0.00  0.00     0.112 C 
ATOM     14  C41 9SK d   1     -17.643   9.632  -1.883  0.00  0.00     0.093 C 
ATOM     15  C26 9SK d   1     -16.917   8.335  -2.201  0.00  0.00     0.090 C 
ATOM     16  H19 9SK d   1     -17.398   9.982  -0.869  0.00  0.00     0.091 H 
ATOM     17  C24 9SK d   1     -17.461   7.156  -1.306  0.00  0.00     0.086 C 
ATOM     18  H8  9SK d   1     -17.153   8.099  -3.249  0.00  0.00     0.084 H 
ATOM     19  C21 9SK d   1     -19.001   7.087  -1.512  0.00  0.00     0.087 C 
ATOM     20  H7  9SK d   1     -16.988   6.200  -1.574  0.00  0.00     0.090 H 
ATOM     21  O20 9SK d   1     -19.566   8.316  -1.212  0.00  0.00    -0.363 OA
ATOM     22  H4  9SK d   1     -19.213   6.832  -2.561  0.00  0.00     0.090 H 
ATOM     23  H16 9SK d   1     -19.386   9.142  -3.067  0.00  0.00     0.104 H 
BRANCH  14  24
ATOM     24  O42 9SK d   1     -17.248  10.597  -2.861  0.00  0.00    -0.390 OA
ATOM     25  H27 9SK d   1     -16.316  10.762  -2.783  0.00  0.00     0.210 HD
ENDBRANCH  14  24
BRANCH  15  26
ATOM     26  N27 9SK d   1     -15.515   8.362  -2.099  0.00  0.00    -0.250 N 
ATOM     27  C28 9SK d   1     -14.738   8.707  -1.003  0.00  0.00     0.031 A 
ATOM     28  C29 9SK d   1     -13.414   8.566  -1.412  0.00  0.00     0.108 A 
ATOM     29  H9  9SK d   1     -15.091   9.024  -0.023  0.00  0.00     0.118 H 
ATOM     30  N39 9SK d   1     -13.474   8.141  -2.730  0.00  0.00    -0.130 NA
ATOM     31  N40 9SK d   1     -14.679   8.021  -3.105  0.00  0.00    -0.065 NA
BRANCH  28  32
ATOM     32  C30 9SK d   1     -12.220   8.774  -0.676  0.00  0.00     0.002 A 
ATOM     33  C31 9SK d   1     -11.011   8.914  -1.334  0.00  0.00    -0.030 A 
ATOM     34  C32 9SK d   1      -9.838   9.094  -0.638  0.00  0.00     0.158 A 
ATOM     35  H17 9SK d   1     -10.988   8.881  -2.417  0.00  0.00     0.089 H 
ATOM     36  C34 9SK d   1      -9.819   9.166   0.764  0.00  0.00     0.193 A 
ATOM     37  F33 9SK d   1      -8.684   9.240  -1.268  0.00  0.00    -0.203 F 
ATOM     38  C36 9SK d   1     -11.067   9.025   1.413  0.00  0.00     0.158 A 
ATOM     39  F35 9SK d   1      -8.716   9.341   1.418  0.00  0.00    -0.200 F 
ATOM     40  C38 9SK d   1     -12.224   8.817   0.701  0.00  0.00    -0.030 A 
ATOM     41  F37 9SK d   1     -11.057   9.050   2.726  0.00  0.00    -0.203 F 
ATOM     42  H18 9SK d   1     -13.159   8.684   1.234  0.00  0.00     0.089 H 
ENDBRANCH  28  32
ENDBRANCH  15  26
BRANCH  17  43
ATOM     43  O25 9SK d   1     -17.184   7.497   0.033  0.00  0.00    -0.391 OA
ATOM     44  H26 9SK d   1     -16.246   7.600   0.145  0.00  0.00     0.210 HD
ENDBRANCH  17  43
BRANCH  19  45
ATOM     45  C22 9SK d   1     -19.615   6.033  -0.606  0.00  0.00     0.043 C 
ATOM     46  H5  9SK d   1     -19.440   6.304   0.446  0.00  0.00     0.078 H 
ATOM     47  H6  9SK d   1     -19.156   5.055  -0.814  0.00  0.00     0.078 H 
BRANCH  45  48
ATOM     48  O23 9SK d   1     -20.984   5.966  -0.848  0.00  0.00    -0.398 OA
ATOM     49  H25 9SK d   1     -21.378   6.811  -0.668  0.00  0.00     0.209 HD
ENDBRANCH  45  48
ENDBRANCH  19  45
ENDBRANCH  12  13
ENDBRANCH   3  12
BRANCH   5  50
ATOM     50  O44 9SK d   1     -21.984  10.152   0.754  0.00  0.00    -0.389 OA
ATOM     51  H28 9SK d   1     -22.047   9.212   0.635  0.00  0.00     0.210 HD
ENDBRANCH   5  50
BRANCH   1  52
ATOM     52  O09 9SK d   1     -24.657  10.926   0.535  0.00  0.00    -0.376 OA
BRANCH  52  53
ATOM     53  C08 9SK d   1     -25.827  10.268   0.860  0.00  0.00     0.050 C 
ATOM     54  H11 9SK d   1     -26.374  10.045  -0.068  0.00  0.00     0.082 H 
ATOM     55  H12 9SK d   1     -25.571   9.328   1.370  0.00  0.00     0.082 H 
BRANCH  53  56
ATOM     56  C07 9SK d   1     -26.703  11.059   1.744  0.00  0.00     0.042 C 
ATOM     57  C02 9SK d   1     -27.314  12.268   1.262  0.00  0.00     0.296 C 
ATOM     58  O01 9SK d   1     -27.224  12.687   0.103  0.00  0.00    -0.259 OA
ATOM     59  O03 9SK d   1     -28.091  13.121   2.060  0.00  0.00    -0.274 OA
ATOM     60  C04 9SK d   1     -28.091  12.900   3.421  0.00  0.00     0.093 A 
ATOM     61  C05 9SK d   1     -27.417  11.796   3.961  0.00  0.00     0.040 A 
ATOM     62  C50 9SK d   1     -28.778  13.817   4.271  0.00  0.00    -0.046 A 
ATOM     63  C06 9SK d   1     -26.744  10.888   3.084  0.00  0.00    -0.053 C 
ATOM     64  C45 9SK d   1     -27.458  11.637   5.351  0.00  0.00     0.167 A 
ATOM     65  H10 9SK d   1     -26.243  10.022   3.514  0.00  0.00     0.086 H 
ATOM     66  C47 9SK d   1     -28.120  12.530   6.187  0.00  0.00     0.155 A 
ATOM     67  F46 9SK d   1     -26.847  10.608   5.935  0.00  0.00    -0.202 F 
ATOM     68  C49 9SK d   1     -28.792  13.632   5.655  0.00  0.00    -0.040 A 
ATOM     69  F48 9SK d   1     -28.134  12.338   7.498  0.00  0.00    -0.203 F 
ATOM     70  H21 9SK d   1     -29.313  14.329   6.302  0.00  0.00     0.088 H 
ATOM     71  H22 9SK d   1     -29.294  14.666   3.838  0.00  0.00     0.087 H 
ENDBRANCH  53  56
ENDBRANCH  52  53
ENDBRANCH   1  52
BRANCH   2  72
ATOM     72  C14 9SK d   1     -24.150  11.133  -4.376  0.00  0.00     0.043 C 
ATOM     73  H14 9SK d   1     -24.092  12.232  -4.370  0.00  0.00     0.078 H 
ATOM     74  H15 9SK d   1     -25.199  10.822  -4.486  0.00  0.00     0.078 H 
BRANCH  72  75
ATOM     75  O15 9SK d   1     -23.407  10.638  -5.449  0.00  0.00    -0.398 OA
ATOM     76  H24 9SK d   1     -23.759  10.981  -6.262  0.00  0.00     0.209 HD
ENDBRANCH  72  75
ENDBRANCH   2  72
BRANCH   4  77
ATOM     77  O12 9SK d   1     -24.545  12.409  -1.760  0.00  0.00    -0.390 OA
ATOM     78  H23 9SK d   1     -24.870  12.794  -2.565  0.00  0.00     0.210 HD
ENDBRANCH   4  77
TORSDOF 15
