REMARK  15 active torsions:
REMARK  status: ('A' for Active; 'I' for Inactive)
REMARK    1  A    between atoms: C10_1  and  O11_34 
REMARK    2  A    between atoms: C14_14  and  C15_2 
REMARK    3  A    between atoms: C15_2  and  O16_36 
REMARK    4  A    between atoms: C21_4  and  C22_5 
REMARK    5  A    between atoms: C27_17  and  C28_7 
REMARK    6  A    between atoms: C02_8  and  N03_30 
REMARK    7  A    between atoms: N18_31  and  C02_8 
REMARK    8  A    between atoms: C04_9  and  C05_10 
REMARK    9  A    between atoms: N03_30  and  C04_9 
REMARK   10  A    between atoms: C05_10  and  O06_32 
REMARK   11  A    between atoms: O06_32  and  C07_11 
REMARK   12  A    between atoms: C08_12  and  O09_33 
REMARK   13  A    between atoms: C12_13  and  O13_35 
REMARK   14  A    between atoms: C19_15  and  N18_31 
REMARK   15  A    between atoms: C32_21  and  O33_40 
ROOT
ATOM      1  C20 9TQ d   1       5.046  11.099 -44.823  0.00  0.00    -0.040 A 
ATOM      2  C21 9TQ d   1       3.645  10.816 -44.788  0.00  0.00     0.054 A 
ATOM      3  C26 9TQ d   1       3.748  10.423 -47.104  0.00  0.00    -0.069 A 
ATOM      4  C19 9TQ d   1       5.844  11.032 -46.001  0.00  0.00     0.035 A 
ATOM      5  C25 9TQ d   1       5.112  10.697 -47.135  0.00  0.00    -0.056 A 
ATOM      6  C27 9TQ d   1       2.934  10.452 -45.971  0.00  0.00    -0.007 A 
ATOM      7  H4  9TQ d   1       5.531  11.382 -43.896  0.00  0.00     0.088 H 
ATOM      8  H5  9TQ d   1       3.275  10.164 -48.044  0.00  0.00     0.085 H 
ATOM      9  H14 9TQ d   1       5.628  10.647 -48.087  0.00  0.00     0.086 H 
ENDROOT
BRANCH   4  10
ATOM     10  N18 9TQ d   1       7.310  11.377 -46.052  0.00  0.00    -0.333 N 
ATOM     11  H22 9TQ d   1       7.844  11.158 -45.235  0.00  0.00     0.168 HD
BRANCH  10  12
ATOM     12  C02 9TQ d   1       8.035  11.988 -47.143  0.00  0.00     0.172 C 
ATOM     13  S01 9TQ d   1       7.266  12.318 -48.550  0.00  0.00    -0.041 SA
BRANCH  12  14
ATOM     14  N03 9TQ d   1       9.395  12.355 -47.146  0.00  0.00    -0.365 N 
ATOM     15  H21 9TQ d   1       9.708  12.788 -47.991  0.00  0.00     0.161 HD
BRANCH  14  16
ATOM     16  C04 9TQ d   1      10.444  12.206 -46.101  0.00  0.00     0.015 C 
ATOM     17  H6  9TQ d   1      10.741  13.194 -45.718  0.00  0.00     0.067 H 
ATOM     18  H7  9TQ d   1      10.068  11.589 -45.272  0.00  0.00     0.067 H 
BRANCH  16  19
ATOM     19  C05 9TQ d   1      11.671  11.500 -46.789  0.00  0.00     0.037 C 
ATOM     20  H8  9TQ d   1      12.400  11.208 -46.019  0.00  0.00     0.077 H 
ATOM     21  H9  9TQ d   1      12.143  12.200 -47.495  0.00  0.00     0.077 H 
BRANCH  19  22
ATOM     22  O06 9TQ d   1      11.233  10.310 -47.512  0.00  0.00    -0.357 OA
BRANCH  22  23
ATOM     23  C07 9TQ d   1      11.826   9.092 -47.131  0.00  0.00     0.158 C 
ATOM     24  C08 9TQ d   1      11.230   7.848 -47.912  0.00  0.00     0.110 C 
ATOM     25  C10 9TQ d   1       9.753   7.507 -47.491  0.00  0.00     0.092 C 
ATOM     26  H11 9TQ d   1      11.863   6.978 -47.682  0.00  0.00     0.094 H 
ATOM     27  C12 9TQ d   1       9.658   7.402 -45.940  0.00  0.00     0.090 C 
ATOM     28  H1  9TQ d   1       9.082   8.307 -47.838  0.00  0.00     0.091 H 
ATOM     29  C14 9TQ d   1      10.309   8.652 -45.280  0.00  0.00     0.089 C 
ATOM     30  H12 9TQ d   1       8.604   7.336 -45.634  0.00  0.00     0.091 H 
ATOM     31  O17 9TQ d   1      11.625   8.871 -45.783  0.00  0.00    -0.348 OA
ATOM     32  H13 9TQ d   1       9.697   9.529 -45.535  0.00  0.00     0.090 H 
ATOM     33  H10 9TQ d   1      12.905   9.154 -47.334  0.00  0.00     0.133 H 
BRANCH  24  34
ATOM     34  O09 9TQ d   1      11.246   8.055 -49.279  0.00  0.00    -0.388 OA
ATOM     35  H23 9TQ d   1      12.141   8.192 -49.567  0.00  0.00     0.210 HD
ENDBRANCH  24  34
BRANCH  25  36
ATOM     36  O11 9TQ d   1       9.381   6.320 -48.079  0.00  0.00    -0.390 OA
ATOM     37  H24 9TQ d   1       9.445   6.402 -49.023  0.00  0.00     0.210 HD
ENDBRANCH  25  36
BRANCH  27  38
ATOM     38  O13 9TQ d   1      10.343   6.235 -45.549  0.00  0.00    -0.390 OA
ATOM     39  H25 9TQ d   1      10.301   6.146 -44.604  0.00  0.00     0.210 HD
ENDBRANCH  27  38
BRANCH  29  40
ATOM     40  C15 9TQ d   1      10.328   8.511 -43.735  0.00  0.00     0.043 C 
ATOM     41  H2  9TQ d   1      11.172   7.877 -43.426  0.00  0.00     0.078 H 
ATOM     42  H3  9TQ d   1       9.386   8.062 -43.387  0.00  0.00     0.078 H 
BRANCH  40  43
ATOM     43  O16 9TQ d   1      10.474   9.812 -43.189  0.00  0.00    -0.398 OA
ATOM     44  H26 9TQ d   1       9.744  10.354 -43.464  0.00  0.00     0.209 HD
ENDBRANCH  40  43
ENDBRANCH  29  40
ENDBRANCH  22  23
ENDBRANCH  19  22
ENDBRANCH  16  19
ENDBRANCH  14  16
ENDBRANCH  12  14
ENDBRANCH  10  12
ENDBRANCH   4  10
BRANCH   2  45
ATOM     45  C22 9TQ d   1       2.897  10.905 -43.406  0.00  0.00     0.210 C 
ATOM     46  O23 9TQ d   1       3.378  11.623 -42.513  0.00  0.00    -0.644 OA
ATOM     47  O24 9TQ d   1       1.856  10.227 -43.298  0.00  0.00    -0.644 OA
ENDBRANCH   2  45
BRANCH   6  48
ATOM     48  C28 9TQ d   1       1.444  10.154 -46.049  0.00  0.00     0.001 A 
ATOM     49  C29 9TQ d   1       0.541  11.366 -45.976  0.00  0.00     0.010 A 
ATOM     50  C30 9TQ d   1       0.964  12.676 -45.533  0.00  0.00    -0.067 A 
ATOM     51  C35 9TQ d   1      -0.806  11.289 -46.348  0.00  0.00     0.089 A 
ATOM     52  C31 9TQ d   1       0.162  13.823 -45.440  0.00  0.00    -0.050 A 
ATOM     53  H15 9TQ d   1       2.003  12.782 -45.244  0.00  0.00     0.085 H 
ATOM     54  C32 9TQ d   1      -1.182  13.711 -45.816  0.00  0.00     0.068 A 
ATOM     55  H16 9TQ d   1       0.569  14.764 -45.089  0.00  0.00     0.087 H 
ATOM     56  C34 9TQ d   1      -1.659  12.460 -46.262  0.00  0.00    -0.018 A 
ATOM     57  H17 9TQ d   1      -2.700  12.370 -46.551  0.00  0.00     0.092 H 
ATOM     58  O36 9TQ d   1      -1.330  10.072 -46.798  0.00  0.00    -0.309 OA
ATOM     59  C38 9TQ d   1      -0.584   8.885 -46.915  0.00  0.00     0.091 A 
ATOM     60  C37 9TQ d   1       0.860   8.966 -46.522  0.00  0.00     0.010 A 
ATOM     61  C39 9TQ d   1      -1.138   7.707 -47.363  0.00  0.00    -0.001 A 
ATOM     62  C40 9TQ d   1       1.503   7.650 -46.698  0.00  0.00    -0.066 A 
ATOM     63  C41 9TQ d   1       0.998   6.489 -47.129  0.00  0.00    -0.034 A 
ATOM     64  H19 9TQ d   1       2.559   7.619 -46.434  0.00  0.00     0.085 H 
ATOM     65  C42 9TQ d   1      -0.408   6.434 -47.506  0.00  0.00     0.174 A 
ATOM     66  H20 9TQ d   1       1.626   5.602 -47.197  0.00  0.00     0.089 H 
ATOM     67  O43 9TQ d   1      -0.897   5.350 -47.913  0.00  0.00    -0.288 OA
ATOM     68  H18 9TQ d   1      -2.193   7.716 -47.632  0.00  0.00     0.094 H 
BRANCH  54  69
ATOM     69  O33 9TQ d   1      -1.986  14.826 -45.732  0.00  0.00    -0.361 OA
ATOM     70  H27 9TQ d   1      -2.704  14.653 -45.134  0.00  0.00     0.217 HD
ENDBRANCH  54  69
ENDBRANCH   6  48
TORSDOF 15
