REMARK  2 active torsions:
REMARK  status: ('A' for Active; 'I' for Inactive)
REMARK    1  A    between atoms: C5_2  and  C7_4 
REMARK    2  A    between atoms: C6_3  and  C8_5 
ROOT
ATOM      1  C4  9TZ d   1     -25.154  15.160   7.632  0.00  0.00    -0.073 A 
ATOM      2  C5  9TZ d   1     -26.009  15.566   6.610  0.00  0.00    -0.045 A 
ATOM      3  C6  9TZ d   1     -26.399  14.611   5.662  0.00  0.00     0.049 A 
ATOM      4  C3  9TZ d   1     -24.711  13.854   7.737  0.00  0.00    -0.045 A 
ATOM      5  C1  9TZ d   1     -25.932  13.312   5.761  0.00  0.00    -0.029 A 
ATOM      6  C2  9TZ d   1     -25.097  12.960   6.783  0.00  0.00     0.117 A 
ATOM      7  F1  9TZ d   1     -24.626  11.678   6.815  0.00  0.00    -0.206 F 
ATOM      8  H1  9TZ d   1     -24.827  15.888   8.366  0.00  0.00     0.084 H 
ATOM      9  H5  9TZ d   1     -24.072  13.549   8.558  0.00  0.00     0.088 H 
ATOM     10  H6  9TZ d   1     -26.229  12.573   5.026  0.00  0.00     0.089 H 
ENDROOT
BRANCH   2  11
ATOM     11  C7  9TZ d   1     -26.420  17.024   6.584  0.00  0.00    -0.050 C 
ATOM     12  H2  9TZ d   1     -25.974  17.546   7.443  0.00  0.00     0.033 H 
ATOM     13  H3  9TZ d   1     -27.516  17.097   6.639  0.00  0.00     0.033 H 
ATOM     14  H4  9TZ d   1     -26.068  17.488   5.651  0.00  0.00     0.033 H 
ENDBRANCH   2  11
BRANCH   3  15
ATOM     15  C8  9TZ d   1     -27.278  14.939   4.475  0.00  0.00     0.210 C 
ATOM     16  O1  9TZ d   1     -27.199  16.205   4.103  0.00  0.00    -0.644 OA
ATOM     17  O2  9TZ d   1     -27.944  14.072   3.872  0.00  0.00    -0.644 OA
ENDBRANCH   3  15
TORSDOF 2
