REMARK  1 active torsions:
REMARK  status: ('A' for Active; 'I' for Inactive)
REMARK    1  A    between atoms: C6_6  and  C7_9 
REMARK       I    between atoms: C7_9  and  N1_11 
ROOT
ATOM      1  C1  9TW d   1     -26.413  14.676   6.019  0.00  0.00    -0.044 C 
ATOM      2  C2  9TW d   1     -25.903  13.424   6.239  0.00  0.00     0.073 C 
ATOM      3  C3  9TW d   1     -24.926  13.246   7.189  0.00  0.00     0.138 C 
ATOM      4  C4  9TW d   1     -24.577  14.242   8.047  0.00  0.00    -0.043 C 
ATOM      5  C5  9TW d   1     -25.113  15.513   7.844  0.00  0.00    -0.065 C 
ATOM      6  C6  9TW d   1     -26.056  15.726   6.845  0.00  0.00     0.033 C 
ATOM      7 CL1  9TW d   1     -26.373  12.117   5.221  0.00  0.00    -0.081 Cl
ATOM      8  F1  9TW d   1     -24.384  12.019   7.349  0.00  0.00    -0.204 F 
ATOM      9  H1  9TW d   1     -27.098  14.844   5.196  0.00  0.00     0.087 H 
ATOM     10  H2  9TW d   1     -23.898  14.052   8.870  0.00  0.00     0.088 H 
ATOM     11  H3  9TW d   1     -24.793  16.339   8.468  0.00  0.00     0.085 H 
ENDROOT
BRANCH   6  12
ATOM     12  C7  9TW d   1     -26.680  17.073   6.601  0.00  0.00     0.249 C 
ATOM     13  O1  9TW d   1     -27.346  17.259   5.575  0.00  0.00    -0.268 OA
ATOM     14  N1  9TW d   1     -26.451  18.040   7.494  0.00  0.00    -0.366 N 
ATOM     15  H4  9TW d   1     -26.851  18.947   7.362  0.00  0.00     0.159 HD
ATOM     16  H5  9TW d   1     -25.880  17.857   8.294  0.00  0.00     0.159 HD
ENDBRANCH   6  12
TORSDOF 1
