REMARK  19 active torsions:
REMARK  status: ('A' for Active; 'I' for Inactive)
REMARK    1  A    between atoms: O6'_1  and  C6'_2 
REMARK    2  A    between atoms: C6'_2  and  C5'_3 
REMARK    3  A    between atoms: C4'_4  and  O4'_5 
REMARK    4  A    between atoms: C3'_6  and  O3'_7 
REMARK    5  A    between atoms: C2'_9  and  C1'_10 
REMARK    6  A    between atoms: C2'_9  and  O1_12 
REMARK    7  A    between atoms: C1'_10  and  O1'_11 
REMARK    8  A    between atoms: O1_12  and  C1_13 
REMARK    9  A    between atoms: C2_14  and  O2_15 
REMARK   10  A    between atoms: C3_16  and  O3_17 
REMARK   11  A    between atoms: C4_18  and  O4_19 
REMARK   12  A    between atoms: C5_20  and  C6_22 
REMARK   13  A    between atoms: C6_22  and  O6_23 
REMARK   14  A    between atoms: O6_23  and  C1X_24 
REMARK   15  A    between atoms: C5X_26  and  C6X_27 
REMARK   16  A    between atoms: C6X_27  and  O6X_28 
REMARK   17  A    between atoms: C4X_29  and  O4X_30 
REMARK   18  A    between atoms: C3X_31  and  O3X_32 
REMARK   19  A    between atoms: C2X_33  and  O2X_34 
ROOT
ATOM      1  C1  RAF d   1     -50.660 -61.727 -98.658  0.00  0.00     0.162 C 
ATOM      2  C2  RAF d   1     -49.426 -62.582 -98.902  0.00  0.00     0.110 C 
ATOM      3  C3  RAF d   1     -49.579 -63.861 -98.070  0.00  0.00     0.092 C 
ATOM      4  C4  RAF d   1     -49.646 -63.415 -96.590  0.00  0.00     0.090 C 
ATOM      5  C5  RAF d   1     -50.820 -62.391 -96.387  0.00  0.00     0.089 C 
ATOM      6  O5  RAF d   1     -50.715 -61.349 -97.316  0.00  0.00    -0.348 OA
ATOM      7  H12 RAF d   1     -50.636 -60.836 -99.303  0.00  0.00     0.133 H 
ATOM      8  H13 RAF d   1     -48.518 -62.045 -98.592  0.00  0.00     0.094 H 
ATOM      9  H15 RAF d   1     -50.464 -64.444 -98.366  0.00  0.00     0.091 H 
ATOM     10  H17 RAF d   1     -48.689 -62.959 -96.295  0.00  0.00     0.091 H 
ATOM     11  H19 RAF d   1     -51.790 -62.901 -96.476  0.00  0.00     0.090 H 
ENDROOT
BRANCH   5  12
ATOM     12  C6  RAF d   1     -50.662 -61.705 -94.974  0.00  0.00     0.049 C 
ATOM     13  H20 RAF d   1     -49.854 -60.960 -95.006  0.00  0.00     0.078 H 
ATOM     14  H21 RAF d   1     -50.432 -62.463 -94.211  0.00  0.00     0.078 H 
BRANCH  12  15
ATOM     15  O6  RAF d   1     -51.903 -61.067 -94.670  0.00  0.00    -0.356 OA
BRANCH  15  16
ATOM     16  C1X RAF d   1     -52.729 -61.773 -93.751  0.00  0.00     0.158 C 
ATOM     17  O5X RAF d   1     -52.018 -61.793 -92.533  0.00  0.00    -0.348 OA
ATOM     18  C5X RAF d   1     -51.748 -60.569 -91.903  0.00  0.00     0.089 C 
ATOM     19  C4X RAF d   1     -52.979 -59.650 -91.757  0.00  0.00     0.090 C 
ATOM     20  H23 RAF d   1     -51.045 -60.029 -92.555  0.00  0.00     0.090 H 
ATOM     21  C3X RAF d   1     -53.777 -59.543 -93.075  0.00  0.00     0.092 C 
ATOM     22  H27 RAF d   1     -52.635 -58.651 -91.452  0.00  0.00     0.091 H 
ATOM     23  C2X RAF d   1     -54.061 -60.984 -93.595  0.00  0.00     0.110 C 
ATOM     24  H29 RAF d   1     -53.185 -58.981 -93.812  0.00  0.00     0.091 H 
ATOM     25  H31 RAF d   1     -54.735 -61.511 -92.903  0.00  0.00     0.094 H 
ATOM     26  H22 RAF d   1     -52.931 -62.796 -94.101  0.00  0.00     0.133 H 
BRANCH  18  27
ATOM     27  C6X RAF d   1     -51.019 -60.820 -90.581  0.00  0.00     0.043 C 
ATOM     28  H24 RAF d   1     -51.612 -61.477 -89.928  0.00  0.00     0.078 H 
ATOM     29  H25 RAF d   1     -50.817 -59.872 -90.062  0.00  0.00     0.078 H 
BRANCH  27  30
ATOM     30  O6X RAF d   1     -49.827 -61.442 -90.955  0.00  0.00    -0.398 OA
ATOM     31  H26 RAF d   1     -50.023 -62.251 -91.412  0.00  0.00     0.209 HD
ENDBRANCH  27  30
ENDBRANCH  18  27
BRANCH  19  32
ATOM     32  O4X RAF d   1     -53.886 -60.153 -90.802  0.00  0.00    -0.390 OA
ATOM     33  H28 RAF d   1     -53.454 -60.215 -89.958  0.00  0.00     0.210 HD
ENDBRANCH  19  32
BRANCH  21  34
ATOM     34  O3X RAF d   1     -55.015 -58.922 -92.901  0.00  0.00    -0.390 OA
ATOM     35  H30 RAF d   1     -55.467 -58.880 -93.736  0.00  0.00     0.210 HD
ENDBRANCH  21  34
BRANCH  23  36
ATOM     36  O2X RAF d   1     -54.640 -60.875 -94.861  0.00  0.00    -0.388 OA
ATOM     37  H32 RAF d   1     -54.040 -60.426 -95.445  0.00  0.00     0.210 HD
ENDBRANCH  23  36
ENDBRANCH  15  16
ENDBRANCH  12  15
ENDBRANCH   5  12
BRANCH   4  38
ATOM     38  O4  RAF d   1     -49.923 -64.518 -95.793  0.00  0.00    -0.390 OA
ATOM     39  H18 RAF d   1     -49.236 -65.166 -95.901  0.00  0.00     0.210 HD
ENDBRANCH   4  38
BRANCH   3  40
ATOM     40  O3  RAF d   1     -48.395 -64.592 -98.226  0.00  0.00    -0.390 OA
ATOM     41  H16 RAF d   1     -48.452 -65.396 -97.723  0.00  0.00     0.210 HD
ENDBRANCH   3  40
BRANCH   1  42
ATOM     42  O1  RAF d   1     -51.794 -62.502 -98.934  0.00  0.00    -0.318 OA
BRANCH  42  43
ATOM     43  C2' RAF d   1     -52.802 -61.997 -99.789  0.00  0.00     0.217 C 
ATOM     44  C3' RAF d   1     -54.200 -62.541 -99.391  0.00  0.00     0.118 C 
ATOM     45  C4' RAF d   1     -54.475 -61.691 -98.118  0.00  0.00     0.092 C 
ATOM     46  H7  RAF d   1     -54.962 -62.391-100.170  0.00  0.00     0.095 H 
ATOM     47  C5' RAF d   1     -53.926 -60.318 -98.605  0.00  0.00     0.089 C 
ATOM     48  H5  RAF d   1     -53.938 -62.056 -97.230  0.00  0.00     0.091 H 
ATOM     49  O2' RAF d   1     -52.863 -60.601 -99.535  0.00  0.00    -0.341 OA
ATOM     50  H4  RAF d   1     -54.727 -59.749 -99.099  0.00  0.00     0.090 H 
BRANCH  44  51
ATOM     51  O3' RAF d   1     -54.063 -63.886 -99.084  0.00  0.00    -0.387 OA
ATOM     52  H8  RAF d   1     -53.336 -64.000 -98.483  0.00  0.00     0.210 HD
ENDBRANCH  44  51
BRANCH  45  53
ATOM     53  O4' RAF d   1     -55.850 -61.696 -97.885  0.00  0.00    -0.390 OA
ATOM     54  H6  RAF d   1     -56.117 -62.559 -97.592  0.00  0.00     0.210 HD
ENDBRANCH  45  53
BRANCH  47  55
ATOM     55  C6' RAF d   1     -53.348 -59.483 -97.425  0.00  0.00     0.043 C 
ATOM     56  H2  RAF d   1     -52.719 -60.129 -96.794  0.00  0.00     0.078 H 
ATOM     57  H3  RAF d   1     -52.741 -58.658 -97.825  0.00  0.00     0.078 H 
BRANCH  55  58
ATOM     58  O6' RAF d   1     -54.394 -58.960 -96.657  0.00  0.00    -0.398 OA
ATOM     59  H1  RAF d   1     -54.918 -59.673 -96.311  0.00  0.00     0.209 HD
ENDBRANCH  55  58
ENDBRANCH  47  55
BRANCH  43  60
ATOM     60  C1' RAF d   1     -52.451 -62.161-101.288  0.00  0.00     0.071 C 
ATOM     61  H9  RAF d   1     -52.407 -63.229-101.546  0.00  0.00     0.082 H 
ATOM     62  H10 RAF d   1     -51.478 -61.693-101.497  0.00  0.00     0.082 H 
BRANCH  60  63
ATOM     63  O1' RAF d   1     -53.439 -61.540-102.029  0.00  0.00    -0.395 OA
ATOM     64  H11 RAF d   1     -53.474 -60.619-101.799  0.00  0.00     0.209 HD
ENDBRANCH  60  63
ENDBRANCH  43  60
ENDBRANCH  42  43
ENDBRANCH   1  42
BRANCH   2  65
ATOM     65  O2  RAF d   1     -49.364 -62.860-100.275  0.00  0.00    -0.388 OA
ATOM     66  H14 RAF d   1     -50.148 -63.328-100.538  0.00  0.00     0.210 HD
ENDBRANCH   2  65
TORSDOF 19
