REMARK  16 active torsions:
REMARK  status: ('A' for Active; 'I' for Inactive)
REMARK    1  A    between atoms: N2_1  and  C2_2 
REMARK    2  A    between atoms: N9_11  and  C1'_12 
REMARK    3  A    between atoms: C2'_13  and  O2'_14 
REMARK    4  A    between atoms: C3'_15  and  O3'_16 
REMARK    5  A    between atoms: C4'_17  and  C5'_19 
REMARK    6  A    between atoms: C5'_19  and  O5'_20 
REMARK    7  A    between atoms: O5'_20  and  PA_21 
REMARK    8  A    between atoms: PA_21  and  O3A_24 
REMARK    9  A    between atoms: O3A_24  and  PB_25 
REMARK   10  A    between atoms: PB_25  and  O1B_28 
REMARK   11  A    between atoms: O1B_28  and  C11_29 
REMARK   12  A    between atoms: C51_31  and  C61_32 
REMARK   13  A    between atoms: C61_32  and  O6A_33 
REMARK   14  A    between atoms: C21_34  and  O21_35 
REMARK   15  A    between atoms: C31_36  and  O31_37 
REMARK   16  A    between atoms: C41_38  and  O41_39 
ROOT
ATOM      1  C5' GDD d   1       4.211  27.828  30.118  0.00  0.00     0.058 C 
ATOM      2  H12 GDD d   1       3.659  28.190  30.998  0.00  0.00     0.079 H 
ATOM      3  H13 GDD d   1       3.850  28.348  29.219  0.00  0.00     0.079 H 
ENDROOT
BRANCH   1   4
ATOM      4  C4' GDD d   1       4.002  26.342  29.963  0.00  0.00     0.089 C 
ATOM      5  C3' GDD d   1       4.946  25.460  30.790  0.00  0.00     0.091 C 
ATOM      6  C2' GDD d   1       5.928  24.925  29.743  0.00  0.00     0.105 C 
ATOM      7  H9  GDD d   1       5.473  26.051  31.554  0.00  0.00     0.091 H 
ATOM      8  C1' GDD d   1       5.007  24.806  28.535  0.00  0.00     0.139 C 
ATOM      9  H7  GDD d   1       6.750  25.633  29.561  0.00  0.00     0.093 H 
ATOM     10  O4' GDD d   1       4.190  25.958  28.580  0.00  0.00    -0.353 OA
ATOM     11  H6  GDD d   1       4.397  23.896  28.631  0.00  0.00     0.122 H 
ATOM     12  H11 GDD d   1       2.968  26.119  30.265  0.00  0.00     0.090 H 
BRANCH   5  13
ATOM     13  O3' GDD d   1       4.219  24.412  31.422  0.00  0.00    -0.390 OA
ATOM     14  H10 GDD d   1       3.725  23.932  30.768  0.00  0.00     0.210 HD
ENDBRANCH   5  13
BRANCH   6  15
ATOM     15  O2' GDD d   1       6.466  23.659  30.109  0.00  0.00    -0.388 OA
ATOM     16  H8  GDD d   1       5.757  23.066  30.326  0.00  0.00     0.210 HD
ENDBRANCH   6  15
BRANCH   8  17
ATOM     17  N9  GDD d   1       5.703  24.773  27.234  0.00  0.00    -0.295 N 
ATOM     18  C4  GDD d   1       5.696  23.733  26.334  0.00  0.00     0.161 A 
ATOM     19  N3  GDD d   1       5.061  22.555  26.494  0.00  0.00    -0.174 N 
ATOM     20  C5  GDD d   1       6.457  24.152  25.263  0.00  0.00     0.171 A 
ATOM     21  C2  GDD d   1       5.223  21.737  25.457  0.00  0.00     0.680 A 
ATOM     22  H4  GDD d   1       4.509  22.314  27.330  0.00  0.00     0.186 HD
ATOM     23  N1  GDD d   1       5.957  22.061  24.346  0.00  0.00    -0.154 N 
ATOM     24  C6  GDD d   1       6.619  23.258  24.151  0.00  0.00     0.292 A 
ATOM     25  H3  GDD d   1       6.018  21.377  23.619  0.00  0.00     0.187 HD
ATOM     26  O6  GDD d   1       7.251  23.461  23.115  0.00  0.00    -0.265 OA
ATOM     27  N7  GDD d   1       6.940  25.432  25.483  0.00  0.00    -0.234 NA
ATOM     28  C8  GDD d   1       6.468  25.760  26.665  0.00  0.00     0.071 A 
ATOM     29  H5  GDD d   1       6.664  26.718  27.144  0.00  0.00     0.144 H 
BRANCH  21  30
ATOM     30  N2  GDD d   1       4.651  20.531  25.473  0.00  0.00    -0.234 N 
ATOM     31  H1  GDD d   1       4.772  19.893  24.674  0.00  0.00     0.174 HD
ATOM     32  H2  GDD d   1       4.088  20.239  26.285  0.00  0.00     0.174 HD
ENDBRANCH  21  30
ENDBRANCH   8  17
ENDBRANCH   1   4
BRANCH   1  33
ATOM     33  O5' GDD d   1       5.621  28.082  30.292  0.00  0.00    -0.287 OA
BRANCH  33  34
ATOM     34  PA  GDD d   1       6.269  28.678  31.656  0.00  0.00     0.417 P 
ATOM     35  O1A GDD d   1       6.391  30.150  31.551  0.00  0.00    -0.624 OA
ATOM     36  O2A GDD d   1       7.611  27.954  31.825  0.00  0.00    -0.624 OA
BRANCH  34  37
ATOM     37  O3A GDD d   1       5.349  28.255  32.889  0.00  0.00    -0.180 OA
BRANCH  37  38
ATOM     38  PB  GDD d   1       5.622  27.582  34.310  0.00  0.00     0.420 P 
ATOM     39  O2B GDD d   1       5.100  26.148  34.221  0.00  0.00    -0.624 OA
ATOM     40  O3B GDD d   1       7.053  27.685  34.681  0.00  0.00    -0.624 OA
BRANCH  38  41
ATOM     41  O1B GDD d   1       4.701  28.345  35.438  0.00  0.00    -0.255 OA
BRANCH  41  42
ATOM     42  C11 GDD d   1       3.300  28.432  35.521  0.00  0.00     0.170 C 
ATOM     43  O51 GDD d   1       2.866  28.298  36.863  0.00  0.00    -0.348 OA
ATOM     44  C51 GDD d   1       3.447  29.268  37.751  0.00  0.00     0.089 C 
ATOM     45  C41 GDD d   1       3.093  30.683  37.301  0.00  0.00     0.090 C 
ATOM     46  H15 GDD d   1       4.542  29.166  37.741  0.00  0.00     0.090 H 
ATOM     47  C31 GDD d   1       3.464  30.889  35.837  0.00  0.00     0.092 C 
ATOM     48  H23 GDD d   1       2.012  30.843  37.423  0.00  0.00     0.091 H 
ATOM     49  C21 GDD d   1       2.868  29.785  34.974  0.00  0.00     0.110 C 
ATOM     50  H21 GDD d   1       4.559  30.852  35.746  0.00  0.00     0.091 H 
ATOM     51  H19 GDD d   1       3.234  29.893  33.942  0.00  0.00     0.094 H 
ATOM     52  H14 GDD d   1       2.850  27.631  34.917  0.00  0.00     0.134 H 
BRANCH  44  53
ATOM     53  C61 GDD d   1       2.934  28.952  39.138  0.00  0.00     0.043 C 
ATOM     54  H16 GDD d   1       1.835  28.991  39.128  0.00  0.00     0.078 H 
ATOM     55  H17 GDD d   1       3.322  29.704  39.841  0.00  0.00     0.078 H 
BRANCH  53  56
ATOM     56  O6A GDD d   1       3.344  27.663  39.572  0.00  0.00    -0.398 OA
ATOM     57  H18 GDD d   1       3.008  27.007  38.973  0.00  0.00     0.209 HD
ENDBRANCH  53  56
ENDBRANCH  44  53
BRANCH  45  58
ATOM     58  O41 GDD d   1       3.805  31.610  38.115  0.00  0.00    -0.390 OA
ATOM     59  H24 GDD d   1       3.580  32.496  37.855  0.00  0.00     0.210 HD
ENDBRANCH  45  58
BRANCH  47  60
ATOM     60  O31 GDD d   1       3.014  32.162  35.387  0.00  0.00    -0.390 OA
ATOM     61  H22 GDD d   1       2.067  32.200  35.444  0.00  0.00     0.210 HD
ENDBRANCH  47  60
BRANCH  49  62
ATOM     62  O21 GDD d   1       1.447  29.877  34.977  0.00  0.00    -0.388 OA
ATOM     63  H20 GDD d   1       1.185  30.724  34.635  0.00  0.00     0.210 HD
ENDBRANCH  49  62
ENDBRANCH  41  42
ENDBRANCH  38  41
ENDBRANCH  37  38
ENDBRANCH  34  37
ENDBRANCH  33  34
ENDBRANCH   1  33
TORSDOF 16
