REMARK  27 active torsions:
REMARK  status: ('A' for Active; 'I' for Inactive)
REMARK    1  A    between atoms: C29_2  and  C30_1 
REMARK    2  A    between atoms: P26_28  and  C29_2 
REMARK    3  A    between atoms: C20_3  and  C19_22 
REMARK    4  A    between atoms: O21_23  and  C20_3 
REMARK    5  A    between atoms: C17_4  and  C16_5 
REMARK    6  A    between atoms: C17_4  and  C18_9 
REMARK    7  A    between atoms: C16_5  and  C15_6 
REMARK    8  A    between atoms: C15_6  and  C14_7 
REMARK    9  A    between atoms: C12_10  and  C13_8 
REMARK   10  A    between atoms: C12_10  and  C11_11 
REMARK   11  A    between atoms: C11_11  and  C10_21 
REMARK   12  A    between atoms: C10_21  and  C09_12 
REMARK   13  A    between atoms: C07_14  and  C08_13 
REMARK   14  A    between atoms: C07_14  and  C06_15 
REMARK   15  A    between atoms: C06_15  and  C05_16 
REMARK   16  A    between atoms: C05_16  and  C04_17 
REMARK   17  A    between atoms: C02_19  and  C03_18 
REMARK   18  A    between atoms: C02_19  and  C01_20 
REMARK   19  A    between atoms: P22_24  and  O21_23 
REMARK   20  A    between atoms: O25_27  and  P22_24 
REMARK   21  A    between atoms: O25_27  and  P26_28 
REMARK   22  A    between atoms: C32_32  and  C33_33 
REMARK   23  A    between atoms: C33_33  and  O34_34 
REMARK   24  A    between atoms: C35_35  and  O36_36 
REMARK   25  A    between atoms: C37_37  and  O38_38 
REMARK   26  A    between atoms: C39_39  and  N40_40 
REMARK       I    between atoms: N40_40  and  C41_41 
REMARK   27  A    between atoms: C41_41  and  C42_42 
ROOT
ATOM      1  C17 9UB d   1      83.722  40.117 197.615  0.00  0.00    -0.085 C 
ATOM      2  C19 9UB d   1      84.134  39.649 196.413  0.00  0.00    -0.078 C 
ATOM      3  H36 9UB d   1      84.749  38.752 196.360  0.00  0.00     0.080 H 
ENDROOT
BRANCH   1   4
ATOM      4  C16 9UB d   1      82.838  41.397 197.682  0.00  0.00    -0.042 C 
ATOM      5  H6  9UB d   1      82.699  41.768 196.656  0.00  0.00     0.040 H 
ATOM      6  H7  9UB d   1      83.376  42.151 198.275  0.00  0.00     0.040 H 
BRANCH   4   7
ATOM      7  C15 9UB d   1      81.438  41.201 198.314  0.00  0.00    -0.046 C 
ATOM      8  H8  9UB d   1      80.908  42.165 198.303  0.00  0.00     0.039 H 
ATOM      9  H9  9UB d   1      81.565  40.864 199.353  0.00  0.00     0.039 H 
BRANCH   7  10
ATOM     10  C14 9UB d   1      80.600  40.178 197.571  0.00  0.00    -0.101 C 
ATOM     11  C12 9UB d   1      79.289  40.085 197.739  0.00  0.00    -0.087 C 
ATOM     12  H10 9UB d   1      81.092  39.498 196.877  0.00  0.00     0.077 H 
BRANCH  11  13
ATOM     13  C13 9UB d   1      78.515  39.013 196.966  0.00  0.00    -0.055 C 
ATOM     14  H11 9UB d   1      77.447  39.076 197.222  0.00  0.00     0.033 H 
ATOM     15  H12 9UB d   1      78.898  38.018 197.235  0.00  0.00     0.033 H 
ATOM     16  H13 9UB d   1      78.644  39.175 195.886  0.00  0.00     0.033 H 
ENDBRANCH  11  13
BRANCH  11  17
ATOM     17  C11 9UB d   1      78.511  41.022 198.720  0.00  0.00    -0.042 C 
ATOM     18  H17 9UB d   1      77.517  41.225 198.295  0.00  0.00     0.040 H 
ATOM     19  H18 9UB d   1      79.068  41.966 198.818  0.00  0.00     0.040 H 
BRANCH  17  20
ATOM     20  C10 9UB d   1      78.328  40.410 200.131  0.00  0.00    -0.046 C 
ATOM     21  H34 9UB d   1      79.312  40.361 200.621  0.00  0.00     0.039 H 
ATOM     22  H35 9UB d   1      77.922  39.394 200.021  0.00  0.00     0.039 H 
BRANCH  20  23
ATOM     23  C09 9UB d   1      77.370  41.227 201.032  0.00  0.00    -0.101 C 
ATOM     24  C07 9UB d   1      77.631  41.453 202.346  0.00  0.00    -0.087 C 
ATOM     25  H19 9UB d   1      76.457  41.634 200.599  0.00  0.00     0.077 H 
BRANCH  24  26
ATOM     26  C08 9UB d   1      76.633  42.268 203.207  0.00  0.00    -0.055 C 
ATOM     27  H20 9UB d   1      77.014  42.344 204.236  0.00  0.00     0.033 H 
ATOM     28  H21 9UB d   1      75.656  41.762 203.214  0.00  0.00     0.033 H 
ATOM     29  H22 9UB d   1      76.520  43.276 202.782  0.00  0.00     0.033 H 
ENDBRANCH  24  26
BRANCH  24  30
ATOM     30  C06 9UB d   1      78.941  40.897 203.010  0.00  0.00    -0.042 C 
ATOM     31  H23 9UB d   1      79.476  41.722 203.504  0.00  0.00     0.040 H 
ATOM     32  H24 9UB d   1      79.583  40.457 202.233  0.00  0.00     0.040 H 
BRANCH  30  33
ATOM     33  C05 9UB d   1      78.599  39.824 204.049  0.00  0.00    -0.046 C 
ATOM     34  H25 9UB d   1      77.831  40.216 204.731  0.00  0.00     0.039 H 
ATOM     35  H26 9UB d   1      79.505  39.575 204.621  0.00  0.00     0.039 H 
BRANCH  33  36
ATOM     36  C04 9UB d   1      78.072  38.562 203.378  0.00  0.00    -0.101 C 
ATOM     37  C02 9UB d   1      76.852  38.128 203.593  0.00  0.00    -0.091 C 
ATOM     38  H27 9UB d   1      78.723  38.007 202.704  0.00  0.00     0.077 H 
BRANCH  37  39
ATOM     39  C03 9UB d   1      76.365  36.844 202.892  0.00  0.00    -0.055 C 
ATOM     40  H28 9UB d   1      75.327  36.636 203.189  0.00  0.00     0.033 H 
ATOM     41  H29 9UB d   1      77.007  36.000 203.185  0.00  0.00     0.033 H 
ATOM     42  H30 9UB d   1      76.414  36.980 201.802  0.00  0.00     0.033 H 
ENDBRANCH  37  39
BRANCH  37  43
ATOM     43  C01 9UB d   1      75.917  38.909 204.533  0.00  0.00    -0.055 C 
ATOM     44  H31 9UB d   1      76.447  39.787 204.930  0.00  0.00     0.033 H 
ATOM     45  H32 9UB d   1      75.608  38.260 205.365  0.00  0.00     0.033 H 
ATOM     46  H33 9UB d   1      75.028  39.239 203.975  0.00  0.00     0.033 H 
ENDBRANCH  37  43
ENDBRANCH  33  36
ENDBRANCH  30  33
ENDBRANCH  24  30
ENDBRANCH  20  23
ENDBRANCH  17  20
ENDBRANCH  11  17
ENDBRANCH   7  10
ENDBRANCH   4   7
ENDBRANCH   1   4
BRANCH   1  47
ATOM     47  C18 9UB d   1      84.164  39.338 198.895  0.00  0.00    -0.055 C 
ATOM     48  H14 9UB d   1      84.779  38.474 198.604  0.00  0.00     0.033 H 
ATOM     49  H15 9UB d   1      83.273  38.988 199.437  0.00  0.00     0.033 H 
ATOM     50  H16 9UB d   1      84.751  40.004 199.545  0.00  0.00     0.033 H 
ENDBRANCH   1  47
BRANCH   2  51
ATOM     51  C20 9UB d   1      83.731  40.390 195.114  0.00  0.00     0.047 C 
ATOM     52  H4  9UB d   1      83.476  41.438 195.331  0.00  0.00     0.081 H 
ATOM     53  H5  9UB d   1      82.872  39.895 194.638  0.00  0.00     0.081 H 
BRANCH  51  54
ATOM     54  O21 9UB d   1      84.861  40.321 194.282  0.00  0.00    -0.286 OA
BRANCH  54  55
ATOM     55  P22 9UB d   1      85.107  41.558 193.233  0.00  0.00     0.416 P 
ATOM     56  O23 9UB d   1      84.549  41.099 191.912  0.00  0.00    -0.624 OA
ATOM     57  O24 9UB d   1      84.386  42.803 193.688  0.00  0.00    -0.624 OA
BRANCH  55  58
ATOM     58  O25 9UB d   1      86.722  41.991 193.142  0.00  0.00    -0.204 OA
BRANCH  58  59
ATOM     59  P26 9UB d   1      88.018  41.070 192.632  0.00  0.00     0.262 P 
ATOM     60  O27 9UB d   1      88.645  40.299 193.772  0.00  0.00    -0.646 OA
ATOM     61  O28 9UB d   1      87.511  40.103 191.602  0.00  0.00    -0.646 OA
BRANCH  59  62
ATOM     62  C29 9UB d   1      89.278  42.257 191.832  0.00  0.00     0.058 C 
ATOM     63  H2  9UB d   1      89.376  43.151 192.466  0.00  0.00     0.056 H 
ATOM     64  H3  9UB d   1      90.251  41.748 191.762  0.00  0.00     0.056 H 
BRANCH  62  65
ATOM     65  C30 9UB d   1      88.854  42.682 190.457  0.00  0.00     0.072 C 
ATOM     66  O31 9UB d   1      87.404  42.995 190.427  0.00  0.00    -0.373 OA
ATOM     67  C32 9UB d   1      86.981  44.337 190.880  0.00  0.00     0.086 C 
ATOM     68  C35 9UB d   1      87.958  45.464 190.504  0.00  0.00     0.089 C 
ATOM     69  H37 9UB d   1      86.880  44.316 191.975  0.00  0.00     0.090 H 
ATOM     70  C37 9UB d   1      89.352  45.051 190.807  0.00  0.00     0.084 C 
ATOM     71  H41 9UB d   1      87.884  45.663 189.425  0.00  0.00     0.091 H 
ATOM     72  C39 9UB d   1      89.678  43.874 190.009  0.00  0.00     0.065 C 
ATOM     73  H43 9UB d   1      89.416  44.802 191.876  0.00  0.00     0.090 H 
ATOM     74  H45 9UB d   1      89.472  44.077 188.948  0.00  0.00     0.080 H 
ATOM     75  H1  9UB d   1      89.041  41.850 189.762  0.00  0.00     0.087 H 
BRANCH  67  76
ATOM     76  C33 9UB d   1      85.645  44.653 190.256  0.00  0.00     0.043 C 
ATOM     77  H38 9UB d   1      85.303  45.648 190.576  0.00  0.00     0.078 H 
ATOM     78  H39 9UB d   1      84.901  43.898 190.550  0.00  0.00     0.078 H 
BRANCH  76  79
ATOM     79  O34 9UB d   1      85.835  44.630 188.847  0.00  0.00    -0.398 OA
ATOM     80  H40 9UB d   1      86.136  43.769 188.583  0.00  0.00     0.209 HD
ENDBRANCH  76  79
ENDBRANCH  67  76
BRANCH  68  81
ATOM     81  O36 9UB d   1      87.564  46.648 191.219  0.00  0.00    -0.390 OA
ATOM     82  H42 9UB d   1      88.155  47.359 191.002  0.00  0.00     0.210 HD
ENDBRANCH  68  81
BRANCH  70  83
ATOM     83  O38 9UB d   1      90.352  46.085 190.504  0.00  0.00    -0.391 OA
ATOM     84  H44 9UB d   1      91.218  45.759 190.719  0.00  0.00     0.210 HD
ENDBRANCH  70  83
BRANCH  72  85
ATOM     85  N40 9UB d   1      91.122  43.600 190.195  0.00  0.00    -0.352 N 
ATOM     86  C41 9UB d   1      91.784  42.831 189.153  0.00  0.00     0.214 C 
ATOM     87  O43 9UB d   1      91.139  42.453 188.228  0.00  0.00    -0.274 OA
ATOM     88  H46 9UB d   1      91.618  43.928 190.999  0.00  0.00     0.163 HD
BRANCH  86  89
ATOM     89  C42 9UB d   1      93.276  42.533 189.281  0.00  0.00    -0.003 C 
ATOM     90  H47 9UB d   1      93.609  41.946 188.412  0.00  0.00     0.040 H 
ATOM     91  H48 9UB d   1      93.458  41.959 190.202  0.00  0.00     0.040 H 
ATOM     92  H49 9UB d   1      93.837  43.478 189.321  0.00  0.00     0.040 H 
ENDBRANCH  86  89
ENDBRANCH  72  85
ENDBRANCH  62  65
ENDBRANCH  59  62
ENDBRANCH  58  59
ENDBRANCH  55  58
ENDBRANCH  54  55
ENDBRANCH  51  54
ENDBRANCH   2  51
TORSDOF 27
