REMARK  4 active torsions:
REMARK  status: ('A' for Active; 'I' for Inactive)
REMARK    1  A    between atoms: C4_6  and  C1_11 
REMARK    2  A    between atoms: C1_11  and  C3_7 
REMARK    3  A    between atoms: C3_7  and  C8_12 
REMARK    4  A    between atoms: C13_15  and  N2_16 
ROOT
ATOM      1  C2  9UQ d   1      26.520 -14.683  -0.841  0.00  0.00    -0.038 C 
ATOM      2  C7  9UQ d   1      24.693 -14.885  -2.477  0.00  0.00     0.224 C 
ATOM      3  C6  9UQ d   1      24.177 -15.217  -0.171  0.00  0.00     0.237 C 
ATOM      4  C5  9UQ d   1      25.904 -14.072  -2.095  0.00  0.00     0.011 C 
ATOM      5  O2  9UQ d   1      24.388 -15.029  -3.654  0.00  0.00    -0.273 OA
ATOM      6  O1  9UQ d   1      23.252 -15.410   0.604  0.00  0.00    -0.272 OA
ATOM      7  N1  9UQ d   1      23.993 -15.433  -1.481  0.00  0.00    -0.297 N 
ATOM      8  C1  9UQ d   1      25.538 -14.751   0.333  0.00  0.00     0.068 C 
ATOM      9  H2  9UQ d   1      27.384 -14.072  -0.541  0.00  0.00     0.035 H 
ATOM     10  H3  9UQ d   1      26.857 -15.703  -1.077  0.00  0.00     0.035 H 
ATOM     11  H4  9UQ d   1      26.637 -14.090  -2.915  0.00  0.00     0.047 H 
ATOM     12  H5  9UQ d   1      25.605 -13.033  -1.893  0.00  0.00     0.047 H 
ATOM     13  H8  9UQ d   1      23.262 -16.065  -1.737  0.00  0.00     0.171 HD
ENDROOT
BRANCH   8  14
ATOM     14  C4  9UQ d   1      26.211 -15.735   1.283  0.00  0.00    -0.040 A 
ATOM     15  C9  9UQ d   1      27.293 -15.311   2.067  0.00  0.00    -0.073 A 
ATOM     16  C11 9UQ d   1      27.951 -16.185   2.928  0.00  0.00    -0.057 A 
ATOM     17  H12 9UQ d   1      27.624 -14.281   2.002  0.00  0.00     0.084 H 
ATOM     18  C13 9UQ d   1      27.555 -17.510   3.011  0.00  0.00     0.025 A 
ATOM     19  H13 9UQ d   1      28.775 -15.828   3.535  0.00  0.00     0.086 H 
ATOM     20  C12 9UQ d   1      26.491 -17.958   2.231  0.00  0.00    -0.057 A 
ATOM     21  C10 9UQ d   1      25.828 -17.080   1.369  0.00  0.00    -0.073 A 
ATOM     22  H1  9UQ d   1      26.176 -18.993   2.293  0.00  0.00     0.086 H 
ATOM     23  H16 9UQ d   1      25.008 -17.444   0.760  0.00  0.00     0.084 H 
BRANCH  18  24
ATOM     24  N2  9UQ d   1      28.212 -18.343   3.850  0.00  0.00    -0.399 N 
ATOM     25  H14 9UQ d   1      27.928 -19.331   3.922  0.00  0.00     0.156 HD
ATOM     26  H15 9UQ d   1      28.996 -17.990   4.417  0.00  0.00     0.156 HD
ENDBRANCH  18  24
ENDBRANCH   8  14
BRANCH   8  27
ATOM     27  C3  9UQ d   1      25.413 -13.336   0.923  0.00  0.00    -0.049 C 
ATOM     28  H6  9UQ d   1      25.004 -12.678   0.142  0.00  0.00     0.034 H 
ATOM     29  H7  9UQ d   1      26.421 -12.994   1.200  0.00  0.00     0.034 H 
BRANCH  27  30
ATOM     30  C8  9UQ d   1      24.531 -13.214   2.141  0.00  0.00    -0.075 C 
ATOM     31  H9  9UQ d   1      24.513 -12.167   2.477  0.00  0.00     0.027 H 
ATOM     32  H10 9UQ d   1      24.927 -13.851   2.946  0.00  0.00     0.027 H 
ATOM     33  H11 9UQ d   1      23.510 -13.535   1.888  0.00  0.00     0.027 H 
ENDBRANCH  27  30
ENDBRANCH   8  27
TORSDOF 4
