REMARK  8 active torsions:
REMARK  status: ('A' for Active; 'I' for Inactive)
REMARK       I    between atoms: C11_15  and  N3_1 
REMARK    1  A    between atoms: C6_4  and  C7_5 
REMARK    2  A    between atoms: C7_5  and  N10_31 
REMARK    3  A    between atoms: C14_16  and  C15_6 
REMARK    4  A    between atoms: C21_9  and  C22_10 
REMARK       I    between atoms: N10_31  and  C21_9 
REMARK    5  A    between atoms: O13_36  and  C11_15 
REMARK    6  A    between atoms: C14_16  and  O13_36 
REMARK    7  A    between atoms: C16_17  and  C32_23 
REMARK    8  A    between atoms: C18_18  and  C36_24 
ROOT
ATOM      1  N3  9V8 d   1      10.580 -21.592  54.382  0.00  0.00    -0.327 N 
ATOM      2  C4  9V8 d   1      10.557 -21.143  55.777  0.00  0.00     0.004 C 
ATOM      3  C5  9V8 d   1      11.951 -20.565  56.017  0.00  0.00    -0.028 A 
ATOM      4  C6  9V8 d   1      13.212 -21.347  55.744  0.00  0.00    -0.028 A 
ATOM      5  C1  9V8 d   1      12.635 -20.441  54.683  0.00  0.00    -0.028 A 
ATOM      6  C11 9V8 d   1       9.610 -22.382  53.863  0.00  0.00     0.363 C 
ATOM      7  C2  9V8 d   1      11.739 -21.095  53.630  0.00  0.00     0.004 C 
ATOM      8  O12 9V8 d   1       8.661 -22.788  54.496  0.00  0.00    -0.238 OA
ATOM      9  H1  9V8 d   1      10.365 -21.988  56.454  0.00  0.00     0.065 H 
ATOM     10  H2  9V8 d   1       9.786 -20.372  55.925  0.00  0.00     0.065 H 
ATOM     11  H3  9V8 d   1      11.948 -19.785  56.793  0.00  0.00     0.043 H 
ATOM     12  H4  9V8 d   1      13.197 -22.440  55.625  0.00  0.00     0.043 H 
ATOM     13  H11 9V8 d   1      13.165 -19.546  54.325  0.00  0.00     0.043 H 
ATOM     14  H15 9V8 d   1      11.425 -20.358  52.876  0.00  0.00     0.065 H 
ATOM     15  H16 9V8 d   1      12.265 -21.925  53.135  0.00  0.00     0.065 H 
ENDROOT
BRANCH   6  16
ATOM     16  O13 9V8 d   1       9.833 -22.658  52.556  0.00  0.00    -0.299 OA
BRANCH  16  17
ATOM     17  C14 9V8 d   1       8.790 -23.392  51.843  0.00  0.00     0.054 C 
ATOM     18  H12 9V8 d   1       9.050 -24.461  51.825  0.00  0.00     0.082 H 
ATOM     19  H13 9V8 d   1       7.832 -23.256  52.366  0.00  0.00     0.082 H 
BRANCH  17  20
ATOM     20  C15 9V8 d   1       8.655 -22.894  50.429  0.00  0.00    -0.032 A 
ATOM     21  C20 9V8 d   1       8.339 -23.775  49.399  0.00  0.00    -0.060 A 
ATOM     22  C16 9V8 d   1       8.233 -23.325  48.086  0.00  0.00     0.049 A 
ATOM     23  H8  9V8 d   1       8.174 -24.823  49.622  0.00  0.00     0.085 H 
ATOM     24  C17 9V8 d   1       8.444 -21.981  47.793  0.00  0.00    -0.054 A 
ATOM     25  C18 9V8 d   1       8.730 -21.088  48.820  0.00  0.00     0.049 A 
ATOM     26  H7  9V8 d   1       8.386 -21.632  46.769  0.00  0.00     0.086 H 
ATOM     27  C19 9V8 d   1       8.859 -21.551  50.127  0.00  0.00    -0.060 A 
ATOM     28  H14 9V8 d   1       9.121 -20.858  50.918  0.00  0.00     0.085 H 
BRANCH  22  29
ATOM     29  C32 9V8 d   1       7.921 -24.289  46.984  0.00  0.00     0.417 C 
ATOM     30  F33 9V8 d   1       6.837 -25.019  47.239  0.00  0.00    -0.166 F 
ATOM     31  F34 9V8 d   1       8.918 -25.149  46.758  0.00  0.00    -0.166 F 
ATOM     32  F35 9V8 d   1       7.708 -23.689  45.809  0.00  0.00    -0.166 F 
ENDBRANCH  22  29
BRANCH  25  33
ATOM     33  C36 9V8 d   1       8.998 -19.651  48.505  0.00  0.00     0.417 C 
ATOM     34  F37 9V8 d   1       8.710 -19.337  47.247  0.00  0.00    -0.166 F 
ATOM     35  F38 9V8 d   1      10.274 -19.323  48.666  0.00  0.00    -0.166 F 
ATOM     36  F39 9V8 d   1       8.296 -18.815  49.263  0.00  0.00    -0.166 F 
ENDBRANCH  25  33
ENDBRANCH  17  20
ENDBRANCH  16  17
ENDBRANCH   6  16
BRANCH   4  37
ATOM     37  C7  9V8 d   1      14.468 -20.896  56.474  0.00  0.00    -0.000 C 
ATOM     38  H5  9V8 d   1      14.365 -21.164  57.536  0.00  0.00     0.064 H 
ATOM     39  H6  9V8 d   1      14.550 -19.803  56.378  0.00  0.00     0.064 H 
BRANCH  37  40
ATOM     40  N10 9V8 d   1      15.698 -21.493  55.968  0.00  0.00    -0.356 N 
ATOM     41  C21 9V8 d   1      16.824 -20.788  55.815  0.00  0.00     0.251 C 
ATOM     42  O23 9V8 d   1      16.880 -19.589  56.087  0.00  0.00    -0.268 OA
ATOM     43  H18 9V8 d   1      15.700 -22.463  55.727  0.00  0.00     0.162 HD
BRANCH  41  44
ATOM     44  C22 9V8 d   1      18.002 -21.490  55.201  0.00  0.00     0.034 A 
ATOM     45  C24 9V8 d   1      17.975 -22.858  54.890  0.00  0.00    -0.065 A 
ATOM     46  C25 9V8 d   1      19.085 -23.487  54.340  0.00  0.00    -0.052 A 
ATOM     47  H9  9V8 d   1      17.076 -23.432  55.081  0.00  0.00     0.085 H 
ATOM     48  C28 9V8 d   1      20.250 -22.751  54.120  0.00  0.00     0.082 A 
ATOM     49  H17 9V8 d   1      19.046 -24.540  54.084  0.00  0.00     0.087 H 
ATOM     50  C27 9V8 d   1      20.267 -21.386  54.387  0.00  0.00     0.110 A 
ATOM     51  N29 9V8 d   1      21.468 -23.100  53.570  0.00  0.00    -0.258 N 
ATOM     52  C26 9V8 d   1      19.161 -20.749  54.949  0.00  0.00    -0.036 A 
ATOM     53  N31 9V8 d   1      21.518 -20.993  54.028  0.00  0.00    -0.130 NA
ATOM     54  H10 9V8 d   1      19.199 -19.692  55.188  0.00  0.00     0.088 H 
ATOM     55  N30 9V8 d   1      22.225 -22.035  53.541  0.00  0.00    -0.067 NA
ATOM     56  H19 9V8 d   1      21.734 -24.038  53.239  0.00  0.00     0.191 HD
ENDBRANCH  41  44
ENDBRANCH  37  40
ENDBRANCH   4  37
TORSDOF 8
