REMARK  16 active torsions:
REMARK  status: ('A' for Active; 'I' for Inactive)
REMARK    1  A    between atoms: O_2  and  C_1 
REMARK    2  A    between atoms: C1_6  and  O_2 
REMARK    3  A    between atoms: N_3  and  S_48 
REMARK       I    between atoms: C15_29  and  N1_7 
REMARK    4  A    between atoms: N1_7  and  C16_30 
REMARK    5  A    between atoms: N1_7  and  C17_31 
REMARK    6  A    between atoms: C2_9  and  O1_8 
REMARK    7  A    between atoms: O1_8  and  C3_12 
REMARK    8  A    between atoms: C9_23  and  O2_11 
REMARK    9  A    between atoms: O2_11  and  C10_24 
REMARK   10  A    between atoms: C3_12  and  C4_14 
REMARK   11  A    between atoms: C9_23  and  C8_22 
REMARK   12  A    between atoms: C24_38  and  C9_23 
REMARK   13  A    between atoms: C10_24  and  C11_25 
REMARK   14  A    between atoms: S_48  and  C12_26 
REMARK   15  A    between atoms: C14_28  and  C15_29 
REMARK   16  A    between atoms: C25_39  and  C24_38 
ROOT
ATOM      1  C9  9VE d   1     -24.565 -13.692  27.956  0.00  0.00     0.077 C 
ATOM      2  H10 9VE d   1     -24.562 -12.832  27.270  0.00  0.00     0.092 H 
ENDROOT
BRANCH   1   3
ATOM      3  O2  9VE d   1     -24.458 -13.211  29.325  0.00  0.00    -0.309 OA
BRANCH   3   4
ATOM      4  C10 9VE d   1     -24.590 -11.927  29.601  0.00  0.00     0.283 C 
ATOM      5  O6  9VE d   1     -24.573 -11.022  28.791  0.00  0.00    -0.263 OA
BRANCH   4   6
ATOM      6  C11 9VE d   1     -24.650 -11.772  31.124  0.00  0.00     0.106 C 
ATOM      7  N   9VE d   1     -24.031 -10.577  31.690  0.00  0.00    -0.292 N 
ATOM      8  C21 9VE d   1     -25.001  -9.638  32.308  0.00  0.00     0.006 C 
ATOM      9  C22 9VE d   1     -26.336 -10.230  31.843  0.00  0.00    -0.047 C 
ATOM     10  H22 9VE d   1     -24.863  -8.613  31.933  0.00  0.00     0.065 H 
ATOM     11  H23 9VE d   1     -24.920  -9.641  33.405  0.00  0.00     0.065 H 
ATOM     12  C23 9VE d   1     -26.106 -11.699  31.640  0.00  0.00    -0.035 C 
ATOM     13  H24 9VE d   1     -26.651  -9.761  30.899  0.00  0.00     0.035 H 
ATOM     14  H25 9VE d   1     -27.110 -10.069  32.608  0.00  0.00     0.035 H 
ATOM     15  H26 9VE d   1     -26.215 -12.248  32.587  0.00  0.00     0.036 H 
ATOM     16  H27 9VE d   1     -26.807 -12.107  30.897  0.00  0.00     0.036 H 
ATOM     17  H11 9VE d   1     -24.154 -12.655  31.552  0.00  0.00     0.089 H 
BRANCH   7  18
ATOM     18  S   9VE d   1     -22.429 -10.395  31.913  0.00  0.00     0.261 S 
ATOM     19  O4  9VE d   1     -21.792 -11.125  30.851  0.00  0.00    -0.200 OA
ATOM     20  O5  9VE d   1     -22.162  -9.017  32.143  0.00  0.00    -0.200 OA
BRANCH  18  21
ATOM     21  C12 9VE d   1     -22.121 -11.293  33.382  0.00  0.00     0.080 A 
ATOM     22  C13 9VE d   1     -21.879 -12.655  33.296  0.00  0.00    -0.045 A 
ATOM     23  C14 9VE d   1     -21.686 -13.392  34.463  0.00  0.00     0.033 A 
ATOM     24  H12 9VE d   1     -21.840 -13.143  32.329  0.00  0.00     0.087 H 
ATOM     25  C18 9VE d   1     -21.743 -12.737  35.697  0.00  0.00    -0.068 A 
ATOM     26  C19 9VE d   1     -21.981 -11.369  35.764  0.00  0.00    -0.081 A 
ATOM     27  H19 9VE d   1     -21.600 -13.302  36.611  0.00  0.00     0.085 H 
ATOM     28  C20 9VE d   1     -22.170 -10.636  34.599  0.00  0.00    -0.060 A 
ATOM     29  H20 9VE d   1     -22.019 -10.873  36.727  0.00  0.00     0.083 H 
ATOM     30  H21 9VE d   1     -22.353  -9.568  34.642  0.00  0.00     0.085 H 
BRANCH  23  31
ATOM     31  C15 9VE d   1     -21.179 -14.794  34.392  0.00  0.00     0.253 C 
ATOM     32  N1  9VE d   1     -21.709 -15.751  35.161  0.00  0.00    -0.357 N 
ATOM     33  O3  9VE d   1     -20.326 -15.057  33.558  0.00  0.00    -0.267 OA
BRANCH  32  34
ATOM     34  C16 9VE d   1     -21.096 -17.068  35.169  0.00  0.00    -0.016 C 
ATOM     35  H13 9VE d   1     -21.654 -17.728  35.850  0.00  0.00     0.056 H 
ATOM     36  H14 9VE d   1     -20.054 -16.985  35.511  0.00  0.00     0.056 H 
ATOM     37  H15 9VE d   1     -21.116 -17.488  34.153  0.00  0.00     0.056 H 
ENDBRANCH  32  34
BRANCH  32  38
ATOM     38  C17 9VE d   1     -22.943 -15.611  35.920  0.00  0.00    -0.016 C 
ATOM     39  H16 9VE d   1     -23.308 -14.577  35.838  0.00  0.00     0.056 H 
ATOM     40  H17 9VE d   1     -22.753 -15.850  36.977  0.00  0.00     0.056 H 
ATOM     41  H18 9VE d   1     -23.701 -16.300  35.519  0.00  0.00     0.056 H 
ENDBRANCH  32  38
ENDBRANCH  23  31
ENDBRANCH  18  21
ENDBRANCH   7  18
ENDBRANCH   4   6
ENDBRANCH   3   4
ENDBRANCH   1   3
BRANCH   1  42
ATOM     42  C8  9VE d   1     -25.907 -14.382  27.838  0.00  0.00    -0.026 A 
ATOM     43  C7  9VE d   1     -26.754 -14.475  28.955  0.00  0.00    -0.039 A 
ATOM     44  C2  9VE d   1     -27.962 -15.152  28.845  0.00  0.00     0.102 A 
ATOM     45  H9  9VE d   1     -26.467 -14.021  29.897  0.00  0.00     0.088 H 
ATOM     46  C1  9VE d   1     -28.354 -15.712  27.616  0.00  0.00     0.108 A 
ATOM     47  C31 9VE d   1     -27.521 -15.614  26.512  0.00  0.00    -0.047 A 
ATOM     48  C30 9VE d   1     -26.311 -14.965  26.630  0.00  0.00    -0.072 A 
ATOM     49  H33 9VE d   1     -27.819 -16.045  25.563  0.00  0.00     0.087 H 
ATOM     50  H32 9VE d   1     -25.657 -14.904  25.768  0.00  0.00     0.084 H 
BRANCH  44  51
ATOM     51  O1  9VE d   1     -28.870 -15.306  29.867  0.00  0.00    -0.348 OA
BRANCH  51  52
ATOM     52  C3  9VE d   1     -28.296 -15.061  31.162  0.00  0.00     0.029 C 
ATOM     53  H2  9VE d   1     -28.013 -14.001  31.237  0.00  0.00     0.075 H 
ATOM     54  H3  9VE d   1     -27.401 -15.689  31.285  0.00  0.00     0.075 H 
BRANCH  52  55
ATOM     55  C4  9VE d   1     -29.271 -15.384  32.237  0.00  0.00    -0.033 A 
ATOM     56  C5  9VE d   1     -29.132 -14.619  33.513  0.00  0.00    -0.059 A 
ATOM     57  C6  9VE d   1     -30.258 -14.318  32.578  0.00  0.00    -0.059 A 
ATOM     58  H5  9VE d   1     -28.311 -13.898  33.635  0.00  0.00     0.033 H 
ATOM     59  H6  9VE d   1     -29.333 -15.113  34.475  0.00  0.00     0.033 H 
ATOM     60  H7  9VE d   1     -31.288 -14.590  32.852  0.00  0.00     0.033 H 
ATOM     61  H8  9VE d   1     -30.266 -13.375  32.012  0.00  0.00     0.033 H 
ATOM     62  H4  9VE d   1     -29.548 -16.448  32.227  0.00  0.00     0.043 H 
ENDBRANCH  52  55
ENDBRANCH  51  52
ENDBRANCH  44  51
BRANCH  46  63
ATOM     63  O   9VE d   1     -29.589 -16.339  27.653  0.00  0.00    -0.287 OA
BRANCH  63  64
ATOM     64  C   9VE d   1     -30.281 -16.769  26.436  0.00  0.00     0.310 C 
ATOM     65  F   9VE d   1     -29.554 -17.814  25.992  0.00  0.00    -0.184 F 
ATOM     66  F1  9VE d   1     -30.324 -15.747  25.588  0.00  0.00    -0.184 F 
ATOM     67  H1  9VE d   1     -31.308 -17.094  26.660  0.00  0.00     0.195 H 
ENDBRANCH  63  64
ENDBRANCH  46  63
ENDBRANCH   1  42
BRANCH   1  68
ATOM     68  C24 9VE d   1     -23.345 -14.567  27.607  0.00  0.00    -0.009 C 
ATOM     69  H28 9VE d   1     -23.381 -14.832  26.540  0.00  0.00     0.044 H 
ATOM     70  H29 9VE d   1     -23.370 -15.484  28.214  0.00  0.00     0.044 H 
BRANCH  68  71
ATOM     71  C25 9VE d   1     -22.062 -13.812  27.892  0.00  0.00    -0.009 A 
ATOM     72  C26 9VE d   1     -21.310 -14.074  29.086  0.00  0.00     0.060 A 
ATOM     73 CL   9VE d   1     -21.889 -15.213  30.252  0.00  0.00    -0.082 Cl
ATOM     74  C27 9VE d   1     -20.110 -13.379  29.318  0.00  0.00     0.032 A 
ATOM     75  N2  9VE d   1     -19.678 -12.474  28.407  0.00  0.00    -0.208 N 
ATOM     76  H30 9VE d   1     -19.535 -13.566  30.218  0.00  0.00     0.118 H 
ATOM     77  O7  9VE d   1     -18.600 -11.716  28.699  0.00  0.00    -0.082 OA
ATOM     78  C28 9VE d   1     -20.339 -12.235  27.253  0.00  0.00     0.032 A 
ATOM     79  C29 9VE d   1     -21.537 -12.888  26.980  0.00  0.00     0.060 A 
ATOM     80  H31 9VE d   1     -19.934 -11.530  26.536  0.00  0.00     0.118 H 
ATOM     81 CL1  9VE d   1     -22.399 -12.461  25.552  0.00  0.00    -0.082 Cl
ENDBRANCH  68  71
ENDBRANCH   1  68
TORSDOF 16
