REMARK  10 active torsions:
REMARK  status: ('A' for Active; 'I' for Inactive)
REMARK    1  A    between atoms: C10_2  and  C11_3 
REMARK    2  A    between atoms: C9_22  and  C10_2 
REMARK    3  A    between atoms: C10_2  and  N2_24 
REMARK       I    between atoms: C11_3  and  N3_25 
REMARK    4  A    between atoms: C12_4  and  C13_5 
REMARK    5  A    between atoms: N3_25  and  C12_4 
REMARK    6  A    between atoms: C13_5  and  C14_6 
REMARK    7  A    between atoms: C15_7  and  C22_15 
REMARK    8  A    between atoms: C17_9  and  C21_14 
REMARK    9  A    between atoms: C19_11  and  C20_13 
REMARK   10  A    between atoms: C8_21  and  C9_22 
ROOT
ATOM      1  C11 VSK d   1      -0.175   5.004   9.541  0.00  0.00     0.248 C 
ATOM      2  N3  VSK d   1      -0.948   5.371   8.518  0.00  0.00    -0.359 N 
ATOM      3  O1  VSK d   1      -0.006   5.694  10.546  0.00  0.00    -0.271 OA
ATOM      4  H28 VSK d   1      -0.986   4.792   7.703  0.00  0.00     0.162 HD
ENDROOT
BRANCH   2   5
ATOM      5  C12 VSK d   1      -1.738   6.593   8.558  0.00  0.00    -0.001 C 
ATOM      6  H3  VSK d   1      -2.803   6.324   8.497  0.00  0.00     0.064 H 
ATOM      7  H4  VSK d   1      -1.543   7.105   9.512  0.00  0.00     0.064 H 
BRANCH   5   8
ATOM      8  C13 VSK d   1      -1.417   7.545   7.427  0.00  0.00    -0.025 C 
ATOM      9  H5  VSK d   1      -1.569   7.046   6.458  0.00  0.00     0.042 H 
ATOM     10  H6  VSK d   1      -0.374   7.886   7.505  0.00  0.00     0.042 H 
BRANCH   8  11
ATOM     11  C14 VSK d   1      -2.359   8.720   7.559  0.00  0.00    -0.045 A 
ATOM     12  C15 VSK d   1      -3.634   8.661   6.977  0.00  0.00    -0.055 A 
ATOM     13  C16 VSK d   1      -4.503   9.740   7.139  0.00  0.00    -0.071 A 
ATOM     14  C17 VSK d   1      -4.142  10.870   7.852  0.00  0.00    -0.061 A 
ATOM     15  H7  VSK d   1      -5.490   9.692   6.693  0.00  0.00     0.085 H 
ATOM     16  C18 VSK d   1      -2.881  10.907   8.423  0.00  0.00    -0.071 A 
ATOM     17  C19 VSK d   1      -1.979   9.852   8.297  0.00  0.00    -0.055 A 
ATOM     18  H8  VSK d   1      -2.586  11.785   8.986  0.00  0.00     0.085 H 
BRANCH  12  19
ATOM     19  C22 VSK d   1      -4.094   7.454   6.191  0.00  0.00    -0.051 C 
ATOM     20  H15 VSK d   1      -3.289   6.705   6.164  0.00  0.00     0.033 H 
ATOM     21  H16 VSK d   1      -4.346   7.759   5.165  0.00  0.00     0.033 H 
ATOM     22  H17 VSK d   1      -4.982   7.020   6.673  0.00  0.00     0.033 H 
ENDBRANCH  12  19
BRANCH  14  23
ATOM     23  C21 VSK d   1      -5.096  12.032   8.002  0.00  0.00    -0.051 C 
ATOM     24  H12 VSK d   1      -6.036  11.804   7.478  0.00  0.00     0.033 H 
ATOM     25  H13 VSK d   1      -4.644  12.936   7.568  0.00  0.00     0.033 H 
ATOM     26  H14 VSK d   1      -5.302  12.202   9.069  0.00  0.00     0.033 H 
ENDBRANCH  14  23
BRANCH  17  27
ATOM     27  C20 VSK d   1      -0.619   9.963   8.949  0.00  0.00    -0.051 C 
ATOM     28  H9  VSK d   1      -0.041   9.048   8.750  0.00  0.00     0.033 H 
ATOM     29  H10 VSK d   1      -0.742  10.090  10.035  0.00  0.00     0.033 H 
ATOM     30  H11 VSK d   1      -0.084  10.831   8.537  0.00  0.00     0.033 H 
ENDBRANCH  17  27
ENDBRANCH   8  11
ENDBRANCH   5   8
ENDBRANCH   2   5
BRANCH   1  31
ATOM     31  C10 VSK d   1       0.508   3.647   9.412  0.00  0.00     0.179 C 
ATOM     32  H2  VSK d   1       0.243   3.171   8.457  0.00  0.00     0.099 H 
BRANCH  31  33
ATOM     33  C9  VSK d   1       0.086   2.746  10.580  0.00  0.00    -0.004 C 
ATOM     34  H22 VSK d   1       0.455   3.198  11.513  0.00  0.00     0.044 H 
ATOM     35  H23 VSK d   1       0.555   1.761  10.440  0.00  0.00     0.044 H 
BRANCH  33  36
ATOM     36  C8  VSK d   1      -1.394   2.545  10.711  0.00  0.00    -0.028 A 
ATOM     37  C2  VSK d   1      -2.114   1.319  10.496  0.00  0.00    -0.002 A 
ATOM     38  C1  VSK d   1      -1.743   0.025  10.114  0.00  0.00    -0.070 A 
ATOM     39  C3  VSK d   1      -3.476   1.592  10.739  0.00  0.00     0.042 A 
ATOM     40  C6  VSK d   1      -2.719  -0.940  10.007  0.00  0.00    -0.082 A 
ATOM     41  H1  VSK d   1      -0.706  -0.213   9.906  0.00  0.00     0.084 H 
ATOM     42  C5  VSK d   1      -4.061  -0.648  10.256  0.00  0.00    -0.081 A 
ATOM     43  H20 VSK d   1      -2.439  -1.948   9.723  0.00  0.00     0.083 H 
ATOM     44  C4  VSK d   1      -4.465   0.618  10.618  0.00  0.00    -0.056 A 
ATOM     45  H19 VSK d   1      -4.801  -1.435  10.162  0.00  0.00     0.083 H 
ATOM     46  H18 VSK d   1      -5.509   0.847  10.801  0.00  0.00     0.086 H 
ATOM     47  N1  VSK d   1      -3.579   2.913  11.090  0.00  0.00    -0.365 N 
ATOM     48  C7  VSK d   1      -2.326   3.471  11.082  0.00  0.00    -0.015 A 
ATOM     49  H24 VSK d   1      -4.453   3.406  11.322  0.00  0.00     0.165 HD
ATOM     50  H21 VSK d   1      -2.106   4.507  11.336  0.00  0.00     0.112 H 
ENDBRANCH  33  36
ENDBRANCH  31  33
BRANCH  31  51
ATOM     51  N2  VSK d   1       1.973   3.903   9.479  0.00  0.00    -0.066 N 
ATOM     52  H25 VSK d   1       2.246   4.495   8.710  0.00  0.00     0.275 HD
ATOM     53  H26 VSK d   1       2.470   3.028   9.422  0.00  0.00     0.275 HD
ATOM     54  H27 VSK d   1       2.195   4.359  10.350  0.00  0.00     0.275 HD
ENDBRANCH  31  51
ENDBRANCH   1  31
TORSDOF 10
