REMARK WARNING: 32 MAX_TORS EXCEEDED!!!
REMARK  78 active torsions:
REMARK  status: ('A' for Active; 'I' for Inactive)
REMARK    1  A    between atoms: CA_2  and  N_1 
REMARK    2  A    between atoms: C_3  and  CA_2 
REMARK    3  A    between atoms: CA_2  and  CB_5 
REMARK       I    between atoms: N_15  and  C_3 
REMARK    4  A    between atoms: CB_5  and  OG1_6 
REMARK    5  A    between atoms: CB_5  and  CG2_7 
REMARK    6  A    between atoms: CB_18  and  C1_8 
REMARK    7  A    between atoms: CA_16  and  N_15 
REMARK    8  A    between atoms: CA_16  and  C_17 
REMARK    9  A    between atoms: CA_16  and  CB_18 
REMARK       I    between atoms: C_17  and  N_23 
REMARK   10  A    between atoms: N_23  and  CA_24 
REMARK   11  A    between atoms: CA_24  and  C_25 
REMARK   12  A    between atoms: CA_24  and  CB_27 
REMARK       I    between atoms: C_25  and  N_35 
REMARK   13  A    between atoms: CB_27  and  CG_28 
REMARK   14  A    between atoms: CZ_33  and  OH_34 
REMARK   15  A    between atoms: N_35  and  CA_36 
REMARK   16  A    between atoms: CA_36  and  C_37 
REMARK   17  A    between atoms: CA_36  and  CB_39 
REMARK       I    between atoms: C_37  and  N_40 
REMARK   18  A    between atoms: N_40  and  CA_41 
REMARK   19  A    between atoms: CA_41  and  C_42 
REMARK   20  A    between atoms: CA_41  and  CB_44 
REMARK       I    between atoms: C_42  and  N_48 
REMARK   21  A    between atoms: CB_44  and  CG_45 
REMARK   22  A    between atoms: N_48  and  CA_49 
REMARK   23  A    between atoms: CA_49  and  C_50 
REMARK   24  A    between atoms: CA_49  and  CB_52 
REMARK       I    between atoms: C_50  and  N_59 
REMARK   25  A    between atoms: CB_52  and  CG_53 
REMARK   26  A    between atoms: N_59  and  CA_60 
REMARK   27  A    between atoms: CA_60  and  C_61 
REMARK   28  A    between atoms: CA_60  and  CB_63 
REMARK       I    between atoms: C_61  and  N_67 
REMARK   29  A    between atoms: CB_63  and  CG1_64 
REMARK   30  A    between atoms: CB_63  and  CG2_65 
REMARK   31  A    between atoms: CG1_64  and  CD1_66 
REMARK   32  A    between atoms: N_67  and  CA_68 
REMARK   33  A    between atoms: CA_68  and  C_69 
REMARK   34  A    between atoms: CA_68  and  CB_71 
REMARK       I    between atoms: C_69  and  N_72 
REMARK   35  A    between atoms: N_72  and  CA_73 
REMARK   36  A    between atoms: CA_73  and  C_74 
REMARK   37  A    between atoms: CA_73  and  CB_76 
REMARK       I    between atoms: C_74  and  N_78 
REMARK   38  A    between atoms: CB_76  and  OG_77 
REMARK   39  A    between atoms: N_78  and  CA_79 
REMARK   40  A    between atoms: CA_79  and  C_80 
REMARK       I    between atoms: C_80  and  N_82 
REMARK   41  A    between atoms: N_82  and  CA_83 
REMARK   42  A    between atoms: CA_83  and  C_84 
REMARK   43  A    between atoms: CA_83  and  CB_86 
REMARK       I    between atoms: C_84  and  N_93 
REMARK   44  A    between atoms: CB_86  and  CG_87 
REMARK   45  A    between atoms: CG_87  and  CD_88 
REMARK   46  A    between atoms: CD_88  and  NE_89 
REMARK       I    between atoms: NE_89  and  CZ_90 
REMARK       I    between atoms: CZ_90  and  NH1_91 
REMARK       I    between atoms: CZ_90  and  NH2_92 
REMARK   47  A    between atoms: N_93  and  CA_94 
REMARK   48  A    between atoms: CA_94  and  C_95 
REMARK   49  A    between atoms: CA_94  and  CB_97 
REMARK       I    between atoms: C_95  and  N_100 
REMARK   50  A    between atoms: CB_97  and  OG1_98 
REMARK   51  A    between atoms: CB_97  and  CG2_99 
REMARK   52  A    between atoms: N_100  and  CA_101 
REMARK   53  A    between atoms: CA_101  and  C_102 
REMARK       I    between atoms: C_102  and  N_104 
REMARK   54  A    between atoms: N_104  and  CA_105 
REMARK   55  A    between atoms: CA_105  and  C_106 
REMARK   56  A    between atoms: CA_105  and  CB_108 
REMARK       I    between atoms: C_106  and  N_115 
REMARK   57  A    between atoms: CB_108  and  CG_109 
REMARK   58  A    between atoms: CG_109  and  CD_110 
REMARK   59  A    between atoms: CD_110  and  NE_111 
REMARK       I    between atoms: NE_111  and  CZ_112 
REMARK       I    between atoms: CZ_112  and  NH1_113 
REMARK       I    between atoms: CZ_112  and  NH2_114 
REMARK   60  A    between atoms: N_115  and  CA_116 
REMARK   61  A    between atoms: CA_116  and  C_117 
REMARK   62  A    between atoms: CA_116  and  CB_119 
REMARK       I    between atoms: C_117  and  N_126 
REMARK   63  A    between atoms: CB_119  and  CG_120 
REMARK   64  A    between atoms: CG_120  and  CD_121 
REMARK   65  A    between atoms: CD_121  and  NE_122 
REMARK       I    between atoms: NE_122  and  CZ_123 
REMARK       I    between atoms: CZ_123  and  NH1_124 
REMARK   66  A    between atoms: N_126  and  CA_127 
REMARK   67  A    between atoms: CA_127  and  C_128 
REMARK   68  A    between atoms: CA_127  and  CB_130 
REMARK       I    between atoms: C_128  and  N_134 
REMARK   69  A    between atoms: CB_130  and  CG_131 
REMARK       I    between atoms: CG_131  and  ND2_133 
REMARK   70  A    between atoms: N_134  and  CA_135 
REMARK   71  A    between atoms: CA_135  and  C_136 
REMARK   72  A    between atoms: CA_135  and  CB_138 
REMARK       I    between atoms: C_136  and  N_139 
REMARK   73  A    between atoms: N_139  and  CA_140 
REMARK   74  A    between atoms: CA_140  and  C_141 
REMARK   75  A    between atoms: CA_140  and  CB_143 
REMARK   76  A    between atoms: CB_143  and  CG1_144 
REMARK   77  A    between atoms: CB_143  and  CG2_145 
REMARK   78  A    between atoms: CG1_144  and  CD1_146 
ROOT
ATOM      1  CA  THR d   1      11.079 -29.660  32.165  0.00  0.00     0.109 C 
ATOM      2  H73 THR d   1      11.926 -29.173  32.671  0.00  0.00     0.090 H 
ENDROOT
BRANCH   1   3
ATOM      3  N   THR d   1      11.506 -30.996  31.756  0.00  0.00    -0.344 N 
ATOM      4  C   THR d   1      12.039 -31.846  32.639  0.00  0.00     0.240 C 
ATOM      5  O   THR d   1      12.172 -31.561  33.831  0.00  0.00    -0.271 OA
ATOM      6  H72 THR d   1      11.398 -31.278  30.803  0.00  0.00     0.163 HD
BRANCH   4   7
ATOM      7  CA  THR d   1      12.510 -33.201  32.134  0.00  0.00     0.086 C 
ATOM      8  H68 THR d   1      12.315 -33.947  32.918  0.00  0.00     0.086 H 
BRANCH   7   9
ATOM      9  N   THR d   1      11.812 -33.622  30.927  0.00  0.00    -0.346 N 
ATOM     10  C   THR d   1      10.502 -33.903  30.943  0.00  0.00     0.241 C 
ATOM     11  O   THR d   1       9.818 -33.778  31.968  0.00  0.00    -0.271 OA
ATOM     12  H67 THR d   1      12.320 -33.703  30.070  0.00  0.00     0.163 HD
BRANCH  10  13
ATOM     13  CA  THR d   1       9.868 -34.361  29.631  0.00  0.00     0.092 C 
ATOM     14  H57 THR d   1       8.788 -34.162  29.689  0.00  0.00     0.088 H 
BRANCH  13  15
ATOM     15  N   THR d   1      10.415 -33.600  28.508  0.00  0.00    -0.346 N 
ATOM     16  C   THR d   1      10.255 -32.275  28.448  0.00  0.00     0.241 C 
ATOM     17  O   THR d   1       9.642 -31.649  29.315  0.00  0.00    -0.271 OA
ATOM     18  H56 THR d   1      10.912 -34.074  27.781  0.00  0.00     0.163 HD
BRANCH  16  19
ATOM     19  CA  THR d   1      10.891 -31.554  27.270  0.00  0.00     0.093 C 
ATOM     20  H48 THR d   1      10.906 -30.476  27.489  0.00  0.00     0.088 H 
BRANCH  19  21
ATOM     21  N   THR d   1      12.260 -32.017  27.078  0.00  0.00    -0.346 N 
ATOM     22  C   THR d   1      13.180 -31.835  28.029  0.00  0.00     0.241 C 
ATOM     23  O   THR d   1      12.939 -31.224  29.076  0.00  0.00    -0.271 OA
ATOM     24  H47 THR d   1      12.513 -32.475  26.226  0.00  0.00     0.163 HD
BRANCH  22  25
ATOM     25  CA  THR d   1      14.572 -32.381  27.759  0.00  0.00     0.098 C 
ATOM     26  H44 THR d   1      15.082 -32.537  28.721  0.00  0.00     0.088 H 
BRANCH  25  27
ATOM     27  N   THR d   1      14.507 -33.663  27.064  0.00  0.00    -0.346 N 
ATOM     28  C   THR d   1      13.940 -34.716  27.666  0.00  0.00     0.240 C 
ATOM     29  O   THR d   1      13.519 -34.660  28.828  0.00  0.00    -0.271 OA
ATOM     30  H43 THR d   1      14.884 -33.754  26.142  0.00  0.00     0.163 HD
BRANCH  28  31
ATOM     31  CA  THR d   1      13.806 -35.998  26.856  0.00  0.00     0.086 C 
ATOM     32  H39 THR d   1      12.980 -36.587  27.281  0.00  0.00     0.086 H 
BRANCH  31  33
ATOM     33  N   THR d   1      13.489 -35.698  25.469  0.00  0.00    -0.346 N 
ATOM     34  C   THR d   1      12.351 -35.076  25.170  0.00  0.00     0.241 C 
ATOM     35  O   THR d   1      11.503 -34.809  26.036  0.00  0.00    -0.271 OA
ATOM     36  H38 THR d   1      14.124 -35.958  24.742  0.00  0.00     0.163 HD
BRANCH  34  37
ATOM     37  CA  THR d   1      12.112 -34.735  23.703  0.00  0.00     0.093 C 
ATOM     38  H30 THR d   1      11.302 -33.993  23.647  0.00  0.00     0.088 H 
BRANCH  37  39
ATOM     39  N   THR d   1      13.308 -34.158  23.094  0.00  0.00    -0.346 N 
ATOM     40  C   THR d   1      13.836 -33.030  23.587  0.00  0.00     0.241 C 
ATOM     41  O   THR d   1      13.292 -32.393  24.493  0.00  0.00    -0.271 OA
ATOM     42  H29 THR d   1      13.733 -34.606  22.308  0.00  0.00     0.163 HD
BRANCH  40  43
ATOM     43  CA  THR d   1      15.129 -32.512  22.969  0.00  0.00     0.090 C 
ATOM     44  H19 THR d   1      15.633 -31.871  23.707  0.00  0.00     0.087 H 
BRANCH  43  45
ATOM     45  N   THR d   1      16.038 -33.597  22.620  0.00  0.00    -0.346 N 
ATOM     46  C   THR d   1      16.538 -34.331  23.616  0.00  0.00     0.251 C 
ATOM     47  O   THR d   1      16.264 -34.092  24.790  0.00  0.00    -0.271 OA
ATOM     48  H18 THR d   1      16.278 -33.785  21.668  0.00  0.00     0.163 HD
BRANCH  46  49
ATOM     49  CA  THR d   1      17.459 -35.487  23.271  0.00  0.00     0.199 C 
ATOM     50  H4  THR d   1      18.193 -35.156  22.522  0.00  0.00     0.103 H 
BRANCH  49  51
ATOM     51  N   THR d   1      18.163 -35.897  24.482  0.00  0.00    -0.064 N 
ATOM     52  H1  THR d   1      18.687 -35.117  24.846  0.00  0.00     0.275 HD
ATOM     53  H2  THR d   1      18.793 -36.653  24.265  0.00  0.00     0.275 HD
ATOM     54  H3  THR d   1      17.495 -36.204  25.172  0.00  0.00     0.275 HD
ENDBRANCH  49  51
BRANCH  49  55
ATOM     55  CB  THR d   1      16.653 -36.647  22.692  0.00  0.00     0.068 C 
ATOM     56  H5  THR d   1      16.258 -36.361  21.706  0.00  0.00     0.086 H 
BRANCH  55  57
ATOM     57  OG1 THR d   1      15.576 -36.952  23.580  0.00  0.00    -0.393 OA
ATOM     58  H6  THR d   1      15.070 -37.673  23.226  0.00  0.00     0.210 HD
ENDBRANCH  55  57
BRANCH  55  59
ATOM     59  CG2 THR d   1      17.520 -37.894  22.553  0.00  0.00    -0.050 C 
ATOM     60  H7  THR d   1      16.918 -38.714  22.135  0.00  0.00     0.031 H 
ATOM     61  H8  THR d   1      17.902 -38.187  23.542  0.00  0.00     0.031 H 
ATOM     62  H9  THR d   1      18.365 -37.680  21.882  0.00  0.00     0.031 H 
ENDBRANCH  55  59
ENDBRANCH  49  55
ENDBRANCH  46  49
ENDBRANCH  43  45
BRANCH  43  63
ATOM     63  CB  THR d   1      14.800 -31.687  21.773  0.00  0.00    -0.031 C 
ATOM     64  H20 THR d   1      14.815 -32.384  20.922  0.00  0.00     0.037 H 
ATOM     65  H21 THR d   1      13.773 -31.330  21.936  0.00  0.00     0.037 H 
BRANCH  63  66
ATOM     66  C1  THR d   1      15.567 -30.496  21.323  0.00  0.00    -0.037 C 
ATOM     67  C2  THR d   1      16.898 -30.938  20.709  0.00  0.00    -0.054 C 
ATOM     68  C3  THR d   1      17.612 -29.733  20.075  0.00  0.00    -0.053 C 
ATOM     69  H10 THR d   1      16.708 -31.697  19.936  0.00  0.00     0.034 H 
ATOM     70  H11 THR d   1      17.537 -31.367  21.495  0.00  0.00     0.034 H 
ATOM     71  C4  THR d   1      17.886 -28.680  21.150  0.00  0.00    -0.058 C 
ATOM     72  C10 THR d   1      16.722 -29.134  18.990  0.00  0.00    -0.058 C 
ATOM     73  H12 THR d   1      18.564 -30.061  19.631  0.00  0.00     0.040 H 
ATOM     74  C5  THR d   1      16.565 -28.227  21.773  0.00  0.00    -0.053 C 
ATOM     75  H13 THR d   1      18.392 -27.816  20.695  0.00  0.00     0.034 H 
ATOM     76  H14 THR d   1      18.529 -29.112  21.930  0.00  0.00     0.034 H 
ATOM     77  C6  THR d   1      15.846 -29.439  22.397  0.00  0.00    -0.054 C 
ATOM     78  C7  THR d   1      15.677 -27.621  20.689  0.00  0.00    -0.058 C 
ATOM     79  H15 THR d   1      16.764 -27.475  22.551  0.00  0.00     0.040 H 
ATOM     80  H16 THR d   1      16.483 -29.876  23.181  0.00  0.00     0.034 H 
ATOM     81  H17 THR d   1      14.894 -29.109  22.839  0.00  0.00     0.034 H 
ATOM     82  C8  THR d   1      15.409 -28.669  19.607  0.00  0.00    -0.053 C 
ATOM     83  H25 THR d   1      16.184 -26.753  20.242  0.00  0.00     0.034 H 
ATOM     84  H26 THR d   1      14.723 -27.300  21.133  0.00  0.00     0.034 H 
ATOM     85  C9  THR d   1      14.694 -29.867  20.225  0.00  0.00    -0.054 C 
ATOM     86  H24 THR d   1      14.775 -28.228  18.824  0.00  0.00     0.040 H 
ATOM     87  H22 THR d   1      13.741 -29.535  20.663  0.00  0.00     0.034 H 
ATOM     88  H23 THR d   1      14.497 -30.616  19.444  0.00  0.00     0.034 H 
ATOM     89  H27 THR d   1      16.517 -29.895  18.223  0.00  0.00     0.034 H 
ATOM     90  H28 THR d   1      17.234 -28.277  18.528  0.00  0.00     0.034 H 
ENDBRANCH  63  66
ENDBRANCH  43  63
ENDBRANCH  40  43
ENDBRANCH  37  39
BRANCH  37  91
ATOM     91  CB  THR d   1      11.683 -35.985  22.936  0.00  0.00    -0.014 C 
ATOM     92  H31 THR d   1      12.511 -36.709  22.961  0.00  0.00     0.043 H 
ATOM     93  H32 THR d   1      11.477 -35.700  21.894  0.00  0.00     0.043 H 
BRANCH  91  94
ATOM     94  CG  THR d   1      10.445 -36.652  23.504  0.00  0.00    -0.056 A 
ATOM     95  CD1 THR d   1      10.507 -37.922  24.080  0.00  0.00    -0.074 A 
ATOM     96  CE1 THR d   1       9.355 -38.534  24.592  0.00  0.00    -0.051 A 
ATOM     97  H33 THR d   1      11.457 -38.441  24.132  0.00  0.00     0.084 H 
ATOM     98  CZ  THR d   1       8.136 -37.869  24.534  0.00  0.00     0.065 A 
ATOM     99  H35 THR d   1       9.415 -39.523  25.032  0.00  0.00     0.087 H 
ATOM    100  CE2 THR d   1       8.053 -36.611  23.982  0.00  0.00    -0.051 A 
ATOM    101  CD2 THR d   1       9.202 -36.011  23.464  0.00  0.00    -0.074 A 
ATOM    102  H36 THR d   1       7.103 -36.090  23.950  0.00  0.00     0.087 H 
ATOM    103  H34 THR d   1       9.130 -35.025  23.020  0.00  0.00     0.084 H 
BRANCH  98 104
ATOM    104  OH  THR d   1       7.005 -38.469  25.041  0.00  0.00    -0.361 OA
ATOM    105  H37 THR d   1       7.229 -39.327  25.383  0.00  0.00     0.217 HD
ENDBRANCH  98 104
ENDBRANCH  91  94
ENDBRANCH  37  91
ENDBRANCH  34  37
ENDBRANCH  31  33
BRANCH  31 106
ATOM    106  CB  THR d   1      15.079 -36.834  26.931  0.00  0.00    -0.049 C 
ATOM    107  H40 THR d   1      15.310 -37.056  27.983  0.00  0.00     0.030 H 
ATOM    108  H41 THR d   1      15.913 -36.274  26.482  0.00  0.00     0.030 H 
ATOM    109  H42 THR d   1      14.932 -37.776  26.382  0.00  0.00     0.030 H 
ENDBRANCH  31 106
ENDBRANCH  28  31
ENDBRANCH  25  27
BRANCH  25 110
ATOM    110  CB  THR d   1      15.363 -31.354  26.948  0.00  0.00     0.043 C 
ATOM    111  H45 THR d   1      15.194 -30.358  27.384  0.00  0.00     0.052 H 
ATOM    112  H46 THR d   1      14.994 -31.368  25.912  0.00  0.00     0.052 H 
BRANCH 110 113
ATOM    113  CG  THR d   1      16.844 -31.625  26.933  0.00  0.00     0.175 C 
ATOM    114  OD1 THR d   1      17.317 -32.537  27.655  0.00  0.00    -0.648 OA
ATOM    115  OD2 THR d   1      17.538 -30.892  26.194  0.00  0.00    -0.648 OA
ENDBRANCH 110 113
ENDBRANCH  25 110
ENDBRANCH  22  25
ENDBRANCH  19  21
BRANCH  19 116
ATOM    116  CB  THR d   1      10.106 -31.779  25.984  0.00  0.00    -0.014 C 
ATOM    117  H49 THR d   1      10.166 -32.848  25.733  0.00  0.00     0.043 H 
ATOM    118  H50 THR d   1      10.582 -31.188  25.188  0.00  0.00     0.043 H 
BRANCH 116 119
ATOM    119  CG  THR d   1       8.636 -31.392  26.040  0.00  0.00    -0.056 A 
ATOM    120  CD1 THR d   1       7.673 -32.300  25.640  0.00  0.00    -0.077 A 
ATOM    121  CE1 THR d   1       6.307 -31.952  25.626  0.00  0.00    -0.082 A 
ATOM    122  H51 THR d   1       7.973 -33.295  25.332  0.00  0.00     0.084 H 
ATOM    123  CZ  THR d   1       5.919 -30.705  26.019  0.00  0.00    -0.083 A 
ATOM    124  H53 THR d   1       5.566 -32.675  25.303  0.00  0.00     0.083 H 
ATOM    125  CE2 THR d   1       6.867 -29.782  26.414  0.00  0.00    -0.082 A 
ATOM    126  H55 THR d   1       4.868 -30.439  26.021  0.00  0.00     0.083 H 
ATOM    127  CD2 THR d   1       8.224 -30.119  26.419  0.00  0.00    -0.077 A 
ATOM    128  H54 THR d   1       6.557 -28.790  26.722  0.00  0.00     0.083 H 
ATOM    129  H52 THR d   1       8.960 -29.383  26.721  0.00  0.00     0.084 H 
ENDBRANCH 116 119
ENDBRANCH  19 116
ENDBRANCH  16  19
ENDBRANCH  13  15
BRANCH  13 130
ATOM    130  CB  THR d   1      10.062 -35.872  29.393  0.00  0.00    -0.030 C 
ATOM    131  H58 THR d   1      11.143 -36.070  29.349  0.00  0.00     0.043 H 
BRANCH 130 132
ATOM    132  CG1 THR d   1       9.446 -36.311  28.051  0.00  0.00    -0.063 C 
ATOM    133  H59 THR d   1       9.508 -37.408  27.991  0.00  0.00     0.033 H 
ATOM    134  H60 THR d   1      10.042 -35.865  27.241  0.00  0.00     0.033 H 
BRANCH 132 135
ATOM    135  CD1 THR d   1       7.996 -35.911  27.842  0.00  0.00    -0.076 C 
ATOM    136  H64 THR d   1       7.654 -36.270  26.860  0.00  0.00     0.027 H 
ATOM    137  H65 THR d   1       7.908 -34.815  27.883  0.00  0.00     0.027 H 
ATOM    138  H66 THR d   1       7.375 -36.358  28.632  0.00  0.00     0.027 H 
ENDBRANCH 132 135
ENDBRANCH 130 132
BRANCH 130 139
ATOM    139  CG2 THR d   1       9.478 -36.693  30.551  0.00  0.00    -0.071 C 
ATOM    140  H61 THR d   1       9.930 -36.364  31.498  0.00  0.00     0.028 H 
ATOM    141  H62 THR d   1       9.696 -37.759  30.391  0.00  0.00     0.028 H 
ATOM    142  H63 THR d   1       8.389 -36.544  30.594  0.00  0.00     0.028 H 
ENDBRANCH 130 139
ENDBRANCH  13 130
ENDBRANCH  10  13
ENDBRANCH   7   9
BRANCH   7 143
ATOM    143  CB  THR d   1      14.015 -33.144  31.875  0.00  0.00    -0.049 C 
ATOM    144  H69 THR d   1      14.533 -32.825  32.792  0.00  0.00     0.030 H 
ATOM    145  H70 THR d   1      14.221 -32.425  31.069  0.00  0.00     0.030 H 
ATOM    146  H71 THR d   1      14.374 -34.141  31.579  0.00  0.00     0.030 H 
ENDBRANCH   7 143
ENDBRANCH   4   7
ENDBRANCH   1   3
BRANCH   1 147
ATOM    147  C   THR d   1       9.903 -29.699  33.122  0.00  0.00     0.242 C 
ATOM    148  O   THR d   1       9.655 -28.710  33.817  0.00  0.00    -0.271 OA
ATOM    149  N   THR d   1       9.158 -30.797  33.133  0.00  0.00    -0.350 N 
ATOM    150  H77 THR d   1       9.454 -31.592  32.604  0.00  0.00     0.163 HD
BRANCH 149 151
ATOM    151  CA  THR d   1       7.932 -30.872  33.889  0.00  0.00     0.069 C 
ATOM    152  H78 THR d   1       8.149 -30.570  34.924  0.00  0.00     0.078 H 
ATOM    153  H79 THR d   1       7.585 -31.916  33.876  0.00  0.00     0.078 H 
BRANCH 151 154
ATOM    154  C   THR d   1       6.815 -29.999  33.369  0.00  0.00     0.236 C 
ATOM    155  O   THR d   1       5.799 -29.849  34.052  0.00  0.00    -0.272 OA
ATOM    156  N   THR d   1       6.954 -29.431  32.175  0.00  0.00    -0.346 N 
ATOM    157  H80 THR d   1       7.800 -29.577  31.663  0.00  0.00     0.163 HD
BRANCH 156 158
ATOM    158  CA  THR d   1       5.909 -28.602  31.592  0.00  0.00     0.089 C 
ATOM    159  H81 THR d   1       5.116 -28.480  32.345  0.00  0.00     0.087 H 
BRANCH 158 160
ATOM    160  C   THR d   1       5.281 -29.272  30.369  0.00  0.00     0.241 C 
ATOM    161  O   THR d   1       5.042 -28.633  29.340  0.00  0.00    -0.271 OA
ATOM    162  N   THR d   1       4.974 -30.575  30.489  0.00  0.00    -0.344 N 
ATOM    163  H93 THR d   1       5.213 -31.054  31.334  0.00  0.00     0.163 HD
BRANCH 162 164
ATOM    164  CA  THR d   1       4.303 -31.310  29.424  0.00  0.00     0.113 C 
ATOM    165  H94 THR d   1       4.574 -30.828  28.473  0.00  0.00     0.091 H 
BRANCH 164 166
ATOM    166  C   THR d   1       2.784 -31.282  29.551  0.00  0.00     0.243 C 
ATOM    167  O   THR d   1       2.091 -31.686  28.609  0.00  0.00    -0.271 OA
ATOM    168  N   THR d   1       2.255 -30.845  30.690  0.00  0.00    -0.350 N 
ATOM    169 0H10 THR d   1       2.866 -30.562  31.429  0.00  0.00     0.163 HD
BRANCH 168 170
ATOM    170  CA  THR d   1       0.827 -30.766  30.895  0.00  0.00     0.069 C 
ATOM    171 1H10 THR d   1       0.611 -30.935  31.960  0.00  0.00     0.078 H 
ATOM    172 2H10 THR d   1       0.337 -31.546  30.293  0.00  0.00     0.078 H 
BRANCH 170 173
ATOM    173  C   THR d   1       0.273 -29.414  30.491  0.00  0.00     0.236 C 
ATOM    174  O   THR d   1       0.962 -28.559  29.926  0.00  0.00    -0.272 OA
ATOM    175  N   THR d   1      -1.012 -29.224  30.780  0.00  0.00    -0.346 N 
ATOM    176 3H10 THR d   1      -1.540 -29.940  31.237  0.00  0.00     0.163 HD
BRANCH 175 177
ATOM    177  CA  THR d   1      -1.637 -27.960  30.422  0.00  0.00     0.089 C 
ATOM    178 4H10 THR d   1      -1.499 -27.795  29.343  0.00  0.00     0.087 H 
BRANCH 177 179
ATOM    179  C   THR d   1      -0.970 -26.820  31.174  0.00  0.00     0.241 C 
ATOM    180  O   THR d   1      -0.675 -26.926  32.369  0.00  0.00    -0.271 OA
ATOM    181  N   THR d   1      -0.715 -25.731  30.455  0.00  0.00    -0.346 N 
ATOM    182 6H11 THR d   1      -1.056 -25.686  29.516  0.00  0.00     0.163 HD
BRANCH 181 183
ATOM    183  CA  THR d   1       0.038 -24.605  30.976  0.00  0.00     0.089 C 
ATOM    184 7H11 THR d   1       0.566 -24.923  31.887  0.00  0.00     0.087 H 
BRANCH 183 185
ATOM    185  C   THR d   1      -0.897 -23.461  31.332  0.00  0.00     0.241 C 
ATOM    186  O   THR d   1      -1.730 -23.054  30.515  0.00  0.00    -0.271 OA
ATOM    187  N   THR d   1      -0.735 -22.932  32.543  0.00  0.00    -0.346 N 
ATOM    188 9H12 THR d   1      -0.060 -23.329  33.165  0.00  0.00     0.163 HD
BRANCH 187 189
ATOM    189  CA  THR d   1      -1.519 -21.791  32.977  0.00  0.00     0.097 C 
ATOM    190 0H13 THR d   1      -2.547 -21.918  32.607  0.00  0.00     0.088 H 
BRANCH 189 191
ATOM    191  C   THR d   1      -0.961 -20.488  32.432  0.00  0.00     0.241 C 
ATOM    192  O   THR d   1       0.242 -20.344  32.202  0.00  0.00    -0.271 OA
ATOM    193  N   THR d   1      -1.860 -19.530  32.250  0.00  0.00    -0.346 N 
ATOM    194 5H13 THR d   1      -2.833 -19.761  32.271  0.00  0.00     0.163 HD
BRANCH 193 195
ATOM    195  CA  THR d   1      -1.460 -18.153  32.021  0.00  0.00     0.086 C 
ATOM    196 6H13 THR d   1      -0.791 -18.117  31.149  0.00  0.00     0.086 H 
BRANCH 195 197
ATOM    197  C   THR d   1      -0.722 -17.607  33.237  0.00  0.00     0.240 C 
ATOM    198  O   THR d   1      -0.922 -18.054  34.368  0.00  0.00    -0.271 OA
ATOM    199  N   THR d   1       0.130 -16.622  32.995  0.00  0.00    -0.344 N 
ATOM    200 0H14 THR d   1       0.263 -16.312  32.053  0.00  0.00     0.163 HD
BRANCH 199 201
ATOM    201  CA  THR d   1       0.879 -15.978  34.069  0.00  0.00     0.099 C 
ATOM    202 1H14 THR d   1       1.229 -16.760  34.759  0.00  0.00     0.090 H 
BRANCH 201 203
ATOM    203  C   THR d   1      -0.018 -15.028  34.847  0.00  0.00     0.197 C 
ATOM    204  O   THR d   1       0.317 -14.639  35.975  0.00  0.00    -0.646 OA
ATOM    205  OXT THR d   1      -1.083 -14.626  34.379  0.00  0.00    -0.646 OA
ENDBRANCH 201 203
BRANCH 201 206
ATOM    206  CB  THR d   1       2.100 -15.252  33.521  0.00  0.00    -0.029 C 
ATOM    207 2H14 THR d   1       2.640 -14.785  34.358  0.00  0.00     0.043 H 
BRANCH 206 208
ATOM    208  CG1 THR d   1       1.688 -14.165  32.535  0.00  0.00    -0.063 C 
ATOM    209 3H14 THR d   1       0.933 -13.527  33.018  0.00  0.00     0.033 H 
ATOM    210 4H14 THR d   1       1.248 -14.648  31.650  0.00  0.00     0.033 H 
BRANCH 208 211
ATOM    211  CD1 THR d   1       2.838 -13.283  32.076  0.00  0.00    -0.076 C 
ATOM    212 8H14 THR d   1       2.462 -12.528  31.370  0.00  0.00     0.027 H 
ATOM    213 9H14 THR d   1       3.599 -13.902  31.579  0.00  0.00     0.027 H 
ATOM    214 0H15 THR d   1       3.285 -12.781  32.947  0.00  0.00     0.027 H 
ENDBRANCH 208 211
ENDBRANCH 206 208
BRANCH 206 215
ATOM    215  CG2 THR d   1       3.010 -16.235  32.837  0.00  0.00    -0.070 C 
ATOM    216 5H14 THR d   1       3.306 -17.018  33.550  0.00  0.00     0.028 H 
ATOM    217 6H14 THR d   1       3.907 -15.713  32.473  0.00  0.00     0.028 H 
ATOM    218 7H14 THR d   1       2.483 -16.693  31.987  0.00  0.00     0.028 H 
ENDBRANCH 206 215
ENDBRANCH 201 206
ENDBRANCH 199 201
ENDBRANCH 195 197
BRANCH 195 219
ATOM    219  CB  THR d   1      -2.683 -17.290  31.745  0.00  0.00    -0.049 C 
ATOM    220 7H13 THR d   1      -2.367 -16.250  31.573  0.00  0.00     0.030 H 
ATOM    221 8H13 THR d   1      -3.362 -17.329  32.610  0.00  0.00     0.030 H 
ATOM    222 9H13 THR d   1      -3.204 -17.667  30.852  0.00  0.00     0.030 H 
ENDBRANCH 195 219
ENDBRANCH 193 195
ENDBRANCH 189 191
BRANCH 189 223
ATOM    223  CB  THR d   1      -1.549 -21.699  34.499  0.00  0.00     0.036 C 
ATOM    224 1H13 THR d   1      -2.101 -20.793  34.788  0.00  0.00     0.051 H 
ATOM    225 2H13 THR d   1      -0.515 -21.633  34.870  0.00  0.00     0.051 H 
BRANCH 223 226
ATOM    226  CG  THR d   1      -2.209 -22.883  35.125  0.00  0.00     0.217 C 
ATOM    227  OD1 THR d   1      -3.172 -23.429  34.582  0.00  0.00    -0.274 OA
ATOM    228  ND2 THR d   1      -1.685 -23.315  36.256  0.00  0.00    -0.370 N 
ATOM    229 3H13 THR d   1      -2.084 -24.105  36.722  0.00  0.00     0.159 HD
ATOM    230 4H13 THR d   1      -0.889 -22.853  36.647  0.00  0.00     0.159 HD
ENDBRANCH 223 226
ENDBRANCH 189 223
ENDBRANCH 187 189
ENDBRANCH 183 185
BRANCH 183 231
ATOM    231  CB  THR d   1       1.066 -24.156  29.948  0.00  0.00    -0.036 C 
ATOM    232 8H11 THR d   1       1.576 -23.257  30.324  0.00  0.00     0.036 H 
ATOM    233 9H11 THR d   1       0.548 -23.917  29.008  0.00  0.00     0.036 H 
BRANCH 231 234
ATOM    234  CG  THR d   1       2.097 -25.225  29.679  0.00  0.00    -0.048 C 
ATOM    235 0H12 THR d   1       1.605 -26.206  29.745  0.00  0.00     0.035 H 
ATOM    236 1H12 THR d   1       2.879 -25.154  30.449  0.00  0.00     0.035 H 
BRANCH 234 237
ATOM    237  CD  THR d   1       2.755 -25.110  28.316  0.00  0.00     0.009 C 
ATOM    238 2H12 THR d   1       3.588 -25.826  28.264  0.00  0.00     0.064 H 
ATOM    239 3H12 THR d   1       3.142 -24.088  28.195  0.00  0.00     0.064 H 
BRANCH 237 240
ATOM    240  NE  THR d   1       1.823 -25.392  27.225  0.00  0.00    -0.227 N 
ATOM    241  CZ  THR d   1       2.177 -25.770  26.004  0.00  0.00     0.665 C 
ATOM    242  NH1 THR d   1       3.460 -25.916  25.665  0.00  0.00    -0.235 N 
ATOM    243  NH2 THR d   1       1.243 -25.991  25.097  0.00  0.00    -0.235 N 
ATOM    244 5H12 THR d   1       3.710 -26.211  24.710  0.00  0.00     0.174 HD
ATOM    245 6H12 THR d   1       4.200 -25.734  26.358  0.00  0.00     0.174 HD
ATOM    246 7H12 THR d   1       0.249 -25.882  25.344  0.00  0.00     0.174 HD
ATOM    247 8H12 THR d   1       1.508 -26.272  24.142  0.00  0.00     0.174 HD
ATOM    248 4H12 THR d   1       0.817 -25.289  27.419  0.00  0.00     0.177 HD
ENDBRANCH 237 240
ENDBRANCH 234 237
ENDBRANCH 231 234
ENDBRANCH 183 231
ENDBRANCH 181 183
ENDBRANCH 177 179
BRANCH 177 249
ATOM    249  CB  THR d   1      -3.128 -27.996  30.715  0.00  0.00    -0.036 C 
ATOM    250 5H10 THR d   1      -3.538 -26.984  30.582  0.00  0.00     0.036 H 
ATOM    251 6H10 THR d   1      -3.276 -28.317  31.757  0.00  0.00     0.036 H 
BRANCH 249 252
ATOM    252  CG  THR d   1      -3.864 -28.934  29.815  0.00  0.00    -0.048 C 
ATOM    253 7H10 THR d   1      -3.457 -29.946  29.960  0.00  0.00     0.035 H 
ATOM    254 8H10 THR d   1      -3.700 -28.618  28.774  0.00  0.00     0.035 H 
BRANCH 252 255
ATOM    255  CD  THR d   1      -5.355 -28.976  30.073  0.00  0.00     0.009 C 
ATOM    256 9H10 THR d   1      -5.729 -27.964  30.288  0.00  0.00     0.064 H 
ATOM    257 0H11 THR d   1      -5.572 -29.636  30.926  0.00  0.00     0.064 H 
BRANCH 255 258
ATOM    258  NE  THR d   1      -5.981 -29.492  28.874  0.00  0.00    -0.227 N 
ATOM    259  CZ  THR d   1      -6.084 -30.787  28.560  0.00  0.00     0.665 C 
ATOM    260  NH1 THR d   1      -5.622 -31.731  29.401  0.00  0.00    -0.235 N 
ATOM    261  NH2 THR d   1      -6.637 -31.135  27.391  0.00  0.00    -0.235 N 
ATOM    262 2H11 THR d   1      -5.705 -32.727  29.152  0.00  0.00     0.174 HD
ATOM    263 3H11 THR d   1      -5.186 -31.457  30.293  0.00  0.00     0.174 HD
ATOM    264 4H11 THR d   1      -6.989 -30.409  26.751  0.00  0.00     0.174 HD
ATOM    265 5H11 THR d   1      -6.710 -32.129  27.132  0.00  0.00     0.174 HD
ATOM    266 1H11 THR d   1      -6.377 -28.809  28.212  0.00  0.00     0.177 HD
ENDBRANCH 255 258
ENDBRANCH 252 255
ENDBRANCH 249 252
ENDBRANCH 177 249
ENDBRANCH 175 177
ENDBRANCH 170 173
ENDBRANCH 168 170
ENDBRANCH 164 166
BRANCH 164 267
ATOM    267  CB  THR d   1       4.754 -32.774  29.364  0.00  0.00     0.060 C 
ATOM    268  H95 THR d   1       4.310 -33.231  28.467  0.00  0.00     0.086 H 
BRANCH 267 269
ATOM    269  OG1 THR d   1       4.275 -33.482  30.514  0.00  0.00    -0.393 OA
ATOM    270  H96 THR d   1       4.624 -33.079  31.300  0.00  0.00     0.210 HD
ENDBRANCH 267 269
BRANCH 267 271
ATOM    271  CG2 THR d   1       6.293 -32.901  29.252  0.00  0.00    -0.050 C 
ATOM    272  H97 THR d   1       6.571 -33.965  29.212  0.00  0.00     0.031 H 
ATOM    273  H98 THR d   1       6.764 -32.431  30.128  0.00  0.00     0.031 H 
ATOM    274  H99 THR d   1       6.637 -32.397  28.337  0.00  0.00     0.031 H 
ENDBRANCH 267 271
ENDBRANCH 164 267
ENDBRANCH 162 164
ENDBRANCH 158 160
BRANCH 158 275
ATOM    275  CB  THR d   1       6.459 -27.218  31.268  0.00  0.00    -0.036 C 
ATOM    276  H82 THR d   1       5.675 -26.619  30.782  0.00  0.00     0.036 H 
ATOM    277  H83 THR d   1       7.319 -27.317  30.589  0.00  0.00     0.036 H 
BRANCH 275 278
ATOM    278  CG  THR d   1       6.912 -26.510  32.569  0.00  0.00    -0.048 C 
ATOM    279  H84 THR d   1       7.712 -27.109  33.028  0.00  0.00     0.035 H 
ATOM    280  H85 THR d   1       6.052 -26.460  33.253  0.00  0.00     0.035 H 
BRANCH 278 281
ATOM    281  CD  THR d   1       7.430 -25.110  32.355  0.00  0.00     0.009 C 
ATOM    282  H86 THR d   1       8.304 -25.153  31.689  0.00  0.00     0.064 H 
ATOM    283  H87 THR d   1       7.730 -24.690  33.327  0.00  0.00     0.064 H 
BRANCH 281 284
ATOM    284  NE  THR d   1       6.421 -24.236  31.754  0.00  0.00    -0.227 N 
ATOM    285  CZ  THR d   1       5.551 -23.500  32.443  0.00  0.00     0.665 C 
ATOM    286  NH1 THR d   1       4.674 -22.742  31.799  0.00  0.00    -0.235 N 
ATOM    287  NH2 THR d   1       5.544 -23.527  33.776  0.00  0.00    -0.235 N 
ATOM    288  H89 THR d   1       4.000 -22.171  32.329  0.00  0.00     0.174 HD
ATOM    289  H90 THR d   1       4.667 -22.724  30.769  0.00  0.00     0.174 HD
ATOM    290  H91 THR d   1       6.222 -24.113  34.283  0.00  0.00     0.174 HD
ATOM    291  H92 THR d   1       4.860 -22.961  34.299  0.00  0.00     0.174 HD
ATOM    292  H88 THR d   1       6.381 -24.187  30.726  0.00  0.00     0.177 HD
ENDBRANCH 281 284
ENDBRANCH 278 281
ENDBRANCH 275 278
ENDBRANCH 158 275
ENDBRANCH 156 158
ENDBRANCH 151 154
ENDBRANCH 149 151
ENDBRANCH   1 147
BRANCH   1 293
ATOM    293  CB  THR d   1      10.677 -28.815  30.952  0.00  0.00     0.044 C 
ATOM    294  H74 THR d   1      11.432 -28.936  30.162  0.00  0.00     0.077 H 
ATOM    295  H75 THR d   1      10.624 -27.758  31.250  0.00  0.00     0.077 H 
BRANCH 293 296
ATOM    296  OG  THR d   1       9.417 -29.220  30.455  0.00  0.00    -0.398 OA
ATOM    297  H76 THR d   1       9.459 -30.132  30.193  0.00  0.00     0.209 HD
ENDBRANCH 293 296
ENDBRANCH   1 293
TORSDOF 78
