REMARK WARNING: 32 MAX_TORS EXCEEDED!!!
REMARK  60 active torsions:
REMARK  status: ('A' for Active; 'I' for Inactive)
REMARK    1  A    between atoms: N_1  and  CA_2 
REMARK    2  A    between atoms: CA_2  and  C_3 
REMARK       I    between atoms: C_3  and  N_5 
REMARK    3  A    between atoms: N_5  and  CA_6 
REMARK    4  A    between atoms: CA_6  and  C_7 
REMARK    5  A    between atoms: CA_6  and  CB_9 
REMARK       I    between atoms: C_7  and  N_14 
REMARK    6  A    between atoms: CB_9  and  CG_10 
REMARK    7  A    between atoms: CG_10  and  CD_11 
REMARK    8  A    between atoms: N_14  and  CA_15 
REMARK    9  A    between atoms: CA_15  and  C_16 
REMARK   10  A    between atoms: CA_15  and  CB_18 
REMARK       I    between atoms: C_16  and  N_25 
REMARK   11  A    between atoms: CB_18  and  CG_19 
REMARK   12  A    between atoms: N_25  and  CA_26 
REMARK   13  A    between atoms: CA_26  and  C_27 
REMARK   14  A    between atoms: CA_26  and  CB_29 
REMARK       I    between atoms: C_27  and  N_37 
REMARK   15  A    between atoms: CB_29  and  CG_30 
REMARK   16  A    between atoms: CZ_35  and  OH_36 
REMARK   17  A    between atoms: N_37  and  CA_38 
REMARK   18  A    between atoms: CA_38  and  C_39 
REMARK   19  A    between atoms: CA_38  and  CB_41 
REMARK       I    between atoms: C_39  and  N_46 
REMARK   20  A    between atoms: CB_41  and  CG_42 
REMARK   21  A    between atoms: CG_42  and  CD_43 
REMARK   22  A    between atoms: CD_43  and  CE_44 
REMARK   23  A    between atoms: CE_44  and  NZ_45 
REMARK   24  A    between atoms: N_46  and  CA_47 
REMARK   25  A    between atoms: CA_47  and  C_48 
REMARK   26  A    between atoms: CA_47  and  CB_50 
REMARK       I    between atoms: C_48  and  N_54 
REMARK   27  A    between atoms: CB_50  and  CG_51 
REMARK   28  A    between atoms: CG_51  and  CD1_52 
REMARK   29  A    between atoms: CG_51  and  CD2_53 
REMARK   30  A    between atoms: N_54  and  CA_55 
REMARK   31  A    between atoms: CA_55  and  C_56 
REMARK   32  A    between atoms: CA_55  and  CB_58 
REMARK       I    between atoms: C_56  and  N_63 
REMARK   33  A    between atoms: CB_58  and  CG_59 
REMARK   34  A    between atoms: CG_59  and  CD_60 
REMARK   35  A    between atoms: CD_60  and  CE_61 
REMARK   36  A    between atoms: CE_61  and  NZ_62 
REMARK   37  A    between atoms: N_63  and  CA_64 
REMARK   38  A    between atoms: CA_64  and  C_65 
REMARK   39  A    between atoms: CA_64  and  CB_67 
REMARK       I    between atoms: C_65  and  N_71 
REMARK   40  A    between atoms: CB_67  and  CG1_68 
REMARK   41  A    between atoms: CB_67  and  CG2_69 
REMARK   42  A    between atoms: CG1_68  and  CD1_70 
REMARK   43  A    between atoms: N_71  and  CA_72 
REMARK   44  A    between atoms: CA_72  and  C_73 
REMARK   45  A    between atoms: CA_72  and  CB_75 
REMARK       I    between atoms: C_73  and  N_82 
REMARK   46  A    between atoms: CB_75  and  CG_76 
REMARK   47  A    between atoms: CG_76  and  CD_77 
REMARK   48  A    between atoms: CD_77  and  NE_78 
REMARK       I    between atoms: NE_78  and  CZ_79 
REMARK       I    between atoms: CZ_79  and  NH1_80 
REMARK       I    between atoms: CZ_79  and  NH2_81 
REMARK   49  A    between atoms: N_82  and  CA_83 
REMARK   50  A    between atoms: CA_83  and  C_84 
REMARK   51  A    between atoms: CA_83  and  CB_86 
REMARK       I    between atoms: C_84  and  N_89 
REMARK   52  A    between atoms: CB_86  and  OG1_87 
REMARK   53  A    between atoms: CB_86  and  CG2_88 
REMARK   54  A    between atoms: CA_90  and  C_91 
REMARK       I    between atoms: C_91  and  N_96 
REMARK   55  A    between atoms: N_96  and  CA_97 
REMARK   56  A    between atoms: CA_97  and  CB_98 
REMARK   57  A    between atoms: CA_97  and  C_105 
REMARK   58  A    between atoms: CB_98  and  CG_99 
REMARK   59  A    between atoms: CG_99  and  CD_100 
REMARK   60  A    between atoms: CD_100  and  NE_101 
REMARK       I    between atoms: NE_101  and  CZ_102 
REMARK       I    between atoms: CZ_102  and  NH1_103 
REMARK       I    between atoms: CZ_102  and  NH2_104 
REMARK       I    between atoms: C_105  and  NT_107 
ROOT
ATOM      1  CA  GLY d   1      40.504  12.635   2.897  0.00  0.00     0.089 C 
ATOM      2  H55 GLY d   1      39.837  12.342   2.072  0.00  0.00     0.087 H 
ENDROOT
BRANCH   1   3
ATOM      3  N   GLY d   1      39.829  12.435   4.167  0.00  0.00    -0.346 N 
ATOM      4  C   GLY d   1      38.901  11.489   4.331  0.00  0.00     0.241 C 
ATOM      5  O   GLY d   1      38.520  10.757   3.402  0.00  0.00    -0.271 OA
ATOM      6  H54 GLY d   1      40.066  13.023   4.941  0.00  0.00     0.163 HD
BRANCH   4   7
ATOM      7  CA  GLY d   1      38.322  11.361   5.728  0.00  0.00     0.089 C 
ATOM      8  H44 GLY d   1      38.429  12.322   6.253  0.00  0.00     0.087 H 
BRANCH   7   9
ATOM      9  N   GLY d   1      36.913  10.988   5.692  0.00  0.00    -0.346 N 
ATOM     10  C   GLY d   1      35.956  11.901   5.502  0.00  0.00     0.241 C 
ATOM     11  O   GLY d   1      36.212  13.096   5.382  0.00  0.00    -0.271 OA
ATOM     12  H43 GLY d   1      36.657  10.029   5.812  0.00  0.00     0.163 HD
BRANCH  10  13
ATOM     13  CA  GLY d   1      34.495  11.471   5.542  0.00  0.00     0.089 C 
ATOM     14  H31 GLY d   1      34.002  11.852   4.635  0.00  0.00     0.087 H 
BRANCH  13  15
ATOM     15  N   GLY d   1      34.335  10.029   5.562  0.00  0.00    -0.346 N 
ATOM     16  C   GLY d   1      34.252   9.311   4.437  0.00  0.00     0.241 C 
ATOM     17  O   GLY d   1      34.268   9.834   3.304  0.00  0.00    -0.271 OA
ATOM     18  H30 GLY d   1      34.285   9.558   6.443  0.00  0.00     0.163 HD
BRANCH  16  19
ATOM     19  CA  GLY d   1      34.211   7.806   4.557  0.00  0.00     0.093 C 
ATOM     20  H22 GLY d   1      34.948   7.397   3.850  0.00  0.00     0.088 H 
BRANCH  19  21
ATOM     21  N   GLY d   1      34.552   7.332   5.894  0.00  0.00    -0.346 N 
ATOM     22  C   GLY d   1      35.838   7.370   6.306  0.00  0.00     0.241 C 
ATOM     23  O   GLY d   1      36.734   7.924   5.645  0.00  0.00    -0.271 OA
ATOM     24  H21 GLY d   1      33.839   6.981   6.501  0.00  0.00     0.163 HD
BRANCH  22  25
ATOM     25  CA  GLY d   1      36.173   6.718   7.643  0.00  0.00     0.093 C 
ATOM     26  H13 GLY d   1      37.121   7.129   8.021  0.00  0.00     0.088 H 
BRANCH  25  27
ATOM     27  N   GLY d   1      35.116   6.966   8.607  0.00  0.00    -0.346 N 
ATOM     28  C   GLY d   1      34.693   8.218   8.869  0.00  0.00     0.241 C 
ATOM     29  O   GLY d   1      35.206   9.199   8.325  0.00  0.00    -0.271 OA
ATOM     30  H12 GLY d   1      34.695   6.195   9.084  0.00  0.00     0.163 HD
BRANCH  28  31
ATOM     31  CA  GLY d   1      33.611   8.413   9.927  0.00  0.00     0.090 C 
ATOM     32  H7  GLY d   1      33.134   9.386   9.740  0.00  0.00     0.087 H 
BRANCH  31  33
ATOM     33  N   GLY d   1      32.550   7.397   9.854  0.00  0.00    -0.346 N 
ATOM     34  C   GLY d   1      31.842   7.225   8.723  0.00  0.00     0.243 C 
ATOM     35  O   GLY d   1      32.097   7.827   7.688  0.00  0.00    -0.272 OA
ATOM     36  H6  GLY d   1      32.353   6.829  10.653  0.00  0.00     0.163 HD
BRANCH  34  37
ATOM     37  CA  GLY d   1      30.614   6.309   8.765  0.00  0.00     0.152 C 
ATOM     38  H4  GLY d   1      29.737   6.932   8.536  0.00  0.00     0.090 H 
ATOM     39  H5  GLY d   1      30.745   5.555   7.974  0.00  0.00     0.090 H 
BRANCH  37  40
ATOM     40  N   GLY d   1      30.321   5.592   9.997  0.00  0.00    -0.071 N 
ATOM     41  H1  GLY d   1      29.490   5.035   9.872  0.00  0.00     0.274 HD
ATOM     42  H2  GLY d   1      30.173   6.253  10.743  0.00  0.00     0.274 HD
ATOM     43  H3  GLY d   1      31.097   4.991  10.229  0.00  0.00     0.274 HD
ENDBRANCH  37  40
ENDBRANCH  34  37
ENDBRANCH  31  33
BRANCH  31  44
ATOM     44  CB  GLY d   1      34.268   8.477  11.299  0.00  0.00    -0.029 C 
ATOM     45  H8  GLY d   1      35.032   9.267  11.257  0.00  0.00     0.037 H 
ATOM     46  H9  GLY d   1      34.754   7.505  11.473  0.00  0.00     0.037 H 
BRANCH  44  47
ATOM     47  CG  GLY d   1      33.412   8.757  12.478  0.00  0.00     0.018 C 
ATOM     48  H10 GLY d   1      32.570   8.050  12.498  0.00  0.00     0.049 H 
ATOM     49  H11 GLY d   1      33.026   9.785  12.417  0.00  0.00     0.049 H 
BRANCH  47  50
ATOM     50  CD  GLY d   1      34.244   8.597  13.748  0.00  0.00     0.172 C 
ATOM     51  OE1 GLY d   1      34.906   9.584  14.144  0.00  0.00    -0.648 OA
ATOM     52  OE2 GLY d   1      34.290   7.473  14.314  0.00  0.00    -0.648 OA
ENDBRANCH  47  50
ENDBRANCH  44  47
ENDBRANCH  31  44
ENDBRANCH  28  31
ENDBRANCH  25  27
BRANCH  25  53
ATOM     53  CB  GLY d   1      36.303   5.201   7.457  0.00  0.00    -0.014 C 
ATOM     54  H14 GLY d   1      35.323   4.812   7.143  0.00  0.00     0.043 H 
ATOM     55  H15 GLY d   1      36.578   4.762   8.428  0.00  0.00     0.043 H 
BRANCH  53  56
ATOM     56  CG  GLY d   1      37.315   4.765   6.451  0.00  0.00    -0.056 A 
ATOM     57  CD1 GLY d   1      38.664   4.859   6.730  0.00  0.00    -0.077 A 
ATOM     58  CE1 GLY d   1      39.600   4.373   5.853  0.00  0.00    -0.082 A 
ATOM     59  H16 GLY d   1      38.988   5.323   7.655  0.00  0.00     0.084 H 
ATOM     60  CZ  GLY d   1      39.187   3.789   4.664  0.00  0.00    -0.083 A 
ATOM     61  H18 GLY d   1      40.656   4.445   6.087  0.00  0.00     0.083 H 
ATOM     62  CE2 GLY d   1      37.847   3.693   4.371  0.00  0.00    -0.082 A 
ATOM     63  H20 GLY d   1      39.922   3.408   3.965  0.00  0.00     0.083 H 
ATOM     64  CD2 GLY d   1      36.913   4.151   5.254  0.00  0.00    -0.077 A 
ATOM     65  H19 GLY d   1      37.531   3.251   3.433  0.00  0.00     0.083 H 
ATOM     66  H17 GLY d   1      35.858   4.040   5.031  0.00  0.00     0.084 H 
ENDBRANCH  53  56
ENDBRANCH  25  53
ENDBRANCH  22  25
ENDBRANCH  19  21
BRANCH  19  67
ATOM     67  CB  GLY d   1      32.827   7.255   4.189  0.00  0.00    -0.014 C 
ATOM     68  H23 GLY d   1      32.550   7.593   3.179  0.00  0.00     0.043 H 
ATOM     69  H24 GLY d   1      32.081   7.613   4.913  0.00  0.00     0.043 H 
BRANCH  67  70
ATOM     70  CG  GLY d   1      32.888   5.744   4.223  0.00  0.00    -0.056 A 
ATOM     71  CD1 GLY d   1      33.420   5.025   3.137  0.00  0.00    -0.074 A 
ATOM     72  CE1 GLY d   1      33.508   3.646   3.178  0.00  0.00    -0.051 A 
ATOM     73  H25 GLY d   1      33.765   5.558   2.258  0.00  0.00     0.084 H 
ATOM     74  CZ  GLY d   1      33.111   2.959   4.310  0.00  0.00     0.065 A 
ATOM     75  H27 GLY d   1      33.889   3.102   2.321  0.00  0.00     0.087 H 
ATOM     76  CE2 GLY d   1      32.609   3.626   5.411  0.00  0.00    -0.051 A 
ATOM     77  CD2 GLY d   1      32.477   5.020   5.357  0.00  0.00    -0.074 A 
ATOM     78  H28 GLY d   1      32.322   3.080   6.302  0.00  0.00     0.087 H 
ATOM     79  H26 GLY d   1      32.051   5.549   6.202  0.00  0.00     0.084 H 
BRANCH  74  80
ATOM     80  OH  GLY d   1      33.228   1.589   4.389  0.00  0.00    -0.361 OA
ATOM     81  H29 GLY d   1      33.583   1.255   3.573  0.00  0.00     0.217 HD
ENDBRANCH  74  80
ENDBRANCH  67  70
ENDBRANCH  19  67
ENDBRANCH  16  19
ENDBRANCH  13  15
BRANCH  13  82
ATOM     82  CB  GLY d   1      33.825  12.100   6.759  0.00  0.00    -0.038 C 
ATOM     83  H32 GLY d   1      34.037  13.179   6.759  0.00  0.00     0.036 H 
ATOM     84  H33 GLY d   1      34.245  11.643   7.667  0.00  0.00     0.036 H 
BRANCH  82  85
ATOM     85  CG  GLY d   1      32.306  11.899   6.766  0.00  0.00    -0.061 C 
ATOM     86  H34 GLY d   1      32.090  10.821   6.739  0.00  0.00     0.033 H 
ATOM     87  H35 GLY d   1      31.880  12.380   5.873  0.00  0.00     0.033 H 
BRANCH  85  88
ATOM     88  CD  GLY d   1      31.655  12.501   8.008  0.00  0.00    -0.043 C 
ATOM     89  H36 GLY d   1      31.935  13.562   8.086  0.00  0.00     0.035 H 
ATOM     90  H37 GLY d   1      32.008  11.962   8.899  0.00  0.00     0.035 H 
BRANCH  88  91
ATOM     91  CE  GLY d   1      30.166  12.390   7.923  0.00  0.00     0.080 C 
ATOM     92  H38 GLY d   1      29.884  11.354   7.682  0.00  0.00     0.075 H 
ATOM     93  H39 GLY d   1      29.787  13.065   7.141  0.00  0.00     0.075 H 
BRANCH  91  94
ATOM     94  NZ  GLY d   1      29.592  12.773   9.236  0.00  0.00    -0.079 N 
ATOM     95  H40 GLY d   1      28.587  12.704   9.197  0.00  0.00     0.274 HD
ATOM     96  H41 GLY d   1      29.855  13.721   9.454  0.00  0.00     0.274 HD
ATOM     97  H42 GLY d   1      29.944  12.154   9.950  0.00  0.00     0.274 HD
ENDBRANCH  91  94
ENDBRANCH  88  91
ENDBRANCH  85  88
ENDBRANCH  82  85
ENDBRANCH  13  82
ENDBRANCH  10  13
ENDBRANCH   7   9
BRANCH   7  98
ATOM     98  CB  GLY d   1      39.090  10.273   6.476  0.00  0.00    -0.035 C 
ATOM     99  H45 GLY d   1      40.162  10.518   6.439  0.00  0.00     0.037 H 
ATOM    100  H46 GLY d   1      38.916   9.314   5.966  0.00  0.00     0.037 H 
BRANCH  98 101
ATOM    101  CG  GLY d   1      38.678  10.117   7.960  0.00  0.00    -0.059 C 
ATOM    102  H47 GLY d   1      37.597   9.921   8.008  0.00  0.00     0.038 H 
BRANCH 101 103
ATOM    103  CD1 GLY d   1      39.436   8.911   8.631  0.00  0.00    -0.073 C 
ATOM    104  H48 GLY d   1      39.126   8.822   9.683  0.00  0.00     0.028 H 
ATOM    105  H49 GLY d   1      40.521   9.087   8.582  0.00  0.00     0.028 H 
ATOM    106  H50 GLY d   1      39.191   7.981   8.097  0.00  0.00     0.028 H 
ENDBRANCH 101 103
BRANCH 101 107
ATOM    107  CD2 GLY d   1      38.980  11.418   8.709  0.00  0.00    -0.073 C 
ATOM    108  H51 GLY d   1      38.444  12.250   8.229  0.00  0.00     0.028 H 
ATOM    109  H52 GLY d   1      40.062  11.614   8.681  0.00  0.00     0.028 H 
ATOM    110  H53 GLY d   1      38.651  11.324   9.754  0.00  0.00     0.028 H 
ENDBRANCH 101 107
ENDBRANCH  98 101
ENDBRANCH   7  98
ENDBRANCH   4   7
ENDBRANCH   1   3
BRANCH   1 111
ATOM    111  C   GLY d   1      41.765  11.812   2.861  0.00  0.00     0.241 C 
ATOM    112  O   GLY d   1      42.380  11.536   3.906  0.00  0.00    -0.271 OA
ATOM    113  N   GLY d   1      42.139  11.356   1.681  0.00  0.00    -0.346 N 
ATOM    114  H67 GLY d   1      41.540  11.535   0.900  0.00  0.00     0.163 HD
BRANCH 113 115
ATOM    115  CA  GLY d   1      43.353  10.617   1.442  0.00  0.00     0.092 C 
ATOM    116  H68 GLY d   1      43.732  10.210   2.391  0.00  0.00     0.088 H 
BRANCH 115 117
ATOM    117  C   GLY d   1      44.350  11.585   0.876  0.00  0.00     0.241 C 
ATOM    118  O   GLY d   1      44.065  12.245  -0.138  0.00  0.00    -0.271 OA
ATOM    119  N   GLY d   1      45.499  11.702   1.541  0.00  0.00    -0.346 N 
ATOM    120  H78 GLY d   1      45.619  11.194   2.394  0.00  0.00     0.163 HD
BRANCH 119 121
ATOM    121  CA  GLY d   1      46.586  12.548   1.062  0.00  0.00     0.089 C 
ATOM    122  H79 GLY d   1      46.174  13.472   0.631  0.00  0.00     0.087 H 
BRANCH 121 123
ATOM    123  C   GLY d   1      47.294  11.772  -0.028  0.00  0.00     0.241 C 
ATOM    124  O   GLY d   1      47.873  10.711   0.214  0.00  0.00    -0.271 OA
ATOM    125  N   GLY d   1      47.191  12.286  -1.246  0.00  0.00    -0.344 N 
ATOM    126  H91 GLY d   1      46.675  13.132  -1.382  0.00  0.00     0.163 HD
BRANCH 125 127
ATOM    127  CA  GLY d   1      47.814  11.641  -2.381  0.00  0.00     0.114 C 
ATOM    128  H92 GLY d   1      47.448  10.610  -2.495  0.00  0.00     0.091 H 
BRANCH 127 129
ATOM    129  C   GLY d   1      49.315  11.650  -2.140  0.00  0.00     0.245 C 
ATOM    130  O   GLY d   1      49.860  12.684  -1.730  0.00  0.00    -0.271 OA
ATOM    131  N   GLY d   1      50.014  10.524  -2.349  0.00  0.00    -0.337 N 
ATOM    132  CA  GLY d   1      51.463  10.527  -2.138  0.00  0.00     0.091 C 
ATOM    133  CD  GLY d   1      49.496   9.203  -2.769  0.00  0.00    -0.001 C 
ATOM    134  CB  GLY d   1      51.851   9.055  -2.263  0.00  0.00    -0.036 C 
ATOM    135  H98 GLY d   1      51.713  10.914  -1.139  0.00  0.00     0.087 H 
ATOM    136  CG  GLY d   1      50.735   8.419  -3.007  0.00  0.00    -0.048 C 
ATOM    137  H99 GLY d   1      51.960   8.599  -1.268  0.00  0.00     0.036 H 
ATOM    138 0H10 GLY d   1      52.794   8.951  -2.820  0.00  0.00     0.036 H 
ATOM    139 1H10 GLY d   1      50.594   7.387  -2.652  0.00  0.00     0.035 H 
ATOM    140 2H10 GLY d   1      50.965   8.409  -4.082  0.00  0.00     0.035 H 
ATOM    141 3H10 GLY d   1      48.898   9.287  -3.689  0.00  0.00     0.064 H 
ATOM    142 4H10 GLY d   1      48.886   8.747  -1.975  0.00  0.00     0.064 H 
BRANCH 132 143
ATOM    143  C   GLY d   1      52.159  11.364  -3.190  0.00  0.00     0.241 C 
ATOM    144  O   GLY d   1      51.600  11.634  -4.248  0.00  0.00    -0.271 OA
ATOM    145  N   GLY d   1      53.359  11.823  -2.879  0.00  0.00    -0.346 N 
ATOM    146 5H10 GLY d   1      53.726  11.669  -1.961  0.00  0.00     0.163 HD
BRANCH 145 147
ATOM    147  CA  GLY d   1      54.146  12.545  -3.853  0.00  0.00     0.089 C 
ATOM    148 6H10 GLY d   1      53.505  13.164  -4.498  0.00  0.00     0.087 H 
BRANCH 147 149
ATOM    149  CB  GLY d   1      55.180  13.429  -3.150  0.00  0.00    -0.036 C 
ATOM    150 7H10 GLY d   1      56.003  13.637  -3.849  0.00  0.00     0.036 H 
ATOM    151 8H10 GLY d   1      55.571  12.890  -2.274  0.00  0.00     0.036 H 
BRANCH 149 152
ATOM    152  CG  GLY d   1      54.577  14.762  -2.683  0.00  0.00    -0.048 C 
ATOM    153 9H10 GLY d   1      55.270  15.578  -2.936  0.00  0.00     0.035 H 
ATOM    154 0H11 GLY d   1      54.433  14.729  -1.593  0.00  0.00     0.035 H 
BRANCH 152 155
ATOM    155  CD  GLY d   1      53.231  15.024  -3.356  0.00  0.00     0.009 C 
ATOM    156 1H11 GLY d   1      52.456  15.153  -2.586  0.00  0.00     0.064 H 
ATOM    157 2H11 GLY d   1      52.971  14.170  -3.998  0.00  0.00     0.064 H 
BRANCH 155 158
ATOM    158  NE  GLY d   1      53.315  16.225  -4.162  0.00  0.00    -0.227 N 
ATOM    159  CZ  GLY d   1      52.915  17.516  -3.647  0.00  0.00     0.665 C 
ATOM    160  NH1 GLY d   1      52.406  17.631  -2.290  0.00  0.00    -0.235 N 
ATOM    161  NH2 GLY d   1      53.007  18.526  -4.386  0.00  0.00    -0.235 N 
ATOM    162 4H11 GLY d   1      52.121  18.550  -1.923  0.00  0.00     0.174 HD
ATOM    163 5H11 GLY d   1      52.330  16.793  -1.696  0.00  0.00     0.174 HD
ATOM    164 6H11 GLY d   1      53.369  18.431  -5.346  0.00  0.00     0.174 HD
ATOM    165 7H11 GLY d   1      52.720  19.450  -4.033  0.00  0.00     0.174 HD
ATOM    166 3H11 GLY d   1      53.669  16.158  -5.127  0.00  0.00     0.177 HD
ENDBRANCH 155 158
ENDBRANCH 152 155
ENDBRANCH 149 152
ENDBRANCH 147 149
BRANCH 147 167
ATOM    167  C   GLY d   1      54.837  11.454  -4.658  0.00  0.00     0.238 C 
ATOM    168  O   GLY d   1      55.138  10.429  -4.135  0.00  0.00    -0.271 OA
ATOM    169  NT  GLY d   1      55.091  11.661  -6.066  0.00  0.00    -0.368 N 
ATOM    170 8H11 GLY d   1      55.545  10.949  -6.602  0.00  0.00     0.159 HD
ATOM    171 9H11 GLY d   1      54.813  12.516  -6.504  0.00  0.00     0.159 HD
ENDBRANCH 147 167
ENDBRANCH 145 147
ENDBRANCH 132 143
ENDBRANCH 127 129
BRANCH 127 172
ATOM    172  CB  GLY d   1      47.489  12.460  -3.625  0.00  0.00     0.060 C 
ATOM    173  H93 GLY d   1      47.910  13.469  -3.506  0.00  0.00     0.086 H 
BRANCH 172 174
ATOM    174  OG1 GLY d   1      46.063  12.561  -3.759  0.00  0.00    -0.393 OA
ATOM    175  H94 GLY d   1      45.703  12.988  -2.991  0.00  0.00     0.210 HD
ENDBRANCH 172 174
BRANCH 172 176
ATOM    176  CG2 GLY d   1      48.097  11.822  -4.874  0.00  0.00    -0.050 C 
ATOM    177  H95 GLY d   1      47.848  12.431  -5.755  0.00  0.00     0.031 H 
ATOM    178  H96 GLY d   1      47.691  10.808  -5.003  0.00  0.00     0.031 H 
ATOM    179  H97 GLY d   1      49.190  11.768  -4.763  0.00  0.00     0.031 H 
ENDBRANCH 172 176
ENDBRANCH 127 172
ENDBRANCH 125 127
ENDBRANCH 121 123
BRANCH 121 180
ATOM    180  CB  GLY d   1      47.503  12.929   2.238  0.00  0.00    -0.036 C 
ATOM    181  H80 GLY d   1      47.885  12.012   2.710  0.00  0.00     0.036 H 
ATOM    182  H81 GLY d   1      46.925  13.507   2.974  0.00  0.00     0.036 H 
BRANCH 180 183
ATOM    183  CG  GLY d   1      48.673  13.766   1.756  0.00  0.00    -0.048 C 
ATOM    184  H82 GLY d   1      48.328  14.453   0.969  0.00  0.00     0.035 H 
ATOM    185  H83 GLY d   1      49.451  13.103   1.349  0.00  0.00     0.035 H 
BRANCH 183 186
ATOM    186  CD  GLY d   1      49.246  14.563   2.894  0.00  0.00     0.009 C 
ATOM    187  H84 GLY d   1      48.440  15.146   3.363  0.00  0.00     0.064 H 
ATOM    188  H85 GLY d   1      50.013  15.247   2.501  0.00  0.00     0.064 H 
BRANCH 186 189
ATOM    189  NE  GLY d   1      49.854  13.696   3.902  0.00  0.00    -0.227 N 
ATOM    190  CZ  GLY d   1      50.630  14.182   4.858  0.00  0.00     0.665 C 
ATOM    191  NH1 GLY d   1      50.913  15.486   4.861  0.00  0.00    -0.235 N 
ATOM    192  NH2 GLY d   1      51.213  13.382   5.740  0.00  0.00    -0.235 N 
ATOM    193  H87 GLY d   1      51.515  15.881   5.598  0.00  0.00     0.174 HD
ATOM    194  H88 GLY d   1      50.529  16.098   4.127  0.00  0.00     0.174 HD
ATOM    195  H89 GLY d   1      50.998  12.375   5.742  0.00  0.00     0.174 HD
ATOM    196  H90 GLY d   1      51.881  13.768   6.423  0.00  0.00     0.174 HD
ATOM    197  H86 GLY d   1      49.674  12.682   3.868  0.00  0.00     0.177 HD
ENDBRANCH 186 189
ENDBRANCH 183 186
ENDBRANCH 180 183
ENDBRANCH 121 180
ENDBRANCH 119 121
ENDBRANCH 115 117
BRANCH 115 198
ATOM    198  CB  GLY d   1      43.099   9.461   0.477  0.00  0.00    -0.030 C 
ATOM    199  H69 GLY d   1      42.540   9.818  -0.401  0.00  0.00     0.043 H 
BRANCH 198 200
ATOM    200  CG1 GLY d   1      42.243   8.426   1.240  0.00  0.00    -0.063 C 
ATOM    201  H70 GLY d   1      41.463   8.970   1.793  0.00  0.00     0.033 H 
ATOM    202  H71 GLY d   1      42.897   7.900   1.950  0.00  0.00     0.033 H 
BRANCH 200 203
ATOM    203  CD1 GLY d   1      41.577   7.408   0.386  0.00  0.00    -0.076 C 
ATOM    204  H75 GLY d   1      40.995   6.722   1.019  0.00  0.00     0.027 H 
ATOM    205  H76 GLY d   1      42.338   6.839  -0.168  0.00  0.00     0.027 H 
ATOM    206  H77 GLY d   1      40.904   7.909  -0.325  0.00  0.00     0.027 H 
ENDBRANCH 200 203
ENDBRANCH 198 200
BRANCH 198 207
ATOM    207  CG2 GLY d   1      44.465   8.888   0.003  0.00  0.00    -0.071 C 
ATOM    208  H72 GLY d   1      45.025   9.670  -0.531  0.00  0.00     0.028 H 
ATOM    209  H73 GLY d   1      44.291   8.036  -0.671  0.00  0.00     0.028 H 
ATOM    210  H74 GLY d   1      45.045   8.553   0.876  0.00  0.00     0.028 H 
ENDBRANCH 198 207
ENDBRANCH 115 198
ENDBRANCH 113 115
ENDBRANCH   1 111
BRANCH   1 211
ATOM    211  CB  GLY d   1      40.903  14.094   2.753  0.00  0.00    -0.038 C 
ATOM    212  H56 GLY d   1      41.465  14.222   1.816  0.00  0.00     0.036 H 
ATOM    213  H57 GLY d   1      41.539  14.378   3.604  0.00  0.00     0.036 H 
BRANCH 211 214
ATOM    214  CG  GLY d   1      39.686  14.994   2.725  0.00  0.00    -0.061 C 
ATOM    215  H58 GLY d   1      39.311  15.127   3.751  0.00  0.00     0.033 H 
ATOM    216  H59 GLY d   1      38.905  14.527   2.107  0.00  0.00     0.033 H 
BRANCH 214 217
ATOM    217  CD  GLY d   1      40.037  16.347   2.145  0.00  0.00    -0.043 C 
ATOM    218  H60 GLY d   1      40.501  16.202   1.158  0.00  0.00     0.035 H 
ATOM    219  H61 GLY d   1      40.751  16.848   2.816  0.00  0.00     0.035 H 
BRANCH 217 220
ATOM    220  CE  GLY d   1      38.817  17.223   1.988  0.00  0.00     0.080 C 
ATOM    221  H62 GLY d   1      38.053  16.686   1.406  0.00  0.00     0.075 H 
ATOM    222  H63 GLY d   1      39.096  18.148   1.462  0.00  0.00     0.075 H 
BRANCH 220 223
ATOM    223  NZ  GLY d   1      38.272  17.561   3.320  0.00  0.00    -0.079 N 
ATOM    224  H64 GLY d   1      37.458  18.146   3.212  0.00  0.00     0.274 HD
ATOM    225  H65 GLY d   1      38.971  18.054   3.854  0.00  0.00     0.274 HD
ATOM    226  H66 GLY d   1      38.016  16.714   3.803  0.00  0.00     0.274 HD
ENDBRANCH 220 223
ENDBRANCH 217 220
ENDBRANCH 214 217
ENDBRANCH 211 214
ENDBRANCH   1 211
TORSDOF 60
