REMARK  6 active torsions:
REMARK  status: ('A' for Active; 'I' for Inactive)
REMARK    1  A    between atoms: C01_1  and  C02_2 
REMARK    2  A    between atoms: C09_9  and  N10_10 
REMARK       I    between atoms: N10_10  and  C11_11 
REMARK    3  A    between atoms: C11_11  and  C13_13 
REMARK    4  A    between atoms: C13_13  and  S14_14 
REMARK    5  A    between atoms: S14_14  and  C15_15 
REMARK    6  A    between atoms: N24_24  and  C25_25 
ROOT
ATOM      1  C15 9XK d   1       0.949  11.206 -13.011  0.00  0.00     0.221 A 
ATOM      2  N16 9XK d   1       0.910  12.132 -14.179  0.00  0.00    -0.039 N 
ATOM      3  C17 9XK d   1       0.656  13.535 -13.994  0.00  0.00     0.126 A 
ATOM      4  C18 9XK d   1       0.426  14.076 -12.569  0.00  0.00     0.096 A 
ATOM      5  S19 9XK d   1       0.158  15.741 -12.700  0.00  0.00    -0.152 SA
ATOM      6  C20 9XK d   1      -0.165  15.997 -14.327  0.00  0.00    -0.021 C 
ATOM      7  C21 9XK d   1       0.559  14.798 -15.084  0.00  0.00    -0.029 C 
ATOM      8  C22 9XK d   1       0.466  13.151 -11.403  0.00  0.00     0.242 A 
ATOM      9  O23 9XK d   1       0.288  13.566 -10.308  0.00  0.00    -0.272 OA
ATOM     10  N24 9XK d   1       0.721  11.724 -11.612  0.00  0.00    -0.279 N 
ATOM     11  H10 9XK d   1       2.028  11.383 -12.892  0.00  0.00     0.137 H 
ATOM     12  H11 9XK d   1       0.191  11.788 -14.796  0.00  0.00     0.281 HD
ATOM     13  H12 9XK d   1       1.806  12.059 -14.634  0.00  0.00     0.281 HD
ATOM     14  H13 9XK d   1      -0.413  13.324 -14.142  0.00  0.00     0.087 H 
ATOM     15  H14 9XK d   1       1.498  14.258 -12.406  0.00  0.00     0.074 H 
ATOM     16  H15 9XK d   1       0.244  16.964 -14.655  0.00  0.00     0.049 H 
ATOM     17  H16 9XK d   1      -1.249  15.974 -14.514  0.00  0.00     0.049 H 
ATOM     18  H17 9XK d   1      -0.027  14.496 -15.964  0.00  0.00     0.037 H 
ATOM     19  H18 9XK d   1       1.567  15.103 -15.402  0.00  0.00     0.037 H 
ENDROOT
BRANCH   1  20
ATOM     20  S14 9XK d   1       1.266   9.454 -13.350  0.00  0.00    -0.106 SA
BRANCH  20  21
ATOM     21  C13 9XK d   1       1.626   9.377 -15.131  0.00  0.00     0.054 C 
ATOM     22  H8  9XK d   1       1.961  10.375 -15.450  0.00  0.00     0.063 H 
ATOM     23  H9  9XK d   1       2.440   8.652 -15.279  0.00  0.00     0.063 H 
BRANCH  21  24
ATOM     24  C11 9XK d   1       0.458   8.962 -16.035  0.00  0.00     0.233 C 
ATOM     25  N10 9XK d   1       0.040   7.570 -16.073  0.00  0.00    -0.305 N 
ATOM     26  H7  9XK d   1       0.489   6.920 -15.460  0.00  0.00     0.171 HD
ATOM     27  O12 9XK d   1      -0.087   9.767 -16.714  0.00  0.00    -0.272 OA
BRANCH  25  28
ATOM     28  C09 9XK d   1      -1.003   7.081 -16.964  0.00  0.00     0.174 A 
ATOM     29  N08 9XK d   1      -1.322   5.750 -17.051  0.00  0.00    -0.223 NA
ATOM     30  C05 9XK d   1      -2.339   5.530 -18.047  0.00  0.00     0.076 A 
ATOM     31  C04 9XK d   1      -2.778   6.650 -18.730  0.00  0.00     0.037 A 
ATOM     32  C06 9XK d   1      -2.869   4.252 -18.329  0.00  0.00    -0.053 A 
ATOM     33  C03 9XK d   1      -3.766   6.504 -19.712  0.00  0.00    -0.058 A 
ATOM     34  S31 9XK d   1      -1.911   7.929 -18.102  0.00  0.00    -0.050 SA
ATOM     35  C02 9XK d   1      -4.294   5.237 -19.991  0.00  0.00    -0.061 A 
ATOM     36  H4  9XK d   1      -4.122   7.371 -20.256  0.00  0.00     0.086 H 
ATOM     37  C07 9XK d   1      -3.843   4.111 -19.297  0.00  0.00    -0.075 A 
ATOM     38  H6  9XK d   1      -4.255   3.133 -19.517  0.00  0.00     0.084 H 
ATOM     39  H5  9XK d   1      -2.512   3.384 -17.787  0.00  0.00     0.087 H 
BRANCH  35  40
ATOM     40  C01 9XK d   1      -5.361   5.076 -21.065  0.00  0.00    -0.051 C 
ATOM     41  H1  9XK d   1      -5.592   6.059 -21.502  0.00  0.00     0.033 H 
ATOM     42  H2  9XK d   1      -6.271   4.651 -20.617  0.00  0.00     0.033 H 
ATOM     43  H3  9XK d   1      -4.991   4.402 -21.852  0.00  0.00     0.033 H 
ENDBRANCH  35  40
ENDBRANCH  25  28
ENDBRANCH  21  24
ENDBRANCH  20  21
ENDBRANCH   1  20
BRANCH  10  44
ATOM     44  C25 9XK d   1       0.774  10.813 -10.478  0.00  0.00     0.040 A 
ATOM     45  C26 9XK d   1      -0.245   9.903 -10.249  0.00  0.00    -0.057 A 
ATOM     46  C27 9XK d   1      -0.171   9.044  -9.165  0.00  0.00    -0.081 A 
ATOM     47  H19 9XK d   1      -1.098   9.863 -10.916  0.00  0.00     0.086 H 
ATOM     48  C28 9XK d   1       0.919   9.090  -8.310  0.00  0.00    -0.083 A 
ATOM     49  H20 9XK d   1      -0.969   8.333  -8.985  0.00  0.00     0.083 H 
ATOM     50  C29 9XK d   1       1.939   9.997  -8.541  0.00  0.00    -0.081 A 
ATOM     51  H21 9XK d   1       0.973   8.417  -7.462  0.00  0.00     0.083 H 
ATOM     52  C30 9XK d   1       1.866  10.857  -9.623  0.00  0.00    -0.057 A 
ATOM     53  H22 9XK d   1       2.794  10.034  -7.875  0.00  0.00     0.083 H 
ATOM     54  H23 9XK d   1       2.665  11.567  -9.803  0.00  0.00     0.086 H 
ENDBRANCH  10  44
TORSDOF 6
