REMARK WARNING: 32 MAX_TORS EXCEEDED!!!
REMARK  79 active torsions:
REMARK  status: ('A' for Active; 'I' for Inactive)
REMARK    1  A    between atoms: N_1  and  CA_2 
REMARK    2  A    between atoms: CA_2  and  C_3 
REMARK    3  A    between atoms: CA_2  and  CB_5 
REMARK       I    between atoms: C_3  and  N_8 
REMARK    4  A    between atoms: CB_5  and  OG1_6 
REMARK    5  A    between atoms: CB_5  and  CG2_7 
REMARK    6  A    between atoms: N_8  and  CA_9 
REMARK    7  A    between atoms: CA_9  and  C_10 
REMARK    8  A    between atoms: CA_9  and  CB_12 
REMARK       I    between atoms: C_10  and  N_15 
REMARK    9  A    between atoms: CB_12  and  OG1_13 
REMARK   10  A    between atoms: CB_12  and  CG2_14 
REMARK   11  A    between atoms: N_15  and  CA_16 
REMARK   12  A    between atoms: CA_16  and  C_17 
REMARK   13  A    between atoms: CA_16  and  CB_19 
REMARK       I    between atoms: C_17  and  N_27 
REMARK   14  A    between atoms: CB_19  and  CG_20 
REMARK   15  A    between atoms: CZ_25  and  OH_26 
REMARK   16  A    between atoms: N_27  and  CA_28 
REMARK   17  A    between atoms: CA_28  and  C_29 
REMARK   18  A    between atoms: CA_28  and  CB_31 
REMARK       I    between atoms: C_29  and  N_32 
REMARK   19  A    between atoms: N_32  and  CA_33 
REMARK   20  A    between atoms: CA_33  and  C_34 
REMARK   21  A    between atoms: CA_33  and  CB_36 
REMARK       I    between atoms: C_34  and  N_40 
REMARK   22  A    between atoms: CB_36  and  CG_37 
REMARK   23  A    between atoms: N_40  and  CA_41 
REMARK   24  A    between atoms: CA_41  and  C_42 
REMARK   25  A    between atoms: CA_41  and  CB_44 
REMARK       I    between atoms: C_42  and  N_51 
REMARK   26  A    between atoms: CB_44  and  CG_45 
REMARK   27  A    between atoms: N_51  and  CA_52 
REMARK   28  A    between atoms: CA_52  and  C_53 
REMARK   29  A    between atoms: CA_52  and  CB_55 
REMARK       I    between atoms: C_53  and  N_59 
REMARK   30  A    between atoms: CB_55  and  CG1_56 
REMARK   31  A    between atoms: CB_55  and  CG2_57 
REMARK   32  A    between atoms: CG1_56  and  CD1_58 
REMARK   33  A    between atoms: N_59  and  CA_60 
REMARK   34  A    between atoms: CA_60  and  C_61 
REMARK   35  A    between atoms: CA_60  and  CB_63 
REMARK       I    between atoms: C_61  and  N_64 
REMARK   36  A    between atoms: N_64  and  CA_65 
REMARK   37  A    between atoms: CA_65  and  C_66 
REMARK   38  A    between atoms: CA_65  and  CB_68 
REMARK       I    between atoms: C_66  and  N_70 
REMARK   39  A    between atoms: CB_68  and  OG_69 
REMARK   40  A    between atoms: N_70  and  CA_71 
REMARK   41  A    between atoms: CA_71  and  C_72 
REMARK       I    between atoms: C_72  and  N_74 
REMARK   42  A    between atoms: N_74  and  CA_75 
REMARK   43  A    between atoms: CA_75  and  C_76 
REMARK   44  A    between atoms: CA_75  and  CB_78 
REMARK       I    between atoms: C_76  and  N_85 
REMARK   45  A    between atoms: CB_78  and  CG_79 
REMARK   46  A    between atoms: CG_79  and  CD_80 
REMARK   47  A    between atoms: CD_80  and  NE_81 
REMARK       I    between atoms: NE_81  and  CZ_82 
REMARK       I    between atoms: CZ_82  and  NH1_83 
REMARK       I    between atoms: CZ_82  and  NH2_84 
REMARK   48  A    between atoms: N_85  and  CA_86 
REMARK   49  A    between atoms: CA_86  and  C_87 
REMARK   50  A    between atoms: CA_86  and  CB_89 
REMARK       I    between atoms: C_87  and  N_92 
REMARK   51  A    between atoms: CB_89  and  OG1_90 
REMARK   52  A    between atoms: CB_89  and  CG2_91 
REMARK   53  A    between atoms: N_92  and  CA_93 
REMARK   54  A    between atoms: CA_93  and  C_94 
REMARK       I    between atoms: C_94  and  N_96 
REMARK   55  A    between atoms: N_96  and  CA_97 
REMARK   56  A    between atoms: CA_97  and  C_98 
REMARK   57  A    between atoms: CA_97  and  CB_100 
REMARK       I    between atoms: C_98  and  N_107 
REMARK   58  A    between atoms: CB_100  and  CG_101 
REMARK   59  A    between atoms: CG_101  and  CD_102 
REMARK   60  A    between atoms: CD_102  and  NE_103 
REMARK       I    between atoms: NE_103  and  CZ_104 
REMARK       I    between atoms: CZ_104  and  NH1_105 
REMARK       I    between atoms: CZ_104  and  NH2_106 
REMARK   61  A    between atoms: N_107  and  CA_108 
REMARK   62  A    between atoms: CA_108  and  C_109 
REMARK   63  A    between atoms: CA_108  and  CB_111 
REMARK       I    between atoms: C_109  and  N_118 
REMARK   64  A    between atoms: CB_111  and  CG_112 
REMARK   65  A    between atoms: CG_112  and  CD_113 
REMARK   66  A    between atoms: CD_113  and  NE_114 
REMARK       I    between atoms: NE_114  and  CZ_115 
REMARK       I    between atoms: CZ_115  and  NH1_116 
REMARK       I    between atoms: CZ_115  and  NH2_117 
REMARK   67  A    between atoms: N_118  and  CA_119 
REMARK   68  A    between atoms: CA_119  and  C_120 
REMARK   69  A    between atoms: CA_119  and  CB_122 
REMARK       I    between atoms: C_120  and  N_126 
REMARK   70  A    between atoms: CB_122  and  CG_123 
REMARK       I    between atoms: CG_123  and  ND2_125 
REMARK   71  A    between atoms: N_126  and  CA_127 
REMARK   72  A    between atoms: CA_127  and  C_128 
REMARK   73  A    between atoms: CA_127  and  CB_130 
REMARK       I    between atoms: C_128  and  N_131 
REMARK   74  A    between atoms: N_131  and  CA_132 
REMARK   75  A    between atoms: CA_132  and  C_133 
REMARK   76  A    between atoms: CA_132  and  CB_135 
REMARK   77  A    between atoms: CB_135  and  CG1_136 
REMARK   78  A    between atoms: CB_135  and  CG2_137 
REMARK   79  A    between atoms: CG1_136  and  CD1_138 
ROOT
ATOM      1  C   THR d   1      -8.672   6.173  20.550  0.00  0.00     0.236 C 
ATOM      2  O   THR d   1      -8.515   6.134  19.324  0.00  0.00    -0.272 OA
ATOM      3  N   THR d   1      -7.902   6.910  21.339  0.00  0.00    -0.346 N 
ATOM      4  H68 THR d   1      -8.054   6.891  22.327  0.00  0.00     0.163 HD
ENDROOT
BRANCH   1   5
ATOM      5  CA  THR d   1      -9.766   5.341  21.171  0.00  0.00     0.069 C 
ATOM      6  H66 THR d   1     -10.729   5.691  20.771  0.00  0.00     0.078 H 
ATOM      7  H67 THR d   1      -9.606   4.293  20.878  0.00  0.00     0.078 H 
BRANCH   5   8
ATOM      8  N   THR d   1      -9.832   5.398  22.612  0.00  0.00    -0.350 N 
ATOM      9  C   THR d   1     -10.391   6.412  23.263  0.00  0.00     0.242 C 
ATOM     10  O   THR d   1     -10.873   7.396  22.687  0.00  0.00    -0.271 OA
ATOM     11  H65 THR d   1      -9.441   4.644  23.141  0.00  0.00     0.163 HD
BRANCH   9  12
ATOM     12  CA  THR d   1     -10.390   6.357  24.780  0.00  0.00     0.109 C 
ATOM     13  H61 THR d   1     -11.333   6.787  25.148  0.00  0.00     0.090 H 
BRANCH  12  14
ATOM     14  N   THR d   1     -10.288   4.990  25.278  0.00  0.00    -0.344 N 
ATOM     15  C   THR d   1     -11.252   4.093  25.052  0.00  0.00     0.240 C 
ATOM     16  O   THR d   1     -12.279   4.367  24.422  0.00  0.00    -0.271 OA
ATOM     17  H60 THR d   1      -9.479   4.718  25.800  0.00  0.00     0.163 HD
BRANCH  15  18
ATOM     18  CA  THR d   1     -11.069   2.697  25.632  0.00  0.00     0.086 C 
ATOM     19  H56 THR d   1     -11.505   1.973  24.928  0.00  0.00     0.086 H 
BRANCH  18  20
ATOM     20  N   THR d   1      -9.659   2.357  25.822  0.00  0.00    -0.346 N 
ATOM     21  C   THR d   1      -8.840   2.249  24.772  0.00  0.00     0.241 C 
ATOM     22  O   THR d   1      -9.225   2.486  23.615  0.00  0.00    -0.271 OA
ATOM     23  H55 THR d   1      -9.305   2.204  26.745  0.00  0.00     0.163 HD
BRANCH  21  24
ATOM     24  CA  THR d   1      -7.390   1.875  25.058  0.00  0.00     0.092 C 
ATOM     25  H45 THR d   1      -6.783   2.196  24.198  0.00  0.00     0.088 H 
BRANCH  24  26
ATOM     26  N   THR d   1      -6.908   2.580  26.248  0.00  0.00    -0.346 N 
ATOM     27  C   THR d   1      -6.884   3.921  26.251  0.00  0.00     0.241 C 
ATOM     28  O   THR d   1      -7.234   4.579  25.268  0.00  0.00    -0.271 OA
ATOM     29  H44 THR d   1      -6.600   2.067  27.049  0.00  0.00     0.163 HD
BRANCH  27  30
ATOM     30  CA  THR d   1      -6.419   4.619  27.524  0.00  0.00     0.093 C 
ATOM     31  H36 THR d   1      -6.703   5.679  27.457  0.00  0.00     0.088 H 
BRANCH  30  32
ATOM     32  N   THR d   1      -7.063   4.043  28.689  0.00  0.00    -0.346 N 
ATOM     33  C   THR d   1      -8.390   4.091  28.824  0.00  0.00     0.241 C 
ATOM     34  O   THR d   1      -9.120   4.705  28.033  0.00  0.00    -0.271 OA
ATOM     35  H35 THR d   1      -6.508   3.606  29.397  0.00  0.00     0.163 HD
BRANCH  33  36
ATOM     36  CA  THR d   1      -8.984   3.352  30.011  0.00  0.00     0.098 C 
ATOM     37  H32 THR d   1     -10.029   3.100  29.780  0.00  0.00     0.088 H 
BRANCH  36  38
ATOM     38  N   THR d   1      -8.253   2.115  30.270  0.00  0.00    -0.346 N 
ATOM     39  C   THR d   1      -8.280   1.112  29.398  0.00  0.00     0.240 C 
ATOM     40  O   THR d   1      -8.929   1.162  28.345  0.00  0.00    -0.271 OA
ATOM     41  H31 THR d   1      -7.725   2.021  31.114  0.00  0.00     0.163 HD
BRANCH  39  42
ATOM     42  CA  THR d   1      -7.471  -0.123  29.755  0.00  0.00     0.086 C 
ATOM     43  H27 THR d   1      -7.259  -0.678  28.829  0.00  0.00     0.086 H 
BRANCH  42  44
ATOM     44  N   THR d   1      -6.204   0.254  30.362  0.00  0.00    -0.346 N 
ATOM     45  C   THR d   1      -5.330   1.011  29.677  0.00  0.00     0.241 C 
ATOM     46  O   THR d   1      -5.552   1.392  28.520  0.00  0.00    -0.271 OA
ATOM     47  H26 THR d   1      -5.983  -0.050  31.289  0.00  0.00     0.163 HD
BRANCH  45  48
ATOM     48  CA  THR d   1      -4.021   1.369  30.364  0.00  0.00     0.093 C 
ATOM     49  H18 THR d   1      -3.563   2.206  29.816  0.00  0.00     0.088 H 
BRANCH  48  50
ATOM     50  N   THR d   1      -4.253   1.797  31.734  0.00  0.00    -0.346 N 
ATOM     51  C   THR d   1      -5.061   2.834  31.982  0.00  0.00     0.243 C 
ATOM     52  O   THR d   1      -5.566   3.508  31.074  0.00  0.00    -0.271 OA
ATOM     53  H17 THR d   1      -3.809   1.317  32.490  0.00  0.00     0.163 HD
BRANCH  51  54
ATOM     54  CA  THR d   1      -5.382   3.144  33.435  0.00  0.00     0.113 C 
ATOM     55  H11 THR d   1      -6.329   3.704  33.461  0.00  0.00     0.091 H 
BRANCH  54  56
ATOM     56  N   THR d   1      -5.564   1.917  34.201  0.00  0.00    -0.344 N 
ATOM     57  C   THR d   1      -6.569   1.097  33.891  0.00  0.00     0.251 C 
ATOM     58  O   THR d   1      -7.401   1.364  33.023  0.00  0.00    -0.271 OA
ATOM     59  H10 THR d   1      -4.942   1.693  34.951  0.00  0.00     0.163 HD
BRANCH  57  60
ATOM     60  CA  THR d   1      -6.654  -0.220  34.656  0.00  0.00     0.199 C 
ATOM     61  H4  THR d   1      -6.593  -0.013  35.735  0.00  0.00     0.103 H 
BRANCH  60  62
ATOM     62  N   THR d   1      -7.922  -0.886  34.379  0.00  0.00    -0.064 N 
ATOM     63  H1  THR d   1      -8.684  -0.285  34.651  0.00  0.00     0.275 HD
ATOM     64  H2  THR d   1      -7.970  -1.747  34.901  0.00  0.00     0.275 HD
ATOM     65  H3  THR d   1      -7.988  -1.086  33.393  0.00  0.00     0.275 HD
ENDBRANCH  60  62
BRANCH  60  66
ATOM     66  CB  THR d   1      -5.479  -1.104  34.255  0.00  0.00     0.068 C 
ATOM     67  H5  THR d   1      -4.538  -0.599  34.520  0.00  0.00     0.086 H 
BRANCH  66  68
ATOM     68  OG1 THR d   1      -5.527  -1.317  32.845  0.00  0.00    -0.393 OA
ATOM     69  H6  THR d   1      -4.798  -1.868  32.584  0.00  0.00     0.210 HD
ENDBRANCH  66  68
BRANCH  66  70
ATOM     70  CG2 THR d   1      -5.543  -2.457  34.971  0.00  0.00    -0.050 C 
ATOM     71  H7  THR d   1      -4.686  -3.075  34.665  0.00  0.00     0.031 H 
ATOM     72  H8  THR d   1      -6.479  -2.970  34.703  0.00  0.00     0.031 H 
ATOM     73  H9  THR d   1      -5.511  -2.298  36.059  0.00  0.00     0.031 H 
ENDBRANCH  66  70
ENDBRANCH  60  66
ENDBRANCH  57  60
ENDBRANCH  54  56
BRANCH  54  74
ATOM     74  CB  THR d   1      -4.298   4.023  34.059  0.00  0.00     0.060 C 
ATOM     75  H12 THR d   1      -3.348   3.469  34.078  0.00  0.00     0.086 H 
BRANCH  74  76
ATOM     76  OG1 THR d   1      -4.680   4.366  35.400  0.00  0.00    -0.393 OA
ATOM     77  H13 THR d   1      -4.008   4.912  35.790  0.00  0.00     0.210 HD
ENDBRANCH  74  76
BRANCH  74  78
ATOM     78  CG2 THR d   1      -4.118   5.319  33.238  0.00  0.00    -0.050 C 
ATOM     79  H14 THR d   1      -3.336   5.940  33.699  0.00  0.00     0.031 H 
ATOM     80  H15 THR d   1      -5.066   5.877  33.221  0.00  0.00     0.031 H 
ATOM     81  H16 THR d   1      -3.824   5.064  32.209  0.00  0.00     0.031 H 
ENDBRANCH  74  78
ENDBRANCH  54  74
ENDBRANCH  51  54
ENDBRANCH  48  50
BRANCH  48  82
ATOM     82  CB  THR d   1      -3.052   0.184  30.326  0.00  0.00    -0.014 C 
ATOM     83  H19 THR d   1      -3.451  -0.610  30.974  0.00  0.00     0.043 H 
ATOM     84  H20 THR d   1      -2.079   0.520  30.714  0.00  0.00     0.043 H 
BRANCH  82  85
ATOM     85  CG  THR d   1      -2.842  -0.385  28.958  0.00  0.00    -0.056 A 
ATOM     86  CD1 THR d   1      -3.274  -1.662  28.657  0.00  0.00    -0.074 A 
ATOM     87  CE1 THR d   1      -3.082  -2.209  27.414  0.00  0.00    -0.051 A 
ATOM     88  H21 THR d   1      -3.776  -2.245  29.421  0.00  0.00     0.084 H 
ATOM     89  CZ  THR d   1      -2.442  -1.480  26.436  0.00  0.00     0.065 A 
ATOM     90  H23 THR d   1      -3.433  -3.212  27.202  0.00  0.00     0.087 H 
ATOM     91  CE2 THR d   1      -2.004  -0.193  26.701  0.00  0.00    -0.051 A 
ATOM     92  CD2 THR d   1      -2.204   0.343  27.965  0.00  0.00    -0.074 A 
ATOM     93  H24 THR d   1      -1.511   0.388  25.930  0.00  0.00     0.087 H 
ATOM     94  H22 THR d   1      -1.856   1.347  28.180  0.00  0.00     0.084 H 
BRANCH  89  95
ATOM     95  OH  THR d   1      -2.260  -2.045  25.198  0.00  0.00    -0.361 OA
ATOM     96  H25 THR d   1      -2.619  -2.925  25.197  0.00  0.00     0.217 HD
ENDBRANCH  89  95
ENDBRANCH  82  85
ENDBRANCH  48  82
ENDBRANCH  45  48
ENDBRANCH  42  44
BRANCH  42  97
ATOM     97  CB  THR d   1      -8.268  -1.036  30.691  0.00  0.00    -0.049 C 
ATOM     98  H28 THR d   1      -9.221  -1.309  30.214  0.00  0.00     0.030 H 
ATOM     99  H29 THR d   1      -8.469  -0.508  31.635  0.00  0.00     0.030 H 
ATOM    100  H30 THR d   1      -7.687  -1.947  30.897  0.00  0.00     0.030 H 
ENDBRANCH  42  97
ENDBRANCH  39  42
ENDBRANCH  36  38
BRANCH  36 101
ATOM    101  CB  THR d   1      -8.957   4.243  31.248  0.00  0.00     0.043 C 
ATOM    102  H33 THR d   1      -9.384   5.222  30.984  0.00  0.00     0.052 H 
ATOM    103  H34 THR d   1      -7.911   4.372  31.563  0.00  0.00     0.052 H 
BRANCH 101 104
ATOM    104  CG  THR d   1      -9.743   3.672  32.409  0.00  0.00     0.175 C 
ATOM    105  OD1 THR d   1     -10.502   2.704  32.228  0.00  0.00    -0.648 OA
ATOM    106  OD2 THR d   1      -9.594   4.201  33.517  0.00  0.00    -0.648 OA
ENDBRANCH 101 104
ENDBRANCH  36 101
ENDBRANCH  33  36
ENDBRANCH  30  32
BRANCH  30 107
ATOM    107  CB  THR d   1      -4.903   4.537  27.678  0.00  0.00    -0.014 C 
ATOM    108  H37 THR d   1      -4.637   3.503  27.941  0.00  0.00     0.043 H 
ATOM    109  H38 THR d   1      -4.601   5.212  28.492  0.00  0.00     0.043 H 
BRANCH 107 110
ATOM    110  CG  THR d   1      -4.146   4.918  26.446  0.00  0.00    -0.056 A 
ATOM    111  CD1 THR d   1      -4.233   6.203  25.929  0.00  0.00    -0.077 A 
ATOM    112  CE1 THR d   1      -3.529   6.559  24.788  0.00  0.00    -0.082 A 
ATOM    113  H39 THR d   1      -4.859   6.938  26.423  0.00  0.00     0.084 H 
ATOM    114  CZ  THR d   1      -2.729   5.632  24.155  0.00  0.00    -0.083 A 
ATOM    115  H41 THR d   1      -3.608   7.566  24.394  0.00  0.00     0.083 H 
ATOM    116  CE2 THR d   1      -2.630   4.340  24.668  0.00  0.00    -0.082 A 
ATOM    117  H43 THR d   1      -2.179   5.907  23.262  0.00  0.00     0.083 H 
ATOM    118  CD2 THR d   1      -3.339   3.994  25.811  0.00  0.00    -0.077 A 
ATOM    119  H42 THR d   1      -2.001   3.607  24.176  0.00  0.00     0.083 H 
ATOM    120  H40 THR d   1      -3.258   2.989  26.209  0.00  0.00     0.084 H 
ENDBRANCH 107 110
ENDBRANCH  30 107
ENDBRANCH  27  30
ENDBRANCH  24  26
BRANCH  24 121
ATOM    121  CB  THR d   1      -7.204   0.356  25.227  0.00  0.00    -0.030 C 
ATOM    122  H46 THR d   1      -7.769   0.030  26.113  0.00  0.00     0.043 H 
BRANCH 121 123
ATOM    123  CG1 THR d   1      -5.717   0.039  25.453  0.00  0.00    -0.063 C 
ATOM    124  H47 THR d   1      -5.602  -1.053  25.512  0.00  0.00     0.033 H 
ATOM    125  H48 THR d   1      -5.409   0.492  26.407  0.00  0.00     0.033 H 
BRANCH 123 126
ATOM    126  CD1 THR d   1      -4.795   0.557  24.358  0.00  0.00    -0.076 C 
ATOM    127  H52 THR d   1      -3.755   0.289  24.597  0.00  0.00     0.027 H 
ATOM    128  H53 THR d   1      -4.885   1.651  24.290  0.00  0.00     0.027 H 
ATOM    129  H54 THR d   1      -5.079   0.105  23.396  0.00  0.00     0.027 H 
ENDBRANCH 123 126
ENDBRANCH 121 123
BRANCH 121 130
ATOM    130  CG2 THR d   1      -7.745  -0.387  24.014  0.00  0.00    -0.071 C 
ATOM    131  H49 THR d   1      -8.809  -0.141  23.878  0.00  0.00     0.028 H 
ATOM    132  H50 THR d   1      -7.636  -1.470  24.169  0.00  0.00     0.028 H 
ATOM    133  H51 THR d   1      -7.181  -0.086  23.118  0.00  0.00     0.028 H 
ENDBRANCH 121 130
ENDBRANCH  24 121
ENDBRANCH  21  24
ENDBRANCH  18  20
BRANCH  18 134
ATOM    134  CB  THR d   1     -11.808   2.593  26.961  0.00  0.00    -0.049 C 
ATOM    135  H57 THR d   1     -12.867   2.850  26.812  0.00  0.00     0.030 H 
ATOM    136  H58 THR d   1     -11.360   3.289  27.685  0.00  0.00     0.030 H 
ATOM    137  H59 THR d   1     -11.730   1.565  27.345  0.00  0.00     0.030 H 
ENDBRANCH  18 134
ENDBRANCH  15  18
ENDBRANCH  12  14
BRANCH  12 138
ATOM    138  CB  THR d   1      -9.226   7.204  25.293  0.00  0.00     0.044 C 
ATOM    139  H62 THR d   1      -9.039   6.956  26.348  0.00  0.00     0.077 H 
ATOM    140  H63 THR d   1      -9.491   8.268  25.207  0.00  0.00     0.077 H 
BRANCH 138 141
ATOM    141  OG  THR d   1      -8.038   6.957  24.539  0.00  0.00    -0.398 OA
ATOM    142  H64 THR d   1      -7.802   6.040  24.613  0.00  0.00     0.209 HD
ENDBRANCH 138 141
ENDBRANCH  12 138
ENDBRANCH   9  12
ENDBRANCH   5   8
ENDBRANCH   1   5
BRANCH   3 143
ATOM    143  CA  THR d   1      -6.833   7.752  20.795  0.00  0.00     0.089 C 
ATOM    144  H69 THR d   1      -7.027   7.901  19.723  0.00  0.00     0.087 H 
BRANCH 143 145
ATOM    145  C   THR d   1      -5.472   7.074  20.931  0.00  0.00     0.241 C 
ATOM    146  O   THR d   1      -4.517   7.634  21.479  0.00  0.00    -0.271 OA
ATOM    147  N   THR d   1      -5.383   5.841  20.423  0.00  0.00    -0.344 N 
ATOM    148  H81 THR d   1      -6.187   5.439  19.985  0.00  0.00     0.163 HD
BRANCH 147 149
ATOM    149  CA  THR d   1      -4.153   5.064  20.487  0.00  0.00     0.113 C 
ATOM    150  H82 THR d   1      -3.540   5.473  21.303  0.00  0.00     0.091 H 
BRANCH 149 151
ATOM    151  C   THR d   1      -3.344   5.126  19.203  0.00  0.00     0.243 C 
ATOM    152  O   THR d   1      -2.187   4.689  19.208  0.00  0.00    -0.271 OA
ATOM    153  N   THR d   1      -3.924   5.618  18.109  0.00  0.00    -0.350 N 
ATOM    154  H88 THR d   1      -4.887   5.886  18.152  0.00  0.00     0.163 HD
BRANCH 153 155
ATOM    155  CA  THR d   1      -3.211   5.779  16.861  0.00  0.00     0.069 C 
ATOM    156  H89 THR d   1      -3.925   5.677  16.030  0.00  0.00     0.078 H 
ATOM    157  H90 THR d   1      -2.446   4.992  16.787  0.00  0.00     0.078 H 
BRANCH 155 158
ATOM    158  C   THR d   1      -2.530   7.132  16.755  0.00  0.00     0.236 C 
ATOM    159  O   THR d   1      -2.506   7.932  17.687  0.00  0.00    -0.272 OA
ATOM    160  N   THR d   1      -1.955   7.387  15.587  0.00  0.00    -0.346 N 
ATOM    161  H91 THR d   1      -2.000   6.711  14.851  0.00  0.00     0.163 HD
BRANCH 160 162
ATOM    162  CA  THR d   1      -1.260   8.646  15.373  0.00  0.00     0.089 C 
ATOM    163  H92 THR d   1      -0.484   8.754  16.145  0.00  0.00     0.087 H 
BRANCH 162 164
ATOM    164  C   THR d   1      -2.238   9.808  15.509  0.00  0.00     0.241 C 
ATOM    165  O   THR d   1      -3.354   9.765  14.985  0.00  0.00    -0.271 OA
ATOM    166  N   THR d   1      -1.815  10.845  16.228  0.00  0.00    -0.346 N 
ATOM    167 4H10 THR d   1      -0.864  10.861  16.536  0.00  0.00     0.163 HD
BRANCH 166 168
ATOM    168  CA  THR d   1      -2.684  11.956  16.583  0.00  0.00     0.089 C 
ATOM    169 5H10 THR d   1      -3.728  11.648  16.424  0.00  0.00     0.087 H 
BRANCH 168 170
ATOM    170  C   THR d   1      -2.400  13.171  15.710  0.00  0.00     0.241 C 
ATOM    171  O   THR d   1      -1.246  13.575  15.560  0.00  0.00    -0.271 OA
ATOM    172  N   THR d   1      -3.461  13.762  15.163  0.00  0.00    -0.346 N 
ATOM    173 7H11 THR d   1      -4.368  13.367  15.310  0.00  0.00     0.163 HD
BRANCH 172 174
ATOM    174  CA  THR d   1      -3.336  14.963  14.359  0.00  0.00     0.097 C 
ATOM    175 8H11 THR d   1      -2.424  14.877  13.750  0.00  0.00     0.088 H 
BRANCH 174 176
ATOM    176  C   THR d   1      -3.226  16.217  15.224  0.00  0.00     0.241 C 
ATOM    177  O   THR d   1      -3.720  16.277  16.357  0.00  0.00    -0.271 OA
ATOM    178  N   THR d   1      -2.571  17.229  14.667  0.00  0.00    -0.346 N 
ATOM    179 3H12 THR d   1      -2.036  17.072  13.837  0.00  0.00     0.163 HD
BRANCH 178 180
ATOM    180  CA  THR d   1      -2.619  18.563  15.246  0.00  0.00     0.086 C 
ATOM    181 4H12 THR d   1      -2.352  18.499  16.311  0.00  0.00     0.086 H 
BRANCH 180 182
ATOM    182  C   THR d   1      -4.028  19.134  15.127  0.00  0.00     0.240 C 
ATOM    183  O   THR d   1      -4.804  18.759  14.238  0.00  0.00    -0.271 OA
ATOM    184  N   THR d   1      -4.361  20.043  16.036  0.00  0.00    -0.344 N 
ATOM    185 8H12 THR d   1      -3.699  20.296  16.741  0.00  0.00     0.163 HD
BRANCH 184 186
ATOM    186  CA  THR d   1      -5.681  20.684  16.027  0.00  0.00     0.099 C 
ATOM    187 9H12 THR d   1      -6.435  19.913  15.811  0.00  0.00     0.090 H 
BRANCH 186 188
ATOM    188  C   THR d   1      -5.734  21.731  14.922  0.00  0.00     0.197 C 
ATOM    189  O   THR d   1      -6.831  22.160  14.535  0.00  0.00    -0.646 OA
ATOM    190  OXT THR d   1      -4.695  22.167  14.400  0.00  0.00    -0.646 OA
ENDBRANCH 186 188
BRANCH 186 191
ATOM    191  CB  THR d   1      -6.024  21.316  17.393  0.00  0.00    -0.029 C 
ATOM    192 0H13 THR d   1      -7.057  21.691  17.349  0.00  0.00     0.043 H 
BRANCH 191 193
ATOM    193  CG1 THR d   1      -5.103  22.503  17.681  0.00  0.00    -0.063 C 
ATOM    194 1H13 THR d   1      -5.283  23.274  16.917  0.00  0.00     0.033 H 
ATOM    195 2H13 THR d   1      -4.061  22.157  17.614  0.00  0.00     0.033 H 
BRANCH 193 196
ATOM    196  CD1 THR d   1      -5.313  23.132  19.057  0.00  0.00    -0.076 C 
ATOM    197 6H13 THR d   1      -4.617  23.974  19.186  0.00  0.00     0.027 H 
ATOM    198 7H13 THR d   1      -5.126  22.379  19.837  0.00  0.00     0.027 H 
ATOM    199 8H13 THR d   1      -6.348  23.496  19.140  0.00  0.00     0.027 H 
ENDBRANCH 193 196
ENDBRANCH 191 193
BRANCH 191 200
ATOM    200  CG2 THR d   1      -5.951  20.275  18.491  0.00  0.00    -0.070 C 
ATOM    201 3H13 THR d   1      -6.625  19.439  18.250  0.00  0.00     0.028 H 
ATOM    202 4H13 THR d   1      -6.256  20.727  19.446  0.00  0.00     0.028 H 
ATOM    203 5H13 THR d   1      -4.920  19.902  18.575  0.00  0.00     0.028 H 
ENDBRANCH 191 200
ENDBRANCH 186 191
ENDBRANCH 184 186
ENDBRANCH 180 182
BRANCH 180 204
ATOM    204  CB  THR d   1      -1.615  19.469  14.541  0.00  0.00    -0.049 C 
ATOM    205 5H12 THR d   1      -1.656  20.476  14.983  0.00  0.00     0.030 H 
ATOM    206 6H12 THR d   1      -1.863  19.528  13.471  0.00  0.00     0.030 H 
ATOM    207 7H12 THR d   1      -0.602  19.057  14.661  0.00  0.00     0.030 H 
ENDBRANCH 180 204
ENDBRANCH 178 180
ENDBRANCH 174 176
BRANCH 174 208
ATOM    208  CB  THR d   1      -4.533  15.106  13.433  0.00  0.00     0.036 C 
ATOM    209 9H11 THR d   1      -4.477  16.085  12.934  0.00  0.00     0.051 H 
ATOM    210 0H12 THR d   1      -5.452  15.053  14.035  0.00  0.00     0.051 H 
BRANCH 208 211
ATOM    211  CG  THR d   1      -4.584  14.036  12.386  0.00  0.00     0.217 C 
ATOM    212  OD1 THR d   1      -3.558  13.497  11.974  0.00  0.00    -0.274 OA
ATOM    213  ND2 THR d   1      -5.779  13.727  11.938  0.00  0.00    -0.370 N 
ATOM    214 1H12 THR d   1      -5.883  13.021  11.238  0.00  0.00     0.159 HD
ATOM    215 2H12 THR d   1      -6.585  14.198  12.297  0.00  0.00     0.159 HD
ENDBRANCH 208 211
ENDBRANCH 174 208
ENDBRANCH 172 174
ENDBRANCH 168 170
BRANCH 168 216
ATOM    216  CB  THR d   1      -2.498  12.314  18.058  0.00  0.00    -0.036 C 
ATOM    217 6H10 THR d   1      -3.116  13.195  18.287  0.00  0.00     0.036 H 
ATOM    218 7H10 THR d   1      -1.438  12.554  18.231  0.00  0.00     0.036 H 
BRANCH 216 219
ATOM    219  CG  THR d   1      -2.899  11.184  18.989  0.00  0.00    -0.048 C 
ATOM    220 8H10 THR d   1      -2.659  10.230  18.497  0.00  0.00     0.035 H 
ATOM    221 9H10 THR d   1      -3.984  11.246  19.159  0.00  0.00     0.035 H 
BRANCH 219 222
ATOM    222  CD  THR d   1      -2.209  11.212  20.328  0.00  0.00     0.009 C 
ATOM    223 0H11 THR d   1      -2.653  10.439  20.973  0.00  0.00     0.064 H 
ATOM    224 1H11 THR d   1      -2.360  12.201  20.785  0.00  0.00     0.064 H 
BRANCH 222 225
ATOM    225  NE  THR d   1      -0.777  10.961  20.209  0.00  0.00    -0.227 N 
ATOM    226  CZ  THR d   1       0.011  10.526  21.190  0.00  0.00     0.665 C 
ATOM    227  NH1 THR d   1      -0.470  10.267  22.404  0.00  0.00    -0.235 N 
ATOM    228  NH2 THR d   1       1.296  10.344  20.950  0.00  0.00    -0.235 N 
ATOM    229 3H11 THR d   1       0.160   9.931  23.147  0.00  0.00     0.174 HD
ATOM    230 4H11 THR d   1      -1.472  10.402  22.601  0.00  0.00     0.174 HD
ATOM    231 5H11 THR d   1       1.678  10.541  20.014  0.00  0.00     0.174 HD
ATOM    232 6H11 THR d   1       1.917  10.005  21.699  0.00  0.00     0.174 HD
ATOM    233 2H11 THR d   1      -0.340  11.134  19.292  0.00  0.00     0.177 HD
ENDBRANCH 222 225
ENDBRANCH 219 222
ENDBRANCH 216 219
ENDBRANCH 168 216
ENDBRANCH 166 168
ENDBRANCH 162 164
BRANCH 162 234
ATOM    234  CB  THR d   1      -0.580   8.646  14.006  0.00  0.00    -0.036 C 
ATOM    235  H93 THR d   1      -0.219   9.662  13.791  0.00  0.00     0.036 H 
ATOM    236  H94 THR d   1      -1.316   8.350  13.245  0.00  0.00     0.036 H 
BRANCH 234 237
ATOM    237  CG  THR d   1       0.600   7.684  13.947  0.00  0.00    -0.048 C 
ATOM    238  H95 THR d   1       0.281   6.706  14.335  0.00  0.00     0.035 H 
ATOM    239  H96 THR d   1       1.413   8.080  14.574  0.00  0.00     0.035 H 
BRANCH 237 240
ATOM    240  CD  THR d   1       1.113   7.506  12.538  0.00  0.00     0.009 C 
ATOM    241  H97 THR d   1       1.362   8.496  12.128  0.00  0.00     0.064 H 
ATOM    242  H98 THR d   1       0.318   7.048  11.931  0.00  0.00     0.064 H 
BRANCH 240 243
ATOM    243  NE  THR d   1       2.306   6.656  12.464  0.00  0.00    -0.227 N 
ATOM    244  CZ  THR d   1       2.297   5.323  12.460  0.00  0.00     0.665 C 
ATOM    245  NH1 THR d   1       3.439   4.664  12.369  0.00  0.00    -0.235 N 
ATOM    246  NH2 THR d   1       1.159   4.645  12.549  0.00  0.00    -0.235 N 
ATOM    247 0H10 THR d   1       3.440   3.634  12.365  0.00  0.00     0.174 HD
ATOM    248 1H10 THR d   1       4.328   5.180  12.302  0.00  0.00     0.174 HD
ATOM    249 2H10 THR d   1       0.264   5.149  12.620  0.00  0.00     0.174 HD
ATOM    250 3H10 THR d   1       1.172   3.615  12.547  0.00  0.00     0.174 HD
ATOM    251  H99 THR d   1       3.221   7.125  12.411  0.00  0.00     0.177 HD
ENDBRANCH 240 243
ENDBRANCH 237 240
ENDBRANCH 234 237
ENDBRANCH 162 234
ENDBRANCH 160 162
ENDBRANCH 155 158
ENDBRANCH 153 155
ENDBRANCH 149 151
BRANCH 149 252
ATOM    252  CB  THR d   1      -4.450   3.591  20.784  0.00  0.00     0.060 C 
ATOM    253  H83 THR d   1      -3.510   3.022  20.741  0.00  0.00     0.086 H 
BRANCH 252 254
ATOM    254  OG1 THR d   1      -5.346   3.100  19.785  0.00  0.00    -0.393 OA
ATOM    255  H84 THR d   1      -4.941   3.184  18.930  0.00  0.00     0.210 HD
ENDBRANCH 252 254
BRANCH 252 256
ATOM    256  CG2 THR d   1      -5.064   3.409  22.157  0.00  0.00    -0.050 C 
ATOM    257  H85 THR d   1      -5.262   2.341  22.332  0.00  0.00     0.031 H 
ATOM    258  H86 THR d   1      -6.008   3.971  22.214  0.00  0.00     0.031 H 
ATOM    259  H87 THR d   1      -4.368   3.783  22.922  0.00  0.00     0.031 H 
ENDBRANCH 252 256
ENDBRANCH 149 252
ENDBRANCH 147 149
ENDBRANCH 143 145
BRANCH 143 260
ATOM    260  CB  THR d   1      -6.859   9.118  21.473  0.00  0.00    -0.036 C 
ATOM    261  H70 THR d   1      -5.993   9.701  21.126  0.00  0.00     0.036 H 
ATOM    262  H71 THR d   1      -6.791   8.973  22.561  0.00  0.00     0.036 H 
BRANCH 260 263
ATOM    263  CG  THR d   1      -8.131   9.901  21.163  0.00  0.00    -0.048 C 
ATOM    264  H72 THR d   1      -8.993   9.339  21.552  0.00  0.00     0.035 H 
ATOM    265  H73 THR d   1      -8.223  10.004  20.072  0.00  0.00     0.035 H 
BRANCH 263 266
ATOM    266  CD  THR d   1      -8.136  11.283  21.781  0.00  0.00     0.009 C 
ATOM    267  H74 THR d   1      -8.043  11.175  22.872  0.00  0.00     0.064 H 
ATOM    268  H75 THR d   1      -9.095  11.766  21.541  0.00  0.00     0.064 H 
BRANCH 266 269
ATOM    269  NE  THR d   1      -7.057  12.146  21.312  0.00  0.00    -0.227 N 
ATOM    270  CZ  THR d   1      -7.121  12.934  20.244  0.00  0.00     0.665 C 
ATOM    271  NH1 THR d   1      -8.217  12.971  19.483  0.00  0.00    -0.235 N 
ATOM    272  NH2 THR d   1      -6.083  13.691  19.934  0.00  0.00    -0.235 N 
ATOM    273  H77 THR d   1      -8.251  13.587  18.658  0.00  0.00     0.174 HD
ATOM    274  H78 THR d   1      -9.029  12.383  19.720  0.00  0.00     0.174 HD
ATOM    275  H79 THR d   1      -5.235  13.666  20.518  0.00  0.00     0.174 HD
ATOM    276  H80 THR d   1      -6.122  14.306  19.108  0.00  0.00     0.174 HD
ATOM    277  H76 THR d   1      -6.179  12.144  21.850  0.00  0.00     0.177 HD
ENDBRANCH 266 269
ENDBRANCH 263 266
ENDBRANCH 260 263
ENDBRANCH 143 260
ENDBRANCH   3 143
TORSDOF 79
