REMARK  7 active torsions:
REMARK  status: ('A' for Active; 'I' for Inactive)
REMARK    1  A    between atoms: C7_1  and  C1_3 
REMARK    2  A    between atoms: O8_30  and  C7_1 
REMARK    3  A    between atoms: C21_18  and  C23_17 
REMARK    4  A    between atoms: C20_20  and  C21_18 
REMARK    5  A    between atoms: C17_21  and  C20_20 
REMARK    6  A    between atoms: N16_22  and  C17_21 
REMARK       I    between atoms: C9_28  and  N11_27 
REMARK    7  A    between atoms: C9_28  and  O8_30 
ROOT
ATOM      1  N16 6ZO d   1      23.272  33.874  27.971  0.00  0.00    -0.068 N 
ATOM      2  C14 6ZO d   1      24.477  34.387  28.690  0.00  0.00     0.098 C 
ATOM      3  C12 6ZO d   1      25.179  33.181  29.317  0.00  0.00     0.022 C 
ATOM      4  C15 6ZO d   1      23.671  32.978  26.840  0.00  0.00     0.098 C 
ATOM      5  C13 6ZO d   1      24.387  31.766  27.449  0.00  0.00     0.022 C 
ATOM      6  N11 6ZO d   1      25.522  32.178  28.295  0.00  0.00    -0.325 N 
ATOM      7  C9  6ZO d   1      26.760  31.638  28.213  0.00  0.00     0.363 C 
ATOM      8  O10 6ZO d   1      27.677  31.949  28.935  0.00  0.00    -0.238 OA
ATOM      9  H14 6ZO d   1      22.848  33.242  28.632  0.00  0.00     0.280 HD
ATOM     10  H15 6ZO d   1      24.174  35.096  29.474  0.00  0.00     0.078 H 
ATOM     11  H16 6ZO d   1      25.152  34.890  27.982  0.00  0.00     0.078 H 
ATOM     12  H17 6ZO d   1      24.511  32.722  30.061  0.00  0.00     0.067 H 
ATOM     13  H18 6ZO d   1      26.101  33.519  29.812  0.00  0.00     0.067 H 
ATOM     14  H19 6ZO d   1      24.349  33.512  26.158  0.00  0.00     0.078 H 
ATOM     15  H20 6ZO d   1      22.779  32.649  26.287  0.00  0.00     0.078 H 
ATOM     16  H21 6ZO d   1      24.761  31.126  26.636  0.00  0.00     0.067 H 
ATOM     17  H22 6ZO d   1      23.671  31.199  28.062  0.00  0.00     0.067 H 
ENDROOT
BRANCH   1  18
ATOM     18  C17 6ZO d   1      22.172  34.875  27.727  0.00  0.00     0.090 C 
ATOM     19  H12 6ZO d   1      21.227  34.325  27.610  0.00  0.00     0.076 H 
ATOM     20  H13 6ZO d   1      22.107  35.534  28.605  0.00  0.00     0.076 H 
BRANCH  18  21
ATOM     21  C20 6ZO d   1      22.370  35.741  26.499  0.00  0.00     0.018 C 
ATOM     22  H10 6ZO d   1      23.064  36.559  26.743  0.00  0.00     0.047 H 
ATOM     23  H11 6ZO d   1      22.795  35.128  25.691  0.00  0.00     0.047 H 
BRANCH  21  24
ATOM     24  C21 6ZO d   1      21.057  36.329  26.035  0.00  0.00     0.161 C 
ATOM     25  O22 6ZO d   1      20.068  36.260  26.747  0.00  0.00    -0.292 OA
BRANCH  24  26
ATOM     26  C23 6ZO d   1      20.976  36.932  24.672  0.00  0.00     0.013 A 
ATOM     27  C24 6ZO d   1      19.749  37.428  24.228  0.00  0.00    -0.034 A 
ATOM     28  C26 6ZO d   1      19.680  37.944  22.952  0.00  0.00     0.107 A 
ATOM     29  H6  6ZO d   1      18.875  37.408  24.869  0.00  0.00     0.089 H 
ATOM     30  O29 6ZO d   1      18.599  38.510  22.308  0.00  0.00    -0.270 OA
ATOM     31  C28 6ZO d   1      20.774  38.033  22.119  0.00  0.00     0.070 A 
ATOM     32  C30 6ZO d   1      19.077  38.891  21.086  0.00  0.00     0.301 A 
ATOM     33  O32 6ZO d   1      18.217  39.455  20.249  0.00  0.00    -0.143 OA
ATOM     34  N31 6ZO d   1      20.377  38.615  20.915  0.00  0.00    -0.311 N 
ATOM     35  H7  6ZO d   1      20.938  38.788  20.105  0.00  0.00     0.170 HD
ATOM     36  C27 6ZO d   1      22.008  37.547  22.554  0.00  0.00    -0.053 A 
ATOM     37  C25 6ZO d   1      22.096  36.991  23.824  0.00  0.00    -0.067 A 
ATOM     38  H8  6ZO d   1      22.881  37.602  21.913  0.00  0.00     0.087 H 
ATOM     39  H9  6ZO d   1      23.045  36.596  24.167  0.00  0.00     0.085 H 
ENDBRANCH  24  26
ENDBRANCH  21  24
ENDBRANCH  18  21
ENDBRANCH   1  18
BRANCH   7  40
ATOM     40  O8  6ZO d   1      26.843  30.733  27.215  0.00  0.00    -0.299 OA
BRANCH  40  41
ATOM     41  C7  6ZO d   1      28.142  30.119  26.962  0.00  0.00     0.054 C 
ATOM     42  H1  6ZO d   1      28.800  30.845  26.462  0.00  0.00     0.082 H 
ATOM     43  H2  6ZO d   1      28.594  29.811  27.916  0.00  0.00     0.082 H 
BRANCH  41  44
ATOM     44  C1  6ZO d   1      27.962  28.915  26.081  0.00  0.00    -0.031 A 
ATOM     45  C3  6ZO d   1      26.840  28.106  26.222  0.00  0.00    -0.054 A 
ATOM     46  C5  6ZO d   1      26.685  27.004  25.407  0.00  0.00     0.036 A 
ATOM     47  H4  6ZO d   1      26.090  28.340  26.969  0.00  0.00     0.087 H 
ATOM     48  C6  6ZO d   1      27.610  26.672  24.437  0.00  0.00    -0.041 A 
ATOM     49 CL19 6ZO d   1      25.268  26.014  25.595  0.00  0.00    -0.084 Cl
ATOM     50  C4  6ZO d   1      28.716  27.489  24.308  0.00  0.00     0.036 A 
ATOM     51  H3  6ZO d   1      27.473  25.804  23.802  0.00  0.00     0.088 H 
ATOM     52  C2  6ZO d   1      28.904  28.602  25.107  0.00  0.00    -0.054 A 
ATOM     53 CL18 6ZO d   1      29.894  27.122  23.082  0.00  0.00    -0.084 Cl
ATOM     54  H5  6ZO d   1      29.780  29.227  24.975  0.00  0.00     0.087 H 
ENDBRANCH  41  44
ENDBRANCH  40  41
ENDBRANCH   7  40
TORSDOF 7
