REMARK  9 active torsions:
REMARK  status: ('A' for Active; 'I' for Inactive)
REMARK    1  A    between atoms: O3B_8  and  PG_1 
REMARK    2  A    between atoms: PB_5  and  O3B_8 
REMARK    3  A    between atoms: O3A_12  and  PB_5 
REMARK    4  A    between atoms: PA_9  and  O3A_12 
REMARK    5  A    between atoms: PA_9  and  O5'_13 
REMARK    6  A    between atoms: O5'_13  and  C5'_14 
REMARK    7  A    between atoms: C5'_14  and  C4'_15 
REMARK    8  A    between atoms: C3'_17  and  O3'_18 
REMARK    9  A    between atoms: C1'_20  and  N9_21 
ROOT
ATOM      1  C4' DTP d   1     -72.750  47.714 -44.765  0.00  0.00     0.087 C 
ATOM      2  O4' DTP d   1     -71.962  46.597 -45.116  0.00  0.00    -0.356 OA
ATOM      3  C3' DTP d   1     -74.127  47.554 -45.489  0.00  0.00     0.066 C 
ATOM      4  C2' DTP d   1     -74.160  46.070 -45.813  0.00  0.00     0.002 C 
ATOM      5  C1' DTP d   1     -72.691  45.679 -45.899  0.00  0.00     0.115 C 
ATOM      6  H3  DTP d   1     -72.271  48.627 -45.148  0.00  0.00     0.090 H 
ATOM      7  H4  DTP d   1     -74.984  47.878 -44.880  0.00  0.00     0.087 H 
ATOM      8  H6  DTP d   1     -74.669  45.890 -46.771  0.00  0.00     0.043 H 
ATOM      9  H7  DTP d   1     -74.668  45.507 -45.016  0.00  0.00     0.043 H 
ATOM     10  H8  DTP d   1     -72.353  45.703 -46.946  0.00  0.00     0.118 H 
ENDROOT
BRANCH   1  11
ATOM     11  C5' DTP d   1     -72.816  47.837 -43.202  0.00  0.00     0.058 C 
ATOM     12  H1  DTP d   1     -71.801  47.813 -42.779  0.00  0.00     0.079 H 
ATOM     13  H2  DTP d   1     -73.309  48.779 -42.919  0.00  0.00     0.079 H 
BRANCH  11  14
ATOM     14  O5' DTP d   1     -73.573  46.725 -42.721  0.00  0.00    -0.287 OA
BRANCH  14  15
ATOM     15  PA  DTP d   1     -73.579  46.088 -41.269  0.00  0.00     0.417 P 
ATOM     16  O1A DTP d   1     -74.718  45.235 -41.027  0.00  0.00    -0.624 OA
ATOM     17  O2A DTP d   1     -73.588  47.320 -40.265  0.00  0.00    -0.624 OA
BRANCH  15  18
ATOM     18  O3A DTP d   1     -72.229  45.267 -41.042  0.00  0.00    -0.180 OA
BRANCH  18  19
ATOM     19  PB  DTP d   1     -70.729  45.649 -40.675  0.00  0.00     0.428 P 
ATOM     20  O1B DTP d   1     -69.807  45.300 -41.770  0.00  0.00    -0.624 OA
ATOM     21  O2B DTP d   1     -70.708  47.167 -40.347  0.00  0.00    -0.624 OA
BRANCH  19  22
ATOM     22  O3B DTP d   1     -70.480  44.923 -39.322  0.00  0.00    -0.173 OA
BRANCH  22  23
ATOM     23  PG  DTP d   1     -71.014  45.206 -37.839  0.00  0.00     0.431 P 
ATOM     24  O1G DTP d   1     -71.808  46.600 -37.780  0.00  0.00    -0.616 OA
ATOM     25  O2G DTP d   1     -69.705  45.324 -36.966  0.00  0.00    -0.616 OA
ATOM     26  O3G DTP d   1     -71.902  44.112 -37.334  0.00  0.00    -0.616 OA
ENDBRANCH  22  23
ENDBRANCH  19  22
ENDBRANCH  18  19
ENDBRANCH  15  18
ENDBRANCH  14  15
ENDBRANCH  11  14
ENDBRANCH   1  11
BRANCH   3  27
ATOM     27  O3' DTP d   1     -74.020  48.280 -46.679  0.00  0.00    -0.393 OA
ATOM     28  H5  DTP d   1     -73.840  49.191 -46.478  0.00  0.00     0.210 HD
ENDBRANCH   3  27
BRANCH   5  29
ATOM     29  N9  DTP d   1     -72.472  44.333 -45.323  0.00  0.00    -0.296 N 
ATOM     30  C8  DTP d   1     -71.781  43.947 -44.148  0.00  0.00     0.070 A 
ATOM     31  N7  DTP d   1     -71.739  42.629 -43.976  0.00  0.00    -0.236 NA
ATOM     32  H9  DTP d   1     -71.330  44.657 -43.456  0.00  0.00     0.144 H 
ATOM     33  C5  DTP d   1     -72.429  42.113 -45.077  0.00  0.00     0.149 A 
ATOM     34  C6  DTP d   1     -72.719  40.772 -45.493  0.00  0.00     0.155 A 
ATOM     35  C4  DTP d   1     -72.900  43.153 -45.925  0.00  0.00     0.167 A 
ATOM     36  N6  DTP d   1     -72.316  39.711 -44.743  0.00  0.00    -0.382 N 
ATOM     37  N1  DTP d   1     -73.419  40.539 -46.666  0.00  0.00    -0.222 NA
ATOM     38  H10 DTP d   1     -72.530  38.752 -45.051  0.00  0.00     0.157 HD
ATOM     39  H11 DTP d   1     -71.797  39.867 -43.867  0.00  0.00     0.157 HD
ATOM     40  C2  DTP d   1     -73.816  41.644 -47.382  0.00  0.00     0.091 A 
ATOM     41  N3  DTP d   1     -73.613  42.969 -47.112  0.00  0.00    -0.222 NA
ATOM     42  H12 DTP d   1     -74.369  41.435 -48.291  0.00  0.00     0.146 H 
ENDBRANCH   5  29
TORSDOF 9
