REMARK  8 active torsions:
REMARK  status: ('A' for Active; 'I' for Inactive)
REMARK    1  A    between atoms: C02_2  and  C04_4 
REMARK    2  A    between atoms: C04_4  and  C05_5 
REMARK    3  A    between atoms: C04_4  and  C09_9 
REMARK    4  A    between atoms: C05_5  and  C06_6 
REMARK    5  A    between atoms: C06_6  and  C07_7 
REMARK    6  A    between atoms: C06_6  and  C08_8 
REMARK    7  A    between atoms: C09_9  and  S10_10 
REMARK    8  A    between atoms: C09_9  and  C11_11 
ROOT
ATOM      1  C04 O2S d   1      71.328 -51.210  13.831  0.00  0.00     0.042 C 
ATOM      2  H1  O2S d   1      70.664 -52.016  14.176  0.00  0.00     0.058 H 
ENDROOT
BRANCH   1   3
ATOM      3  C02 O2S d   1      71.328 -51.278  12.336  0.00  0.00     0.178 C 
ATOM      4  O01 O2S d   1      70.603 -52.192  11.945  0.00  0.00    -0.648 OA
ATOM      5  O03 O2S d   1      71.933 -50.462  11.586  0.00  0.00    -0.648 OA
ENDBRANCH   1   3
BRANCH   1   6
ATOM      6  C05 O2S d   1      72.673 -51.454  14.504  0.00  0.00    -0.049 C 
ATOM      7  H2  O2S d   1      72.537 -52.370  15.098  0.00  0.00     0.034 H 
ATOM      8  H3  O2S d   1      72.819 -50.597  15.178  0.00  0.00     0.034 H 
BRANCH   6   9
ATOM      9  C06 O2S d   1      73.996 -51.632  13.795  0.00  0.00    -0.060 C 
ATOM     10  H4  O2S d   1      74.117 -50.729  13.179  0.00  0.00     0.038 H 
BRANCH   9  11
ATOM     11  C07 O2S d   1      75.167 -51.663  14.795  0.00  0.00    -0.073 C 
ATOM     12  H5  O2S d   1      76.113 -51.793  14.248  0.00  0.00     0.028 H 
ATOM     13  H6  O2S d   1      75.030 -52.501  15.495  0.00  0.00     0.028 H 
ATOM     14  H7  O2S d   1      75.195 -50.717  15.356  0.00  0.00     0.028 H 
ENDBRANCH   9  11
BRANCH   9  15
ATOM     15  C08 O2S d   1      74.157 -52.821  12.832  0.00  0.00    -0.073 C 
ATOM     16  H8  O2S d   1      73.330 -52.820  12.107  0.00  0.00     0.028 H 
ATOM     17  H9  O2S d   1      74.142 -53.761  13.404  0.00  0.00     0.028 H 
ATOM     18  H10 O2S d   1      75.114 -52.733  12.297  0.00  0.00     0.028 H 
ENDBRANCH   9  15
ENDBRANCH   6   9
ENDBRANCH   1   6
BRANCH   1  19
ATOM     19  C09 O2S d   1      70.706 -49.867  14.304  0.00  0.00    -0.002 C 
ATOM     20  H11 O2S d   1      71.529 -49.190  14.577  0.00  0.00     0.057 H 
BRANCH  19  21
ATOM     21  S10 O2S d   1      69.603 -49.006  13.190  0.00  0.00    -0.177 SA
ATOM     22  H12 O2S d   1      69.279 -48.158  13.628  0.00  0.00     0.102 HD
ENDBRANCH  19  21
BRANCH  19  23
ATOM     23  C11 O2S d   1      69.814 -50.174  15.529  0.00  0.00    -0.064 C 
ATOM     24  H13 O2S d   1      69.356 -49.242  15.892  0.00  0.00     0.029 H 
ATOM     25  H14 O2S d   1      70.428 -50.616  16.328  0.00  0.00     0.029 H 
ATOM     26  H15 O2S d   1      69.024 -50.882  15.239  0.00  0.00     0.029 H 
ENDBRANCH  19  23
ENDBRANCH   1  19
TORSDOF 8
