REMARK  10 active torsions:
REMARK  status: ('A' for Active; 'I' for Inactive)
REMARK    1  A    between atoms: N_24  and  C5_2 
REMARK    2  A    between atoms: C7_5  and  N2_7 
REMARK    3  A    between atoms: N2_7  and  C8_6 
REMARK    4  A    between atoms: C11_10  and  N3_12 
REMARK       I    between atoms: N3_12  and  C12_11 
REMARK    5  A    between atoms: C12_11  and  C13_13 
REMARK    6  A    between atoms: C16_36  and  N4_16 
REMARK       I    between atoms: N4_16  and  C17_37 
REMARK    7  A    between atoms: N6_21  and  C26_22 
REMARK    8  A    between atoms: C1_27  and  C_28 
REMARK    9  A    between atoms: C17_37  and  C18_39 
REMARK   10  A    between atoms: C18_39  and  C19_40 
ROOT
ATOM      1  C8  9YQ d   1      33.207  -8.570  -1.416  0.00  0.00     0.049 A 
ATOM      2  C9  9YQ d   1      34.255  -8.334  -0.529  0.00  0.00    -0.054 A 
ATOM      3  C10 9YQ d   1      35.502  -8.898  -0.752  0.00  0.00    -0.055 A 
ATOM      4  C11 9YQ d   1      35.721  -9.701  -1.866  0.00  0.00     0.035 A 
ATOM      5  C23 9YQ d   1      33.434  -9.368  -2.533  0.00  0.00    -0.054 A 
ATOM      6  C22 9YQ d   1      34.681  -9.922  -2.758  0.00  0.00    -0.055 A 
ATOM      7  H5  9YQ d   1      34.095  -7.706   0.340  0.00  0.00     0.087 H 
ATOM      8  H6  9YQ d   1      36.310  -8.712  -0.054  0.00  0.00     0.087 H 
ATOM      9  H21 9YQ d   1      32.627  -9.557  -3.232  0.00  0.00     0.087 H 
ATOM     10  H22 9YQ d   1      34.847 -10.533  -3.638  0.00  0.00     0.087 H 
ENDROOT
BRANCH   1  11
ATOM     11  N2  9YQ d   1      31.930  -7.987  -1.164  0.00  0.00    -0.188 N 
ATOM     12  H4  9YQ d   1      31.893  -7.441  -0.291  0.00  0.00     0.184 HD
BRANCH  11  13
ATOM     13  C7  9YQ d   1      30.738  -8.005  -1.849  0.00  0.00     0.728 A 
ATOM     14  N1  9YQ d   1      30.682  -8.672  -3.013  0.00  0.00    -0.042 NA
ATOM     15  C6  9YQ d   1      29.515  -8.659  -3.675  0.00  0.00     0.177 A 
ATOM     16  C25 9YQ d   1      28.379  -7.970  -3.169  0.00  0.00     0.102 A 
ATOM     17  N   9YQ d   1      29.427  -9.373  -4.884  0.00  0.00    -0.333 N 
ATOM     18  N6  9YQ d   1      27.132  -7.846  -3.850  0.00  0.00    -0.314 N 
ATOM     19  C24 9YQ d   1      28.565  -7.343  -1.937  0.00  0.00     0.051 A 
ATOM     20  C27 9YQ d   1      26.478  -8.838  -4.555  0.00  0.00     0.260 C 
ATOM     21  O2  9YQ d   1      25.379  -8.623  -5.032  0.00  0.00    -0.267 OA
ATOM     22  C3  9YQ d   1      27.102 -10.192  -4.710  0.00  0.00     0.059 A 
ATOM     23  C4  9YQ d   1      28.480 -10.438  -4.847  0.00  0.00     0.051 A 
ATOM     24  C2  9YQ d   1      26.218 -11.276  -4.747  0.00  0.00    -0.060 A 
ATOM     25  C28 9YQ d   1      28.934 -11.751  -4.975  0.00  0.00    -0.056 A 
ATOM     26  C29 9YQ d   1      28.031 -12.800  -4.999  0.00  0.00    -0.075 A 
ATOM     27  H15 9YQ d   1      29.997 -11.950  -5.056  0.00  0.00     0.087 H 
ATOM     28  C1  9YQ d   1      26.665 -12.583  -4.904  0.00  0.00    -0.061 A 
ATOM     29  H16 9YQ d   1      28.401 -13.815  -5.094  0.00  0.00     0.084 H 
ATOM     30  H11 9YQ d   1      25.154 -11.091  -4.651  0.00  0.00     0.086 H 
ATOM     31  N5  9YQ d   1      29.729  -7.335  -1.271  0.00  0.00    -0.073 NA
ATOM     32  H20 9YQ d   1      27.719  -6.832  -1.492  0.00  0.00     0.119 H 
BRANCH  18  33
ATOM     33  C26 9YQ d   1      26.429  -6.563  -3.800  0.00  0.00    -0.011 C 
ATOM     34  H12 9YQ d   1      25.492  -6.636  -4.371  0.00  0.00     0.057 H 
ATOM     35  H13 9YQ d   1      27.065  -5.779  -4.237  0.00  0.00     0.057 H 
ATOM     36  H14 9YQ d   1      26.202  -6.310  -2.754  0.00  0.00     0.057 H 
ENDBRANCH  18  33
BRANCH  28  37
ATOM     37  C   9YQ d   1      25.688 -13.725  -5.034  0.00  0.00    -0.051 C 
ATOM     38  H17 9YQ d   1      24.662 -13.343  -4.929  0.00  0.00     0.033 H 
ATOM     39  H18 9YQ d   1      25.885 -14.468  -4.247  0.00  0.00     0.033 H 
ATOM     40  H19 9YQ d   1      25.805 -14.197  -6.021  0.00  0.00     0.033 H 
ENDBRANCH  28  37
BRANCH  17  41
ATOM     41  C5  9YQ d   1      30.640  -9.525  -5.694  0.00  0.00    -0.012 C 
ATOM     42  H1  9YQ d   1      30.406 -10.103  -6.600  0.00  0.00     0.057 H 
ATOM     43  H2  9YQ d   1      31.407 -10.054  -5.110  0.00  0.00     0.057 H 
ATOM     44  H3  9YQ d   1      31.017  -8.532  -5.980  0.00  0.00     0.057 H 
ENDBRANCH  17  41
ENDBRANCH  11  13
ENDBRANCH   1  11
BRANCH   4  45
ATOM     45  N3  9YQ d   1      36.947 -10.365  -2.126  0.00  0.00    -0.323 N 
ATOM     46  C12 9YQ d   1      38.207  -9.945  -1.840  0.00  0.00     0.256 C 
ATOM     47  O1  9YQ d   1      38.481  -8.792  -1.512  0.00  0.00    -0.267 OA
ATOM     48  H7  9YQ d   1      36.875 -11.255  -2.577  0.00  0.00     0.169 HD
BRANCH  46  49
ATOM     49  C13 9YQ d   1      39.273 -10.987  -1.959  0.00  0.00     0.032 A 
ATOM     50  C14 9YQ d   1      39.153 -12.161  -1.222  0.00  0.00    -0.066 A 
ATOM     51  C15 9YQ d   1      40.062 -13.192  -1.379  0.00  0.00    -0.056 A 
ATOM     52  H8  9YQ d   1      38.337 -12.269  -0.516  0.00  0.00     0.085 H 
ATOM     53  C16 9YQ d   1      41.114 -13.072  -2.283  0.00  0.00     0.034 A 
ATOM     54  H9  9YQ d   1      39.955 -14.099  -0.795  0.00  0.00     0.086 H 
ATOM     55  C20 9YQ d   1      41.262 -11.884  -2.996  0.00  0.00    -0.056 A 
ATOM     56  C21 9YQ d   1      40.349 -10.855  -2.836  0.00  0.00    -0.066 A 
ATOM     57  H24 9YQ d   1      42.095 -11.765  -3.679  0.00  0.00     0.086 H 
ATOM     58  H23 9YQ d   1      40.472  -9.937  -3.399  0.00  0.00     0.085 H 
BRANCH  53  59
ATOM     59  N4  9YQ d   1      42.022 -14.137  -2.526  0.00  0.00    -0.327 N 
ATOM     60  C17 9YQ d   1      42.036 -15.377  -1.969  0.00  0.00     0.221 C 
ATOM     61  O   9YQ d   1      41.599 -15.637  -0.849  0.00  0.00    -0.273 OA
ATOM     62  H10 9YQ d   1      42.744 -13.951  -3.193  0.00  0.00     0.169 HD
BRANCH  60  63
ATOM     63  C18 9YQ d   1      42.642 -16.427  -2.864  0.00  0.00     0.006 C 
ATOM     64  H25 9YQ d   1      42.579 -16.077  -3.905  0.00  0.00     0.046 H 
ATOM     65  H26 9YQ d   1      42.064 -17.356  -2.754  0.00  0.00     0.046 H 
BRANCH  63  66
ATOM     66  C19 9YQ d   1      44.108 -16.725  -2.539  0.00  0.00    -0.068 C 
ATOM     67  H27 9YQ d   1      44.486 -17.496  -3.226  0.00  0.00     0.028 H 
ATOM     68  H28 9YQ d   1      44.188 -17.086  -1.503  0.00  0.00     0.028 H 
ATOM     69  H29 9YQ d   1      44.703 -15.807  -2.654  0.00  0.00     0.028 H 
ENDBRANCH  63  66
ENDBRANCH  60  63
ENDBRANCH  53  59
ENDBRANCH  46  49
ENDBRANCH   4  45
TORSDOF 10
