REMARK  7 active torsions:
REMARK  status: ('A' for Active; 'I' for Inactive)
REMARK    1  A    between atoms: C2_2  and  C11_11 
REMARK    2  A    between atoms: C3_3  and  O7_7 
REMARK    3  A    between atoms: C6_6  and  N10_10 
REMARK    4  A    between atoms: O7_7  and  C8_8 
REMARK    5  A    between atoms: C8_8  and  C9_9 
REMARK       I    between atoms: C11_11  and  N12_12 
REMARK    6  A    between atoms: N12_12  and  C14_14 
REMARK    7  A    between atoms: N27_27  and  C30_30 
ROOT
ATOM      1  C1  A0Q d   1       0.980  -4.625  19.452  0.00  0.00    -0.039 A 
ATOM      2  C2  A0Q d   1       1.951  -4.948  18.548  0.00  0.00     0.067 A 
ATOM      3  C3  A0Q d   1       1.582  -5.768  17.478  0.00  0.00     0.085 A 
ATOM      4  C4  A0Q d   1       0.285  -6.225  17.385  0.00  0.00    -0.048 A 
ATOM      5  C5  A0Q d   1      -0.719  -5.877  18.316  0.00  0.00    -0.055 A 
ATOM      6  C6  A0Q d   1      -0.340  -5.061  19.376  0.00  0.00     0.031 A 
ATOM      7  H1  A0Q d   1       1.255  -3.987  20.284  0.00  0.00     0.088 H 
ATOM      8  H2  A0Q d   1       0.024  -6.880  16.562  0.00  0.00     0.087 H 
ATOM      9  H3  A0Q d   1      -1.738  -6.230  18.209  0.00  0.00     0.087 H 
ENDROOT
BRANCH   6  10
ATOM     10  N10 A0Q d   1      -1.266  -4.706  20.442  0.00  0.00    -0.378 N 
ATOM     11  C25 A0Q d   1      -0.678  -4.220  21.721  0.00  0.00     0.018 C 
ATOM     12  C26 A0Q d   1      -1.718  -3.443  22.562  0.00  0.00     0.098 C 
ATOM     13  H16 A0Q d   1       0.169  -3.555  21.496  0.00  0.00     0.066 H 
ATOM     14  H17 A0Q d   1      -0.322  -5.083  22.302  0.00  0.00     0.066 H 
ATOM     15  N27 A0Q d   1      -2.926  -4.240  22.673  0.00  0.00    -0.072 N 
ATOM     16  H18 A0Q d   1      -1.951  -2.487  22.070  0.00  0.00     0.078 H 
ATOM     17  H19 A0Q d   1      -1.311  -3.249  23.565  0.00  0.00     0.078 H 
ATOM     18  C28 A0Q d   1      -3.530  -4.421  21.340  0.00  0.00     0.098 C 
ATOM     19  H20 A0Q d   1      -2.696  -5.146  23.049  0.00  0.00     0.279 HD
ATOM     20  C29 A0Q d   1      -2.631  -5.259  20.469  0.00  0.00     0.018 C 
ATOM     21  H21 A0Q d   1      -3.675  -3.437  20.871  0.00  0.00     0.078 H 
ATOM     22  H22 A0Q d   1      -4.503  -4.923  21.447  0.00  0.00     0.078 H 
ATOM     23  H23 A0Q d   1      -2.597  -6.284  20.866  0.00  0.00     0.066 H 
ATOM     24  H24 A0Q d   1      -3.034  -5.276  19.445  0.00  0.00     0.066 H 
BRANCH  15  25
ATOM     25  C30 A0Q d   1      -3.844  -3.551  23.602  0.00  0.00     0.066 C 
ATOM     26  H25 A0Q d   1      -3.357  -3.436  24.581  0.00  0.00     0.068 H 
ATOM     27  H26 A0Q d   1      -4.763  -4.145  23.717  0.00  0.00     0.068 H 
ATOM     28  H27 A0Q d   1      -4.096  -2.559  23.200  0.00  0.00     0.068 H 
ENDBRANCH  15  25
ENDBRANCH   6  10
BRANCH   2  29
ATOM     29  C11 A0Q d   1       3.349  -4.443  18.774  0.00  0.00     0.259 C 
ATOM     30  N12 A0Q d   1       4.397  -4.977  18.062  0.00  0.00    -0.322 N 
ATOM     31  H6  A0Q d   1       4.192  -5.847  17.613  0.00  0.00     0.169 HD
ATOM     32  O13 A0Q d   1       3.532  -3.555  19.604  0.00  0.00    -0.267 OA
BRANCH  30  33
ATOM     33  C14 A0Q d   1       5.719  -4.507  17.854  0.00  0.00     0.052 A 
ATOM     34  C15 A0Q d   1       6.278  -3.449  18.487  0.00  0.00    -0.054 A 
ATOM     35  C16 A0Q d   1       7.557  -3.013  18.240  0.00  0.00    -0.064 A 
ATOM     36  H7  A0Q d   1       5.687  -2.920  19.226  0.00  0.00     0.087 H 
ATOM     37  C17 A0Q d   1       8.328  -3.661  17.283  0.00  0.00     0.002 A 
ATOM     38  H8  A0Q d   1       7.962  -2.170  18.788  0.00  0.00     0.085 H 
ATOM     39  N18 A0Q d   1       7.798  -4.736  16.688  0.00  0.00    -0.271 NA
ATOM     40  H9  A0Q d   1       9.321  -3.309  17.028  0.00  0.00     0.114 H 
ATOM     41  C19 A0Q d   1       6.535  -5.142  16.903  0.00  0.00     0.028 A 
ATOM     42  H10 A0Q d   1       6.139  -5.974  16.332  0.00  0.00     0.118 H 
ENDBRANCH  30  33
ENDBRANCH   2  29
BRANCH   3  43
ATOM     43  O7  A0Q d   1       2.539  -6.103  16.572  0.00  0.00    -0.346 OA
BRANCH  43  44
ATOM     44  C8  A0Q d   1       2.238  -7.036  15.434  0.00  0.00     0.050 C 
ATOM     45  H4  A0Q d   1       1.605  -6.550  14.678  0.00  0.00     0.082 H 
ATOM     46  H5  A0Q d   1       1.745  -7.952  15.790  0.00  0.00     0.082 H 
BRANCH  44  47
ATOM     47  C9  A0Q d   1       3.663  -7.344  14.866  0.00  0.00    -0.034 A 
ATOM     48  C20 A0Q d   1       4.211  -6.464  13.929  0.00  0.00    -0.075 A 
ATOM     49  C21 A0Q d   1       5.505  -6.670  13.417  0.00  0.00    -0.082 A 
ATOM     50  H11 A0Q d   1       3.632  -5.612  13.592  0.00  0.00     0.084 H 
ATOM     51  C22 A0Q d   1       6.273  -7.783  13.808  0.00  0.00    -0.083 A 
ATOM     52  H12 A0Q d   1       5.918  -5.960  12.710  0.00  0.00     0.083 H 
ATOM     53  C23 A0Q d   1       5.702  -8.661  14.758  0.00  0.00    -0.082 A 
ATOM     54  H13 A0Q d   1       7.261  -7.960  13.398  0.00  0.00     0.083 H 
ATOM     55  C24 A0Q d   1       4.413  -8.456  15.271  0.00  0.00    -0.075 A 
ATOM     56  H14 A0Q d   1       6.276  -9.515  15.099  0.00  0.00     0.083 H 
ATOM     57  H15 A0Q d   1       3.996  -9.159  15.982  0.00  0.00     0.084 H 
ENDBRANCH  44  47
ENDBRANCH  43  44
ENDBRANCH   3  43
TORSDOF 7
