REMARK  6 active torsions:
REMARK  status: ('A' for Active; 'I' for Inactive)
REMARK    1  A    between atoms: N03_3  and  C04_4 
REMARK    2  A    between atoms: C10_10  and  O11_11 
REMARK    3  A    between atoms: C12_12  and  C13_13 
REMARK       I    between atoms: C13_13  and  N14_14 
REMARK    4  A    between atoms: N14_14  and  C15_15 
REMARK    5  A    between atoms: C15_15  and  C16_16 
REMARK    6  A    between atoms: N21_21  and  C22_22 
ROOT
ATOM      1  O01 A0W d   1     -15.846  21.434  -1.136  0.00  0.00    -0.246 OA
ATOM      2  C02 A0W d   1     -16.079  21.514  -2.316  0.00  0.00     0.334 A 
ATOM      3  N03 A0W d   1     -15.834  20.353  -3.174  0.00  0.00    -0.274 N 
ATOM      4  C10 A0W d   1     -16.103  20.422  -4.576  0.00  0.00     0.168 A 
ATOM      5  C12 A0W d   1     -16.633  21.695  -5.128  0.00  0.00     0.151 A 
ATOM      6  C20 A0W d   1     -16.868  22.856  -4.254  0.00  0.00     0.272 A 
ATOM      7  N21 A0W d   1     -16.599  22.768  -2.865  0.00  0.00    -0.260 N 
ATOM      8  O28 A0W d   1     -17.297  23.882  -4.726  0.00  0.00    -0.267 OA
ENDROOT
BRANCH   3   9
ATOM      9  C04 A0W d   1     -15.311  19.158  -2.495  0.00  0.00     0.023 C 
ATOM     10  C05 A0W d   1     -16.040  17.973  -3.088  0.00  0.00    -0.045 C 
ATOM     11  C06 A0W d   1     -15.683  16.718  -2.300  0.00  0.00    -0.063 C 
ATOM     12  H2  A0W d   1     -15.740  17.845  -4.139  0.00  0.00     0.036 H 
ATOM     13  H3  A0W d   1     -17.125  18.145  -3.034  0.00  0.00     0.036 H 
ATOM     14  C07 A0W d   1     -14.190  16.502  -2.198  0.00  0.00    -0.065 C 
ATOM     15  H4  A0W d   1     -16.132  15.848  -2.801  0.00  0.00     0.033 H 
ATOM     16  H5  A0W d   1     -16.096  16.810  -1.285  0.00  0.00     0.033 H 
ATOM     17  C08 A0W d   1     -13.419  17.747  -1.774  0.00  0.00    -0.063 C 
ATOM     18  H6  A0W d   1     -13.817  16.181  -3.182  0.00  0.00     0.033 H 
ATOM     19  H7  A0W d   1     -14.003  15.709  -1.459  0.00  0.00     0.033 H 
ATOM     20  C09 A0W d   1     -13.821  18.974  -2.576  0.00  0.00    -0.045 C 
ATOM     21  H8  A0W d   1     -12.344  17.565  -1.921  0.00  0.00     0.033 H 
ATOM     22  H9  A0W d   1     -13.616  17.940  -0.709  0.00  0.00     0.033 H 
ATOM     23  H10 A0W d   1     -13.319  19.862  -2.165  0.00  0.00     0.036 H 
ATOM     24  H11 A0W d   1     -13.525  18.839  -3.627  0.00  0.00     0.036 H 
ATOM     25  H1  A0W d   1     -15.569  19.235  -1.428  0.00  0.00     0.073 H 
ENDBRANCH   3   9
BRANCH   4  26
ATOM     26  O11 A0W d   1     -15.879  19.332  -5.421  0.00  0.00    -0.345 OA
ATOM     27  H12 A0W d   1     -16.115  19.568  -6.310  0.00  0.00     0.219 HD
ENDBRANCH   4  26
BRANCH   7  28
ATOM     28  C22 A0W d   1     -16.823  23.899  -1.990  0.00  0.00     0.024 C 
ATOM     29  C23 A0W d   1     -15.415  24.287  -1.605  0.00  0.00    -0.045 C 
ATOM     30  C24 A0W d   1     -15.386  25.411  -0.589  0.00  0.00    -0.063 C 
ATOM     31  H17 A0W d   1     -14.878  24.613  -2.508  0.00  0.00     0.036 H 
ATOM     32  H18 A0W d   1     -14.911  23.409  -1.175  0.00  0.00     0.036 H 
ATOM     33  C25 A0W d   1     -16.245  25.110   0.610  0.00  0.00    -0.065 C 
ATOM     34  H19 A0W d   1     -15.753  26.331  -1.067  0.00  0.00     0.033 H 
ATOM     35  H20 A0W d   1     -14.349  25.560  -0.254  0.00  0.00     0.033 H 
ATOM     36  C26 A0W d   1     -17.651  24.727   0.215  0.00  0.00    -0.063 C 
ATOM     37  H21 A0W d   1     -16.287  26.003   1.251  0.00  0.00     0.033 H 
ATOM     38  H22 A0W d   1     -15.794  24.278   1.170  0.00  0.00     0.033 H 
ATOM     39  C27 A0W d   1     -17.667  23.589  -0.785  0.00  0.00    -0.045 C 
ATOM     40  H23 A0W d   1     -18.145  25.602  -0.234  0.00  0.00     0.033 H 
ATOM     41  H24 A0W d   1     -18.201  24.417   1.115  0.00  0.00     0.033 H 
ATOM     42  H25 A0W d   1     -17.277  22.682  -0.300  0.00  0.00     0.036 H 
ATOM     43  H26 A0W d   1     -18.703  23.414  -1.110  0.00  0.00     0.036 H 
ATOM     44  H16 A0W d   1     -17.308  24.714  -2.546  0.00  0.00     0.073 H 
ENDBRANCH   7  28
BRANCH   5  45
ATOM     45  C13 A0W d   1     -16.943  21.880  -6.623  0.00  0.00     0.262 C 
ATOM     46  N14 A0W d   1     -17.308  23.200  -7.050  0.00  0.00    -0.347 N 
ATOM     47  H13 A0W d   1     -17.352  23.936  -6.374  0.00  0.00     0.163 HD
ATOM     48  O19 A0W d   1     -16.871  20.957  -7.405  0.00  0.00    -0.267 OA
BRANCH  46  49
ATOM     49  C15 A0W d   1     -17.613  23.494  -8.431  0.00  0.00     0.075 C 
ATOM     50  H14 A0W d   1     -18.476  22.895  -8.759  0.00  0.00     0.080 H 
ATOM     51  H15 A0W d   1     -16.744  23.261  -9.063  0.00  0.00     0.080 H 
BRANCH  49  52
ATOM     52  C16 A0W d   1     -17.948  24.994  -8.533  0.00  0.00     0.191 C 
ATOM     53  O17 A0W d   1     -18.572  25.446  -9.541  0.00  0.00    -0.647 OA
ATOM     54  O18 A0W d   1     -17.608  25.777  -7.603  0.00  0.00    -0.647 OA
ENDBRANCH  49  52
ENDBRANCH  46  49
ENDBRANCH   5  45
TORSDOF 6
