REMARK  3 active torsions:
REMARK  status: ('A' for Active; 'I' for Inactive)
REMARK    1  A    between atoms: C03_3  and  N04_4 
REMARK    2  A    between atoms: N11_11  and  C12_12 
REMARK    3  A    between atoms: C16_16  and  N17_17 
ROOT
ATOM      1  C12 A1H d   1     -17.837  19.889  -5.736  0.00  0.00     0.157 A 
ATOM      2  N13 A1H d   1     -17.094  18.704  -5.751  0.00  0.00    -0.222 NA
ATOM      3  C14 A1H d   1     -17.118  17.889  -4.716  0.00  0.00     0.091 A 
ATOM      4  N15 A1H d   1     -17.836  18.163  -3.621  0.00  0.00    -0.224 NA
ATOM      5  C16 A1H d   1     -18.602  19.322  -3.512  0.00  0.00     0.130 A 
ATOM      6  C23 A1H d   1     -18.615  20.227  -4.588  0.00  0.00     0.007 A 
ATOM      7  H5  A1H d   1     -16.541  16.972  -4.753  0.00  0.00     0.146 H 
ATOM      8  H14 A1H d   1     -19.192  21.144  -4.547  0.00  0.00     0.095 H 
ENDROOT
BRANCH   1   9
ATOM      9  N11 A1H d   1     -17.809  20.755  -6.840  0.00  0.00    -0.200 N 
ATOM     10  C02 A1H d   1     -18.368  22.066  -6.937  0.00  0.00     0.298 A 
ATOM     11  O01 A1H d   1     -18.955  22.633  -6.091  0.00  0.00    -0.263 OA
ATOM     12  C03 A1H d   1     -18.082  22.573  -8.262  0.00  0.00     0.146 A 
ATOM     13  C09 A1H d   1     -17.336  21.555  -8.981  0.00  0.00     0.028 A 
ATOM     14  N10 A1H d   1     -17.172  20.450  -8.108  0.00  0.00    -0.298 N 
ATOM     15  H3  A1H d   1     -16.970  21.627 -10.004  0.00  0.00     0.117 H 
ATOM     16  H4  A1H d   1     -16.681  19.574  -8.336  0.00  0.00     0.186 HD
BRANCH  12  17
ATOM     17  N04 A1H d   1     -18.456  23.884  -8.813  0.00  0.00    -0.218 N 
ATOM     18  C05 A1H d   1     -19.157  24.101  -9.958  0.00  0.00     0.025 A 
ATOM     19  C06 A1H d   1     -19.284  25.474 -10.117  0.00  0.00     0.042 A 
ATOM     20  H1  A1H d   1     -19.548  23.337 -10.628  0.00  0.00     0.117 H 
ATOM     21  N07 A1H d   1     -18.693  26.044  -9.133  0.00  0.00    -0.143 NA
ATOM     22  H2  A1H d   1     -19.796  25.979 -10.935  0.00  0.00     0.119 H 
ATOM     23  N08 A1H d   1     -18.157  25.026  -8.292  0.00  0.00    -0.061 NA
ENDBRANCH  12  17
ENDBRANCH   1   9
BRANCH   5  24
ATOM     24  N17 A1H d   1     -19.359  19.598  -2.335  0.00  0.00    -0.362 N 
ATOM     25  C18 A1H d   1     -20.457  18.777  -2.030  0.00  0.00     0.016 C 
ATOM     26  C19 A1H d   1     -20.834  18.861  -0.538  0.00  0.00     0.034 C 
ATOM     27  H6  A1H d   1     -20.202  17.735  -2.275  0.00  0.00     0.067 H 
ATOM     28  H7  A1H d   1     -21.319  19.096  -2.634  0.00  0.00     0.067 H 
ATOM     29  O20 A1H d   1     -20.958  20.205  -0.044  0.00  0.00    -0.388 OA
ATOM     30  H8  A1H d   1     -20.055  18.348   0.045  0.00  0.00     0.076 H 
ATOM     31  H9  A1H d   1     -21.797  18.349  -0.395  0.00  0.00     0.076 H 
ATOM     32  C21 A1H d   1     -19.989  21.123  -0.497  0.00  0.00     0.034 C 
ATOM     33  C22 A1H d   1     -19.579  20.938  -1.988  0.00  0.00     0.016 C 
ATOM     34  H10 A1H d   1     -19.089  21.009   0.125  0.00  0.00     0.076 H 
ATOM     35  H11 A1H d   1     -20.393  22.139  -0.374  0.00  0.00     0.076 H 
ATOM     36  H12 A1H d   1     -20.383  21.337  -2.624  0.00  0.00     0.067 H 
ATOM     37  H13 A1H d   1     -18.653  21.503  -2.169  0.00  0.00     0.067 H 
ENDBRANCH   5  24
TORSDOF 3
