REMARK  7 active torsions:
REMARK  status: ('A' for Active; 'I' for Inactive)
REMARK    1  A    between atoms: C2_4  and  C1_1 
REMARK    2  A    between atoms: C7_14  and  N1_2 
REMARK    3  A    between atoms: C15_22  and  O2_6 
REMARK    4  A    between atoms: O2_6  and  C16_23 
REMARK    5  A    between atoms: C5_11  and  C6_13 
REMARK    6  A    between atoms: C11_18  and  C9_16 
REMARK    7  A    between atoms: C16_23  and  C17_24 
ROOT
ATOM      1  N2  A1N d   1       2.109  -5.711  17.267  0.00  0.00    -0.240 NA
ATOM      2  N3  A1N d   1      -0.140  -5.910  17.912  0.00  0.00    -0.225 NA
ATOM      3  C7  A1N d   1       0.128  -5.150  18.998  0.00  0.00     0.129 A 
ATOM      4  C8  A1N d   1       1.367  -4.624  19.196  0.00  0.00    -0.009 A 
ATOM      5  C9  A1N d   1       2.377  -4.923  18.312  0.00  0.00     0.090 A 
ATOM      6  C10 A1N d   1       0.881  -6.113  17.090  0.00  0.00     0.089 A 
ATOM      7  H14 A1N d   1       1.556  -3.975  20.043  0.00  0.00     0.093 H 
ATOM      8  H15 A1N d   1       0.674  -6.668  16.182  0.00  0.00     0.146 H 
ENDROOT
BRANCH   5   9
ATOM      9  C11 A1N d   1       3.734  -4.432  18.446  0.00  0.00     0.091 A 
ATOM     10  N4  A1N d   1       4.053  -3.513  19.348  0.00  0.00    -0.275 N 
ATOM     11  N5  A1N d   1       5.365  -3.201  19.200  0.00  0.00    -0.174 NA
ATOM     12  H9  A1N d   1       3.412  -3.105  20.044  0.00  0.00     0.189 HD
ATOM     13  C12 A1N d   1       5.927  -3.930  18.206  0.00  0.00     0.089 A 
ATOM     14  C13 A1N d   1       7.214  -3.906  17.694  0.00  0.00    -0.050 A 
ATOM     15  C21 A1N d   1       4.892  -4.738  17.679  0.00  0.00     0.028 A 
ATOM     16  C14 A1N d   1       7.471  -4.767  16.632  0.00  0.00    -0.048 A 
ATOM     17  H16 A1N d   1       7.979  -3.252  18.099  0.00  0.00     0.087 H 
ATOM     18  C15 A1N d   1       6.461  -5.586  16.108  0.00  0.00     0.071 A 
ATOM     19  H17 A1N d   1       8.466  -4.805  16.204  0.00  0.00     0.087 H 
ATOM     20  C20 A1N d   1       5.175  -5.585  16.589  0.00  0.00    -0.036 A 
ATOM     21  H23 A1N d   1       4.408  -6.211  16.148  0.00  0.00     0.089 H 
BRANCH  18  22
ATOM     22  O2  A1N d   1       6.818  -6.400  15.011  0.00  0.00    -0.333 OA
BRANCH  22  23
ATOM     23  C16 A1N d   1       5.792  -6.849  14.134  0.00  0.00     0.099 A 
ATOM     24  C18 A1N d   1       6.191  -8.154  13.585  0.00  0.00    -0.067 A 
ATOM     25  C19 A1N d   1       5.002  -8.057  14.473  0.00  0.00    -0.067 A 
ATOM     26  H21 A1N d   1       6.865  -8.753  12.974  0.00  0.00     0.081 H 
ATOM     27  H22 A1N d   1       4.167  -8.527  14.991  0.00  0.00     0.081 H 
BRANCH  23  28
ATOM     28  C17 A1N d   1       5.145  -5.724  13.378  0.00  0.00    -0.041 C 
ATOM     29  H18 A1N d   1       4.363  -6.128  12.718  0.00  0.00     0.032 H 
ATOM     30  H19 A1N d   1       5.903  -5.205  12.773  0.00  0.00     0.032 H 
ATOM     31  H20 A1N d   1       4.695  -5.015  14.089  0.00  0.00     0.032 H 
ENDBRANCH  23  28
ENDBRANCH  22  23
ENDBRANCH  18  22
ENDBRANCH   5   9
BRANCH   3  32
ATOM     32  N1  A1N d   1      -0.913  -5.000  19.924  0.00  0.00    -0.361 N 
ATOM     33  C3  A1N d   1      -2.202  -5.633  19.654  0.00  0.00     0.020 C 
ATOM     34  C2  A1N d   1      -3.054  -5.853  20.875  0.00  0.00     0.051 C 
ATOM     35  H5  A1N d   1      -2.014  -6.610  19.185  0.00  0.00     0.068 H 
ATOM     36  H6  A1N d   1      -2.760  -4.992  18.956  0.00  0.00     0.068 H 
ATOM     37  O1  A1N d   1      -2.940  -4.731  21.728  0.00  0.00    -0.378 OA
ATOM     38  H4  A1N d   1      -2.695  -6.755  21.391  0.00  0.00     0.085 H 
ATOM     39  C5  A1N d   1      -1.637  -4.633  22.291  0.00  0.00     0.051 C 
ATOM     40  C4  A1N d   1      -0.683  -4.268  21.187  0.00  0.00     0.020 C 
ATOM     41  H10 A1N d   1      -1.337  -5.602  22.716  0.00  0.00     0.085 H 
ATOM     42  H7  A1N d   1      -0.784  -3.191  20.985  0.00  0.00     0.068 H 
ATOM     43  H8  A1N d   1       0.340  -4.483  21.529  0.00  0.00     0.068 H 
BRANCH  34  44
ATOM     44  C1  A1N d   1      -4.521  -6.011  20.579  0.00  0.00    -0.051 C 
ATOM     45  H1  A1N d   1      -4.670  -6.875  19.915  0.00  0.00     0.030 H 
ATOM     46  H2  A1N d   1      -4.896  -5.101  20.087  0.00  0.00     0.030 H 
ATOM     47  H3  A1N d   1      -5.069  -6.172  21.519  0.00  0.00     0.030 H 
ENDBRANCH  34  44
BRANCH  39  48
ATOM     48  C6  A1N d   1      -1.685  -3.605  23.400  0.00  0.00    -0.051 C 
ATOM     49  H11 A1N d   1      -0.688  -3.509  23.854  0.00  0.00     0.030 H 
ATOM     50  H12 A1N d   1      -2.407  -3.925  24.166  0.00  0.00     0.030 H 
ATOM     51  H13 A1N d   1      -1.995  -2.634  22.987  0.00  0.00     0.030 H 
ENDBRANCH  39  48
ENDBRANCH   3  32
TORSDOF 7
