REMARK  7 active torsions:
REMARK  status: ('A' for Active; 'I' for Inactive)
REMARK    1  A    between atoms: C2_4  and  C1_2 
REMARK    2  A    between atoms: N1_3  and  C2_4 
REMARK    3  A    between atoms: C2_4  and  C3_6 
REMARK    4  A    between atoms: C6_12  and  C5_10 
REMARK    5  A    between atoms: N6_13  and  C17_24 
REMARK    6  A    between atoms: C11_18  and  C8_15 
REMARK    7  A    between atoms: C17_24  and  C14_21 
ROOT
ATOM      1  C11 A3E d   1       1.057  -3.644  19.953  0.00  0.00    -0.025 A 
ATOM      2  C12 A3E d   1       0.584  -4.817  19.320  0.00  0.00    -0.072 A 
ATOM      3  C13 A3E d   1      -0.743  -5.231  19.516  0.00  0.00    -0.074 A 
ATOM      4  C14 A3E d   1      -1.602  -4.472  20.304  0.00  0.00    -0.033 A 
ATOM      5  C15 A3E d   1      -1.134  -3.300  20.899  0.00  0.00    -0.074 A 
ATOM      6  C16 A3E d   1       0.177  -2.886  20.725  0.00  0.00    -0.072 A 
ATOM      7  H14 A3E d   1       1.245  -5.395  18.685  0.00  0.00     0.084 H 
ATOM      8  H15 A3E d   1      -1.099  -6.144  19.052  0.00  0.00     0.084 H 
ATOM      9  H16 A3E d   1      -1.806  -2.704  21.506  0.00  0.00     0.084 H 
ATOM     10  H17 A3E d   1       0.520  -1.969  21.191  0.00  0.00     0.084 H 
ENDROOT
BRANCH   1  11
ATOM     11  C8  A3E d   1       2.463  -3.198  19.773  0.00  0.00    -0.007 A 
ATOM     12  C7  A3E d   1       3.349  -3.887  18.937  0.00  0.00    -0.055 A 
ATOM     13  C6  A3E d   1       4.641  -3.425  18.808  0.00  0.00     0.042 A 
ATOM     14  H12 A3E d   1       3.024  -4.770  18.399  0.00  0.00     0.086 H 
ATOM     15  C10 A3E d   1       5.019  -2.268  19.523  0.00  0.00     0.133 A 
ATOM     16  N4  A3E d   1       4.152  -1.644  20.314  0.00  0.00    -0.242 NA
ATOM     17  N5  A3E d   1       6.250  -1.693  19.455  0.00  0.00    -0.383 N 
ATOM     18  C9  A3E d   1       2.892  -2.084  20.454  0.00  0.00     0.015 A 
ATOM     19  H13 A3E d   1       2.208  -1.557  21.109  0.00  0.00     0.116 H 
ATOM     20  H9  A3E d   1       6.982  -2.112  18.865  0.00  0.00     0.157 HD
ATOM     21  H10 A3E d   1       6.450  -0.838  19.994  0.00  0.00     0.157 HD
BRANCH  13  22
ATOM     22  C5  A3E d   1       5.525  -4.105  17.838  0.00  0.00     0.112 A 
ATOM     23  N2  A3E d   1       6.779  -3.827  17.512  0.00  0.00    -0.130 NA
ATOM     24  N3  A3E d   1       7.193  -4.633  16.547  0.00  0.00    -0.065 NA
ATOM     25  N1  A3E d   1       6.171  -5.396  16.212  0.00  0.00    -0.256 N 
ATOM     26  C4  A3E d   1       5.110  -5.055  16.939  0.00  0.00     0.031 A 
ATOM     27  H8  A3E d   1       4.102  -5.455  16.839  0.00  0.00     0.118 H 
BRANCH  25  28
ATOM     28  C2  A3E d   1       6.160  -6.413  15.101  0.00  0.00     0.029 C 
ATOM     29  H4  A3E d   1       7.040  -7.071  15.150  0.00  0.00     0.074 H 
BRANCH  28  30
ATOM     30  C1  A3E d   1       4.833  -7.216  15.062  0.00  0.00    -0.056 C 
ATOM     31  H1  A3E d   1       4.869  -7.944  14.238  0.00  0.00     0.030 H 
ATOM     32  H2  A3E d   1       3.991  -6.526  14.904  0.00  0.00     0.030 H 
ATOM     33  H3  A3E d   1       4.698  -7.747  16.016  0.00  0.00     0.030 H 
ENDBRANCH  28  30
BRANCH  28  34
ATOM     34  C3  A3E d   1       6.080  -5.599  13.812  0.00  0.00    -0.056 C 
ATOM     35  H5  A3E d   1       6.980  -4.973  13.717  0.00  0.00     0.030 H 
ATOM     36  H6  A3E d   1       5.188  -4.956  13.839  0.00  0.00     0.030 H 
ATOM     37  H7  A3E d   1       6.015  -6.281  12.951  0.00  0.00     0.030 H 
ENDBRANCH  28  34
ENDBRANCH  25  28
ENDBRANCH  13  22
ENDBRANCH   1  11
BRANCH   4  38
ATOM     38  C17 A3E d   1      -3.052  -4.913  20.500  0.00  0.00     0.107 C 
ATOM     39  H18 A3E d   1      -3.328  -4.862  21.564  0.00  0.00     0.083 H 
ATOM     40  H19 A3E d   1      -3.730  -4.275  19.914  0.00  0.00     0.083 H 
BRANCH  38  41
ATOM     41  N6  A3E d   1      -3.113  -6.304  20.020  0.00  0.00    -0.063 N 
ATOM     42  C18 A3E d   1      -3.022  -7.345  21.047  0.00  0.00     0.103 C 
ATOM     43  C19 A3E d   1      -2.530  -8.589  20.319  0.00  0.00     0.042 C 
ATOM     44  H20 A3E d   1      -4.008  -7.528  21.498  0.00  0.00     0.079 H 
ATOM     45  H21 A3E d   1      -2.309  -7.051  21.831  0.00  0.00     0.079 H 
ATOM     46  O   A3E d   1      -3.520  -8.959  19.324  0.00  0.00    -0.388 OA
ATOM     47  H22 A3E d   1      -1.570  -8.376  19.826  0.00  0.00     0.076 H 
ATOM     48  H23 A3E d   1      -2.399  -9.412  21.037  0.00  0.00     0.076 H 
ATOM     49  C20 A3E d   1      -3.709  -7.946  18.309  0.00  0.00     0.042 C 
ATOM     50  C21 A3E d   1      -4.080  -6.606  18.954  0.00  0.00     0.103 C 
ATOM     51  H24 A3E d   1      -4.517  -8.258  17.631  0.00  0.00     0.076 H 
ATOM     52  H25 A3E d   1      -2.777  -7.827  17.737  0.00  0.00     0.076 H 
ATOM     53  H26 A3E d   1      -4.052  -5.811  18.195  0.00  0.00     0.079 H 
ATOM     54  H27 A3E d   1      -5.092  -6.670  19.381  0.00  0.00     0.079 H 
ATOM     55  H11 A3E d   1      -2.231  -6.395  19.540  0.00  0.00     0.280 HD
ENDBRANCH  38  41
ENDBRANCH   4  38
TORSDOF 7
