REMARK  2 active torsions:
REMARK  status: ('A' for Active; 'I' for Inactive)
REMARK    1  A    between atoms: C3_3  and  C7_7 
REMARK    2  A    between atoms: C5_5  and  O18_18 
ROOT
ATOM      1  C7  A3Q d   1       4.676  -4.223  18.614  0.00  0.00    -0.009 A 
ATOM      2  C8  A3Q d   1       3.513  -3.935  19.279  0.00  0.00    -0.054 A 
ATOM      3  C9  A3Q d   1       3.403  -2.771  20.019  0.00  0.00     0.005 A 
ATOM      4  N10 A3Q d   1       4.425  -1.929  20.081  0.00  0.00    -0.242 NA
ATOM      5  C11 A3Q d   1       5.709  -3.314  18.680  0.00  0.00     0.043 A 
ATOM      6  C12 A3Q d   1       5.546  -2.173  19.438  0.00  0.00     0.139 A 
ATOM      7  N13 A3Q d   1       6.646  -1.459  19.364  0.00  0.00    -0.349 N 
ATOM      8  C14 A3Q d   1       7.517  -2.094  18.589  0.00  0.00    -0.000 A 
ATOM      9  C15 A3Q d   1       6.971  -3.217  18.175  0.00  0.00     0.074 A 
ATOM     10  C16 A3Q d   1       7.599  -4.117  17.306  0.00  0.00     0.102 C 
ATOM     11  N17 A3Q d   1       8.103  -4.882  16.636  0.00  0.00    -0.191 NA
ATOM     12  H5  A3Q d   1       2.676  -4.622  19.225  0.00  0.00     0.087 H 
ATOM     13  H6  A3Q d   1       2.483  -2.548  20.547  0.00  0.00     0.114 H 
ATOM     14  H7  A3Q d   1       6.806  -0.555  19.831  0.00  0.00     0.167 HD
ATOM     15  H8  A3Q d   1       8.517  -1.744  18.338  0.00  0.00     0.113 H 
ENDROOT
BRANCH   1  16
ATOM     16  C3  A3Q d   1       4.662  -5.426  17.801  0.00  0.00    -0.022 A 
ATOM     17  C2  A3Q d   1       4.140  -6.616  18.271  0.00  0.00    -0.072 A 
ATOM     18  C1  A3Q d   1       4.117  -7.769  17.478  0.00  0.00    -0.080 A 
ATOM     19  H2  A3Q d   1       3.739  -6.657  19.277  0.00  0.00     0.084 H 
ATOM     20  C6  A3Q d   1       4.551  -7.681  16.160  0.00  0.00    -0.051 A 
ATOM     21  H1  A3Q d   1       3.768  -8.712  17.883  0.00  0.00     0.083 H 
ATOM     22  C5  A3Q d   1       5.053  -6.488  15.685  0.00  0.00     0.066 A 
ATOM     23  H4  A3Q d   1       4.495  -8.546  15.509  0.00  0.00     0.087 H 
ATOM     24  C4  A3Q d   1       5.095  -5.349  16.480  0.00  0.00    -0.040 A 
ATOM     25  H3  A3Q d   1       5.461  -4.412  16.076  0.00  0.00     0.089 H 
BRANCH  22  26
ATOM     26  O18 A3Q d   1       5.492  -6.381  14.421  0.00  0.00    -0.361 OA
ATOM     27  H9  A3Q d   1       5.800  -5.495  14.268  0.00  0.00     0.217 HD
ENDBRANCH  22  26
ENDBRANCH   1  16
TORSDOF 2
