REMARK  2 active torsions:
REMARK  status: ('A' for Active; 'I' for Inactive)
REMARK    1  A    between atoms: C01_1  and  C23_2 
REMARK    2  A    between atoms: C30_7  and  C31_8 
ROOT
ATOM      1  C31 A3K d   1       4.608  -4.094  18.413  0.00  0.00    -0.007 A 
ATOM      2  C15 A3K d   1       5.639  -3.115  18.589  0.00  0.00     0.043 A 
ATOM      3  C19 A3K d   1       3.379  -3.908  18.983  0.00  0.00    -0.027 A 
ATOM      4  C18 A3K d   1       3.271  -2.695  19.800  0.00  0.00     0.124 A 
ATOM      5  N05 A3K d   1       2.078  -2.504  20.358  0.00  0.00    -0.384 N 
ATOM      6  N17 A3K d   1       4.195  -1.772  19.954  0.00  0.00    -0.213 NA
ATOM      7  C16 A3K d   1       5.420  -1.977  19.414  0.00  0.00     0.142 A 
ATOM      8  N13 A3K d   1       6.482  -1.217  19.325  0.00  0.00    -0.349 N 
ATOM      9  C10 A3K d   1       7.465  -1.786  18.630  0.00  0.00    -0.000 A 
ATOM     10  C12 A3K d   1       6.969  -2.976  18.175  0.00  0.00     0.074 A 
ATOM     11  C09 A3K d   1       7.806  -3.800  17.299  0.00  0.00     0.102 C 
ATOM     12  N08 A3K d   1       8.470  -4.491  16.652  0.00  0.00    -0.191 NA
ATOM     13  H8  A3K d   1       2.555  -4.598  18.843  0.00  0.00     0.090 H 
ATOM     14  H9  A3K d   1       1.912  -1.677  20.949  0.00  0.00     0.157 HD
ATOM     15  H10 A3K d   1       1.320  -3.183  20.199  0.00  0.00     0.157 HD
ATOM     16  H11 A3K d   1       6.550  -0.280  19.747  0.00  0.00     0.167 HD
ATOM     17  H12 A3K d   1       8.463  -1.385  18.459  0.00  0.00     0.113 H 
ENDROOT
BRANCH   1  18
ATOM     18  C30 A3K d   1       4.707  -5.278  17.535  0.00  0.00    -0.024 A 
ATOM     19  C21 A3K d   1       5.153  -5.001  16.175  0.00  0.00    -0.067 A 
ATOM     20  C23 A3K d   1       5.218  -6.099  15.286  0.00  0.00    -0.061 A 
ATOM     21  H4  A3K d   1       5.422  -3.999  15.860  0.00  0.00     0.085 H 
ATOM     22  C24 A3K d   1       4.854  -7.354  15.661  0.00  0.00    -0.077 A 
ATOM     23  C26 A3K d   1       4.405  -7.615  16.994  0.00  0.00    -0.082 A 
ATOM     24  H5  A3K d   1       4.904  -8.165  14.943  0.00  0.00     0.084 H 
ATOM     25  C28 A3K d   1       4.308  -6.560  17.844  0.00  0.00    -0.072 A 
ATOM     26  H6  A3K d   1       4.151  -8.619  17.314  0.00  0.00     0.083 H 
ATOM     27  H7  A3K d   1       3.890  -6.738  18.828  0.00  0.00     0.084 H 
BRANCH  20  28
ATOM     28  C01 A3K d   1       5.705  -5.872  13.822  0.00  0.00    -0.051 C 
ATOM     29  H1  A3K d   1       5.960  -4.811  13.681  0.00  0.00     0.033 H 
ATOM     30  H2  A3K d   1       4.905  -6.153  13.122  0.00  0.00     0.033 H 
ATOM     31  H3  A3K d   1       6.594  -6.491  13.631  0.00  0.00     0.033 H 
ENDBRANCH  20  28
ENDBRANCH   1  18
TORSDOF 2
