REMARK  5 active torsions:
REMARK  status: ('A' for Active; 'I' for Inactive)
REMARK    1  A    between atoms: N3_8  and  C1_3 
REMARK    2  A    between atoms: C2_5  and  C8_15 
REMARK    3  A    between atoms: C14_21  and  N3_8 
REMARK    4  A    between atoms: N4_10  and  C17_24 
REMARK    5  A    between atoms: C12_19  and  C18_25 
ROOT
ATOM      1  N   A3H d   1     -18.516  -2.320  19.682  0.00  0.00    -0.213 NA
ATOM      2  C   A3H d   1     -19.406  -4.363  18.720  0.00  0.00    -0.027 A 
ATOM      3  C1  A3H d   1     -19.541  -3.194  19.500  0.00  0.00     0.132 A 
ATOM      4  N1  A3H d   1     -16.219  -1.730  19.207  0.00  0.00    -0.349 N 
ATOM      5  C2  A3H d   1     -18.126  -4.576  18.220  0.00  0.00    -0.007 A 
ATOM      6  N2  A3H d   1     -14.411  -5.264  16.623  0.00  0.00    -0.191 NA
ATOM      7  C3  A3H d   1     -15.223  -2.384  18.556  0.00  0.00    -0.000 A 
ATOM      8  C4  A3H d   1     -15.743  -3.562  18.045  0.00  0.00     0.074 A 
ATOM      9  C5  A3H d   1     -17.085  -3.646  18.396  0.00  0.00     0.043 A 
ATOM     10  C6  A3H d   1     -17.308  -2.498  19.159  0.00  0.00     0.142 A 
ATOM     11  C7  A3H d   1     -15.003  -4.510  17.260  0.00  0.00     0.102 C 
ATOM     12  H1  A3H d   1     -20.232  -5.038  18.527  0.00  0.00     0.090 H 
ATOM     13  H2  A3H d   1     -16.146  -0.806  19.657  0.00  0.00     0.167 HD
ATOM     14  H3  A3H d   1     -14.194  -2.042  18.453  0.00  0.00     0.113 H 
ENDROOT
BRANCH   5  15
ATOM     15  C8  A3H d   1     -18.029  -5.802  17.392  0.00  0.00    -0.024 A 
ATOM     16  C9  A3H d   1     -18.527  -7.052  17.759  0.00  0.00    -0.072 A 
ATOM     17  C10 A3H d   1     -18.443  -8.104  16.847  0.00  0.00    -0.082 A 
ATOM     18  H5  A3H d   1     -18.972  -7.203  18.736  0.00  0.00     0.084 H 
ATOM     19  C11 A3H d   1     -17.935  -7.937  15.567  0.00  0.00    -0.077 A 
ATOM     20  H6  A3H d   1     -18.787  -9.087  17.149  0.00  0.00     0.083 H 
ATOM     21  C12 A3H d   1     -17.509  -6.698  15.170  0.00  0.00    -0.061 A 
ATOM     22  H7  A3H d   1     -17.876  -8.780  14.888  0.00  0.00     0.084 H 
ATOM     23  C13 A3H d   1     -17.555  -5.649  16.092  0.00  0.00    -0.067 A 
ATOM     24  H8  A3H d   1     -17.206  -4.671  15.781  0.00  0.00     0.085 H 
BRANCH  21  25
ATOM     25  C18 A3H d   1     -16.911  -6.424  13.759  0.00  0.00    -0.051 C 
ATOM     26  H14 A3H d   1     -16.948  -7.346  13.160  0.00  0.00     0.033 H 
ATOM     27  H15 A3H d   1     -15.866  -6.095  13.861  0.00  0.00     0.033 H 
ATOM     28  H16 A3H d   1     -17.496  -5.638  13.259  0.00  0.00     0.033 H 
ENDBRANCH  21  25
ENDBRANCH   5  15
BRANCH   3  29
ATOM     29  N3  A3H d   1     -20.673  -2.757  20.107  0.00  0.00    -0.324 N 
ATOM     30  H4  A3H d   1     -20.657  -1.813  20.519  0.00  0.00     0.169 HD
BRANCH  29  31
ATOM     31  C14 A3H d   1     -21.838  -3.474  20.215  0.00  0.00     0.150 A 
ATOM     32  N5  A3H d   1     -22.125  -4.659  19.699  0.00  0.00    -0.155 NA
ATOM     33  N4  A3H d   1     -23.369  -4.968  20.076  0.00  0.00    -0.283 N 
ATOM     34  C16 A3H d   1     -23.890  -3.994  20.862  0.00  0.00     0.002 A 
ATOM     35  C15 A3H d   1     -22.917  -3.019  20.952  0.00  0.00    -0.020 A 
ATOM     36  H10 A3H d   1     -24.875  -3.983  21.327  0.00  0.00     0.114 H 
ATOM     37  H9  A3H d   1     -22.985  -2.078  21.496  0.00  0.00     0.091 H 
BRANCH  33  38
ATOM     38  C17 A3H d   1     -24.096  -6.177  19.701  0.00  0.00     0.002 C 
ATOM     39  H11 A3H d   1     -25.096  -6.160  20.158  0.00  0.00     0.059 H 
ATOM     40  H12 A3H d   1     -23.546  -7.061  20.056  0.00  0.00     0.059 H 
ATOM     41  H13 A3H d   1     -24.194  -6.221  18.606  0.00  0.00     0.059 H 
ENDBRANCH  33  38
ENDBRANCH  29  31
ENDBRANCH   3  29
TORSDOF 5
