REMARK  5 active torsions:
REMARK  status: ('A' for Active; 'I' for Inactive)
REMARK    1  A    between atoms: NAE_6  and  CAM_7 
REMARK    2  A    between atoms: CAK_10  and  NAJ_11 
REMARK    3  A    between atoms: CAQ_18  and  CAU_19 
REMARK    4  A    between atoms: CAZ_22  and  NBC_23 
REMARK    5  A    between atoms: CAV_25  and  CAW_26 
ROOT
ATOM      1  CAM A3W d   1      44.638  14.575  31.130  0.00  0.00     0.742 A 
ATOM      2  NAR A3W d   1      43.383  13.999  31.375  0.00  0.00    -0.041 NA
ATOM      3  NAL A3W d   1      45.022  15.854  31.486  0.00  0.00     0.130 NA
ATOM      4  CAK A3W d   1      44.089  16.581  32.159  0.00  0.00     0.742 A 
ATOM      5  NAP A3W d   1      42.842  16.078  32.504  0.00  0.00    -0.041 NA
ATOM      6  CAQ A3W d   1      42.515  14.788  32.098  0.00  0.00     0.200 A 
ENDROOT
BRANCH   6   7
ATOM      7  CAU A3W d   1      41.064  14.248  32.440  0.00  0.00     0.046 A 
ATOM      8  CAT A3W d   1      40.276  13.546  31.497  0.00  0.00     0.019 A 
ATOM      9  NAY A3W d   1      39.033  13.041  31.628  0.00  0.00    -0.243 NA
ATOM     10  H17 A3W d   1      40.739  13.392  30.529  0.00  0.00     0.116 H 
ATOM     11  CAZ A3W d   1      38.338  13.158  32.810  0.00  0.00     0.121 A 
ATOM     12  CBA A3W d   1      39.018  13.851  33.831  0.00  0.00    -0.024 A 
ATOM     13  CAV A3W d   1      40.308  14.358  33.633  0.00  0.00     0.067 A 
ATOM     14  H20 A3W d   1      38.532  13.995  34.789  0.00  0.00     0.090 H 
BRANCH  11  15
ATOM     15  NBC A3W d   1      37.058  12.618  32.951  0.00  0.00    -0.384 N 
ATOM     16  H18 A3W d   1      36.553  12.716  33.843  0.00  0.00     0.157 HD
ATOM     17  H19 A3W d   1      36.618  12.122  32.163  0.00  0.00     0.157 HD
ENDBRANCH  11  15
BRANCH  13  18
ATOM     18  CAW A3W d   1      40.950  15.068  34.813  0.00  0.00     0.418 C 
ATOM     19  FBB A3W d   1      41.194  16.373  34.592  0.00  0.00    -0.166 F 
ATOM     20  FAS A3W d   1      40.289  15.155  35.944  0.00  0.00    -0.166 F 
ATOM     21  FAX A3W d   1      42.179  14.525  35.040  0.00  0.00    -0.166 F 
ENDBRANCH  13  18
ENDBRANCH   6   7
BRANCH   1  22
ATOM     22  NAE A3W d   1      45.596  13.822  30.379  0.00  0.00    -0.209 N 
ATOM     23  CAD A3W d   1      45.306  12.588  29.594  0.00  0.00     0.032 C 
ATOM     24  CAA A3W d   1      46.135  12.317  28.271  0.00  0.00     0.035 C 
ATOM     25  H1  A3W d   1      45.474  11.731  30.263  0.00  0.00     0.068 H 
ATOM     26  H2  A3W d   1      44.244  12.627  29.309  0.00  0.00     0.068 H 
ATOM     27  OAB A3W d   1      47.479  12.484  28.564  0.00  0.00    -0.388 OA
ATOM     28  H3  A3W d   1      45.833  13.029  27.489  0.00  0.00     0.076 H 
ATOM     29  H4  A3W d   1      45.954  11.290  27.922  0.00  0.00     0.076 H 
ATOM     30  CAC A3W d   1      47.732  13.768  29.025  0.00  0.00     0.035 C 
ATOM     31  CAF A3W d   1      47.044  14.103  30.395  0.00  0.00     0.032 C 
ATOM     32  H5  A3W d   1      47.369  14.483  28.272  0.00  0.00     0.076 H 
ATOM     33  H6  A3W d   1      48.819  13.884  29.147  0.00  0.00     0.076 H 
ATOM     34  H7  A3W d   1      47.195  15.170  30.615  0.00  0.00     0.068 H 
ATOM     35  H8  A3W d   1      47.513  13.497  31.184  0.00  0.00     0.068 H 
ENDBRANCH   1  22
BRANCH   4  36
ATOM     36  NAJ A3W d   1      44.494  17.918  32.583  0.00  0.00    -0.209 N 
ATOM     37  CAI A3W d   1      43.899  18.730  33.675  0.00  0.00     0.032 C 
ATOM     38  CAH A3W d   1      44.260  20.263  33.565  0.00  0.00     0.035 C 
ATOM     39  H9  A3W d   1      44.271  18.350  34.638  0.00  0.00     0.068 H 
ATOM     40  H10 A3W d   1      42.805  18.623  33.636  0.00  0.00     0.068 H 
ATOM     41  OAG A3W d   1      45.574  20.528  33.099  0.00  0.00    -0.388 OA
ATOM     42  H11 A3W d   1      44.152  20.713  34.563  0.00  0.00     0.076 H 
ATOM     43  H12 A3W d   1      43.548  20.734  32.871  0.00  0.00     0.076 H 
ATOM     44  CAN A3W d   1      45.787  19.890  31.870  0.00  0.00     0.035 C 
ATOM     45  CAO A3W d   1      45.852  18.380  32.186  0.00  0.00     0.032 C 
ATOM     46  H13 A3W d   1      46.733  20.229  31.421  0.00  0.00     0.076 H 
ATOM     47  H14 A3W d   1      44.957  20.102  31.180  0.00  0.00     0.076 H 
ATOM     48  H15 A3W d   1      46.185  17.829  31.294  0.00  0.00     0.068 H 
ATOM     49  H16 A3W d   1      46.559  18.204  33.010  0.00  0.00     0.068 H 
ENDBRANCH   4  36
TORSDOF 5
