REMARK  9 active torsions:
REMARK  status: ('A' for Active; 'I' for Inactive)
REMARK    1  A    between atoms: NBL_8  and  CAB_9 
REMARK    2  A    between atoms: CBK_13  and  NBN_12 
REMARK       I    between atoms: CBA_19  and  NBM_18 
REMARK    3  A    between atoms: CBB_21  and  CBA_19 
REMARK    4  A    between atoms: CBE_23  and  OAZ_24 
REMARK    5  A    between atoms: OAZ_24  and  CAA_25 
REMARK    6  A    between atoms: NAY_29  and  CBC_28 
REMARK    7  A    between atoms: NAY_29  and  C2_30 
REMARK    8  A    between atoms: NBP_31  and  CAD_32 
REMARK    9  A    between atoms: NBO_41  and  CAC_42 
ROOT
ATOM      1  CBB 4K4 d   1      -1.591  -5.247  20.827  0.00  0.00     0.035 A 
ATOM      2  CAN 4K4 d   1      -1.136  -4.406  21.821  0.00  0.00    -0.033 A 
ATOM      3  CBE 4K4 d   1       0.112  -3.821  21.793  0.00  0.00     0.096 A 
ATOM      4  CAI 4K4 d   1      -0.734  -5.526  19.757  0.00  0.00    -0.065 A 
ATOM      5  CAJ 4K4 d   1       0.548  -4.969  19.742  0.00  0.00    -0.053 A 
ATOM      6  CBC 4K4 d   1       1.012  -4.070  20.738  0.00  0.00     0.082 A 
ATOM      7  H24 4K4 d   1      -1.788  -4.196  22.661  0.00  0.00     0.089 H 
ATOM      8  H28 4K4 d   1      -1.061  -6.168  18.947  0.00  0.00     0.085 H 
ATOM      9  H29 4K4 d   1       1.218  -5.236  18.933  0.00  0.00     0.087 H 
ENDROOT
BRANCH   1  10
ATOM     10  CBA 4K4 d   1      -3.021  -5.768  20.926  0.00  0.00     0.253 C 
ATOM     11  NBM 4K4 d   1      -4.059  -4.786  21.085  0.00  0.00    -0.348 N 
ATOM     12  CAR 4K4 d   1      -5.503  -5.228  21.335  0.00  0.00    -0.000 C 
ATOM     13  CAQ 4K4 d   1      -3.684  -3.299  21.212  0.00  0.00    -0.000 C 
ATOM     14  CAP 4K4 d   1      -6.545  -4.073  20.989  0.00  0.00    -0.023 C 
ATOM     15  H18 4K4 d   1      -5.721  -6.104  20.706  0.00  0.00     0.064 H 
ATOM     16  H19 4K4 d   1      -5.613  -5.501  22.395  0.00  0.00     0.064 H 
ATOM     17  CBK 4K4 d   1      -6.009  -2.745  21.511  0.00  0.00     0.107 C 
ATOM     18  H16 4K4 d   1      -6.680  -4.013  19.899  0.00  0.00     0.038 H 
ATOM     19  H17 4K4 d   1      -7.511  -4.293  21.466  0.00  0.00     0.038 H 
ATOM     20  CAO 4K4 d   1      -4.807  -2.406  20.752  0.00  0.00    -0.023 C 
ATOM     21  H15 4K4 d   1      -5.721  -2.893  22.562  0.00  0.00     0.084 H 
ATOM     22  H20 4K4 d   1      -4.541  -1.354  20.929  0.00  0.00     0.038 H 
ATOM     23  H21 4K4 d   1      -4.989  -2.562  19.679  0.00  0.00     0.038 H 
ATOM     24  H22 4K4 d   1      -3.458  -3.076  22.265  0.00  0.00     0.064 H 
ATOM     25  H23 4K4 d   1      -2.794  -3.101  20.596  0.00  0.00     0.064 H 
ATOM     26  OAE 4K4 d   1      -3.183  -6.994  20.968  0.00  0.00    -0.267 OA
BRANCH  17  27
ATOM     27  NBN 4K4 d   1      -7.026  -1.600  21.483  0.00  0.00    -0.064 N 
ATOM     28  CAU 4K4 d   1      -8.438  -2.025  21.593  0.00  0.00     0.106 C 
ATOM     29  CAS 4K4 d   1      -9.295  -0.781  21.910  0.00  0.00     0.105 C 
ATOM     30  H2  4K4 d   1      -8.767  -2.471  20.643  0.00  0.00     0.078 H 
ATOM     31  H3  4K4 d   1      -8.542  -2.764  22.401  0.00  0.00     0.078 H 
ATOM     32  NBL 4K4 d   1      -9.117   0.253  20.838  0.00  0.00    -0.072 N 
ATOM     33  H4  4K4 d   1      -8.982  -0.360  22.877  0.00  0.00     0.078 H 
ATOM     34  H5  4K4 d   1     -10.354  -1.072  21.962  0.00  0.00     0.078 H 
ATOM     35  CAT 4K4 d   1      -7.671   0.605  20.647  0.00  0.00     0.105 C 
ATOM     36  H6  4K4 d   1      -9.467  -0.127  19.972  0.00  0.00     0.279 HD
ATOM     37  CAV 4K4 d   1      -6.855  -0.666  20.353  0.00  0.00     0.106 C 
ATOM     38  H10 4K4 d   1      -7.288   1.081  21.562  0.00  0.00     0.078 H 
ATOM     39  H11 4K4 d   1      -7.574   1.303  19.803  0.00  0.00     0.078 H 
ATOM     40  H12 4K4 d   1      -5.792  -0.408  20.242  0.00  0.00     0.078 H 
ATOM     41  H13 4K4 d   1      -7.217  -1.134  19.426  0.00  0.00     0.078 H 
ATOM     42  H14 4K4 d   1      -6.837  -1.063  22.315  0.00  0.00     0.280 HD
BRANCH  32  43
ATOM     43  CAB 4K4 d   1      -9.896   1.475  21.167  0.00  0.00     0.066 C 
ATOM     44  H7  4K4 d   1      -9.756   2.224  20.373  0.00  0.00     0.068 H 
ATOM     45  H8  4K4 d   1      -9.545   1.887  22.125  0.00  0.00     0.068 H 
ATOM     46  H9  4K4 d   1     -10.963   1.220  21.246  0.00  0.00     0.068 H 
ENDBRANCH  32  43
ENDBRANCH  17  27
ENDBRANCH   1  10
BRANCH   3  47
ATOM     47  OAZ 4K4 d   1       0.610  -3.009  22.770  0.00  0.00    -0.354 OA
BRANCH  47  48
ATOM     48  CAA 4K4 d   1      -0.275  -2.838  23.995  0.00  0.00     0.010 C 
ATOM     49  H25 4K4 d   1       0.220  -2.168  24.714  0.00  0.00     0.066 H 
ATOM     50  H26 4K4 d   1      -0.445  -3.818  24.464  0.00  0.00     0.066 H 
ATOM     51  H27 4K4 d   1      -1.239  -2.404  23.693  0.00  0.00     0.066 H 
ENDBRANCH  47  48
ENDBRANCH   3  47
BRANCH   6  52
ATOM     52  NAY 4K4 d   1       2.222  -3.362  20.789  0.00  0.00    -0.185 N 
ATOM     53  H30 4K4 d   1       2.213  -2.526  21.390  0.00  0.00     0.184 HD
BRANCH  52  54
ATOM     54  C2  4K4 d   1       3.396  -3.610  20.170  0.00  0.00     0.729 A 
ATOM     55  N1  4K4 d   1       4.337  -2.708  20.254  0.00  0.00    -0.073 NA
ATOM     56  C6  4K4 d   1       5.561  -2.968  19.658  0.00  0.00     0.051 A 
ATOM     57  C5  4K4 d   1       5.814  -4.140  18.956  0.00  0.00     0.102 A 
ATOM     58  H1  4K4 d   1       6.350  -2.230  19.743  0.00  0.00     0.119 H 
ATOM     59  C4  4K4 d   1       4.725  -5.049  18.878  0.00  0.00     0.177 A 
ATOM     60  NBO 4K4 d   1       7.042  -4.367  18.477  0.00  0.00    -0.314 N 
ATOM     61  N3  4K4 d   1       3.570  -4.808  19.464  0.00  0.00    -0.042 NA
ATOM     62  NBP 4K4 d   1       4.739  -6.201  18.158  0.00  0.00    -0.333 N 
ATOM     63  CBH 4K4 d   1       5.118  -6.099  16.749  0.00  0.00     0.051 A 
ATOM     64  CAL 4K4 d   1       4.197  -6.671  15.845  0.00  0.00    -0.056 A 
ATOM     65  CBG 4K4 d   1       6.329  -5.544  16.333  0.00  0.00     0.059 A 
ATOM     66  CAH 4K4 d   1       4.529  -6.495  14.481  0.00  0.00    -0.081 A 
ATOM     67  H34 4K4 d   1       3.309  -7.201  16.169  0.00  0.00     0.087 H 
ATOM     68  CAG 4K4 d   1       5.706  -5.958  14.086  0.00  0.00    -0.082 A 
ATOM     69  H35 4K4 d   1       3.815  -6.801  13.726  0.00  0.00     0.083 H 
ATOM     70  CAK 4K4 d   1       6.635  -5.393  14.956  0.00  0.00    -0.065 A 
ATOM     71  H36 4K4 d   1       5.940  -5.968  13.028  0.00  0.00     0.083 H 
ATOM     72  H37 4K4 d   1       7.523  -4.878  14.608  0.00  0.00     0.085 H 
ATOM     73  CBF 4K4 d   1       7.374  -5.008  17.258  0.00  0.00     0.260 C 
ATOM     74  OAF 4K4 d   1       8.528  -5.089  16.885  0.00  0.00    -0.267 OA
BRANCH  62  75
ATOM     75  CAD 4K4 d   1       3.937  -7.329  18.505  0.00  0.00    -0.012 C 
ATOM     76  H31 4K4 d   1       3.714  -7.303  19.582  0.00  0.00     0.057 H 
ATOM     77  H32 4K4 d   1       4.482  -8.254  18.266  0.00  0.00     0.057 H 
ATOM     78  H33 4K4 d   1       2.997  -7.300  17.935  0.00  0.00     0.057 H 
ENDBRANCH  62  75
BRANCH  60  79
ATOM     79  CAC 4K4 d   1       8.226  -3.778  19.132  0.00  0.00    -0.011 C 
ATOM     80  H38 4K4 d   1       7.922  -3.293  20.071  0.00  0.00     0.057 H 
ATOM     81  H39 4K4 d   1       8.681  -3.032  18.464  0.00  0.00     0.057 H 
ATOM     82  H40 4K4 d   1       8.957  -4.571  19.349  0.00  0.00     0.057 H 
ENDBRANCH  60  79
ENDBRANCH  52  54
ENDBRANCH   6  52
TORSDOF 9
