REMARK  9 active torsions:
REMARK  status: ('A' for Active; 'I' for Inactive)
REMARK    1  A    between atoms: NBL_8  and  CAB_9 
REMARK    2  A    between atoms: CBK_13  and  NBN_12 
REMARK       I    between atoms: CBA_19  and  NBM_18 
REMARK    3  A    between atoms: CBB_21  and  CBA_19 
REMARK    4  A    between atoms: CBE_23  and  OAZ_24 
REMARK    5  A    between atoms: OAZ_24  and  CAA_25 
REMARK    6  A    between atoms: NAY_29  and  CBC_28 
REMARK    7  A    between atoms: NAY_29  and  C2_30 
REMARK    8  A    between atoms: NBP_31  and  CAD_32 
REMARK    9  A    between atoms: NBO_41  and  CAC_42 
ROOT
ATOM      1  CBB 4K4 d   1      -1.519  -4.495  20.759  0.00  0.00     0.035 A 
ATOM      2  CAN 4K4 d   1      -1.192  -3.632  21.765  0.00  0.00    -0.033 A 
ATOM      3  CBE 4K4 d   1       0.062  -3.033  21.742  0.00  0.00     0.096 A 
ATOM      4  CAI 4K4 d   1      -0.644  -4.753  19.721  0.00  0.00    -0.065 A 
ATOM      5  CAJ 4K4 d   1       0.613  -4.154  19.704  0.00  0.00    -0.053 A 
ATOM      6  CBC 4K4 d   1       0.969  -3.292  20.729  0.00  0.00     0.082 A 
ATOM      7  H24 4K4 d   1      -1.894  -3.419  22.563  0.00  0.00     0.089 H 
ATOM      8  H28 4K4 d   1      -0.936  -5.422  18.920  0.00  0.00     0.085 H 
ATOM      9  H29 4K4 d   1       1.306  -4.360  18.897  0.00  0.00     0.087 H 
ENDROOT
BRANCH   1  10
ATOM     10  CBA 4K4 d   1      -2.861  -5.185  20.783  0.00  0.00     0.253 C 
ATOM     11  NBM 4K4 d   1      -3.119  -6.283  21.495  0.00  0.00    -0.348 N 
ATOM     12  CAR 4K4 d   1      -4.472  -6.889  21.476  0.00  0.00    -0.000 C 
ATOM     13  CAQ 4K4 d   1      -2.098  -6.867  22.408  0.00  0.00    -0.000 C 
ATOM     14  CAP 4K4 d   1      -4.392  -8.432  21.444  0.00  0.00    -0.023 C 
ATOM     15  H18 4K4 d   1      -5.018  -6.577  22.378  0.00  0.00     0.064 H 
ATOM     16  H19 4K4 d   1      -5.010  -6.539  20.582  0.00  0.00     0.064 H 
ATOM     17  CBK 4K4 d   1      -3.420  -8.956  22.509  0.00  0.00     0.107 C 
ATOM     18  H16 4K4 d   1      -5.392  -8.848  21.635  0.00  0.00     0.038 H 
ATOM     19  H17 4K4 d   1      -4.045  -8.753  20.451  0.00  0.00     0.038 H 
ATOM     20  CAO 4K4 d   1      -2.033  -8.367  22.224  0.00  0.00    -0.023 C 
ATOM     21  H15 4K4 d   1      -3.752  -8.584  23.489  0.00  0.00     0.084 H 
ATOM     22  H20 4K4 d   1      -1.736  -8.601  21.191  0.00  0.00     0.038 H 
ATOM     23  H21 4K4 d   1      -1.298  -8.794  22.922  0.00  0.00     0.038 H 
ATOM     24  H22 4K4 d   1      -1.115  -6.430  22.181  0.00  0.00     0.064 H 
ATOM     25  H23 4K4 d   1      -2.369  -6.640  23.450  0.00  0.00     0.064 H 
ATOM     26  OAE 4K4 d   1      -3.755  -4.668  20.188  0.00  0.00    -0.267 OA
BRANCH  17  27
ATOM     27  NBN 4K4 d   1      -3.414 -10.438  22.581  0.00  0.00    -0.064 N 
ATOM     28  CAU 4K4 d   1      -3.692 -10.803  23.988  0.00  0.00     0.106 C 
ATOM     29  CAS 4K4 d   1      -3.615 -12.313  24.234  0.00  0.00     0.105 C 
ATOM     30  H2  4K4 d   1      -2.954 -10.303  24.633  0.00  0.00     0.078 H 
ATOM     31  H3  4K4 d   1      -4.702 -10.455  24.248  0.00  0.00     0.078 H 
ATOM     32  NBL 4K4 d   1      -2.278 -12.795  23.841  0.00  0.00    -0.072 N 
ATOM     33  H4  4K4 d   1      -4.382 -12.824  23.634  0.00  0.00     0.078 H 
ATOM     34  H5  4K4 d   1      -3.784 -12.522  25.301  0.00  0.00     0.078 H 
ATOM     35  CAT 4K4 d   1      -2.100 -12.555  22.386  0.00  0.00     0.105 C 
ATOM     36  H6  4K4 d   1      -1.600 -12.223  24.320  0.00  0.00     0.279 HD
ATOM     37  CAV 4K4 d   1      -2.147 -11.045  22.090  0.00  0.00     0.106 C 
ATOM     38  H10 4K4 d   1      -2.906 -13.060  21.833  0.00  0.00     0.078 H 
ATOM     39  H11 4K4 d   1      -1.128 -12.958  22.067  0.00  0.00     0.078 H 
ATOM     40  H12 4K4 d   1      -2.073 -10.890  21.003  0.00  0.00     0.078 H 
ATOM     41  H13 4K4 d   1      -1.298 -10.555  22.589  0.00  0.00     0.078 H 
ATOM     42  H14 4K4 d   1      -4.161 -10.788  22.002  0.00  0.00     0.280 HD
BRANCH  32  43
ATOM     43  CAB 4K4 d   1      -2.015 -14.190  24.268  0.00  0.00     0.066 C 
ATOM     44  H7  4K4 d   1      -1.006 -14.488  23.946  0.00  0.00     0.068 H 
ATOM     45  H8  4K4 d   1      -2.759 -14.860  23.811  0.00  0.00     0.068 H 
ATOM     46  H9  4K4 d   1      -2.085 -14.258  25.364  0.00  0.00     0.068 H 
ENDBRANCH  32  43
ENDBRANCH  17  27
ENDBRANCH   1  10
BRANCH   3  47
ATOM     47  OAZ 4K4 d   1       0.458  -2.187  22.728  0.00  0.00    -0.354 OA
BRANCH  47  48
ATOM     48  CAA 4K4 d   1      -0.355  -2.263  23.907  0.00  0.00     0.010 C 
ATOM     49  H25 4K4 d   1       0.022  -1.554  24.659  0.00  0.00     0.066 H 
ATOM     50  H26 4K4 d   1      -0.316  -3.284  24.314  0.00  0.00     0.066 H 
ATOM     51  H27 4K4 d   1      -1.395  -2.009  23.653  0.00  0.00     0.066 H 
ENDBRANCH  47  48
ENDBRANCH   3  47
BRANCH   6  52
ATOM     52  NAY 4K4 d   1       2.178  -2.631  20.772  0.00  0.00    -0.185 N 
ATOM     53  H30 4K4 d   1       2.242  -1.814  21.396  0.00  0.00     0.184 HD
BRANCH  52  54
ATOM     54  C2  4K4 d   1       3.288  -2.956  20.071  0.00  0.00     0.729 A 
ATOM     55  N1  4K4 d   1       4.229  -2.019  20.127  0.00  0.00    -0.073 NA
ATOM     56  C6  4K4 d   1       5.404  -2.198  19.525  0.00  0.00     0.051 A 
ATOM     57  C5  4K4 d   1       5.598  -3.332  18.776  0.00  0.00     0.102 A 
ATOM     58  H1  4K4 d   1       6.193  -1.461  19.625  0.00  0.00     0.119 H 
ATOM     59  C4  4K4 d   1       4.593  -4.288  18.741  0.00  0.00     0.177 A 
ATOM     60  NBO 4K4 d   1       6.833  -3.556  18.319  0.00  0.00    -0.314 N 
ATOM     61  N3  4K4 d   1       3.426  -4.095  19.363  0.00  0.00    -0.042 NA
ATOM     62  NBP 4K4 d   1       4.674  -5.370  17.960  0.00  0.00    -0.333 N 
ATOM     63  CBH 4K4 d   1       5.019  -5.343  16.647  0.00  0.00     0.051 A 
ATOM     64  CAL 4K4 d   1       4.118  -5.898  15.708  0.00  0.00    -0.056 A 
ATOM     65  CBG 4K4 d   1       6.172  -4.762  16.201  0.00  0.00     0.059 A 
ATOM     66  CAH 4K4 d   1       4.435  -5.842  14.367  0.00  0.00    -0.081 A 
ATOM     67  H34 4K4 d   1       3.194  -6.359  16.037  0.00  0.00     0.087 H 
ATOM     68  CAG 4K4 d   1       5.623  -5.268  13.925  0.00  0.00    -0.082 A 
ATOM     69  H35 4K4 d   1       3.743  -6.254  13.641  0.00  0.00     0.083 H 
ATOM     70  CAK 4K4 d   1       6.490  -4.696  14.859  0.00  0.00    -0.065 A 
ATOM     71  H36 4K4 d   1       5.872  -5.265  12.870  0.00  0.00     0.083 H 
ATOM     72  H37 4K4 d   1       7.401  -4.206  14.534  0.00  0.00     0.085 H 
ATOM     73  CBF 4K4 d   1       7.151  -4.185  17.177  0.00  0.00     0.260 C 
ATOM     74  OAF 4K4 d   1       8.331  -4.259  16.836  0.00  0.00    -0.267 OA
BRANCH  62  75
ATOM     75  CAD 4K4 d   1       4.038  -6.563  18.460  0.00  0.00    -0.012 C 
ATOM     76  H31 4K4 d   1       3.818  -6.440  19.531  0.00  0.00     0.057 H 
ATOM     77  H32 4K4 d   1       4.710  -7.423  18.320  0.00  0.00     0.057 H 
ATOM     78  H33 4K4 d   1       3.101  -6.736  17.911  0.00  0.00     0.057 H 
ENDBRANCH  62  75
BRANCH  60  79
ATOM     79  CAC 4K4 d   1       7.944  -3.079  19.103  0.00  0.00    -0.011 C 
ATOM     80  H38 4K4 d   1       7.567  -2.584  20.010  0.00  0.00     0.057 H 
ATOM     81  H39 4K4 d   1       8.530  -2.361  18.510  0.00  0.00     0.057 H 
ATOM     82  H40 4K4 d   1       8.583  -3.928  19.388  0.00  0.00     0.057 H 
ENDBRANCH  60  79
ENDBRANCH  52  54
ENDBRANCH   6  52
TORSDOF 9
