REMARK  7 active torsions:
REMARK  status: ('A' for Active; 'I' for Inactive)
REMARK    1  A    between atoms: C2_2  and  C11_11 
REMARK    2  A    between atoms: C3_3  and  O7_7 
REMARK    3  A    between atoms: C6_6  and  N10_10 
REMARK    4  A    between atoms: O7_7  and  C8_8 
REMARK    5  A    between atoms: C8_8  and  C9_9 
REMARK       I    between atoms: C11_11  and  N12_12 
REMARK    6  A    between atoms: N12_12  and  C14_14 
REMARK    7  A    between atoms: N27_27  and  C30_30 
ROOT
ATOM      1  C1  A0Q d   1       0.878  -4.570  19.733  0.00  0.00    -0.039 A 
ATOM      2  C2  A0Q d   1       1.799  -4.968  18.765  0.00  0.00     0.067 A 
ATOM      3  C3  A0Q d   1       1.361  -5.822  17.733  0.00  0.00     0.085 A 
ATOM      4  C4  A0Q d   1       0.024  -6.226  17.683  0.00  0.00    -0.048 A 
ATOM      5  C5  A0Q d   1      -0.885  -5.814  18.663  0.00  0.00    -0.055 A 
ATOM      6  C6  A0Q d   1      -0.466  -4.984  19.721  0.00  0.00     0.031 A 
ATOM      7  H1  A0Q d   1       1.212  -3.914  20.529  0.00  0.00     0.088 H 
ATOM      8  H2  A0Q d   1      -0.312  -6.866  16.875  0.00  0.00     0.087 H 
ATOM      9  H3  A0Q d   1      -1.919  -6.136  18.608  0.00  0.00     0.087 H 
ENDROOT
BRANCH   6  10
ATOM     10  N10 A0Q d   1      -1.406  -4.546  20.742  0.00  0.00    -0.378 N 
ATOM     11  C25 A0Q d   1      -0.912  -3.924  21.989  0.00  0.00     0.018 C 
ATOM     12  C26 A0Q d   1      -1.870  -4.175  23.190  0.00  0.00     0.098 C 
ATOM     13  H16 A0Q d   1      -0.818  -2.839  21.831  0.00  0.00     0.066 H 
ATOM     14  H17 A0Q d   1       0.075  -4.346  22.229  0.00  0.00     0.066 H 
ATOM     15  N27 A0Q d   1      -3.284  -3.991  22.823  0.00  0.00    -0.072 N 
ATOM     16  H18 A0Q d   1      -1.619  -3.470  23.996  0.00  0.00     0.078 H 
ATOM     17  H19 A0Q d   1      -1.728  -5.206  23.547  0.00  0.00     0.078 H 
ATOM     18  C28 A0Q d   1      -3.680  -4.960  21.790  0.00  0.00     0.098 C 
ATOM     19  H20 A0Q d   1      -3.376  -3.071  22.421  0.00  0.00     0.279 HD
ATOM     20  C29 A0Q d   1      -2.900  -4.666  20.507  0.00  0.00     0.018 C 
ATOM     21  H21 A0Q d   1      -4.759  -4.871  21.595  0.00  0.00     0.078 H 
ATOM     22  H22 A0Q d   1      -3.453  -5.980  22.134  0.00  0.00     0.078 H 
ATOM     23  H23 A0Q d   1      -3.079  -5.482  19.792  0.00  0.00     0.066 H 
ATOM     24  H24 A0Q d   1      -3.266  -3.720  20.082  0.00  0.00     0.066 H 
BRANCH  15  25
ATOM     25  C30 A0Q d   1      -4.163  -4.036  24.010  0.00  0.00     0.066 C 
ATOM     26  H25 A0Q d   1      -3.822  -3.294  24.747  0.00  0.00     0.068 H 
ATOM     27  H26 A0Q d   1      -4.125  -5.040  24.457  0.00  0.00     0.068 H 
ATOM     28  H27 A0Q d   1      -5.196  -3.807  23.710  0.00  0.00     0.068 H 
ENDBRANCH  15  25
ENDBRANCH   6  10
BRANCH   2  29
ATOM     29  C11 A0Q d   1       3.294  -4.493  18.839  0.00  0.00     0.259 C 
ATOM     30  N12 A0Q d   1       4.265  -5.177  18.169  0.00  0.00    -0.322 N 
ATOM     31  H6  A0Q d   1       4.014  -6.085  17.834  0.00  0.00     0.169 HD
ATOM     32  O13 A0Q d   1       3.596  -3.534  19.545  0.00  0.00    -0.267 OA
BRANCH  30  33
ATOM     33  C14 A0Q d   1       5.592  -4.749  17.892  0.00  0.00     0.052 A 
ATOM     34  C15 A0Q d   1       6.164  -3.609  18.406  0.00  0.00    -0.054 A 
ATOM     35  C16 A0Q d   1       7.455  -3.266  18.087  0.00  0.00    -0.064 A 
ATOM     36  H7  A0Q d   1       5.589  -2.974  19.070  0.00  0.00     0.087 H 
ATOM     37  C17 A0Q d   1       8.191  -4.099  17.248  0.00  0.00     0.002 A 
ATOM     38  H8  A0Q d   1       7.896  -2.358  18.483  0.00  0.00     0.085 H 
ATOM     39  N18 A0Q d   1       7.615  -5.186  16.735  0.00  0.00    -0.271 NA
ATOM     40  H9  A0Q d   1       9.223  -3.865  17.014  0.00  0.00     0.114 H 
ATOM     41  C19 A0Q d   1       6.368  -5.523  17.037  0.00  0.00     0.028 A 
ATOM     42  H10 A0Q d   1       5.944  -6.423  16.607  0.00  0.00     0.118 H 
ENDBRANCH  30  33
ENDBRANCH   2  29
BRANCH   3  43
ATOM     43  O7  A0Q d   1       2.261  -6.214  16.771  0.00  0.00    -0.346 OA
BRANCH  43  44
ATOM     44  C8  A0Q d   1       1.989  -7.393  15.954  0.00  0.00     0.050 C 
ATOM     45  H4  A0Q d   1       1.152  -7.189  15.270  0.00  0.00     0.082 H 
ATOM     46  H5  A0Q d   1       1.734  -8.246  16.601  0.00  0.00     0.082 H 
BRANCH  44  47
ATOM     47  C9  A0Q d   1       3.263  -7.710  15.145  0.00  0.00    -0.034 A 
ATOM     48  C20 A0Q d   1       3.848  -6.741  14.336  0.00  0.00    -0.075 A 
ATOM     49  C21 A0Q d   1       5.016  -6.988  13.621  0.00  0.00    -0.082 A 
ATOM     50  H11 A0Q d   1       3.381  -5.766  14.261  0.00  0.00     0.084 H 
ATOM     51  C22 A0Q d   1       5.601  -8.229  13.702  0.00  0.00    -0.083 A 
ATOM     52  H12 A0Q d   1       5.459  -6.211  13.008  0.00  0.00     0.083 H 
ATOM     53  C23 A0Q d   1       4.999  -9.201  14.496  0.00  0.00    -0.082 A 
ATOM     54  H13 A0Q d   1       6.513  -8.447  13.158  0.00  0.00     0.083 H 
ATOM     55  C24 A0Q d   1       3.849  -8.959  15.234  0.00  0.00    -0.075 A 
ATOM     56  H14 A0Q d   1       5.447 -10.187  14.540  0.00  0.00     0.083 H 
ATOM     57  H15 A0Q d   1       3.421  -9.730  15.864  0.00  0.00     0.084 H 
ENDBRANCH  44  47
ENDBRANCH  43  44
ENDBRANCH   3  43
TORSDOF 7
