REMARK  12 active torsions:
REMARK  status: ('A' for Active; 'I' for Inactive)
REMARK    1  A    between atoms: C2_2  and  C1_1 
REMARK    2  A    between atoms: N4_4  and  C5_5 
REMARK    3  A    between atoms: C5_5  and  C6_6 
REMARK       I    between atoms: C6_6  and  N8_27 
REMARK    4  A    between atoms: C10_7  and  C11_8 
REMARK    5  A    between atoms: C10_7  and  C12_9 
REMARK    6  A    between atoms: C15_11  and  C16_12 
REMARK    7  A    between atoms: C16_12  and  O17_13 
REMARK    8  A    between atoms: C18_30  and  C19_14 
REMARK    9  A    between atoms: C19_14  and  C20_31 
REMARK   10  A    between atoms: C36_23  and  C37_24 
REMARK   11  A    between atoms: C30_34  and  C29_33 
REMARK   12  A    between atoms: C30_34  and  N31_35 
ROOT
ATOM      1  C5  A4E d   1      24.232  -0.432 -22.544  0.00  0.00     0.157 C 
ATOM      2  H8  A4E d   1      23.826   0.566 -22.323  0.00  0.00     0.090 H 
ATOM      3  H9  A4E d   1      25.301  -0.458 -22.286  0.00  0.00     0.090 H 
ENDROOT
BRANCH   1   4
ATOM      4  N4  A4E d   1      24.109  -0.661 -23.991  0.00  0.00    -0.053 N 
ATOM      5  C3  A4E d   1      24.937  -1.798 -24.416  0.00  0.00     0.110 C 
ATOM      6  C2  A4E d   1      24.979  -1.970 -25.932  0.00  0.00     0.121 C 
ATOM      7  H5  A4E d   1      25.963  -1.640 -24.052  0.00  0.00     0.079 H 
ATOM      8  H6  A4E d   1      24.527  -2.716 -23.970  0.00  0.00     0.079 H 
ATOM      9  N39 A4E d   1      23.575  -1.937 -26.465  0.00  0.00    -0.068 N 
ATOM     10  H4  A4E d   1      25.549  -1.135 -26.364  0.00  0.00     0.086 H 
ATOM     11  C38 A4E d   1      22.837  -0.708 -26.074  0.00  0.00     0.110 C 
ATOM     12  H44 A4E d   1      23.077  -2.738 -26.109  0.00  0.00     0.277 HD
ATOM     13  H45 A4E d   1      23.612  -1.984 -27.471  0.00  0.00     0.277 HD
ATOM     14  C29 A4E d   1      22.737  -0.605 -24.555  0.00  0.00     0.150 C 
ATOM     15  H32 A4E d   1      23.369   0.173 -26.462  0.00  0.00     0.079 H 
ATOM     16  H33 A4E d   1      21.824  -0.742 -26.502  0.00  0.00     0.079 H 
ATOM     17  H36 A4E d   1      22.202  -1.493 -24.188  0.00  0.00     0.089 H 
ATOM     18  H7  A4E d   1      24.559   0.140 -24.405  0.00  0.00     0.281 HD
BRANCH   6  19
ATOM     19  C1  A4E d   1      25.645  -3.275 -26.345  0.00  0.00    -0.048 C 
ATOM     20  H1  A4E d   1      26.673  -3.301 -25.956  0.00  0.00     0.030 H 
ATOM     21  H2  A4E d   1      25.667  -3.344 -27.443  0.00  0.00     0.030 H 
ATOM     22  H3  A4E d   1      25.076  -4.123 -25.935  0.00  0.00     0.030 H 
ENDBRANCH   6  19
BRANCH  14  23
ATOM     23  C30 A4E d   1      21.892   0.614 -24.148  0.00  0.00     0.112 C 
ATOM     24  H37 A4E d   1      21.090   0.740 -24.891  0.00  0.00     0.079 H 
ATOM     25  H38 A4E d   1      22.542   1.501 -24.156  0.00  0.00     0.079 H 
BRANCH  23  26
ATOM     26  N31 A4E d   1      21.272   0.510 -22.814  0.00  0.00    -0.061 N 
ATOM     27  C36 A4E d   1      20.789   1.808 -22.272  0.00  0.00     0.121 C 
ATOM     28  C35 A4E d   1      20.084   1.611 -20.928  0.00  0.00     0.046 C 
ATOM     29  H28 A4E d   1      20.042   2.187 -22.986  0.00  0.00     0.087 H 
ATOM     30  O34 A4E d   1      19.044   0.635 -21.024  0.00  0.00    -0.387 OA
ATOM     31  H26 A4E d   1      19.648   2.569 -20.609  0.00  0.00     0.077 H 
ATOM     32  H27 A4E d   1      20.821   1.277 -20.183  0.00  0.00     0.077 H 
ATOM     33  C33 A4E d   1      19.592  -0.625 -21.420  0.00  0.00     0.042 C 
ATOM     34  C32 A4E d   1      20.236  -0.532 -22.790  0.00  0.00     0.103 C 
ATOM     35  H42 A4E d   1      20.351  -0.934 -20.686  0.00  0.00     0.076 H 
ATOM     36  H43 A4E d   1      18.787  -1.373 -21.451  0.00  0.00     0.076 H 
ATOM     37  H40 A4E d   1      20.694  -1.501 -23.039  0.00  0.00     0.079 H 
ATOM     38  H41 A4E d   1      19.464  -0.289 -23.535  0.00  0.00     0.079 H 
ATOM     39  H39 A4E d   1      22.000   0.203 -22.189  0.00  0.00     0.280 HD
BRANCH  27  40
ATOM     40  C37 A4E d   1      21.860   2.889 -22.141  0.00  0.00    -0.047 C 
ATOM     41  H29 A4E d   1      22.363   3.026 -23.110  0.00  0.00     0.030 H 
ATOM     42  H30 A4E d   1      22.598   2.584 -21.384  0.00  0.00     0.030 H 
ATOM     43  H31 A4E d   1      21.390   3.835 -21.835  0.00  0.00     0.030 H 
ENDBRANCH  27  40
ENDBRANCH  23  26
ENDBRANCH  14  23
ENDBRANCH   1   4
BRANCH   1  44
ATOM     44  C6  A4E d   1      23.512  -1.438 -21.660  0.00  0.00     0.250 C 
ATOM     45  O7  A4E d   1      23.016  -2.454 -22.134  0.00  0.00    -0.271 OA
ATOM     46  N8  A4E d   1      23.446  -1.153 -20.306  0.00  0.00    -0.314 N 
ATOM     47  C28 A4E d   1      22.766  -1.868 -19.290  0.00  0.00     0.063 A 
ATOM     48  C9  A4E d   1      24.045   0.066 -19.709  0.00  0.00     0.015 C 
ATOM     49  C13 A4E d   1      23.168  -1.393 -18.049  0.00  0.00     0.071 A 
ATOM     50  C27 A4E d   1      21.838  -2.886 -19.379  0.00  0.00    -0.046 A 
ATOM     51  C10 A4E d   1      24.187  -0.282 -18.211  0.00  0.00     0.016 C 
ATOM     52  N14 A4E d   1      22.714  -1.858 -16.922  0.00  0.00    -0.252 NA
ATOM     53  C15 A4E d   1      21.810  -2.848 -16.943  0.00  0.00     0.065 A 
ATOM     54  C18 A4E d   1      21.328  -3.412 -18.189  0.00  0.00    -0.025 A 
ATOM     55  H25 A4E d   1      21.515  -3.265 -20.342  0.00  0.00     0.088 H 
ATOM     56  H34 A4E d   1      25.027   0.278 -20.156  0.00  0.00     0.066 H 
ATOM     57  H35 A4E d   1      23.384   0.934 -19.848  0.00  0.00     0.066 H 
BRANCH  51  58
ATOM     58  C11 A4E d   1      25.609  -0.729 -17.870  0.00  0.00    -0.062 C 
ATOM     59  H10 A4E d   1      26.301   0.115 -18.006  0.00  0.00     0.029 H 
ATOM     60  H11 A4E d   1      25.903  -1.555 -18.535  0.00  0.00     0.029 H 
ATOM     61  H12 A4E d   1      25.646  -1.069 -16.825  0.00  0.00     0.029 H 
ENDBRANCH  51  58
BRANCH  51  62
ATOM     62  C12 A4E d   1      23.800   0.918 -17.330  0.00  0.00    -0.062 C 
ATOM     63  H13 A4E d   1      22.777   1.239 -17.576  0.00  0.00     0.029 H 
ATOM     64  H14 A4E d   1      24.498   1.748 -17.513  0.00  0.00     0.029 H 
ATOM     65  H15 A4E d   1      23.848   0.626 -16.271  0.00  0.00     0.029 H 
ENDBRANCH  51  62
BRANCH  53  66
ATOM     66  C16 A4E d   1      21.354  -3.308 -15.583  0.00  0.00     0.057 C 
ATOM     67  H16 A4E d   1      20.305  -3.633 -15.649  0.00  0.00     0.083 H 
ATOM     68  H17 A4E d   1      21.434  -2.469 -14.876  0.00  0.00     0.083 H 
BRANCH  66  69
ATOM     69  O17 A4E d   1      22.145  -4.390 -15.108  0.00  0.00    -0.395 OA
ATOM     70  H18 A4E d   1      23.052  -4.114 -15.045  0.00  0.00     0.209 HD
ENDBRANCH  66  69
ENDBRANCH  53  66
BRANCH  54  71
ATOM     71  C19 A4E d   1      20.306  -4.528 -18.247  0.00  0.00    -0.015 C 
ATOM     72  H19 A4E d   1      19.755  -4.426 -19.194  0.00  0.00     0.047 H 
ATOM     73  H20 A4E d   1      19.614  -4.389 -17.403  0.00  0.00     0.047 H 
BRANCH  71  74
ATOM     74  C20 A4E d   1      20.833  -5.938 -18.177  0.00  0.00    -0.054 A 
ATOM     75  C21 A4E d   1      20.372  -6.812 -17.196  0.00  0.00    -0.074 A 
ATOM     76  C22 A4E d   1      20.853  -8.104 -17.131  0.00  0.00    -0.045 A 
ATOM     77  H21 A4E d   1      19.631  -6.476 -16.479  0.00  0.00     0.084 H 
ATOM     78  C23 A4E d   1      21.782  -8.505 -18.041  0.00  0.00     0.116 A 
ATOM     79  H22 A4E d   1      20.497  -8.787 -16.369  0.00  0.00     0.088 H 
ATOM     80  C25 A4E d   1      22.257  -7.683 -19.013  0.00  0.00    -0.045 A 
ATOM     81  F24 A4E d   1      22.254  -9.779 -17.974  0.00  0.00    -0.206 F 
ATOM     82  C26 A4E d   1      21.782  -6.388 -19.087  0.00  0.00    -0.074 A 
ATOM     83  H23 A4E d   1      22.998  -8.038 -19.720  0.00  0.00     0.088 H 
ATOM     84  H24 A4E d   1      22.151  -5.721 -19.858  0.00  0.00     0.084 H 
ENDBRANCH  71  74
ENDBRANCH  54  71
ENDBRANCH   1  44
TORSDOF 12
