REMARK  5 active torsions:
REMARK  status: ('A' for Active; 'I' for Inactive)
REMARK    1  A    between atoms: N02_20  and  C01_1 
REMARK    2  A    between atoms: N07_22  and  C06_4 
REMARK    3  A    between atoms: C10_6  and  C08_5 
REMARK       I    between atoms: C08_5  and  N07_22 
REMARK    4  A    between atoms: S15_27  and  C18_10 
REMARK    5  A    between atoms: N14_23  and  S15_27 
ROOT
ATOM      1  C10 JR5 d   1      29.664  11.830  -1.311  0.00  0.00     0.100 C 
ATOM      2  C11 JR5 d   1      29.367  12.056  -2.539  0.00  0.00    -0.036 C 
ATOM      3  C12 JR5 d   1      30.712  12.198  -3.334  0.00  0.00    -0.047 C 
ATOM      4  C13 JR5 d   1      31.817  11.692  -2.396  0.00  0.00     0.006 C 
ATOM      5  N14 JR5 d   1      31.263  11.490  -1.226  0.00  0.00    -0.293 N 
ATOM      6  H4  JR5 d   1      29.428  12.703  -0.685  0.00  0.00     0.088 H 
ATOM      7  H5  JR5 d   1      28.784  12.985  -2.619  0.00  0.00     0.036 H 
ATOM      8  H6  JR5 d   1      28.779  11.219  -2.943  0.00  0.00     0.036 H 
ATOM      9  H7  JR5 d   1      30.889  13.251  -3.599  0.00  0.00     0.035 H 
ATOM     10  H8  JR5 d   1      30.680  11.589  -4.250  0.00  0.00     0.035 H 
ATOM     11  H9  JR5 d   1      32.615  12.445  -2.311  0.00  0.00     0.065 H 
ATOM     12  H10 JR5 d   1      32.239  10.752  -2.782  0.00  0.00     0.065 H 
ENDROOT
BRANCH   1  13
ATOM     13  C08 JR5 d   1      28.840  10.610  -0.864  0.00  0.00     0.246 C 
ATOM     14  N07 JR5 d   1      27.654  10.875  -0.074  0.00  0.00    -0.310 N 
ATOM     15  H21 JR5 d   1      27.455  11.818   0.193  0.00  0.00     0.170 HD
ATOM     16  O09 JR5 d   1      29.136   9.521  -1.176  0.00  0.00    -0.271 OA
BRANCH  14  17
ATOM     17  C06 JR5 d   1      26.697   9.771   0.367  0.00  0.00     0.134 A 
ATOM     18  C05 JR5 d   1      26.928   8.423   0.547  0.00  0.00     0.014 A 
ATOM     19  C04 JR5 d   1      25.702   7.855   0.928  0.00  0.00     0.065 A 
ATOM     20  C25 JR5 d   1      28.011   7.349   0.530  0.00  0.00    -0.035 C 
ATOM     21  C27 JR5 d   1      25.902   6.359   1.169  0.00  0.00    -0.022 C 
ATOM     22  N03 JR5 d   1      24.761   8.859   0.936  0.00  0.00    -0.175 NA
ATOM     23  C26 JR5 d   1      27.407   6.149   1.228  0.00  0.00    -0.056 C 
ATOM     24  H19 JR5 d   1      25.465   5.776   0.345  0.00  0.00     0.042 H 
ATOM     25  H20 JR5 d   1      25.435   6.058   2.118  0.00  0.00     0.042 H 
ATOM     26  H17 JR5 d   1      27.748   6.100   2.273  0.00  0.00     0.034 H 
ATOM     27  H18 JR5 d   1      27.686   5.221   0.708  0.00  0.00     0.034 H 
ATOM     28  N02 JR5 d   1      25.359  10.005   0.593  0.00  0.00    -0.257 N 
ATOM     29  H15 JR5 d   1      28.905   7.697   1.069  0.00  0.00     0.040 H 
ATOM     30  H16 JR5 d   1      28.283   7.094  -0.505  0.00  0.00     0.040 H 
BRANCH  28  31
ATOM     31  C01 JR5 d   1      24.710  11.348   0.499  0.00  0.00     0.004 C 
ATOM     32  H1  JR5 d   1      23.638  11.254   0.727  0.00  0.00     0.059 H 
ATOM     33  H2  JR5 d   1      24.835  11.745  -0.519  0.00  0.00     0.059 H 
ATOM     34  H3  JR5 d   1      25.179  12.033   1.220  0.00  0.00     0.059 H 
ENDBRANCH  28  31
ENDBRANCH  14  17
ENDBRANCH   1  13
BRANCH   5  35
ATOM     35  S15 JR5 d   1      32.034  11.165   0.228  0.00  0.00     0.261 S 
ATOM     36  O16 JR5 d   1      31.038  10.925   1.264  0.00  0.00    -0.200 OA
ATOM     37  O17 JR5 d   1      32.734   9.854   0.154  0.00  0.00    -0.200 OA
BRANCH  35  38
ATOM     38  C18 JR5 d   1      33.181  12.560   0.671  0.00  0.00     0.079 A 
ATOM     39  C19 JR5 d   1      34.393  12.283   1.304  0.00  0.00    -0.058 A 
ATOM     40  C20 JR5 d   1      35.257  13.331   1.640  0.00  0.00    -0.044 A 
ATOM     41  H11 JR5 d   1      34.664  11.259   1.535  0.00  0.00     0.086 H 
ATOM     42  C21 JR5 d   1      34.903  14.669   1.334  0.00  0.00     0.116 A 
ATOM     43  H12 JR5 d   1      36.198  13.120   2.135  0.00  0.00     0.088 H 
ATOM     44  C23 JR5 d   1      33.683  14.945   0.689  0.00  0.00    -0.044 A 
ATOM     45  F22 JR5 d   1      35.766  15.702   1.671  0.00  0.00    -0.206 F 
ATOM     46  C24 JR5 d   1      32.819  13.902   0.360  0.00  0.00    -0.058 A 
ATOM     47  H13 JR5 d   1      33.416  15.968   0.448  0.00  0.00     0.088 H 
ATOM     48  H14 JR5 d   1      31.875  14.111  -0.131  0.00  0.00     0.086 H 
ENDBRANCH  35  38
ENDBRANCH   5  35
TORSDOF 5
