REMARK  7 active torsions:
REMARK  status: ('A' for Active; 'I' for Inactive)
REMARK    1  A    between atoms: O02_20  and  C01_1 
REMARK    2  A    between atoms: C03_2  and  O02_20 
REMARK    3  A    between atoms: S07_22  and  C06_5 
REMARK    4  A    between atoms: C09_7  and  C08_6 
REMARK    5  A    between atoms: C08_6  and  S07_22 
REMARK       I    between atoms: N11_17  and  C09_7 
REMARK    6  A    between atoms: C12_8  and  N11_17 
REMARK    7  A    between atoms: N19_19  and  C20_14 
ROOT
ATOM      1  C09 JR6 d   1     -28.332 -10.292  -1.093  0.00  0.00     0.232 C 
ATOM      2  N11 JR6 d   1     -27.425 -10.562   0.015  0.00  0.00    -0.311 N 
ATOM      3  O10 JR6 d   1     -28.291  -9.260  -1.664  0.00  0.00    -0.272 OA
ATOM      4  H19 JR6 d   1     -27.475 -11.445   0.482  0.00  0.00     0.170 HD
ENDROOT
BRANCH   1   5
ATOM      5  C08 JR6 d   1     -29.352 -11.341  -1.526  0.00  0.00     0.055 C 
ATOM      6  H6  JR6 d   1     -28.831 -12.236  -1.898  0.00  0.00     0.063 H 
ATOM      7  H7  JR6 d   1     -29.992 -10.932  -2.322  0.00  0.00     0.063 H 
BRANCH   5   8
ATOM      8  S07 JR6 d   1     -30.366 -11.775  -0.083  0.00  0.00    -0.121 SA
BRANCH   8   9
ATOM      9  C06 JR6 d   1     -31.531 -10.435   0.301  0.00  0.00     0.001 A 
ATOM     10  C05 JR6 d   1     -31.567  -9.889   1.577  0.00  0.00    -0.064 A 
ATOM     11  C04 JR6 d   1     -32.456  -8.868   1.866  0.00  0.00    -0.050 A 
ATOM     12  H5  JR6 d   1     -30.900 -10.262   2.346  0.00  0.00     0.085 H 
ATOM     13  C03 JR6 d   1     -33.309  -8.389   0.879  0.00  0.00     0.068 A 
ATOM     14  H4  JR6 d   1     -32.487  -8.442   2.862  0.00  0.00     0.087 H 
ATOM     15  C22 JR6 d   1     -33.268  -8.936  -0.394  0.00  0.00    -0.050 A 
ATOM     16  C21 JR6 d   1     -32.381  -9.959  -0.683  0.00  0.00    -0.064 A 
ATOM     17  H18 JR6 d   1     -33.932  -8.562  -1.165  0.00  0.00     0.087 H 
ATOM     18  H17 JR6 d   1     -32.352 -10.387  -1.679  0.00  0.00     0.085 H 
BRANCH  13  19
ATOM     19  O02 JR6 d   1     -34.206  -7.355   1.170  0.00  0.00    -0.356 OA
BRANCH  19  20
ATOM     20  C01 JR6 d   1     -35.305  -7.260   0.303  0.00  0.00     0.010 C 
ATOM     21  H1  JR6 d   1     -35.946  -6.422   0.614  0.00  0.00     0.066 H 
ATOM     22  H2  JR6 d   1     -35.882  -8.196   0.338  0.00  0.00     0.066 H 
ATOM     23  H3  JR6 d   1     -34.949  -7.088  -0.723  0.00  0.00     0.066 H 
ENDBRANCH  19  20
ENDBRANCH  13  19
ENDBRANCH   8   9
ENDBRANCH   5   8
ENDBRANCH   1   5
BRANCH   2  24
ATOM     24  C12 JR6 d   1     -26.445  -9.574   0.459  0.00  0.00     0.134 A 
ATOM     25  C13 JR6 d   1     -26.697  -8.226   0.695  0.00  0.00     0.014 A 
ATOM     26  C14 JR6 d   1     -27.803  -7.162   0.669  0.00  0.00    -0.035 C 
ATOM     27  C17 JR6 d   1     -25.497  -7.643   1.102  0.00  0.00     0.065 A 
ATOM     28  C15 JR6 d   1     -27.259  -5.965   1.408  0.00  0.00    -0.056 C 
ATOM     29  H8  JR6 d   1     -28.706  -7.540   1.170  0.00  0.00     0.040 H 
ATOM     30  H9  JR6 d   1     -28.046  -6.890  -0.369  0.00  0.00     0.040 H 
ATOM     31  C16 JR6 d   1     -25.746  -6.139   1.378  0.00  0.00    -0.022 C 
ATOM     32  H10 JR6 d   1     -27.626  -5.951   2.445  0.00  0.00     0.034 H 
ATOM     33  H11 JR6 d   1     -27.551  -5.033   0.903  0.00  0.00     0.034 H 
ATOM     34  H12 JR6 d   1     -25.308  -5.850   2.345  0.00  0.00     0.042 H 
ATOM     35  H13 JR6 d   1     -25.306  -5.525   0.578  0.00  0.00     0.042 H 
ATOM     36  N18 JR6 d   1     -24.549  -8.614   1.118  0.00  0.00    -0.175 NA
ATOM     37  N19 JR6 d   1     -25.160  -9.781   0.714  0.00  0.00    -0.257 N 
BRANCH  37  38
ATOM     38  C20 JR6 d   1     -24.480 -11.061   0.596  0.00  0.00     0.004 C 
ATOM     39  H14 JR6 d   1     -23.421 -10.940   0.869  0.00  0.00     0.059 H 
ATOM     40  H15 JR6 d   1     -24.552 -11.421  -0.441  0.00  0.00     0.059 H 
ATOM     41  H16 JR6 d   1     -24.952 -11.790   1.271  0.00  0.00     0.059 H 
ENDBRANCH  37  38
ENDBRANCH   2  24
TORSDOF 7
