REMARK  4 active torsions:
REMARK  status: ('A' for Active; 'I' for Inactive)
REMARK    1  A    between atoms: C03_5  and  N04_6 
REMARK       I    between atoms: N04_6  and  C05_7 
REMARK    2  A    between atoms: C05_7  and  C06_8 
REMARK    3  A    between atoms: C06_8  and  C07_9 
REMARK    4  A    between atoms: C07_9  and  S08_10 
ROOT
ATOM      1  N04 A4W d   1     -19.975  29.903 -24.045  0.00  0.00    -0.325 N 
ATOM      2  C05 A4W d   1     -20.385  30.276 -22.730  0.00  0.00     0.223 C 
ATOM      3  O09 A4W d   1     -20.588  29.430 -21.863  0.00  0.00    -0.273 OA
ATOM      4  H2  A4W d   1     -19.848  30.598 -24.753  0.00  0.00     0.169 HD
ENDROOT
BRANCH   1   5
ATOM      5  C03 A4W d   1     -19.749  28.530 -24.335  0.00  0.00     0.075 A 
ATOM      6  C10 A4W d   1     -18.522  28.159 -24.867  0.00  0.00    -0.054 A 
ATOM      7  C11 A4W d   1     -18.252  26.836 -25.150  0.00  0.00    -0.079 A 
ATOM      8  H1  A4W d   1     -17.770  28.915 -25.062  0.00  0.00     0.087 H 
ATOM      9  C12 A4W d   1     -19.202  25.872 -24.894  0.00  0.00    -0.059 A 
ATOM     10  H8  A4W d   1     -17.294  26.556 -25.573  0.00  0.00     0.083 H 
ATOM     11  C13 A4W d   1     -20.428  26.242 -24.357  0.00  0.00     0.074 A 
ATOM     12  H9  A4W d   1     -18.994  24.830 -25.110  0.00  0.00     0.086 H 
ATOM     13  C02 A4W d   1     -20.702  27.562 -24.065  0.00  0.00     0.164 A 
ATOM     14 CL1  A4W d   1     -21.655  25.060 -24.000  0.00  0.00    -0.081 Cl
ATOM     15  F01 A4W d   1     -21.897  27.879 -23.533  0.00  0.00    -0.202 F 
ENDBRANCH   1   5
BRANCH   2  16
ATOM     16  C06 A4W d   1     -20.579  31.742 -22.429  0.00  0.00     0.017 C 
ATOM     17  H3  A4W d   1     -21.634  31.967 -22.642  0.00  0.00     0.048 H 
ATOM     18  H4  A4W d   1     -19.938  32.293 -23.133  0.00  0.00     0.048 H 
BRANCH  16  19
ATOM     19  C07 A4W d   1     -20.319  32.245 -21.197  0.00  0.00    -0.018 C 
ATOM     20  H5  A4W d   1     -20.873  33.193 -21.128  0.00  0.00     0.049 H 
ATOM     21  H6  A4W d   1     -19.238  32.449 -21.170  0.00  0.00     0.049 H 
BRANCH  19  22
ATOM     22  S08 A4W d   1     -20.692  31.342 -19.710  0.00  0.00    -0.182 SA
ATOM     23  H7  A4W d   1     -20.422  31.891 -18.909  0.00  0.00     0.101 HD
ENDBRANCH  19  22
ENDBRANCH  16  19
ENDBRANCH   2  16
TORSDOF 4
