REMARK  3 active torsions:
REMARK  status: ('A' for Active; 'I' for Inactive)
REMARK    1  A    between atoms: C5_4  and  C8_1 
REMARK    2  A    between atoms: C2_7  and  C1_8 
REMARK    3  A    between atoms: C_12  and  N_13 
ROOT
ATOM      1  C7  A5Q d   1     -12.231  14.077 -15.708  0.00  0.00    -0.070 A 
ATOM      2  C4  A5Q d   1     -10.667  13.941 -17.980  0.00  0.00    -0.067 A 
ATOM      3  C5  A5Q d   1     -11.430  15.065 -17.737  0.00  0.00     0.048 A 
ATOM      4  C6  A5Q d   1     -12.212  15.135 -16.603  0.00  0.00    -0.067 A 
ATOM      5  C3  A5Q d   1     -10.682  12.879 -17.090  0.00  0.00    -0.070 A 
ATOM      6  C2  A5Q d   1     -11.471  12.938 -15.936  0.00  0.00    -0.003 A 
ATOM      7  H1  A5Q d   1     -12.847  14.140 -14.818  0.00  0.00     0.084 H 
ATOM      8  H2  A5Q d   1     -10.053  13.889 -18.872  0.00  0.00     0.084 H 
ATOM      9  H3  A5Q d   1     -12.812  16.017 -16.412  0.00  0.00     0.084 H 
ATOM     10  H4  A5Q d   1     -10.080  11.999 -17.288  0.00  0.00     0.084 H 
ENDROOT
BRANCH   6  11
ATOM     11  C1  A5Q d   1     -11.493  11.811 -14.979  0.00  0.00     0.118 A 
ATOM     12  C   A5Q d   1     -10.852  10.582 -15.011  0.00  0.00     0.113 A 
ATOM     13  S   A5Q d   1     -11.211   9.805 -13.791  0.00  0.00     0.022 SA
ATOM     14  N1  A5Q d   1     -12.069  10.700 -13.128  0.00  0.00    -0.035 NA
ATOM     15  N2  A5Q d   1     -12.223  11.891 -13.857  0.00  0.00    -0.166 NA
BRANCH  12  16
ATOM     16  N   A5Q d   1     -10.038  10.131 -15.966  0.00  0.00    -0.391 N 
ATOM     17  H5  A5Q d   1      -9.616   9.195 -15.883  0.00  0.00     0.157 HD
ATOM     18  H6  A5Q d   1      -9.832  10.718 -16.787  0.00  0.00     0.157 HD
ENDBRANCH  12  16
ENDBRANCH   6  11
BRANCH   3  19
ATOM     19  C8  A5Q d   1     -11.408  16.206 -18.705  0.00  0.00     0.417 C 
ATOM     20  F2  A5Q d   1     -11.183  15.817 -19.966  0.00  0.00    -0.166 F 
ATOM     21  F   A5Q d   1     -10.460  17.111 -18.421  0.00  0.00    -0.166 F 
ATOM     22  F1  A5Q d   1     -12.566  16.886 -18.731  0.00  0.00    -0.166 F 
ENDBRANCH   3  19
TORSDOF 3
