REMARK  4 active torsions:
REMARK  status: ('A' for Active; 'I' for Inactive)
REMARK    1  A    between atoms: C3_8  and  C4_5 
REMARK    2  A    between atoms: C4_5  and  O1_15 
REMARK    3  A    between atoms: C2_9  and  C5_6 
REMARK    4  A    between atoms: C1_10  and  C_16 
ROOT
ATOM      1  C3  A5Z d   1     -11.942  15.253 -19.615  0.00  0.00     0.029 A 
ATOM      2  C2  A5Z d   1     -11.875  14.980 -18.223  0.00  0.00     0.109 A 
ATOM      3  C1  A5Z d   1     -12.242  16.562 -19.672  0.00  0.00     0.086 A 
ATOM      4  N   A5Z d   1     -12.122  16.065 -17.522  0.00  0.00    -0.127 NA
ATOM      5  O   A5Z d   1     -12.338  17.063 -18.412  0.00  0.00    -0.217 OA
ENDROOT
BRANCH   2   6
ATOM      6  C5  A5Z d   1     -11.598  13.720 -17.495  0.00  0.00     0.039 A 
ATOM      7  C10 A5Z d   1     -10.463  12.954 -17.758  0.00  0.00     0.048 A 
ATOM      8  C9  A5Z d   1     -10.225  11.790 -17.053  0.00  0.00    -0.061 A 
ATOM      9 CL1  A5Z d   1      -9.318  13.491 -18.933  0.00  0.00    -0.083 Cl
ATOM     10  C8  A5Z d   1     -11.119  11.367 -16.104  0.00  0.00    -0.080 A 
ATOM     11  H1  A5Z d   1      -9.330  11.211 -17.250  0.00  0.00     0.086 H 
ATOM     12  C7  A5Z d   1     -12.252  12.097 -15.839  0.00  0.00    -0.061 A 
ATOM     13  H2  A5Z d   1     -10.931  10.449 -15.559  0.00  0.00     0.083 H 
ATOM     14  C6  A5Z d   1     -12.481  13.277 -16.522  0.00  0.00     0.048 A 
ATOM     15  H3  A5Z d   1     -12.963  11.750 -15.098  0.00  0.00     0.086 H 
ATOM     16 CL   A5Z d   1     -13.913  14.188 -16.191  0.00  0.00    -0.083 Cl
ENDBRANCH   2   6
BRANCH   1  17
ATOM     17  C4  A5Z d   1     -11.773  14.329 -20.771  0.00  0.00     0.045 C 
ATOM     18  H4  A5Z d   1     -11.062  13.534 -20.502  0.00  0.00     0.081 H 
ATOM     19  H5  A5Z d   1     -11.386  14.891 -21.634  0.00  0.00     0.081 H 
BRANCH  17  20
ATOM     20  O1  A5Z d   1     -13.027  13.744 -21.113  0.00  0.00    -0.396 OA
ATOM     21  H6  A5Z d   1     -12.911  13.157 -21.851  0.00  0.00     0.209 HD
ENDBRANCH  17  20
ENDBRANCH   1  17
BRANCH   3  22
ATOM     22  C   A5Z d   1     -12.469  17.521 -20.776  0.00  0.00    -0.029 C 
ATOM     23  H7  A5Z d   1     -12.693  18.514 -20.359  0.00  0.00     0.036 H 
ATOM     24  H8  A5Z d   1     -13.317  17.181 -21.389  0.00  0.00     0.036 H 
ATOM     25  H9  A5Z d   1     -11.566  17.581 -21.401  0.00  0.00     0.036 H 
ENDBRANCH   3  22
TORSDOF 4
