REMARK  3 active torsions:
REMARK  status: ('A' for Active; 'I' for Inactive)
REMARK    1  A    between atoms: O_13  and  C4_5 
REMARK    2  A    between atoms: C3_8  and  O_13 
REMARK    3  A    between atoms: C_15  and  N_16 
ROOT
ATOM      1  C10 A6H d   1     -12.691  15.490 -20.680  0.00  0.00     0.030 A 
ATOM      2  C3  A6H d   1     -11.925  15.884 -18.576  0.00  0.00     0.169 A 
ATOM      3  C2  A6H d   1     -12.011  17.260 -18.741  0.00  0.00    -0.029 A 
ATOM      4  C1  A6H d   1     -12.464  17.744 -19.934  0.00  0.00    -0.052 A 
ATOM      5  N1  A6H d   1     -12.254  15.014 -19.511  0.00  0.00    -0.235 NA
ATOM      6  C   A6H d   1     -12.813  16.842 -20.927  0.00  0.00     0.043 A 
ATOM      7  H1  A6H d   1     -12.959  14.789 -21.462  0.00  0.00     0.118 H 
ATOM      8  H5  A6H d   1     -11.725  17.934 -17.941  0.00  0.00     0.090 H 
ATOM      9  H6  A6H d   1     -12.549  18.812 -20.102  0.00  0.00     0.087 H 
ENDROOT
BRANCH   2  10
ATOM     10  O   A6H d   1     -11.485  15.429 -17.365  0.00  0.00    -0.289 OA
BRANCH  10  11
ATOM     11  C4  A6H d   1     -11.366  14.040 -17.058  0.00  0.00     0.121 A 
ATOM     12  C9  A6H d   1     -12.345  13.412 -16.312  0.00  0.00     0.069 A 
ATOM     13  C8  A6H d   1     -12.253  12.074 -15.982  0.00  0.00    -0.059 A 
ATOM     14 CL1  A6H d   1     -13.717  14.325 -15.798  0.00  0.00    -0.081 Cl
ATOM     15  C7  A6H d   1     -11.155  11.352 -16.397  0.00  0.00    -0.080 A 
ATOM     16  H2  A6H d   1     -13.036  11.597 -15.403  0.00  0.00     0.086 H 
ATOM     17  C6  A6H d   1     -10.160  11.953 -17.135  0.00  0.00    -0.059 A 
ATOM     18  H3  A6H d   1     -11.074  10.302 -16.140  0.00  0.00     0.083 H 
ATOM     19  C5  A6H d   1     -10.274  13.292 -17.459  0.00  0.00     0.069 A 
ATOM     20  H4  A6H d   1      -9.297  11.383 -17.458  0.00  0.00     0.086 H 
ATOM     21 CL   A6H d   1      -9.026  14.048 -18.387  0.00  0.00    -0.081 Cl
ENDBRANCH  10  11
ENDBRANCH   2  10
BRANCH   6  22
ATOM     22  N   A6H d   1     -13.269  17.258 -22.122  0.00  0.00    -0.398 N 
ATOM     23  H7  A6H d   1     -13.522  16.569 -22.845  0.00  0.00     0.156 HD
ATOM     24  H8  A6H d   1     -13.365  18.265 -22.314  0.00  0.00     0.156 HD
ENDBRANCH   6  22
TORSDOF 3
