REMARK  2 active torsions:
REMARK  status: ('A' for Active; 'I' for Inactive)
REMARK    1  A    between atoms: C3_10  and  C4_2 
REMARK    2  A    between atoms: C9_11  and  O1_12 
ROOT
ATOM      1  C4  AY4 d   1     -11.442  14.171 -17.376  0.00  0.00     0.034 A 
ATOM      2  C5  AY4 d   1     -12.230  15.305 -17.534  0.00  0.00    -0.031 A 
ATOM      3  C6  AY4 d   1     -11.892  16.254 -18.471  0.00  0.00     0.120 A 
ATOM      4  C7  AY4 d   1     -10.773  16.120 -19.280  0.00  0.00    -0.006 A 
ATOM      5  C8  AY4 d   1      -9.997  15.004 -19.123  0.00  0.00     0.153 A 
ATOM      6  C9  AY4 d   1     -10.306  14.027 -18.190  0.00  0.00     0.117 A 
ATOM      7  F1  AY4 d   1      -8.894  14.848 -19.904  0.00  0.00    -0.203 F 
ATOM      8  F2  AY4 d   1     -12.671  17.352 -18.613  0.00  0.00    -0.206 F 
ATOM      9  H2  AY4 d   1     -13.112  15.442 -16.918  0.00  0.00     0.089 H 
ATOM     10  H3  AY4 d   1     -10.521  16.877 -20.014  0.00  0.00     0.093 H 
ENDROOT
BRANCH   1  11
ATOM     11  C3  AY4 d   1     -11.811  13.162 -16.371  0.00  0.00     0.091 A 
ATOM     12  C1  AY4 d   1     -12.869  13.141 -15.497  0.00  0.00    -0.036 A 
ATOM     13  C2  AY4 d   1     -12.753  11.970 -14.770  0.00  0.00    -0.002 A 
ATOM     14  H4  AY4 d   1     -13.646  13.897 -15.396  0.00  0.00     0.089 H 
ATOM     15  N1  AY4 d   1     -11.684  11.284 -15.156  0.00  0.00    -0.289 N 
ATOM     16  H5  AY4 d   1     -13.443  11.654 -13.989  0.00  0.00     0.113 H 
ATOM     17  N2  AY4 d   1     -11.115  12.028 -16.139  0.00  0.00    -0.175 NA
ATOM     18  H1  AY4 d   1     -11.356  10.380 -14.788  0.00  0.00     0.188 HD
ENDBRANCH   1  11
BRANCH   6  19
ATOM     19  O1  AY4 d   1      -9.495  12.940 -18.083  0.00  0.00    -0.357 OA
ATOM     20  H6  AY4 d   1      -9.830  12.361 -17.408  0.00  0.00     0.218 HD
ENDBRANCH   6  19
TORSDOF 2
