REMARK  5 active torsions:
REMARK  status: ('A' for Active; 'I' for Inactive)
REMARK    1  A    between atoms: C6_7  and  C7_4 
REMARK    2  A    between atoms: C4_5  and  N1_15 
REMARK    3  A    between atoms: C3_8  and  C2_9 
REMARK    4  A    between atoms: C2_9  and  O1_11 
REMARK    5  A    between atoms: O1_11  and  C1_10 
ROOT
ATOM      1  C4  A6W d   1      -9.929  10.918 -15.990  0.00  0.00     0.050 A 
ATOM      2  C5  A6W d   1      -9.954  12.046 -16.825  0.00  0.00    -0.038 A 
ATOM      3  C6  A6W d   1     -10.762  13.076 -16.373  0.00  0.00     0.025 A 
ATOM      4  C3  A6W d   1     -10.728  11.038 -14.849  0.00  0.00     0.107 A 
ATOM      5  S1  A6W d   1     -11.480  12.584 -14.882  0.00  0.00    -0.081 SA
ATOM      6  H4  A6W d   1      -9.385  12.106 -17.752  0.00  0.00     0.089 H 
ENDROOT
BRANCH   3   7
ATOM      7  C7  A6W d   1     -11.012  14.318 -16.945  0.00  0.00     0.022 A 
ATOM      8  C8  A6W d   1     -11.815  15.360 -16.507  0.00  0.00    -0.065 A 
ATOM      9  C9  A6W d   1     -11.834  16.488 -17.344  0.00  0.00    -0.075 A 
ATOM     10  H3  A6W d   1     -12.388  15.308 -15.583  0.00  0.00     0.085 H 
ATOM     11  C10 A6W d   1     -11.035  16.350 -18.470  0.00  0.00    -0.044 A 
ATOM     12  H2  A6W d   1     -12.418  17.382 -17.130  0.00  0.00     0.084 H 
ATOM     13  S2  A6W d   1     -10.294  14.816 -18.433  0.00  0.00    -0.101 SA
ATOM     14  H1  A6W d   1     -10.903  17.099 -19.249  0.00  0.00     0.095 H 
ENDBRANCH   3   7
BRANCH   1  15
ATOM     15  N1  A6W d   1      -9.171   9.797 -16.295  0.00  0.00    -0.398 N 
ATOM     16  H8  A6W d   1      -8.604   9.777 -17.155  0.00  0.00     0.156 HD
ATOM     17  H9  A6W d   1      -9.175   8.985 -15.662  0.00  0.00     0.156 HD
ENDBRANCH   1  15
BRANCH   4  18
ATOM     18  C2  A6W d   1     -10.970  10.106 -13.750  0.00  0.00     0.302 C 
ATOM     19  O2  A6W d   1     -11.697  10.344 -12.815  0.00  0.00    -0.259 OA
BRANCH  18  20
ATOM     20  O1  A6W d   1     -10.293   8.968 -13.902  0.00  0.00    -0.322 OA
BRANCH  20  21
ATOM     21  C1  A6W d   1     -10.467   7.986 -12.856  0.00  0.00     0.013 C 
ATOM     22  H5  A6W d   1      -9.865   7.095 -13.086  0.00  0.00     0.067 H 
ATOM     23  H6  A6W d   1     -11.528   7.705 -12.790  0.00  0.00     0.067 H 
ATOM     24  H7  A6W d   1     -10.140   8.411 -11.896  0.00  0.00     0.067 H 
ENDBRANCH  20  21
ENDBRANCH  18  20
ENDBRANCH   4  18
TORSDOF 5
