REMARK  2 active torsions:
REMARK  status: ('A' for Active; 'I' for Inactive)
REMARK    1  A    between atoms: N2_15  and  C11_2 
REMARK    2  A    between atoms: C3_10  and  N1_14 
ROOT
ATOM      1  C12 A6Z d   1     -11.661  10.388 -13.477  0.00  0.00     0.086 C 
ATOM      2  C11 A6Z d   1     -11.719  10.212 -15.008  0.00  0.00     0.161 C 
ATOM      3  N3  A6Z d   1     -11.734  10.477 -12.334  0.00  0.00    -0.196 NA
ATOM      4  H1  A6Z d   1     -12.692   9.797 -15.309  0.00  0.00     0.098 H 
ATOM      5  H2  A6Z d   1     -10.914   9.543 -15.347  0.00  0.00     0.098 H 
ENDROOT
BRANCH   2   6
ATOM      6  N2  A6Z d   1     -11.543  11.530 -15.564  0.00  0.00    -0.056 N 
ATOM      7  C9  A6Z d   1     -12.835  12.017 -15.838  0.00  0.00     0.099 C 
ATOM      8  C10 A6Z d   1     -12.927  13.285 -16.692  0.00  0.00     0.018 C 
ATOM      9  H5  A6Z d   1     -13.386  11.222 -16.362  0.00  0.00     0.078 H 
ATOM     10  H6  A6Z d   1     -13.322  12.228 -14.875  0.00  0.00     0.078 H 
ATOM     11  N1  A6Z d   1     -11.713  13.595 -17.340  0.00  0.00    -0.378 N 
ATOM     12  H3  A6Z d   1     -13.204  14.128 -16.042  0.00  0.00     0.066 H 
ATOM     13  H4  A6Z d   1     -13.706  13.139 -17.455  0.00  0.00     0.066 H 
ATOM     14  C7  A6Z d   1     -10.599  12.699 -17.477  0.00  0.00     0.018 C 
ATOM     15  C8  A6Z d   1     -10.715  11.422 -16.701  0.00  0.00     0.099 C 
ATOM     16  H9  A6Z d   1     -10.496  12.443 -18.542  0.00  0.00     0.066 H 
ATOM     17  H10 A6Z d   1      -9.694  13.224 -17.137  0.00  0.00     0.066 H 
ATOM     18  H7  A6Z d   1      -9.709  11.121 -16.372  0.00  0.00     0.078 H 
ATOM     19  H8  A6Z d   1     -11.131  10.648 -17.363  0.00  0.00     0.078 H 
ATOM     20  H15 A6Z d   1     -11.096  12.136 -14.894  0.00  0.00     0.281 HD
BRANCH  11  21
ATOM     21  C3  A6Z d   1     -11.474  14.846 -17.956  0.00  0.00     0.031 A 
ATOM     22  C4  A6Z d   1     -10.016  15.177 -18.198  0.00  0.00    -0.036 A 
ATOM     23  C5  A6Z d   1      -9.667  16.363 -18.801  0.00  0.00     0.036 A 
ATOM     24  H11 A6Z d   1      -9.245  14.477 -17.895  0.00  0.00     0.089 H 
ATOM     25  C6  A6Z d   1     -10.759  17.357 -19.243  0.00  0.00    -0.062 A 
ATOM     26 CL1  A6Z d   1      -7.986  16.623 -19.011  0.00  0.00    -0.084 Cl
ATOM     27  C1  A6Z d   1     -12.086  17.053 -19.033  0.00  0.00    -0.079 A 
ATOM     28  H12 A6Z d   1     -10.484  18.292 -19.717  0.00  0.00     0.086 H 
ATOM     29  C2  A6Z d   1     -12.468  15.723 -18.360  0.00  0.00    -0.057 A 
ATOM     30  H14 A6Z d   1     -12.858  17.748 -19.341  0.00  0.00     0.083 H 
ATOM     31  H13 A6Z d   1     -13.511  15.473 -18.203  0.00  0.00     0.086 H 
ENDBRANCH  11  21
ENDBRANCH   2   6
TORSDOF 2
