REMARK  6 active torsions:
REMARK  status: ('A' for Active; 'I' for Inactive)
REMARK    1  A    between atoms: C9_2  and  C10_1 
REMARK    2  A    between atoms: C6_7  and  C9_2 
REMARK    3  A    between atoms: C9_2  and  N1_12 
REMARK    4  A    between atoms: O1_11  and  C3_8 
REMARK    5  A    between atoms: C2_9  and  C1_10 
REMARK    6  A    between atoms: C2_9  and  O1_11 
ROOT
ATOM      1  C8  A7N d   1     -12.840  13.147 -16.192  0.00  0.00    -0.050 A 
ATOM      2  C7  A7N d   1     -12.359  12.083 -15.449  0.00  0.00    -0.072 A 
ATOM      3  C4  A7N d   1     -10.775  13.217 -17.412  0.00  0.00    -0.050 A 
ATOM      4  C5  A7N d   1     -10.301  12.153 -16.665  0.00  0.00    -0.072 A 
ATOM      5  C6  A7N d   1     -11.081  11.565 -15.669  0.00  0.00    -0.028 A 
ATOM      6  C3  A7N d   1     -12.048  13.719 -17.181  0.00  0.00     0.068 A 
ATOM      7  H5  A7N d   1     -13.835  13.534 -16.003  0.00  0.00     0.087 H 
ATOM      8  H6  A7N d   1     -12.986  11.643 -14.682  0.00  0.00     0.084 H 
ATOM      9  H7  A7N d   1     -10.150  13.659 -18.180  0.00  0.00     0.087 H 
ATOM     10  H8  A7N d   1      -9.306  11.769 -16.857  0.00  0.00     0.084 H 
ENDROOT
BRANCH   5  11
ATOM     11  C9  A7N d   1     -10.553  10.405 -14.858  0.00  0.00     0.121 C 
ATOM     12  H4  A7N d   1      -9.458  10.502 -14.819  0.00  0.00     0.090 H 
BRANCH  11  13
ATOM     13  C10 A7N d   1     -11.069  10.373 -13.423  0.00  0.00    -0.046 C 
ATOM     14  H1  A7N d   1     -10.643   9.505 -12.899  0.00  0.00     0.030 H 
ATOM     15  H2  A7N d   1     -12.166  10.295 -13.430  0.00  0.00     0.030 H 
ATOM     16  H3  A7N d   1     -10.770  11.296 -12.905  0.00  0.00     0.030 H 
ENDBRANCH  11  13
BRANCH  11  17
ATOM     17  N1  A7N d   1     -10.890   9.104 -15.522  0.00  0.00    -0.071 N 
ATOM     18  H14 A7N d   1     -10.553   9.114 -16.472  0.00  0.00     0.275 HD
ATOM     19  H15 A7N d   1     -11.890   8.976 -15.521  0.00  0.00     0.275 HD
ATOM     20  H16 A7N d   1     -10.454   8.347 -15.019  0.00  0.00     0.275 HD
ENDBRANCH  11  17
ENDBRANCH   5  11
BRANCH   6  21
ATOM     21  O1  A7N d   1     -12.514  14.779 -17.918  0.00  0.00    -0.352 OA
BRANCH  21  22
ATOM     22  C2  A7N d   1     -11.643  15.346 -18.906  0.00  0.00     0.023 C 
ATOM     23  H9  A7N d   1     -10.646  15.519 -18.474  0.00  0.00     0.074 H 
ATOM     24  H10 A7N d   1     -11.557  14.666 -19.767  0.00  0.00     0.074 H 
BRANCH  22  25
ATOM     25  C1  A7N d   1     -12.252  16.657 -19.342  0.00  0.00    -0.056 C 
ATOM     26  H11 A7N d   1     -11.610  17.124 -20.103  0.00  0.00     0.030 H 
ATOM     27  H12 A7N d   1     -12.339  17.327 -18.474  0.00  0.00     0.030 H 
ATOM     28  H13 A7N d   1     -13.250  16.474 -19.767  0.00  0.00     0.030 H 
ENDBRANCH  22  25
ENDBRANCH  21  22
ENDBRANCH   6  21
TORSDOF 6
