REMARK  3 active torsions:
REMARK  status: ('A' for Active; 'I' for Inactive)
REMARK    1  A    between atoms: C10_2  and  C11_1 
REMARK       I    between atoms: C11_1  and  N1_14 
REMARK    2  A    between atoms: C6_8  and  C7_5 
REMARK    3  A    between atoms: N1_14  and  N2_15 
ROOT
ATOM      1  C10 A9B d   1      -3.460  30.220 -25.244  0.00  0.00     0.145 A 
ATOM      2  C9  A9B d   1      -2.867  31.393 -24.929  0.00  0.00    -0.042 A 
ATOM      3  C8  A9B d   1      -1.815  31.088 -24.080  0.00  0.00    -0.047 A 
ATOM      4  C7  A9B d   1      -1.787  29.742 -23.895  0.00  0.00     0.086 A 
ATOM      5  O1  A9B d   1      -2.807  29.183 -24.617  0.00  0.00    -0.304 OA
ATOM      6  H1  A9B d   1      -3.159  32.384 -25.275  0.00  0.00     0.088 H 
ATOM      7  H2  A9B d   1      -1.127  31.806 -23.636  0.00  0.00     0.087 H 
ENDROOT
BRANCH   4   8
ATOM      8  C6  A9B d   1      -0.947  28.832 -23.129  0.00  0.00    -0.002 A 
ATOM      9  C5  A9B d   1      -1.195  27.459 -23.142  0.00  0.00    -0.069 A 
ATOM     10  C4  A9B d   1      -0.403  26.595 -22.413  0.00  0.00    -0.061 A 
ATOM     11  H4  A9B d   1      -2.017  27.067 -23.730  0.00  0.00     0.085 H 
ATOM     12  C3  A9B d   1       0.641  27.099 -21.667  0.00  0.00     0.034 A 
ATOM     13  H3  A9B d   1      -0.600  25.529 -22.427  0.00  0.00     0.086 H 
ATOM     14  C2  A9B d   1       0.908  28.456 -21.634  0.00  0.00    -0.061 A 
ATOM     15 CL1  A9B d   1       1.643  26.012 -20.748  0.00  0.00    -0.084 Cl
ATOM     16  C1  A9B d   1       0.112  29.316 -22.364  0.00  0.00    -0.069 A 
ATOM     17  H5  A9B d   1       1.732  28.839 -21.043  0.00  0.00     0.086 H 
ATOM     18  H6  A9B d   1       0.314  30.381 -22.342  0.00  0.00     0.085 H 
ENDBRANCH   4   8
BRANCH   1  19
ATOM     19  C11 A9B d   1      -4.599  29.823 -26.076  0.00  0.00     0.298 C 
ATOM     20  O2  A9B d   1      -4.881  28.638 -26.255  0.00  0.00    -0.264 OA
ATOM     21  N1  A9B d   1      -5.311  30.821 -26.623  0.00  0.00    -0.184 N 
ATOM     22  H7  A9B d   1      -6.033  30.592 -27.276  0.00  0.00     0.196 HD
BRANCH  21  23
ATOM     23  N2  A9B d   1      -5.086  32.170 -26.318  0.00  0.00     0.003 N 
ATOM     24  H8  A9B d   1      -5.730  32.744 -26.839  0.00  0.00     0.303 HD
ATOM     25  H9  A9B d   1      -4.140  32.417 -26.565  0.00  0.00     0.303 HD
ATOM     26  H10 A9B d   1      -5.226  32.319 -25.331  0.00  0.00     0.303 HD
ENDBRANCH  21  23
ENDBRANCH   1  19
TORSDOF 3
