REMARK  11 active torsions:
REMARK  status: ('A' for Active; 'I' for Inactive)
REMARK    1  A    between atoms: C14_2  and  O19_23 
REMARK    2  A    between atoms: C11_5  and  C12_8 
REMARK    3  A    between atoms: N9_21  and  C11_5 
REMARK    4  A    between atoms: C1_11  and  O22_24 
REMARK    5  A    between atoms: C17_14  and  O18_22 
REMARK    6  A    between atoms: O23_25  and  C2_15 
REMARK    7  A    between atoms: O18_22  and  C20_16 
REMARK    8  A    between atoms: O19_23  and  C21_17 
REMARK    9  A    between atoms: O22_24  and  C28_18 
REMARK   10  A    between atoms: S24_29  and  N25_19 
REMARK   11  A    between atoms: O23_25  and  S24_29 
ROOT
ATOM      1  C4  A9Q d   1      18.475  66.969  44.817  0.00  0.00     0.047 A 
ATOM      2  C5  A9Q d   1      17.939  65.863  44.139  0.00  0.00    -0.011 A 
ATOM      3  C6  A9Q d   1      17.425  64.802  44.898  0.00  0.00    -0.038 A 
ATOM      4  C8  A9Q d   1      18.893  68.149  42.655  0.00  0.00     0.323 C 
ATOM      5  C10 A9Q d   1      17.919  65.806  42.637  0.00  0.00     0.025 C 
ATOM      6  C3  A9Q d   1      18.493  67.018  46.220  0.00  0.00    -0.020 A 
ATOM      7  C1  A9Q d   1      17.439  64.841  46.308  0.00  0.00     0.103 A 
ATOM      8  C2  A9Q d   1      17.971  65.966  46.978  0.00  0.00     0.126 A 
ATOM      9  N7  A9Q d   1      19.017  68.085  44.072  0.00  0.00    -0.308 N 
ATOM     10  N9  A9Q d   1      18.347  67.071  41.996  0.00  0.00    -0.325 N 
ATOM     11  O29 A9Q d   1      19.248  69.152  42.007  0.00  0.00    -0.247 OA
ATOM     12  H1  A9Q d   1      17.010  63.937  44.393  0.00  0.00     0.088 H 
ATOM     13  H4  A9Q d   1      16.894  65.579  42.310  0.00  0.00     0.071 H 
ATOM     14  H5  A9Q d   1      18.595  65.003  42.309  0.00  0.00     0.071 H 
ATOM     15  H7  A9Q d   1      18.916  67.881  46.721  0.00  0.00     0.091 H 
ATOM     16  H21 A9Q d   1      19.485  68.822  44.559  0.00  0.00     0.170 HD
ENDROOT
BRANCH  10  17
ATOM     17  C11 A9Q d   1      18.093  67.275  40.560  0.00  0.00     0.026 C 
ATOM     18  H2  A9Q d   1      18.421  68.285  40.274  0.00  0.00     0.071 H 
ATOM     19  H3  A9Q d   1      18.659  66.529  39.983  0.00  0.00     0.071 H 
BRANCH  17  20
ATOM     20  C12 A9Q d   1      16.634  67.127  40.260  0.00  0.00    -0.004 A 
ATOM     21  C14 A9Q d   1      16.191  66.664  39.012  0.00  0.00     0.076 A 
ATOM     22  C15 A9Q d   1      14.828  66.516  38.732  0.00  0.00    -0.048 A 
ATOM     23  C16 A9Q d   1      13.900  66.833  39.711  0.00  0.00    -0.048 A 
ATOM     24  H8  A9Q d   1      14.502  66.158  37.762  0.00  0.00     0.087 H 
ATOM     25  C17 A9Q d   1      14.340  67.292  40.958  0.00  0.00     0.069 A 
ATOM     26  H9  A9Q d   1      12.840  66.726  39.512  0.00  0.00     0.087 H 
ATOM     27  C13 A9Q d   1      15.698  67.439  41.234  0.00  0.00    -0.040 A 
ATOM     28  H6  A9Q d   1      16.021  67.796  42.205  0.00  0.00     0.088 H 
BRANCH  21  29
ATOM     29  O19 A9Q d   1      17.127  66.366  38.040  0.00  0.00    -0.355 OA
BRANCH  29  30
ATOM     30  C21 A9Q d   1      16.838  66.816  36.715  0.00  0.00     0.010 C 
ATOM     31  H13 A9Q d   1      17.654  66.518  36.040  0.00  0.00     0.066 H 
ATOM     32  H14 A9Q d   1      16.742  67.912  36.713  0.00  0.00     0.066 H 
ATOM     33  H15 A9Q d   1      15.895  66.365  36.372  0.00  0.00     0.066 H 
ENDBRANCH  29  30
ENDBRANCH  21  29
BRANCH  25  34
ATOM     34  O18 A9Q d   1      13.448  67.614  41.964  0.00  0.00    -0.356 OA
BRANCH  34  35
ATOM     35  C20 A9Q d   1      12.128  67.107  41.821  0.00  0.00     0.010 C 
ATOM     36  H10 A9Q d   1      11.517  67.428  42.677  0.00  0.00     0.066 H 
ATOM     37  H11 A9Q d   1      12.159  66.008  41.785  0.00  0.00     0.066 H 
ATOM     38  H12 A9Q d   1      11.686  67.492  40.890  0.00  0.00     0.066 H 
ENDBRANCH  34  35
ENDBRANCH  25  34
ENDBRANCH  17  20
ENDBRANCH  10  17
BRANCH   7  39
ATOM     39  O22 A9Q d   1      16.915  63.762  47.011  0.00  0.00    -0.353 OA
BRANCH  39  40
ATOM     40  C28 A9Q d   1      16.729  62.546  46.284  0.00  0.00     0.010 C 
ATOM     41  H16 A9Q d   1      16.311  61.779  46.953  0.00  0.00     0.066 H 
ATOM     42  H17 A9Q d   1      17.697  62.202  45.891  0.00  0.00     0.066 H 
ATOM     43  H18 A9Q d   1      16.035  62.721  45.449  0.00  0.00     0.066 H 
ENDBRANCH  39  40
ENDBRANCH   7  39
BRANCH   8  44
ATOM     44  O23 A9Q d   1      18.046  66.093  48.372  0.00  0.00    -0.214 OA
BRANCH  44  45
ATOM     45  S24 A9Q d   1      17.026  66.911  49.373  0.00  0.00     0.360 S 
ATOM     46  O26 A9Q d   1      17.560  66.929  50.740  0.00  0.00    -0.176 OA
ATOM     47  O27 A9Q d   1      16.795  68.254  48.832  0.00  0.00    -0.176 OA
BRANCH  45  48
ATOM     48  N25 A9Q d   1      15.576  66.043  49.431  0.00  0.00    -0.305 N 
ATOM     49  H19 A9Q d   1      14.816  66.375  49.990  0.00  0.00     0.171 HD
ATOM     50  H20 A9Q d   1      15.478  65.198  48.906  0.00  0.00     0.171 HD
ENDBRANCH  45  48
ENDBRANCH  44  45
ENDBRANCH   8  44
TORSDOF 11
