REMARK  20 active torsions:
REMARK  status: ('A' for Active; 'I' for Inactive)
REMARK    1  A    between atoms: C5_5  and  N9_50 
REMARK    2  A    between atoms: C7_9  and  N2_10 
REMARK    3  A    between atoms: C11_17  and  N5_16 
REMARK    4  A    between atoms: C12_19  and  O3_20 
REMARK    5  A    between atoms: C13_21  and  O4_22 
REMARK    6  A    between atoms: C15_24  and  C14_23 
REMARK    7  A    between atoms: S1_25  and  C15_24 
REMARK    8  A    between atoms: P1_26  and  S1_25 
REMARK    9  A    between atoms: O7_29  and  P1_26 
REMARK   10  A    between atoms: P2_30  and  O7_29 
REMARK   11  A    between atoms: P2_30  and  S2_31 
REMARK   12  A    between atoms: O9_33  and  P2_30 
REMARK   13  A    between atoms: P3_34  and  O9_33 
REMARK   14  A    between atoms: S3_37  and  P3_34 
REMARK   15  A    between atoms: C16_38  and  S3_37 
REMARK   16  A    between atoms: C17_39  and  C16_38 
REMARK   17  A    between atoms: C18_41  and  O13_42 
REMARK   18  A    between atoms: C19_43  and  O14_44 
REMARK   19  A    between atoms: C20_45  and  N6_46 
REMARK   20  A    between atoms: N7_47  and  C21_48 
ROOT
ATOM      1  P2  AJQ d   1     -22.301  -0.833  -3.295  0.00  0.00     0.404 P 
ATOM      2  O8  AJQ d   1     -21.832  -1.833  -2.310  0.00  0.00    -0.245 OA
ENDROOT
BRANCH   1   3
ATOM      3  O7  AJQ d   1     -23.289   0.216  -2.583  0.00  0.00    -0.212 OA
BRANCH   3   4
ATOM      4  P1  AJQ d   1     -24.428  -0.260  -1.554  0.00  0.00     0.324 P 
ATOM      5  O5  AJQ d   1     -25.672   0.556  -1.812  0.00  0.00    -0.638 OA
ATOM      6  O6  AJQ d   1     -24.719  -1.722  -1.790  0.00  0.00    -0.638 OA
BRANCH   4   7
ATOM      7  S1  AJQ d   1     -23.760   0.040   0.361  0.00  0.00    -0.039 SA
BRANCH   7   8
ATOM      8  C15 AJQ d   1     -22.305  -0.917   0.637  0.00  0.00     0.015 C 
ATOM      9  H12 AJQ d   1     -22.462  -1.565   1.512  0.00  0.00     0.053 H 
ATOM     10  H13 AJQ d   1     -22.111  -1.538  -0.250  0.00  0.00     0.053 H 
BRANCH   8  11
ATOM     11  C14 AJQ d   1     -21.096  -0.022   0.892  0.00  0.00     0.077 C 
ATOM     12  O2  AJQ d   1     -19.955  -0.852   1.129  0.00  0.00    -0.355 OA
ATOM     13  C11 AJQ d   1     -18.888  -0.520   0.236  0.00  0.00     0.139 C 
ATOM     14  C12 AJQ d   1     -19.506   0.274  -0.900  0.00  0.00     0.105 C 
ATOM     15  H6  AJQ d   1     -18.140   0.093   0.761  0.00  0.00     0.122 H 
ATOM     16  C13 AJQ d   1     -20.766   0.862  -0.302  0.00  0.00     0.090 C 
ATOM     17  H7  AJQ d   1     -19.746  -0.380  -1.751  0.00  0.00     0.093 H 
ATOM     18  H9  AJQ d   1     -21.588   0.855  -1.033  0.00  0.00     0.091 H 
ATOM     19  H11 AJQ d   1     -21.295   0.610   1.770  0.00  0.00     0.088 H 
BRANCH  13  20
ATOM     20  N5  AJQ d   1     -18.230  -1.739  -0.296  0.00  0.00    -0.293 N 
ATOM     21  C8  AJQ d   1     -16.986  -2.136  -0.014  0.00  0.00     0.186 A 
ATOM     22  N3  AJQ d   1     -16.010  -1.621   0.770  0.00  0.00    -0.044 NA
ATOM     23  C9  AJQ d   1     -16.753  -3.310  -0.708  0.00  0.00     0.173 A 
ATOM     24  C7  AJQ d   1     -14.818  -2.253   0.870  0.00  0.00     0.703 A 
ATOM     25  N1  AJQ d   1     -14.583  -3.390   0.202  0.00  0.00    -0.152 N 
ATOM     26  C6  AJQ d   1     -15.519  -3.934  -0.583  0.00  0.00     0.292 A 
ATOM     27  H2  AJQ d   1     -13.694  -3.839   0.292  0.00  0.00     0.187 HD
ATOM     28  O1  AJQ d   1     -15.283  -4.996  -1.199  0.00  0.00    -0.265 OA
ATOM     29  N4  AJQ d   1     -17.872  -3.600  -1.401  0.00  0.00    -0.234 NA
ATOM     30  C10 AJQ d   1     -18.775  -2.626  -1.141  0.00  0.00     0.071 A 
ATOM     31  H5  AJQ d   1     -19.782  -2.571  -1.552  0.00  0.00     0.144 H 
BRANCH  24  32
ATOM     32  N2  AJQ d   1     -13.849  -1.727   1.657  0.00  0.00    -0.233 N 
ATOM     33  H3  AJQ d   1     -14.023  -0.853   2.174  0.00  0.00     0.174 HD
ATOM     34  H4  AJQ d   1     -12.938  -2.201   1.739  0.00  0.00     0.174 HD
ENDBRANCH  24  32
ENDBRANCH  13  20
BRANCH  14  35
ATOM     35  O3  AJQ d   1     -18.612   1.307  -1.325  0.00  0.00    -0.388 OA
ATOM     36  H8  AJQ d   1     -18.436   1.891  -0.597  0.00  0.00     0.210 HD
ENDBRANCH  14  35
BRANCH  16  37
ATOM     37  O4  AJQ d   1     -20.512   2.200   0.136  0.00  0.00    -0.390 OA
ATOM     38  H10 AJQ d   1     -20.238   2.728  -0.605  0.00  0.00     0.210 HD
ENDBRANCH  16  37
ENDBRANCH   8  11
ENDBRANCH   7   8
ENDBRANCH   4   7
ENDBRANCH   3   4
ENDBRANCH   1   3
BRANCH   1  39
ATOM     39  S2  AJQ d   1     -23.301  -1.874  -4.778  0.00  0.00    -0.057 SA
ATOM     40  H14 AJQ d   1     -23.645  -1.225  -5.469  0.00  0.00     0.114 HD
ENDBRANCH   1  39
BRANCH   1  41
ATOM     41  O9  AJQ d   1     -21.029  -0.016  -3.859  0.00  0.00    -0.212 OA
BRANCH  41  42
ATOM     42  P3  AJQ d   1     -20.999   1.045  -5.079  0.00  0.00     0.324 P 
ATOM     43  O10 AJQ d   1     -20.447   0.299  -6.268  0.00  0.00    -0.638 OA
ATOM     44  O11 AJQ d   1     -20.024   2.137  -4.709  0.00  0.00    -0.638 OA
BRANCH  42  45
ATOM     45  S3  AJQ d   1     -22.815   1.910  -5.635  0.00  0.00    -0.039 SA
BRANCH  45  46
ATOM     46  C16 AJQ d   1     -23.711   2.703  -4.338  0.00  0.00     0.015 C 
ATOM     47  H15 AJQ d   1     -23.751   2.028  -3.471  0.00  0.00     0.053 H 
ATOM     48  H16 AJQ d   1     -24.733   2.910  -4.689  0.00  0.00     0.053 H 
BRANCH  46  49
ATOM     49  C17 AJQ d   1     -23.065   4.012  -3.910  0.00  0.00     0.077 C 
ATOM     50  O12 AJQ d   1     -24.072   4.866  -3.354  0.00  0.00    -0.355 OA
ATOM     51  C20 AJQ d   1     -23.942   4.931  -1.928  0.00  0.00     0.139 C 
ATOM     52  C19 AJQ d   1     -22.960   3.832  -1.557  0.00  0.00     0.105 C 
ATOM     53  H22 AJQ d   1     -23.542   5.911  -1.628  0.00  0.00     0.122 H 
ATOM     54  C18 AJQ d   1     -22.085   3.754  -2.786  0.00  0.00     0.090 C 
ATOM     55  H20 AJQ d   1     -23.479   2.880  -1.374  0.00  0.00     0.093 H 
ATOM     56  H18 AJQ d   1     -21.595   2.774  -2.880  0.00  0.00     0.091 H 
ATOM     57  H17 AJQ d   1     -22.566   4.490  -4.766  0.00  0.00     0.088 H 
BRANCH  51  58
ATOM     58  N6  AJQ d   1     -25.258   4.724  -1.272  0.00  0.00    -0.295 N 
ATOM     59  C1  AJQ d   1     -25.900   5.626  -0.528  0.00  0.00     0.183 A 
ATOM     60  C2  AJQ d   1     -27.078   5.040  -0.118  0.00  0.00     0.137 A 
ATOM     61  N8  AJQ d   1     -25.623   6.893  -0.141  0.00  0.00    -0.044 NA
ATOM     62  C3  AJQ d   1     -27.979   5.731   0.687  0.00  0.00     0.224 A 
ATOM     63  N7  AJQ d   1     -27.138   3.797  -0.615  0.00  0.00    -0.341 N 
ATOM     64  N10 AJQ d   1     -27.658   6.993   1.046  0.00  0.00    -0.164 N 
ATOM     65  O15 AJQ d   1     -29.155   5.194   1.117  0.00  0.00    -0.169 OA
ATOM     66  C5  AJQ d   1     -26.499   7.566   0.639  0.00  0.00     0.702 A 
ATOM     67  H28 AJQ d   1     -28.287   7.514   1.623  0.00  0.00     0.186 HD
ATOM     68  C4  AJQ d   1     -26.013   3.615  -1.325  0.00  0.00     0.049 A 
ATOM     69  H1  AJQ d   1     -25.752   2.705  -1.863  0.00  0.00     0.141 H 
BRANCH  66  70
ATOM     70  N9  AJQ d   1     -26.211   8.834   1.021  0.00  0.00    -0.233 N 
ATOM     71  H26 AJQ d   1     -25.332   9.277   0.716  0.00  0.00     0.174 HD
ATOM     72  H27 AJQ d   1     -26.871   9.355   1.616  0.00  0.00     0.174 HD
ENDBRANCH  66  70
BRANCH  63  73
ATOM     73  C21 AJQ d   1     -28.210   2.781  -0.448  0.00  0.00    -0.013 C 
ATOM     74  H23 AJQ d   1     -29.013   3.195   0.180  0.00  0.00     0.057 H 
ATOM     75  H24 AJQ d   1     -27.793   1.884   0.033  0.00  0.00     0.057 H 
ATOM     76  H25 AJQ d   1     -28.617   2.513  -1.434  0.00  0.00     0.057 H 
ENDBRANCH  63  73
ENDBRANCH  51  58
BRANCH  52  77
ATOM     77  O14 AJQ d   1     -22.191   4.186  -0.405  0.00  0.00    -0.388 OA
ATOM     78  H21 AJQ d   1     -21.519   3.530  -0.261  0.00  0.00     0.210 HD
ENDBRANCH  52  77
BRANCH  54  79
ATOM     79  O13 AJQ d   1     -21.116   4.803  -2.765  0.00  0.00    -0.390 OA
ATOM     80  H19 AJQ d   1     -20.497   4.647  -2.061  0.00  0.00     0.210 HD
ENDBRANCH  54  79
ENDBRANCH  46  49
ENDBRANCH  45  46
ENDBRANCH  42  45
ENDBRANCH  41  42
ENDBRANCH   1  41
TORSDOF 20
