REMARK  7 active torsions:
REMARK  status: ('A' for Active; 'I' for Inactive)
REMARK       I    between atoms: C10_1  and  N12_2 
REMARK    1  A    between atoms: C08_14  and  C10_1 
REMARK    2  A    between atoms: N12_2  and  C13_3 
REMARK    3  A    between atoms: O02_8  and  C01_7 
REMARK    4  A    between atoms: C03_9  and  O02_8 
REMARK    5  A    between atoms: O07_13  and  C06_12 
REMARK    6  A    between atoms: O07_13  and  C08_14 
REMARK    7  A    between atoms: C08_14  and  C09_15 
ROOT
ATOM      1  C08 AUQ d   1      43.813 162.070  -8.374  0.00  0.00     0.118 C 
ATOM      2  H10 AUQ d   1      44.044 161.019  -8.146  0.00  0.00     0.098 H 
ENDROOT
BRANCH   1   3
ATOM      3  C10 AUQ d   1      43.853 162.870  -7.086  0.00  0.00     0.251 C 
ATOM      4  N12 AUQ d   1      44.867 162.511  -6.167  0.00  0.00    -0.325 N 
ATOM      5  H1  AUQ d   1      45.485 161.777  -6.448  0.00  0.00     0.169 HD
ATOM      6  O11 AUQ d   1      43.055 163.765  -6.870  0.00  0.00    -0.270 OA
BRANCH   4   7
ATOM      7  C13 AUQ d   1      45.100 163.082  -4.889  0.00  0.00     0.034 A 
ATOM      8  C14 AUQ d   1      45.847 162.321  -4.006  0.00  0.00    -0.056 A 
ATOM      9  C15 AUQ d   1      46.116 162.791  -2.737  0.00  0.00    -0.065 A 
ATOM     10  H14 AUQ d   1      46.222 161.351  -4.313  0.00  0.00     0.087 H 
ATOM     11  C16 AUQ d   1      45.629 164.025  -2.359  0.00  0.00     0.006 A 
ATOM     12  H2  AUQ d   1      46.703 162.198  -2.045  0.00  0.00     0.085 H 
ATOM     13  C18 AUQ d   1      44.878 164.799  -3.235  0.00  0.00    -0.065 A 
ATOM     14  I17 AUQ d   1      46.048 164.705  -0.404  0.00  0.00    -0.045 I 
ATOM     15  C19 AUQ d   1      44.611 164.324  -4.510  0.00  0.00    -0.056 A 
ATOM     16  H15 AUQ d   1      44.503 165.768  -2.924  0.00  0.00     0.085 H 
ATOM     17  H16 AUQ d   1      44.026 164.917  -5.204  0.00  0.00     0.087 H 
ENDBRANCH   4   7
ENDBRANCH   1   3
BRANCH   1  18
ATOM     18  O07 AUQ d   1      42.534 162.160  -8.941  0.00  0.00    -0.337 OA
BRANCH  18  19
ATOM     19  C06 AUQ d   1      41.432 161.526  -8.320  0.00  0.00     0.070 A 
ATOM     20  C20 AUQ d   1      40.181 161.868  -8.807  0.00  0.00    -0.048 A 
ATOM     21  C21 AUQ d   1      39.039 161.294  -8.275  0.00  0.00    -0.048 A 
ATOM     22  H3  AUQ d   1      40.096 162.590  -9.611  0.00  0.00     0.087 H 
ATOM     23  C03 AUQ d   1      39.125 160.372  -7.243  0.00  0.00     0.068 A 
ATOM     24  H4  AUQ d   1      38.067 161.568  -8.669  0.00  0.00     0.087 H 
ATOM     25  C04 AUQ d   1      40.378 160.011  -6.751  0.00  0.00    -0.048 A 
ATOM     26  C05 AUQ d   1      41.533 160.589  -7.289  0.00  0.00    -0.048 A 
ATOM     27  H8  AUQ d   1      40.458 159.283  -5.952  0.00  0.00     0.087 H 
ATOM     28  H9  AUQ d   1      42.508 160.309  -6.905  0.00  0.00     0.087 H 
BRANCH  23  29
ATOM     29  O02 AUQ d   1      37.914 159.823  -6.765  0.00  0.00    -0.356 OA
BRANCH  29  30
ATOM     30  C01 AUQ d   1      37.841 159.429  -5.413  0.00  0.00     0.010 C 
ATOM     31  H5  AUQ d   1      36.840 159.025  -5.202  0.00  0.00     0.066 H 
ATOM     32  H6  AUQ d   1      38.029 160.299  -4.767  0.00  0.00     0.066 H 
ATOM     33  H7  AUQ d   1      38.597 158.655  -5.215  0.00  0.00     0.066 H 
ENDBRANCH  29  30
ENDBRANCH  23  29
ENDBRANCH  18  19
ENDBRANCH   1  18
BRANCH   1  34
ATOM     34  C09 AUQ d   1      44.805 162.588  -9.397  0.00  0.00    -0.044 C 
ATOM     35  H11 AUQ d   1      44.740 161.980 -10.311  0.00  0.00     0.031 H 
ATOM     36  H12 AUQ d   1      45.823 162.524  -8.985  0.00  0.00     0.031 H 
ATOM     37  H13 AUQ d   1      44.571 163.636  -9.637  0.00  0.00     0.031 H 
ENDBRANCH   1  34
TORSDOF 7
