REMARK  1 active torsions:
REMARK  status: ('A' for Active; 'I' for Inactive)
REMARK    1  A    between atoms: C4_3  and  C6_4 
ROOT
ATOM      1  C6  36Y d   1     -75.600  42.778  -0.165  0.00  0.00    -0.008 A 
ATOM      2  C7  36Y d   1     -74.983  42.486  -1.336  0.00  0.00    -0.070 A 
ATOM      3  C8  36Y d   1     -75.656  42.493  -2.505  0.00  0.00    -0.065 A 
ATOM      4  C9  36Y d   1     -76.978  42.813  -2.547  0.00  0.00     0.011 A 
ATOM      5  C10 36Y d   1     -77.601  43.109  -1.370  0.00  0.00    -0.065 A 
ATOM      6 BR   36Y d   1     -77.927  42.872  -4.210  0.00  0.00    -0.051 Br
ATOM      7  C11 36Y d   1     -76.931  43.103  -0.170  0.00  0.00    -0.070 A 
ATOM      8  H3  36Y d   1     -73.927  42.242  -1.333  0.00  0.00     0.085 H 
ATOM      9  H4  36Y d   1     -75.137  42.240  -3.423  0.00  0.00     0.085 H 
ATOM     10  H5  36Y d   1     -78.656  43.356  -1.382  0.00  0.00     0.085 H 
ATOM     11  H6  36Y d   1     -77.444  43.350   0.752  0.00  0.00     0.085 H 
ENDROOT
BRANCH   1  12
ATOM     12  C4  36Y d   1     -74.818  42.755   1.106  0.00  0.00     0.061 A 
ATOM     13  C5  36Y d   1     -73.683  42.090   1.345  0.00  0.00     0.030 A 
ATOM     14  N1  36Y d   1     -73.325  42.363   2.572  0.00  0.00    -0.254 NA
ATOM     15  H2  36Y d   1     -73.155  41.442   0.647  0.00  0.00     0.118 H 
ATOM     16  C2  36Y d   1     -74.211  43.190   3.119  0.00  0.00     0.064 A 
ATOM     17  N3  36Y d   1     -75.135  43.425   2.195  0.00  0.00    -0.349 N 
ATOM     18  H1  36Y d   1     -74.184  43.596   4.129  0.00  0.00     0.143 H 
ATOM     19  H7  36Y d   1     -75.961  44.030   2.310  0.00  0.00     0.167 HD
ENDBRANCH   1  12
TORSDOF 1
