REMARK  8 active torsions:
REMARK  status: ('A' for Active; 'I' for Inactive)
REMARK    1  A    between atoms: C07_14  and  C10_1 
REMARK    2  A    between atoms: N12_2  and  C13_3 
REMARK    3  A    between atoms: C21_4  and  C24_6 
REMARK    4  A    between atoms: C02_9  and  C01_8 
REMARK    5  A    between atoms: C02_9  and  O03_10 
REMARK    6  A    between atoms: C16_20  and  C02_9 
REMARK    7  A    between atoms: O03_10  and  C04_11 
REMARK       I    between atoms: N18_22  and  C16_20 
REMARK    8  A    between atoms: C19_23  and  N18_22 
ROOT
ATOM      1  C02 AUN d   1     133.948 -14.783  -4.539  0.00  0.00     0.119 C 
ATOM      2  H9  AUN d   1     134.711 -14.966  -5.310  0.00  0.00     0.098 H 
ENDROOT
BRANCH   1   3
ATOM      3  C01 AUN d   1     133.384 -13.399  -4.821  0.00  0.00    -0.043 C 
ATOM      4  H6  AUN d   1     134.183 -12.650  -4.720  0.00  0.00     0.031 H 
ATOM      5  H7  AUN d   1     132.581 -13.177  -4.103  0.00  0.00     0.031 H 
ATOM      6  H8  AUN d   1     132.980 -13.369  -5.844  0.00  0.00     0.031 H 
ENDBRANCH   1   3
BRANCH   1   7
ATOM      7  O03 AUN d   1     132.957 -15.858  -4.648  0.00  0.00    -0.337 OA
BRANCH   7   8
ATOM      8  C04 AUN d   1     131.708 -15.868  -3.912  0.00  0.00     0.070 A 
ATOM      9  C05 AUN d   1     131.495 -16.811  -2.900  0.00  0.00    -0.050 A 
ATOM     10  C06 AUN d   1     130.254 -16.849  -2.191  0.00  0.00    -0.068 A 
ATOM     11  H10 AUN d   1     132.278 -17.519  -2.652  0.00  0.00     0.087 H 
ATOM     12  C07 AUN d   1     129.262 -15.960  -2.522  0.00  0.00    -0.006 A 
ATOM     13  H11 AUN d   1     130.098 -17.573  -1.399  0.00  0.00     0.085 H 
ATOM     14  C08 AUN d   1     129.467 -15.023  -3.548  0.00  0.00    -0.068 A 
ATOM     15  C09 AUN d   1     130.683 -14.996  -4.241  0.00  0.00    -0.050 A 
ATOM     16  H12 AUN d   1     128.683 -14.320  -3.804  0.00  0.00     0.085 H 
ATOM     17  H13 AUN d   1     130.824 -14.284  -5.046  0.00  0.00     0.087 H 
BRANCH  12  18
ATOM     18  C10 AUN d   1     127.898 -15.910  -1.801  0.00  0.00     0.084 A 
ATOM     19  C11 AUN d   1     127.306 -16.885  -1.003  0.00  0.00     0.009 A 
ATOM     20  N12 AUN d   1     126.156 -16.406  -0.601  0.00  0.00    -0.354 N 
ATOM     21  H14 AUN d   1     127.721 -17.862  -0.759  0.00  0.00     0.115 H 
ATOM     22  C14 AUN d   1     125.992 -15.133  -1.116  0.00  0.00     0.066 A 
ATOM     23  N15 AUN d   1     127.079 -14.848  -1.854  0.00  0.00    -0.242 NA
ATOM     24  H15 AUN d   1     125.136 -14.479  -0.953  0.00  0.00     0.143 H 
BRANCH  20  25
ATOM     25  C13 AUN d   1     125.206 -17.070   0.239  0.00  0.00    -0.014 C 
ATOM     26  H1  AUN d   1     125.585 -18.068   0.504  0.00  0.00     0.057 H 
ATOM     27  H2  AUN d   1     124.251 -17.172  -0.297  0.00  0.00     0.057 H 
ATOM     28  H3  AUN d   1     125.052 -16.481   1.155  0.00  0.00     0.057 H 
ENDBRANCH  20  25
ENDBRANCH  12  18
ENDBRANCH   7   8
ENDBRANCH   1   7
BRANCH   1  29
ATOM     29  C16 AUN d   1     134.656 -14.895  -3.153  0.00  0.00     0.265 C 
ATOM     30  O17 AUN d   1     135.729 -15.471  -3.067  0.00  0.00    -0.270 OA
ATOM     31  N18 AUN d   1     134.056 -14.319  -1.993  0.00  0.00    -0.155 N 
ATOM     32  H16 AUN d   1     133.181 -13.842  -2.069  0.00  0.00     0.187 HD
BRANCH  31  33
ATOM     33  C19 AUN d   1     134.686 -14.420  -0.757  0.00  0.00     0.707 A 
ATOM     34  N20 AUN d   1     134.500 -13.538   0.257  0.00  0.00    -0.062 NA
ATOM     35  C21 AUN d   1     135.236 -13.929   1.274  0.00  0.00     0.102 A 
ATOM     36  C22 AUN d   1     135.907 -15.101   0.927  0.00  0.00     0.024 A 
ATOM     37  N23 AUN d   1     135.556 -15.387  -0.332  0.00  0.00    -0.198 N 
ATOM     38  H4  AUN d   1     136.585 -15.673   1.558  0.00  0.00     0.115 H 
ATOM     39  H17 AUN d   1     135.883 -16.193  -0.884  0.00  0.00     0.183 HD
BRANCH  35  40
ATOM     40  C24 AUN d   1     135.284 -13.167   2.615  0.00  0.00    -0.005 A 
ATOM     41  C25 AUN d   1     135.092 -11.785   2.616  0.00  0.00    -0.070 A 
ATOM     42  C26 AUN d   1     135.125 -11.080   3.837  0.00  0.00    -0.065 A 
ATOM     43  H18 AUN d   1     134.919 -11.257   1.685  0.00  0.00     0.085 H 
ATOM     44  C27 AUN d   1     135.357 -11.766   5.014  0.00  0.00     0.011 A 
ATOM     45  H5  AUN d   1     134.969 -10.007   3.852  0.00  0.00     0.085 H 
ATOM     46  C29 AUN d   1     135.558 -13.144   5.010  0.00  0.00    -0.065 A 
ATOM     47 BR1  AUN d   1     135.414 -10.840   6.658  0.00  0.00    -0.051 Br
ATOM     48  C30 AUN d   1     135.521 -13.862   3.781  0.00  0.00    -0.070 A 
ATOM     49  H19 AUN d   1     135.742 -13.669   5.940  0.00  0.00     0.085 H 
ATOM     50  H20 AUN d   1     135.676 -14.935   3.763  0.00  0.00     0.085 H 
ENDBRANCH  35  40
ENDBRANCH  31  33
ENDBRANCH   1  29
TORSDOF 8
