REMARK WARNING: 32 MAX_TORS EXCEEDED!!!
REMARK  81 active torsions:
REMARK  status: ('A' for Active; 'I' for Inactive)
REMARK    1  A    between atoms: N_1  and  CA_2 
REMARK    2  A    between atoms: CA_2  and  C_3 
REMARK    3  A    between atoms: CA_2  and  CB_5 
REMARK       I    between atoms: C_3  and  N_8 
REMARK    4  A    between atoms: CB_5  and  OG1_6 
REMARK    5  A    between atoms: CB_5  and  CG2_7 
REMARK    6  A    between atoms: N_8  and  CA_9 
REMARK    7  A    between atoms: CA_9  and  C_10 
REMARK    8  A    between atoms: CA_9  and  CB_12 
REMARK       I    between atoms: C_10  and  N_15 
REMARK    9  A    between atoms: CB_12  and  OG1_13 
REMARK   10  A    between atoms: CB_12  and  CG2_14 
REMARK   11  A    between atoms: N_15  and  CA_16 
REMARK   12  A    between atoms: CA_16  and  C_17 
REMARK   13  A    between atoms: CA_16  and  CB_19 
REMARK       I    between atoms: C_17  and  N_27 
REMARK   14  A    between atoms: CB_19  and  CG_20 
REMARK   15  A    between atoms: CZ_25  and  OH_26 
REMARK   16  A    between atoms: N_27  and  CA_28 
REMARK   17  A    between atoms: CA_28  and  C_29 
REMARK   18  A    between atoms: CA_28  and  CB_31 
REMARK       I    between atoms: C_29  and  N_32 
REMARK   19  A    between atoms: N_32  and  CA_33 
REMARK   20  A    between atoms: CA_33  and  C_34 
REMARK   21  A    between atoms: CA_33  and  CB_36 
REMARK       I    between atoms: C_34  and  N_40 
REMARK   22  A    between atoms: CB_36  and  CG_37 
REMARK   23  A    between atoms: N_40  and  CA_41 
REMARK   24  A    between atoms: CA_41  and  C_42 
REMARK   25  A    between atoms: CA_41  and  CB_44 
REMARK       I    between atoms: C_42  and  N_51 
REMARK   26  A    between atoms: CB_44  and  CG_45 
REMARK   27  A    between atoms: N_51  and  CA_52 
REMARK   28  A    between atoms: CA_52  and  C_53 
REMARK   29  A    between atoms: CA_52  and  CB_55 
REMARK       I    between atoms: C_53  and  N_59 
REMARK   30  A    between atoms: CB_55  and  CG1_56 
REMARK   31  A    between atoms: CB_55  and  CG2_57 
REMARK   32  A    between atoms: CG1_56  and  CD1_58 
REMARK   33  A    between atoms: N_59  and  CA_60 
REMARK   34  A    between atoms: CA_60  and  C_61 
REMARK   35  A    between atoms: CA_60  and  CB_63 
REMARK       I    between atoms: C_61  and  N_64 
REMARK   36  A    between atoms: N_64  and  CA_65 
REMARK   37  A    between atoms: CA_65  and  C_66 
REMARK   38  A    between atoms: CA_65  and  CB_68 
REMARK       I    between atoms: C_66  and  N_70 
REMARK   39  A    between atoms: CB_68  and  OG_69 
REMARK   40  A    between atoms: OG_69  and  C1_140 
REMARK   41  A    between atoms: N_70  and  CA_71 
REMARK   42  A    between atoms: CA_71  and  C_72 
REMARK       I    between atoms: C_72  and  N_74 
REMARK   43  A    between atoms: N_74  and  CA_75 
REMARK   44  A    between atoms: CA_75  and  C_76 
REMARK   45  A    between atoms: CA_75  and  CB_78 
REMARK       I    between atoms: C_76  and  N_85 
REMARK   46  A    between atoms: CB_78  and  CG_79 
REMARK   47  A    between atoms: CG_79  and  CD_80 
REMARK   48  A    between atoms: CD_80  and  NE_81 
REMARK       I    between atoms: NE_81  and  CZ_82 
REMARK       I    between atoms: CZ_82  and  NH1_83 
REMARK       I    between atoms: CZ_82  and  NH2_84 
REMARK   49  A    between atoms: N_85  and  CA_86 
REMARK   50  A    between atoms: CA_86  and  C_87 
REMARK   51  A    between atoms: CA_86  and  CB_89 
REMARK       I    between atoms: C_87  and  N_92 
REMARK   52  A    between atoms: CB_89  and  OG1_90 
REMARK   53  A    between atoms: CB_89  and  CG2_91 
REMARK   54  A    between atoms: N_92  and  CA_93 
REMARK   55  A    between atoms: CA_93  and  C_94 
REMARK       I    between atoms: C_94  and  N_96 
REMARK   56  A    between atoms: N_96  and  CA_97 
REMARK   57  A    between atoms: CA_97  and  C_98 
REMARK   58  A    between atoms: CA_97  and  CB_100 
REMARK       I    between atoms: C_98  and  N_107 
REMARK   59  A    between atoms: CB_100  and  CG_101 
REMARK   60  A    between atoms: CG_101  and  CD_102 
REMARK   61  A    between atoms: CD_102  and  NE_103 
REMARK       I    between atoms: NE_103  and  CZ_104 
REMARK       I    between atoms: CZ_104  and  NH1_105 
REMARK       I    between atoms: CZ_104  and  NH2_106 
REMARK   62  A    between atoms: N_107  and  CA_108 
REMARK   63  A    between atoms: CA_108  and  C_109 
REMARK   64  A    between atoms: CA_108  and  CB_111 
REMARK       I    between atoms: C_109  and  N_118 
REMARK   65  A    between atoms: CB_111  and  CG_112 
REMARK   66  A    between atoms: CG_112  and  CD_113 
REMARK   67  A    between atoms: CD_113  and  NE_114 
REMARK       I    between atoms: NE_114  and  CZ_115 
REMARK       I    between atoms: CZ_115  and  NH1_116 
REMARK   68  A    between atoms: N_118  and  CA_119 
REMARK   69  A    between atoms: CA_119  and  C_120 
REMARK   70  A    between atoms: CA_119  and  CB_122 
REMARK       I    between atoms: C_120  and  N_126 
REMARK   71  A    between atoms: CB_122  and  CG_123 
REMARK       I    between atoms: CG_123  and  ND2_125 
REMARK   72  A    between atoms: N_126  and  CA_127 
REMARK   73  A    between atoms: CA_127  and  C_128 
REMARK   74  A    between atoms: CA_127  and  CB_130 
REMARK       I    between atoms: C_128  and  N_131 
REMARK   75  A    between atoms: N_131  and  CA_132 
REMARK   76  A    between atoms: CA_132  and  C_133 
REMARK   77  A    between atoms: CA_132  and  CB_135 
REMARK   78  A    between atoms: CB_135  and  CG1_136 
REMARK   79  A    between atoms: CB_135  and  CG2_137 
REMARK   80  A    between atoms: CG1_136  and  CD1_138 
REMARK   81  A    between atoms: C2_141  and  O2_145 
ROOT
ATOM      1  CA  THR d   1     -11.578 -26.484 -34.503  0.00  0.00     0.110 C 
ATOM      2  H61 THR d   1     -11.120 -26.609 -35.495  0.00  0.00     0.090 H 
ENDROOT
BRANCH   1   3
ATOM      3  N   THR d   1     -11.764 -27.811 -33.949  0.00  0.00    -0.344 N 
ATOM      4  C   THR d   1     -11.781 -28.848 -34.778  0.00  0.00     0.240 C 
ATOM      5  O   THR d   1     -11.536 -28.728 -35.984  0.00  0.00    -0.271 OA
ATOM      6  H60 THR d   1     -11.877 -27.942 -32.964  0.00  0.00     0.163 HD
BRANCH   4   7
ATOM      7  CA  THR d   1     -12.162 -30.194 -34.196  0.00  0.00     0.086 C 
ATOM      8  H56 THR d   1     -11.801 -30.976 -34.881  0.00  0.00     0.086 H 
BRANCH   7   9
ATOM      9  N   THR d   1     -11.537 -30.409 -32.893  0.00  0.00    -0.346 N 
ATOM     10  C   THR d   1     -10.235 -30.710 -32.793  0.00  0.00     0.241 C 
ATOM     11  O   THR d   1      -9.470 -30.704 -33.769  0.00  0.00    -0.271 OA
ATOM     12  H55 THR d   1     -12.089 -30.330 -32.063  0.00  0.00     0.163 HD
BRANCH  10  13
ATOM     13  CA  THR d   1      -9.706 -31.029 -31.413  0.00  0.00     0.092 C 
ATOM     14  H45 THR d   1      -8.643 -30.749 -31.380  0.00  0.00     0.088 H 
BRANCH  13  15
ATOM     15  N   THR d   1     -10.417 -30.252 -30.407  0.00  0.00    -0.346 N 
ATOM     16  C   THR d   1     -10.295 -28.920 -30.398  0.00  0.00     0.241 C 
ATOM     17  O   THR d   1      -9.620 -28.326 -31.241  0.00  0.00    -0.271 OA
ATOM     18  H44 THR d   1     -10.991 -30.710 -29.729  0.00  0.00     0.163 HD
BRANCH  16  19
ATOM     19  CA  THR d   1     -11.065 -28.157 -29.314  0.00  0.00     0.093 C 
ATOM     20  H36 THR d   1     -11.077 -27.092 -29.588  0.00  0.00     0.088 H 
BRANCH  19  21
ATOM     21  N   THR d   1     -12.444 -28.635 -29.222  0.00  0.00    -0.346 N 
ATOM     22  C   THR d   1     -13.277 -28.546 -30.259  0.00  0.00     0.241 C 
ATOM     23  O   THR d   1     -12.959 -27.978 -31.307  0.00  0.00    -0.271 OA
ATOM     24  H35 THR d   1     -12.768 -29.036 -28.365  0.00  0.00     0.163 HD
BRANCH  22  25
ATOM     25  CA  THR d   1     -14.676 -29.136 -30.072  0.00  0.00     0.098 C 
ATOM     26  H32 THR d   1     -15.113 -29.339 -31.061  0.00  0.00     0.088 H 
BRANCH  25  27
ATOM     27  N   THR d   1     -14.626 -30.376 -29.316  0.00  0.00    -0.346 N 
ATOM     28  C   THR d   1     -13.997 -31.451 -29.804  0.00  0.00     0.240 C 
ATOM     29  O   THR d   1     -13.431 -31.435 -30.909  0.00  0.00    -0.271 OA
ATOM     30  H31 THR d   1     -15.067 -30.426 -28.420  0.00  0.00     0.163 HD
BRANCH  28  31
ATOM     31  CA  THR d   1     -13.959 -32.693 -28.913  0.00  0.00     0.086 C 
ATOM     32  H27 THR d   1     -13.118 -33.323 -29.239  0.00  0.00     0.086 H 
BRANCH  31  33
ATOM     33  N   THR d   1     -13.745 -32.341 -27.508  0.00  0.00    -0.346 N 
ATOM     34  C   THR d   1     -12.643 -31.665 -27.148  0.00  0.00     0.241 C 
ATOM     35  O   THR d   1     -11.762 -31.377 -27.964  0.00  0.00    -0.271 OA
ATOM     36  H26 THR d   1     -14.419 -32.604 -26.818  0.00  0.00     0.163 HD
BRANCH  34  37
ATOM     37  CA  THR d   1     -12.501 -31.248 -25.684  0.00  0.00     0.093 C 
ATOM     38  H18 THR d   1     -11.725 -30.471 -25.622  0.00  0.00     0.088 H 
BRANCH  37  39
ATOM     39  N   THR d   1     -13.751 -30.695 -25.158  0.00  0.00    -0.346 N 
ATOM     40  C   THR d   1     -14.291 -29.601 -25.694  0.00  0.00     0.243 C 
ATOM     41  O   THR d   1     -13.782 -29.012 -26.649  0.00  0.00    -0.271 OA
ATOM     42  H17 THR d   1     -14.204 -31.143 -24.388  0.00  0.00     0.163 HD
BRANCH  40  43
ATOM     43  CA  THR d   1     -15.616 -29.132 -25.115  0.00  0.00     0.113 C 
ATOM     44  H11 THR d   1     -16.087 -28.459 -25.847  0.00  0.00     0.091 H 
BRANCH  43  45
ATOM     45  N   THR d   1     -16.511 -30.260 -24.889  0.00  0.00    -0.344 N 
ATOM     46  C   THR d   1     -16.897 -30.989 -25.938  0.00  0.00     0.251 C 
ATOM     47  O   THR d   1     -16.513 -30.762 -27.073  0.00  0.00    -0.271 OA
ATOM     48  H10 THR d   1     -16.829 -30.483 -23.968  0.00  0.00     0.163 HD
BRANCH  46  49
ATOM     49  CA  THR d   1     -17.830 -32.155 -25.660  0.00  0.00     0.199 C 
ATOM     50  H4  THR d   1     -18.617 -31.826 -24.966  0.00  0.00     0.103 H 
BRANCH  49  51
ATOM     51  N   THR d   1     -18.487 -32.660 -26.877  0.00  0.00    -0.064 N 
ATOM     52  H1  THR d   1     -19.038 -31.925 -27.291  0.00  0.00     0.275 HD
ATOM     53  H2  THR d   1     -19.086 -33.435 -26.639  0.00  0.00     0.275 HD
ATOM     54  H3  THR d   1     -17.787 -32.966 -27.535  0.00  0.00     0.275 HD
ENDBRANCH  49  51
BRANCH  49  55
ATOM     55  CB  THR d   1     -16.981 -33.210 -24.982  0.00  0.00     0.068 C 
ATOM     56  H5  THR d   1     -16.591 -32.796 -24.040  0.00  0.00     0.086 H 
BRANCH  55  57
ATOM     57  OG1 THR d   1     -15.877 -33.538 -25.834  0.00  0.00    -0.393 OA
ATOM     58  H6  THR d   1     -15.357 -32.759 -25.990  0.00  0.00     0.210 HD
ENDBRANCH  55  57
BRANCH  55  59
ATOM     59  CG2 THR d   1     -17.793 -34.446 -24.659  0.00  0.00    -0.050 C 
ATOM     60  H7  THR d   1     -17.148 -35.190 -24.169  0.00  0.00     0.031 H 
ATOM     61  H8  THR d   1     -18.201 -34.870 -25.588  0.00  0.00     0.031 H 
ATOM     62  H9  THR d   1     -18.619 -34.176 -23.985  0.00  0.00     0.031 H 
ENDBRANCH  55  59
ENDBRANCH  49  55
ENDBRANCH  46  49
ENDBRANCH  43  45
BRANCH  43  63
ATOM     63  CB  THR d   1     -15.415 -28.360 -23.825  0.00  0.00     0.060 C 
ATOM     64  H12 THR d   1     -14.890 -28.983 -23.086  0.00  0.00     0.086 H 
BRANCH  63  65
ATOM     65  OG1 THR d   1     -16.717 -28.004 -23.337  0.00  0.00    -0.393 OA
ATOM     66  H13 THR d   1     -17.222 -28.793 -23.180  0.00  0.00     0.210 HD
ENDBRANCH  63  65
BRANCH  63  67
ATOM     67  CG2 THR d   1     -14.605 -27.106 -24.106  0.00  0.00    -0.050 C 
ATOM     68  H14 THR d   1     -14.459 -26.546 -23.170  0.00  0.00     0.031 H 
ATOM     69  H15 THR d   1     -15.143 -26.476 -24.830  0.00  0.00     0.031 H 
ATOM     70  H16 THR d   1     -13.626 -27.387 -24.521  0.00  0.00     0.031 H 
ENDBRANCH  63  67
ENDBRANCH  43  63
ENDBRANCH  40  43
ENDBRANCH  37  39
BRANCH  37  71
ATOM     71  CB  THR d   1     -12.071 -32.431 -24.833  0.00  0.00    -0.014 C 
ATOM     72  H19 THR d   1     -12.882 -33.174 -24.822  0.00  0.00     0.043 H 
ATOM     73  H20 THR d   1     -11.881 -32.081 -23.808  0.00  0.00     0.043 H 
BRANCH  71  74
ATOM     74  CG  THR d   1     -10.807 -33.090 -25.370  0.00  0.00    -0.056 A 
ATOM     75  CD1 THR d   1     -10.875 -34.305 -26.048  0.00  0.00    -0.074 A 
ATOM     76  CE1 THR d   1      -9.725 -34.897 -26.546  0.00  0.00    -0.051 A 
ATOM     77  H21 THR d   1     -11.834 -34.791 -26.187  0.00  0.00     0.084 H 
ATOM     78  CZ  THR d   1      -8.508 -34.257 -26.401  0.00  0.00     0.065 A 
ATOM     79  H23 THR d   1      -9.779 -35.857 -27.047  0.00  0.00     0.087 H 
ATOM     80  CE2 THR d   1      -8.427 -33.042 -25.754  0.00  0.00    -0.051 A 
ATOM     81  CD2 THR d   1      -9.573 -32.461 -25.260  0.00  0.00    -0.074 A 
ATOM     82  H24 THR d   1      -7.469 -32.549 -25.635  0.00  0.00     0.087 H 
ATOM     83  H22 THR d   1      -9.511 -31.493 -24.775  0.00  0.00     0.084 H 
BRANCH  78  84
ATOM     84  OH  THR d   1      -7.348 -34.825 -26.899  0.00  0.00    -0.361 OA
ATOM     85  H25 THR d   1      -7.556 -35.653 -27.315  0.00  0.00     0.217 HD
ENDBRANCH  78  84
ENDBRANCH  71  74
ENDBRANCH  37  71
ENDBRANCH  34  37
ENDBRANCH  31  33
BRANCH  31  86
ATOM     86  CB  THR d   1     -15.252 -33.493 -29.075  0.00  0.00    -0.049 C 
ATOM     87  H28 THR d   1     -15.395 -33.748 -30.136  0.00  0.00     0.030 H 
ATOM     88  H29 THR d   1     -16.103 -32.890 -28.725  0.00  0.00     0.030 H 
ATOM     89  H30 THR d   1     -15.188 -34.417 -28.481  0.00  0.00     0.030 H 
ENDBRANCH  31  86
ENDBRANCH  28  31
ENDBRANCH  25  27
BRANCH  25  90
ATOM     90  CB  THR d   1     -15.556 -28.123 -29.328  0.00  0.00     0.043 C 
ATOM     91  H33 THR d   1     -15.427 -27.138 -29.801  0.00  0.00     0.052 H 
ATOM     92  H34 THR d   1     -15.220 -28.074 -28.282  0.00  0.00     0.052 H 
BRANCH  90  93
ATOM     93  CG  THR d   1     -17.033 -28.469 -29.340  0.00  0.00     0.175 C 
ATOM     94  OD1 THR d   1     -17.434 -29.349 -30.104  0.00  0.00    -0.648 OA
ATOM     95  OD2 THR d   1     -17.795 -27.831 -28.576  0.00  0.00    -0.648 OA
ENDBRANCH  90  93
ENDBRANCH  25  90
ENDBRANCH  22  25
ENDBRANCH  19  21
BRANCH  19  96
ATOM     96  CB  THR d   1     -10.408 -28.299 -27.939  0.00  0.00    -0.014 C 
ATOM     97  H37 THR d   1     -10.493 -29.351 -27.627  0.00  0.00     0.043 H 
ATOM     98  H38 THR d   1     -10.957 -27.661 -27.231  0.00  0.00     0.043 H 
BRANCH  96  99
ATOM     99  CG  THR d   1      -8.959 -27.913 -27.885  0.00  0.00    -0.056 A 
ATOM    100  CD1 THR d   1      -8.003 -28.874 -27.632  0.00  0.00    -0.077 A 
ATOM    101  CE1 THR d   1      -6.675 -28.552 -27.548  0.00  0.00    -0.082 A 
ATOM    102  H39 THR d   1      -8.309 -29.905 -27.497  0.00  0.00     0.084 H 
ATOM    103  CZ  THR d   1      -6.254 -27.248 -27.767  0.00  0.00    -0.083 A 
ATOM    104  H41 THR d   1      -5.948 -29.320 -27.309  0.00  0.00     0.083 H 
ATOM    105  CE2 THR d   1      -7.192 -26.257 -28.060  0.00  0.00    -0.082 A 
ATOM    106  H43 THR d   1      -5.200 -27.000 -27.711  0.00  0.00     0.083 H 
ATOM    107  CD2 THR d   1      -8.546 -26.588 -28.102  0.00  0.00    -0.077 A 
ATOM    108  H42 THR d   1      -6.871 -25.240 -28.253  0.00  0.00     0.083 H 
ATOM    109  H40 THR d   1      -9.283 -25.819 -28.303  0.00  0.00     0.084 H 
ENDBRANCH  96  99
ENDBRANCH  19  96
ENDBRANCH  16  19
ENDBRANCH  13  15
BRANCH  13 110
ATOM    110  CB  THR d   1      -9.816 -32.531 -31.107  0.00  0.00    -0.030 C 
ATOM    111  H46 THR d   1     -10.882 -32.803 -31.078  0.00  0.00     0.043 H 
BRANCH 110 112
ATOM    112  CG1 THR d   1      -9.204 -32.843 -29.743  0.00  0.00    -0.063 C 
ATOM    113  H47 THR d   1      -9.239 -33.933 -29.596  0.00  0.00     0.033 H 
ATOM    114  H48 THR d   1      -9.818 -32.350 -28.975  0.00  0.00     0.033 H 
BRANCH 112 115
ATOM    115  CD1 THR d   1      -7.801 -32.401 -29.561  0.00  0.00    -0.076 C 
ATOM    116  H52 THR d   1      -7.459 -32.673 -28.551  0.00  0.00     0.027 H 
ATOM    117  H53 THR d   1      -7.741 -31.310 -29.687  0.00  0.00     0.027 H 
ATOM    118  H54 THR d   1      -7.162 -32.892 -30.309  0.00  0.00     0.027 H 
ENDBRANCH 112 115
ENDBRANCH 110 112
BRANCH 110 119
ATOM    119  CG2 THR d   1      -9.141 -33.349 -32.212  0.00  0.00    -0.071 C 
ATOM    120  H49 THR d   1      -9.600 -33.105 -33.181  0.00  0.00     0.028 H 
ATOM    121  H50 THR d   1      -9.270 -34.422 -32.005  0.00  0.00     0.028 H 
ATOM    122  H51 THR d   1      -8.068 -33.108 -32.243  0.00  0.00     0.028 H 
ENDBRANCH 110 119
ENDBRANCH  13 110
ENDBRANCH  10  13
ENDBRANCH   7   9
BRANCH   7 123
ATOM    123  CB  THR d   1     -13.681 -30.319 -34.085  0.00  0.00    -0.049 C 
ATOM    124  H57 THR d   1     -14.136 -30.155 -35.073  0.00  0.00     0.030 H 
ATOM    125  H58 THR d   1     -14.060 -29.567 -33.377  0.00  0.00     0.030 H 
ATOM    126  H59 THR d   1     -13.941 -31.325 -33.725  0.00  0.00     0.030 H 
ENDBRANCH   7 123
ENDBRANCH   4   7
ENDBRANCH   1   3
BRANCH   1 127
ATOM    127  C   THR d   1     -10.670 -25.579 -33.702  0.00  0.00     0.243 C 
ATOM    128  O   THR d   1     -10.309 -24.519 -34.223  0.00  0.00    -0.271 OA
ATOM    129  N   THR d   1     -10.247 -25.961 -32.497  0.00  0.00    -0.350 N 
ATOM    130  H64 THR d   1     -10.647 -26.767 -32.061  0.00  0.00     0.163 HD
BRANCH 129 131
ATOM    131  CA  THR d   1      -9.210 -25.212 -31.816  0.00  0.00     0.069 C 
ATOM    132  H65 THR d   1      -9.173 -25.531 -30.764  0.00  0.00     0.078 H 
ATOM    133  H66 THR d   1      -9.454 -24.141 -31.866  0.00  0.00     0.078 H 
BRANCH 131 134
ATOM    134  C   THR d   1      -7.844 -25.434 -32.445  0.00  0.00     0.236 C 
ATOM    135  O   THR d   1      -7.618 -26.343 -33.249  0.00  0.00    -0.272 OA
ATOM    136  N   THR d   1      -6.900 -24.562 -32.110  0.00  0.00    -0.346 N 
ATOM    137  H67 THR d   1      -7.142 -23.750 -31.578  0.00  0.00     0.163 HD
BRANCH 136 138
ATOM    138  CA  THR d   1      -5.513 -24.777 -32.510  0.00  0.00     0.089 C 
ATOM    139  H68 THR d   1      -5.483 -25.257 -33.499  0.00  0.00     0.087 H 
BRANCH 138 140
ATOM    140  C   THR d   1      -4.865 -25.702 -31.483  0.00  0.00     0.241 C 
ATOM    141  O   THR d   1      -4.687 -25.310 -30.330  0.00  0.00    -0.271 OA
ATOM    142  N   THR d   1      -4.557 -26.941 -31.886  0.00  0.00    -0.344 N 
ATOM    143  H80 THR d   1      -4.717 -27.187 -32.842  0.00  0.00     0.163 HD
BRANCH 142 144
ATOM    144  CA  THR d   1      -3.996 -27.951 -30.987  0.00  0.00     0.113 C 
ATOM    145  H81 THR d   1      -4.293 -27.689 -29.961  0.00  0.00     0.091 H 
BRANCH 144 146
ATOM    146  C   THR d   1      -2.467 -28.036 -31.027  0.00  0.00     0.243 C 
ATOM    147  O   THR d   1      -1.877 -28.656 -30.135  0.00  0.00    -0.271 OA
ATOM    148  N   THR d   1      -1.810 -27.425 -32.027  0.00  0.00    -0.350 N 
ATOM    149  H87 THR d   1      -2.341 -26.949 -32.727  0.00  0.00     0.163 HD
BRANCH 148 150
ATOM    150  CA  THR d   1      -0.368 -27.426 -32.135  0.00  0.00     0.069 C 
ATOM    151  H88 THR d   1      -0.091 -27.509 -33.196  0.00  0.00     0.078 H 
ATOM    152  H89 THR d   1       0.029 -28.291 -31.583  0.00  0.00     0.078 H 
BRANCH 150 153
ATOM    153  C   THR d   1       0.242 -26.160 -31.567  0.00  0.00     0.236 C 
ATOM    154  O   THR d   1      -0.433 -25.325 -30.961  0.00  0.00    -0.272 OA
ATOM    155  N   THR d   1       1.537 -25.999 -31.819  0.00  0.00    -0.346 N 
ATOM    156  H90 THR d   1       2.033 -26.677 -32.362  0.00  0.00     0.163 HD
BRANCH 155 157
ATOM    157  CA  THR d   1       2.226 -24.833 -31.300  0.00  0.00     0.089 C 
ATOM    158  H91 THR d   1       2.082 -24.798 -30.210  0.00  0.00     0.087 H 
BRANCH 157 159
ATOM    159  C   THR d   1       1.634 -23.577 -31.906  0.00  0.00     0.241 C 
ATOM    160  O   THR d   1       1.306 -23.528 -33.103  0.00  0.00    -0.271 OA
ATOM    161  N   THR d   1       1.522 -22.549 -31.077  0.00  0.00    -0.346 N 
ATOM    162 3H10 THR d   1       1.916 -22.639 -30.162  0.00  0.00     0.163 HD
BRANCH 161 163
ATOM    163  CA  THR d   1       0.864 -21.302 -31.414  0.00  0.00     0.089 C 
ATOM    164 4H10 THR d   1       0.374 -21.417 -32.392  0.00  0.00     0.087 H 
BRANCH 163 165
ATOM    165  C   THR d   1       1.874 -20.173 -31.506  0.00  0.00     0.241 C 
ATOM    166  O   THR d   1       2.634 -19.925 -30.574  0.00  0.00    -0.271 OA
ATOM    167  N   THR d   1       1.847 -19.455 -32.619  0.00  0.00    -0.346 N 
ATOM    168 6H11 THR d   1       1.208 -19.698 -33.349  0.00  0.00     0.163 HD
BRANCH 167 169
ATOM    169  CA  THR d   1       2.734 -18.319 -32.791  0.00  0.00     0.097 C 
ATOM    170 7H11 THR d   1       3.686 -18.536 -32.285  0.00  0.00     0.088 H 
BRANCH 169 171
ATOM    171  C   THR d   1       2.136 -17.059 -32.196  0.00  0.00     0.241 C 
ATOM    172  O   THR d   1       0.917 -16.889 -32.150  0.00  0.00    -0.271 OA
ATOM    173  N   THR d   1       3.015 -16.139 -31.805  0.00  0.00    -0.346 N 
ATOM    174 2H12 THR d   1       3.990 -16.356 -31.762  0.00  0.00     0.163 HD
BRANCH 173 175
ATOM    175  CA  THR d   1       2.540 -14.818 -31.443  0.00  0.00     0.086 C 
ATOM    176 3H12 THR d   1       1.676 -14.927 -30.771  0.00  0.00     0.086 H 
BRANCH 175 177
ATOM    177  C   THR d   1       2.102 -14.083 -32.694  0.00  0.00     0.240 C 
ATOM    178  O   THR d   1       2.451 -14.462 -33.825  0.00  0.00    -0.271 OA
ATOM    179  N   THR d   1       1.313 -13.039 -32.486  0.00  0.00    -0.344 N 
ATOM    180 7H12 THR d   1       1.087 -12.769 -31.550  0.00  0.00     0.163 HD
BRANCH 179 181
ATOM    181  CA  THR d   1       0.764 -12.271 -33.617  0.00  0.00     0.099 C 
ATOM    182 8H12 THR d   1       0.529 -12.978 -34.426  0.00  0.00     0.090 H 
BRANCH 181 183
ATOM    183  C   THR d   1       1.811 -11.314 -34.129  0.00  0.00     0.197 C 
ATOM    184  O   THR d   1       1.668 -10.862 -35.267  0.00  0.00    -0.646 OA
ATOM    185  OXT THR d   1       2.821 -11.005 -33.477  0.00  0.00    -0.646 OA
ENDBRANCH 181 183
BRANCH 181 186
ATOM    186  CB  THR d   1      -0.547 -11.558 -33.232  0.00  0.00    -0.029 C 
ATOM    187 9H12 THR d   1      -0.913 -11.023 -34.121  0.00  0.00     0.043 H 
BRANCH 186 188
ATOM    188  CG1 THR d   1      -0.345 -10.532 -32.132  0.00  0.00    -0.063 C 
ATOM    189 0H13 THR d   1       0.306  -9.731 -32.513  0.00  0.00     0.033 H 
ATOM    190 1H13 THR d   1       0.142 -11.024 -31.277  0.00  0.00     0.033 H 
BRANCH 188 191
ATOM    191  CD1 THR d   1      -1.671  -9.902 -31.649  0.00  0.00    -0.076 C 
ATOM    192 5H13 THR d   1      -1.461  -9.170 -30.855  0.00  0.00     0.027 H 
ATOM    193 6H13 THR d   1      -2.330 -10.690 -31.256  0.00  0.00     0.027 H 
ATOM    194 7H13 THR d   1      -2.166  -9.397 -32.492  0.00  0.00     0.027 H 
ENDBRANCH 188 191
ENDBRANCH 186 188
BRANCH 186 195
ATOM    195  CG2 THR d   1      -1.598 -12.593 -32.835  0.00  0.00    -0.070 C 
ATOM    196 2H13 THR d   1      -1.722 -13.321 -33.650  0.00  0.00     0.028 H 
ATOM    197 3H13 THR d   1      -2.557 -12.088 -32.646  0.00  0.00     0.028 H 
ATOM    198 4H13 THR d   1      -1.272 -13.115 -31.923  0.00  0.00     0.028 H 
ENDBRANCH 186 195
ENDBRANCH 181 186
ENDBRANCH 179 181
ENDBRANCH 175 177
BRANCH 175 199
ATOM    199  CB  THR d   1       3.612 -14.016 -30.724  0.00  0.00    -0.049 C 
ATOM    200 4H12 THR d   1       3.216 -13.023 -30.466  0.00  0.00     0.030 H 
ATOM    201 5H12 THR d   1       4.487 -13.902 -31.381  0.00  0.00     0.030 H 
ATOM    202 6H12 THR d   1       3.909 -14.542 -29.805  0.00  0.00     0.030 H 
ENDBRANCH 175 199
ENDBRANCH 173 175
ENDBRANCH 169 171
BRANCH 169 203
ATOM    203  CB  THR d   1       2.998 -18.080 -34.275  0.00  0.00     0.036 C 
ATOM    204 8H11 THR d   1       3.619 -17.178 -34.384  0.00  0.00     0.051 H 
ATOM    205 9H11 THR d   1       2.036 -17.927 -34.786  0.00  0.00     0.051 H 
BRANCH 203 206
ATOM    206  CG  THR d   1       3.705 -19.232 -34.914  0.00  0.00     0.217 C 
ATOM    207  OD1 THR d   1       4.648 -19.787 -34.341  0.00  0.00    -0.274 OA
ATOM    208  ND2 THR d   1       3.255 -19.618 -36.101  0.00  0.00    -0.370 N 
ATOM    209 0H12 THR d   1       3.689 -20.384 -36.576  0.00  0.00     0.159 HD
ATOM    210 1H12 THR d   1       2.481 -19.143 -36.521  0.00  0.00     0.159 HD
ENDBRANCH 203 206
ENDBRANCH 169 203
ENDBRANCH 167 169
ENDBRANCH 163 165
BRANCH 163 211
ATOM    211  CB  THR d   1      -0.197 -20.966 -30.369  0.00  0.00    -0.036 C 
ATOM    212 5H10 THR d   1      -0.615 -19.973 -30.591  0.00  0.00     0.036 H 
ATOM    213 6H10 THR d   1       0.273 -20.952 -29.375  0.00  0.00     0.036 H 
BRANCH 211 214
ATOM    214  CG  THR d   1      -1.317 -21.981 -30.368  0.00  0.00    -0.048 C 
ATOM    215 7H10 THR d   1      -0.882 -22.971 -30.569  0.00  0.00     0.035 H 
ATOM    216 8H10 THR d   1      -2.018 -21.718 -31.174  0.00  0.00     0.035 H 
BRANCH 214 217
ATOM    217  CD  THR d   1      -2.100 -22.064 -29.071  0.00  0.00     0.009 C 
ATOM    218 9H10 THR d   1      -2.949 -22.751 -29.202  0.00  0.00     0.064 H 
ATOM    219 0H11 THR d   1      -2.475 -21.064 -28.808  0.00  0.00     0.064 H 
BRANCH 217 220
ATOM    220  NE  THR d   1      -1.245 -22.555 -27.997  0.00  0.00    -0.227 N 
ATOM    221  CZ  THR d   1      -1.690 -23.005 -26.832  0.00  0.00     0.665 C 
ATOM    222  NH1 THR d   1      -2.986 -23.047 -26.590  0.00  0.00    -0.235 N 
ATOM    223  NH2 THR d   1      -0.818 -23.413 -25.905  0.00  0.00    -0.235 N 
ATOM    224 2H11 THR d   1      -3.330 -23.397 -25.684  0.00  0.00     0.174 HD
ATOM    225 3H11 THR d   1      -3.654 -22.730 -27.307  0.00  0.00     0.174 HD
ATOM    226 4H11 THR d   1       0.193 -23.378 -26.098  0.00  0.00     0.174 HD
ATOM    227 5H11 THR d   1      -1.157 -23.762 -24.997  0.00  0.00     0.174 HD
ATOM    228 1H11 THR d   1      -0.227 -22.552 -28.154  0.00  0.00     0.177 HD
ENDBRANCH 217 220
ENDBRANCH 214 217
ENDBRANCH 211 214
ENDBRANCH 163 211
ENDBRANCH 161 163
ENDBRANCH 157 159
BRANCH 157 229
ATOM    229  CB  THR d   1       3.722 -24.915 -31.585  0.00  0.00    -0.036 C 
ATOM    230  H92 THR d   1       4.189 -23.972 -31.264  0.00  0.00     0.036 H 
ATOM    231  H93 THR d   1       3.862 -25.043 -32.668  0.00  0.00     0.036 H 
BRANCH 229 232
ATOM    232  CG  THR d   1       4.411 -26.049 -30.880  0.00  0.00    -0.048 C 
ATOM    233  H94 THR d   1       4.093 -26.998 -31.336  0.00  0.00     0.035 H 
ATOM    234  H95 THR d   1       4.122 -26.037 -29.819  0.00  0.00     0.035 H 
BRANCH 232 235
ATOM    235  CD  THR d   1       5.933 -25.935 -30.981  0.00  0.00     0.009 C 
ATOM    236  H96 THR d   1       6.241 -24.898 -30.782  0.00  0.00     0.064 H 
ATOM    237  H97 THR d   1       6.261 -26.229 -31.989  0.00  0.00     0.064 H 
BRANCH 235 238
ATOM    238  NE  THR d   1       6.524 -26.814 -30.002  0.00  0.00    -0.227 N 
ATOM    239  CZ  THR d   1       6.735 -28.117 -30.173  0.00  0.00     0.665 C 
ATOM    240  NH1 THR d   1       6.456 -28.705 -31.320  0.00  0.00    -0.235 N 
ATOM    241  NH2 THR d   1       7.228 -28.836 -29.178  0.00  0.00    -0.235 N 
ATOM    242  H99 THR d   1       6.625 -29.714 -31.436  0.00  0.00     0.174 HD
ATOM    243 0H10 THR d   1       6.069 -28.155 -32.100  0.00  0.00     0.174 HD
ATOM    244 1H10 THR d   1       7.449 -28.387 -28.278  0.00  0.00     0.174 HD
ATOM    245 2H10 THR d   1       7.391 -29.845 -29.303  0.00  0.00     0.174 HD
ATOM    246  H98 THR d   1       6.804 -26.401 -29.101  0.00  0.00     0.177 HD
ENDBRANCH 235 238
ENDBRANCH 232 235
ENDBRANCH 229 232
ENDBRANCH 157 229
ENDBRANCH 155 157
ENDBRANCH 150 153
ENDBRANCH 148 150
ENDBRANCH 144 146
BRANCH 144 247
ATOM    247  CB  THR d   1      -4.580 -29.328 -31.334  0.00  0.00     0.060 C 
ATOM    248  H82 THR d   1      -4.242 -30.054 -30.580  0.00  0.00     0.086 H 
BRANCH 247 249
ATOM    249  OG1 THR d   1      -4.090 -29.725 -32.637  0.00  0.00    -0.393 OA
ATOM    250  H83 THR d   1      -3.141 -29.772 -32.617  0.00  0.00     0.210 HD
ENDBRANCH 247 249
BRANCH 247 251
ATOM    251  CG2 THR d   1      -6.117 -29.327 -31.361  0.00  0.00    -0.050 C 
ATOM    252  H84 THR d   1      -6.480 -30.334 -31.614  0.00  0.00     0.031 H 
ATOM    253  H85 THR d   1      -6.470 -28.610 -32.117  0.00  0.00     0.031 H 
ATOM    254  H86 THR d   1      -6.501 -29.036 -30.372  0.00  0.00     0.031 H 
ENDBRANCH 247 251
ENDBRANCH 144 247
ENDBRANCH 142 144
ENDBRANCH 138 140
BRANCH 138 255
ATOM    255  CB  THR d   1      -4.796 -23.436 -32.589  0.00  0.00    -0.036 C 
ATOM    256  H69 THR d   1      -3.724 -23.606 -32.413  0.00  0.00     0.036 H 
ATOM    257  H70 THR d   1      -5.198 -22.781 -31.802  0.00  0.00     0.036 H 
BRANCH 255 258
ATOM    258  CG  THR d   1      -4.955 -22.732 -33.923  0.00  0.00    -0.048 C 
ATOM    259  H71 THR d   1      -5.715 -23.270 -34.509  0.00  0.00     0.035 H 
ATOM    260  H72 THR d   1      -3.990 -22.770 -34.450  0.00  0.00     0.035 H 
BRANCH 258 261
ATOM    261  CD  THR d   1      -5.372 -21.306 -33.816  0.00  0.00     0.009 C 
ATOM    262  H73 THR d   1      -6.431 -21.291 -33.519  0.00  0.00     0.064 H 
ATOM    263  H74 THR d   1      -5.264 -20.853 -34.813  0.00  0.00     0.064 H 
BRANCH 261 264
ATOM    264  NE  THR d   1      -4.634 -20.465 -32.865  0.00  0.00    -0.227 N 
ATOM    265  CZ  THR d   1      -3.719 -19.553 -33.180  0.00  0.00     0.665 C 
ATOM    266  NH1 THR d   1      -3.346 -19.338 -34.444  0.00  0.00    -0.235 N 
ATOM    267  NH2 THR d   1      -3.176 -18.817 -32.229  0.00  0.00    -0.235 N 
ATOM    268  H76 THR d   1      -2.634 -18.624 -34.657  0.00  0.00     0.174 HD
ATOM    269  H77 THR d   1      -3.770 -19.886 -35.206  0.00  0.00     0.174 HD
ATOM    270  H78 THR d   1      -3.447 -18.964 -31.246  0.00  0.00     0.174 HD
ATOM    271  H79 THR d   1      -2.481 -18.096 -32.469  0.00  0.00     0.174 HD
ATOM    272  H75 THR d   1      -4.844 -20.593 -31.865  0.00  0.00     0.177 HD
ENDBRANCH 261 264
ENDBRANCH 258 261
ENDBRANCH 255 258
ENDBRANCH 138 255
ENDBRANCH 136 138
ENDBRANCH 131 134
ENDBRANCH 129 131
ENDBRANCH   1 127
BRANCH   1 273
ATOM    273  CB  THR d   1     -12.940 -25.798 -34.685  0.00  0.00     0.050 C 
ATOM    274  H62 THR d   1     -13.546 -26.387 -35.389  0.00  0.00     0.078 H 
ATOM    275  H63 THR d   1     -12.781 -24.789 -35.093  0.00  0.00     0.078 H 
BRANCH 273 276
ATOM    276  OG  THR d   1     -13.624 -25.696 -33.470  0.00  0.00    -0.356 OA
BRANCH 276 277
ATOM    277  C1  THR d   1     -14.804 -25.160 -33.928  0.00  0.00     0.155 C 
ATOM    278  C2  THR d   1     -15.854 -25.842 -33.055  0.00  0.00     0.083 C 
ATOM    279  C3  THR d   1     -16.904 -24.836 -32.604  0.00  0.00    -0.035 C 
ATOM    280 9H13 THR d   1     -15.361 -26.262 -32.166  0.00  0.00     0.090 H 
ATOM    281  C4  THR d   1     -16.278 -23.698 -31.813  0.00  0.00    -0.043 C 
ATOM    282 0H14 THR d   1     -17.642 -25.349 -31.970  0.00  0.00     0.037 H 
ATOM    283 1H14 THR d   1     -17.407 -24.422 -33.490  0.00  0.00     0.037 H 
ATOM    284  C5  THR d   1     -14.993 -23.256 -32.489  0.00  0.00     0.023 C 
ATOM    285 2H14 THR d   1     -16.055 -24.041 -30.792  0.00  0.00     0.036 H 
ATOM    286 3H14 THR d   1     -16.980 -22.852 -31.771  0.00  0.00     0.036 H 
ATOM    287  O5  THR d   1     -14.924 -23.739 -33.836  0.00  0.00    -0.359 OA
ATOM    288 4H14 THR d   1     -14.136 -23.649 -31.922  0.00  0.00     0.074 H 
ATOM    289 5H14 THR d   1     -14.953 -22.157 -32.499  0.00  0.00     0.074 H 
ATOM    290 8H13 THR d   1     -14.943 -25.441 -34.983  0.00  0.00     0.133 H 
BRANCH 278 291
ATOM    291  O2  THR d   1     -16.466 -26.899 -33.789  0.00  0.00    -0.391 OA
ATOM    292 6H14 THR d   1     -15.801 -27.519 -34.064  0.00  0.00     0.210 HD
ENDBRANCH 278 291
ENDBRANCH 276 277
ENDBRANCH 273 276
ENDBRANCH   1 273
TORSDOF 81
