REMARK  5 active torsions:
REMARK  status: ('A' for Active; 'I' for Inactive)
REMARK       I    between atoms: C02_2  and  N03_3 
REMARK    1  A    between atoms: C02_2  and  C08_8 
REMARK    2  A    between atoms: N03_3  and  C04_4 
REMARK    3  A    between atoms: C04_4  and  C05_5 
REMARK    4  A    between atoms: C05_5  and  C06_6 
REMARK    5  A    between atoms: C06_6  and  O07_7 
ROOT
ATOM      1  O01 9Z0 d   1      28.043  -0.783   3.656  0.00  0.00    -0.266 OA
ATOM      2  C02 9Z0 d   1      27.093  -0.353   3.002  0.00  0.00     0.268 C 
ATOM      3  N03 9Z0 d   1      25.980  -1.064   2.841  0.00  0.00    -0.356 N 
ATOM      4  H1  9Z0 d   1      25.582  -1.129   1.926  0.00  0.00     0.162 HD
ENDROOT
BRANCH   3   5
ATOM      5  C04 9Z0 d   1      25.316  -1.751   3.937  0.00  0.00    -0.003 C 
ATOM      6  H2  9Z0 d   1      26.008  -1.817   4.789  0.00  0.00     0.064 H 
ATOM      7  H3  9Z0 d   1      25.041  -2.764   3.609  0.00  0.00     0.064 H 
BRANCH   5   8
ATOM      8  C05 9Z0 d   1      24.064  -1.018   4.375  0.00  0.00    -0.031 C 
ATOM      9  H4  9Z0 d   1      23.275  -1.194   3.629  0.00  0.00     0.038 H 
ATOM     10  H5  9Z0 d   1      24.287   0.058   4.426  0.00  0.00     0.038 H 
BRANCH   8  11
ATOM     11  C06 9Z0 d   1      23.558  -1.470   5.727  0.00  0.00     0.018 C 
ATOM     12  H6  9Z0 d   1      22.545  -1.069   5.879  0.00  0.00     0.074 H 
ATOM     13  H7  9Z0 d   1      24.228  -1.077   6.506  0.00  0.00     0.074 H 
BRANCH  11  14
ATOM     14  O07 9Z0 d   1      23.511  -2.890   5.835  0.00  0.00    -0.401 OA
ATOM     15  H8  9Z0 d   1      23.189  -3.131   6.696  0.00  0.00     0.209 HD
ENDBRANCH  11  14
ENDBRANCH   8  11
ENDBRANCH   5   8
ENDBRANCH   3   5
BRANCH   2  16
ATOM     16  C08 9Z0 d   1      27.111   0.988   2.416  0.00  0.00     0.102 A 
ATOM     17  C09 9Z0 d   1      26.123   1.767   1.822  0.00  0.00    -0.032 A 
ATOM     18  C10 9Z0 d   1      26.721   2.970   1.441  0.00  0.00     0.047 A 
ATOM     19  H9  9Z0 d   1      25.079   1.490   1.681  0.00  0.00     0.089 H 
ATOM     20 BR1  9Z0 d   1      25.882   4.411   0.571  0.00  0.00    -0.048 Br
ATOM     21  C12 9Z0 d   1      28.038   2.899   1.816  0.00  0.00     0.098 A 
ATOM     22 BR2  9Z0 d   1      29.387   4.157   1.607  0.00  0.00    -0.030 Br
ATOM     23  N14 9Z0 d   1      28.280   1.711   2.406  0.00  0.00    -0.345 N 
ATOM     24  H10 9Z0 d   1      29.186   1.399   2.784  0.00  0.00     0.167 HD
ENDBRANCH   2  16
TORSDOF 5
