REMARK  2 active torsions:
REMARK  status: ('A' for Active; 'I' for Inactive)
REMARK    1  A    between atoms: C05_5  and  N08_8 
REMARK       I    between atoms: N08_8  and  C09_9 
REMARK    2  A    between atoms: C09_9  and  C11_11 
ROOT
ATOM      1  C11 AVB d   1       3.722 -33.174 -18.455  0.00  0.00     0.047 C 
ATOM      2  C12 AVB d   1       4.260 -33.809 -19.706  0.00  0.00    -0.051 C 
ATOM      3  C13 AVB d   1       3.438 -34.936 -20.182  0.00  0.00    -0.042 C 
ATOM      4  C14 AVB d   1       1.966 -34.525 -20.319  0.00  0.00     0.082 C 
ATOM      5  N15 AVB d   1       1.450 -33.847 -19.101  0.00  0.00    -0.074 N 
ATOM      6  C16 AVB d   1       2.284 -32.712 -18.624  0.00  0.00     0.093 C 
ATOM      7  H5  AVB d   1       3.740 -33.902 -17.631  0.00  0.00     0.057 H 
ATOM      8  H6  AVB d   1       5.276 -34.178 -19.502  0.00  0.00     0.034 H 
ATOM      9  H7  AVB d   1       4.299 -33.046 -20.497  0.00  0.00     0.034 H 
ATOM     10  H8  AVB d   1       3.514 -35.765 -19.463  0.00  0.00     0.035 H 
ATOM     11  H9  AVB d   1       3.812 -35.265 -21.163  0.00  0.00     0.035 H 
ATOM     12  H10 AVB d   1       1.363 -35.427 -20.503  0.00  0.00     0.075 H 
ATOM     13  H11 AVB d   1       1.869 -33.838 -21.173  0.00  0.00     0.075 H 
ATOM     14  H12 AVB d   1       1.395 -34.529 -18.361  0.00  0.00     0.277 HD
ATOM     15  H13 AVB d   1       0.527 -33.496 -19.304  0.00  0.00     0.277 HD
ATOM     16  H14 AVB d   1       2.246 -31.895 -19.359  0.00  0.00     0.076 H 
ATOM     17  H15 AVB d   1       1.898 -32.354 -17.658  0.00  0.00     0.076 H 
ENDROOT
BRANCH   1  18
ATOM     18  C09 AVB d   1       4.736 -32.051 -18.160  0.00  0.00     0.229 C 
ATOM     19  N08 AVB d   1       4.629 -30.679 -18.671  0.00  0.00    -0.311 N 
ATOM     20  H4  AVB d   1       3.838 -30.371 -19.200  0.00  0.00     0.170 HD
ATOM     21  O10 AVB d   1       5.686 -32.355 -17.498  0.00  0.00    -0.273 OA
BRANCH  19  22
ATOM     22  C05 AVB d   1       5.738 -29.796 -18.364  0.00  0.00     0.129 A 
ATOM     23  C04 AVB d   1       6.182 -29.547 -17.066  0.00  0.00    -0.037 A 
ATOM     24  C03 AVB d   1       7.299 -28.716 -16.875  0.00  0.00    -0.061 A 
ATOM     25  H2  AVB d   1       5.673 -29.988 -16.217  0.00  0.00     0.089 H 
ATOM     26  C02 AVB d   1       7.935 -28.183 -18.007  0.00  0.00     0.028 A 
ATOM     27  H1  AVB d   1       7.661 -28.492 -15.878  0.00  0.00     0.085 H 
ATOM     28 BR1  AVB d   1       9.477 -27.030 -17.858  0.00  0.00    -0.050 Br
ATOM     29  C07 AVB d   1       7.450 -28.486 -19.283  0.00  0.00     0.021 A 
ATOM     30  N06 AVB d   1       6.397 -29.274 -19.427  0.00  0.00    -0.242 NA
ATOM     31  H3  AVB d   1       7.939 -28.073 -20.158  0.00  0.00     0.117 H 
ENDBRANCH  19  22
ENDBRANCH   1  18
TORSDOF 2
