REMARK  3 active torsions:
REMARK  status: ('A' for Active; 'I' for Inactive)
REMARK    1  A    between atoms: C1_1  and  C_15 
REMARK    2  A    between atoms: C7_13  and  C4_4 
REMARK    3  A    between atoms: C_15  and  N_16 
ROOT
ATOM      1  C1  AWE d   1    -115.239-175.142 309.066  0.00  0.00    -0.031 A 
ATOM      2  C2  AWE d   1    -114.974-176.406 309.564  0.00  0.00    -0.074 A 
ATOM      3  C3  AWE d   1    -113.713-176.746 310.021  0.00  0.00    -0.070 A 
ATOM      4  C4  AWE d   1    -112.669-175.825 309.988  0.00  0.00    -0.004 A 
ATOM      5  C5  AWE d   1    -112.945-174.558 309.476  0.00  0.00     0.045 A 
ATOM      6  C6  AWE d   1    -114.205-174.217 309.029  0.00  0.00    -0.053 A 
ATOM      7 CL   AWE d   1    -111.688-173.371 309.339  0.00  0.00    -0.083 Cl
ATOM      8  H1  AWE d   1    -115.769-177.143 309.597  0.00  0.00     0.084 H 
ATOM      9  H2  AWE d   1    -113.535-177.742 310.410  0.00  0.00     0.084 H 
ATOM     10  H3  AWE d   1    -114.389-173.220 308.646  0.00  0.00     0.087 H 
ENDROOT
BRANCH   4  11
ATOM     11  C7  AWE d   1    -111.331-176.258 310.481  0.00  0.00    -0.021 A 
ATOM     12  C8  AWE d   1    -110.524-177.093 309.711  0.00  0.00    -0.072 A 
ATOM     13  C9  AWE d   1    -109.286-177.506 310.172  0.00  0.00    -0.079 A 
ATOM     14  H6  AWE d   1    -110.870-177.423 308.738  0.00  0.00     0.084 H 
ATOM     15  C10 AWE d   1    -108.826-177.098 311.411  0.00  0.00    -0.046 A 
ATOM     16  H5  AWE d   1    -108.672-178.154 309.557  0.00  0.00     0.083 H 
ATOM     17  C11 AWE d   1    -109.630-176.278 312.150  0.00  0.00     0.117 A 
ATOM     18  H4  AWE d   1    -107.860-177.418 311.783  0.00  0.00     0.088 H 
ATOM     19  F   AWE d   1    -109.189-175.863 313.363  0.00  0.00    -0.206 F 
ATOM     20  C12 AWE d   1    -110.862-175.846 311.727  0.00  0.00    -0.035 A 
ATOM     21  H7  AWE d   1    -111.461-175.194 312.353  0.00  0.00     0.089 H 
ENDBRANCH   4  11
BRANCH   1  22
ATOM     22  C   AWE d   1    -116.595-174.728 308.563  0.00  0.00     0.103 C 
ATOM     23  H8  AWE d   1    -116.445-174.073 307.692  0.00  0.00     0.082 H 
ATOM     24  H9  AWE d   1    -117.093-174.163 309.365  0.00  0.00     0.082 H 
BRANCH  22  25
ATOM     25  N   AWE d   1    -117.478-175.800 308.163  0.00  0.00    -0.075 N 
ATOM     26  H10 AWE d   1    -118.353-175.414 307.845  0.00  0.00     0.274 HD
ATOM     27  H11 AWE d   1    -117.645-176.408 308.949  0.00  0.00     0.274 HD
ATOM     28  H12 AWE d   1    -117.052-176.326 307.416  0.00  0.00     0.274 HD
ENDBRANCH  22  25
ENDBRANCH   1  22
TORSDOF 3
