REMARK WARNING: 32 MAX_TORS EXCEEDED!!!
REMARK  79 active torsions:
REMARK  status: ('A' for Active; 'I' for Inactive)
REMARK    1  A    between atoms: N_1  and  CA_2 
REMARK    2  A    between atoms: CA_2  and  C_3 
REMARK    3  A    between atoms: CA_2  and  CB_5 
REMARK       I    between atoms: C_3  and  N_8 
REMARK    4  A    between atoms: CB_5  and  OG1_6 
REMARK    5  A    between atoms: CB_5  and  CG2_7 
REMARK    6  A    between atoms: N_8  and  CA_9 
REMARK    7  A    between atoms: CA_9  and  C_10 
REMARK    8  A    between atoms: CA_9  and  CB_12 
REMARK       I    between atoms: C_10  and  N_15 
REMARK    9  A    between atoms: CB_12  and  OG1_13 
REMARK   10  A    between atoms: CB_12  and  CG2_14 
REMARK   11  A    between atoms: N_15  and  CA_16 
REMARK   12  A    between atoms: CA_16  and  C_17 
REMARK   13  A    between atoms: CA_16  and  CB_19 
REMARK       I    between atoms: C_17  and  N_27 
REMARK   14  A    between atoms: CB_19  and  CG_20 
REMARK   15  A    between atoms: CZ_25  and  OH_26 
REMARK   16  A    between atoms: N_27  and  CA_28 
REMARK   17  A    between atoms: CA_28  and  C_29 
REMARK   18  A    between atoms: CA_28  and  CB_31 
REMARK       I    between atoms: C_29  and  N_32 
REMARK   19  A    between atoms: N_32  and  CA_33 
REMARK   20  A    between atoms: CA_33  and  C_34 
REMARK   21  A    between atoms: CA_33  and  CB_36 
REMARK       I    between atoms: C_34  and  N_40 
REMARK   22  A    between atoms: CB_36  and  CG_37 
REMARK   23  A    between atoms: N_40  and  CA_41 
REMARK   24  A    between atoms: CA_41  and  C_42 
REMARK   25  A    between atoms: CA_41  and  CB_44 
REMARK       I    between atoms: C_42  and  N_51 
REMARK   26  A    between atoms: CB_44  and  CG_45 
REMARK   27  A    between atoms: N_51  and  CA_52 
REMARK   28  A    between atoms: CA_52  and  C_53 
REMARK   29  A    between atoms: CA_52  and  CB_55 
REMARK       I    between atoms: C_53  and  N_59 
REMARK   30  A    between atoms: CB_55  and  CG1_56 
REMARK   31  A    between atoms: CB_55  and  CG2_57 
REMARK   32  A    between atoms: CG1_56  and  CD1_58 
REMARK   33  A    between atoms: N_59  and  CA_60 
REMARK   34  A    between atoms: CA_60  and  C_61 
REMARK   35  A    between atoms: CA_60  and  CB_63 
REMARK       I    between atoms: C_61  and  N_64 
REMARK   36  A    between atoms: N_64  and  CA_65 
REMARK   37  A    between atoms: CA_65  and  C_66 
REMARK   38  A    between atoms: CA_65  and  CB_68 
REMARK       I    between atoms: C_66  and  N_70 
REMARK   39  A    between atoms: CB_68  and  OG_69 
REMARK   40  A    between atoms: N_70  and  CA_71 
REMARK   41  A    between atoms: CA_71  and  C_72 
REMARK       I    between atoms: C_72  and  N_74 
REMARK   42  A    between atoms: N_74  and  CA_75 
REMARK   43  A    between atoms: CA_75  and  C_76 
REMARK   44  A    between atoms: CA_75  and  CB_78 
REMARK       I    between atoms: C_76  and  N_85 
REMARK   45  A    between atoms: CB_78  and  CG_79 
REMARK   46  A    between atoms: CG_79  and  CD_80 
REMARK   47  A    between atoms: CD_80  and  NE_81 
REMARK       I    between atoms: NE_81  and  CZ_82 
REMARK       I    between atoms: CZ_82  and  NH1_83 
REMARK       I    between atoms: CZ_82  and  NH2_84 
REMARK   48  A    between atoms: N_85  and  CA_86 
REMARK   49  A    between atoms: CA_86  and  C_87 
REMARK   50  A    between atoms: CA_86  and  CB_89 
REMARK       I    between atoms: C_87  and  N_92 
REMARK   51  A    between atoms: CB_89  and  OG1_90 
REMARK   52  A    between atoms: CB_89  and  CG2_91 
REMARK   53  A    between atoms: N_92  and  CA_93 
REMARK   54  A    between atoms: CA_93  and  C_94 
REMARK       I    between atoms: C_94  and  N_96 
REMARK   55  A    between atoms: N_96  and  CA_97 
REMARK   56  A    between atoms: CA_97  and  C_98 
REMARK   57  A    between atoms: CA_97  and  CB_100 
REMARK       I    between atoms: C_98  and  N_105 
REMARK   58  A    between atoms: CB_100  and  CG_101 
REMARK   59  A    between atoms: CG_101  and  CD_102 
REMARK   60  A    between atoms: CD_102  and  CE_103 
REMARK   61  A    between atoms: CE_103  and  NZ_104 
REMARK   62  A    between atoms: N_105  and  CA_106 
REMARK   63  A    between atoms: CA_106  and  C_107 
REMARK   64  A    between atoms: CA_106  and  CB_109 
REMARK       I    between atoms: C_107  and  N_116 
REMARK   65  A    between atoms: CB_109  and  CG_110 
REMARK   66  A    between atoms: CG_110  and  CD_111 
REMARK   67  A    between atoms: CD_111  and  NE_112 
REMARK       I    between atoms: NE_112  and  CZ_113 
REMARK       I    between atoms: CZ_113  and  NH1_114 
REMARK   68  A    between atoms: N_116  and  CA_117 
REMARK   69  A    between atoms: CA_117  and  C_118 
REMARK   70  A    between atoms: CA_117  and  CB_120 
REMARK       I    between atoms: C_118  and  N_124 
REMARK   71  A    between atoms: CB_120  and  CG_121 
REMARK       I    between atoms: CG_121  and  ND2_123 
REMARK   72  A    between atoms: N_124  and  CA_125 
REMARK   73  A    between atoms: CA_125  and  C_126 
REMARK   74  A    between atoms: CA_125  and  CB_128 
REMARK       I    between atoms: C_126  and  N_129 
REMARK   75  A    between atoms: N_129  and  CA_130 
REMARK   76  A    between atoms: CA_130  and  C_131 
REMARK   77  A    between atoms: CA_130  and  CB_133 
REMARK   78  A    between atoms: CB_133  and  CG1_134 
REMARK   79  A    between atoms: CB_133  and  CG2_135 
ROOT
ATOM      1  CA  THR d   1      -7.595 -29.620 -34.793  0.00  0.00     0.069 C 
ATOM      2  H66 THR d   1      -7.853 -29.154 -35.755  0.00  0.00     0.078 H 
ATOM      3  H67 THR d   1      -7.201 -30.632 -34.969  0.00  0.00     0.078 H 
ENDROOT
BRANCH   1   4
ATOM      4  N   THR d   1      -8.809 -29.740 -34.012  0.00  0.00    -0.350 N 
ATOM      5  C   THR d   1      -9.707 -28.756 -34.003  0.00  0.00     0.242 C 
ATOM      6  O   THR d   1      -9.547 -27.721 -34.654  0.00  0.00    -0.271 OA
ATOM      7  H65 THR d   1      -8.974 -30.568 -33.476  0.00  0.00     0.163 HD
BRANCH   5   8
ATOM      8  CA  THR d   1     -10.940 -28.893 -33.117  0.00  0.00     0.109 C 
ATOM      9  H61 THR d   1     -11.800 -28.469 -33.657  0.00  0.00     0.090 H 
BRANCH   8  10
ATOM     10  N   THR d   1     -11.262 -30.280 -32.785  0.00  0.00    -0.344 N 
ATOM     11  C   THR d   1     -11.813 -31.105 -33.683  0.00  0.00     0.240 C 
ATOM     12  O   THR d   1     -12.000 -30.774 -34.859  0.00  0.00    -0.271 OA
ATOM     13  H60 THR d   1     -11.066 -30.620 -31.865  0.00  0.00     0.163 HD
BRANCH  11  14
ATOM     14  CA  THR d   1     -12.214 -32.505 -33.228  0.00  0.00     0.086 C 
ATOM     15  H56 THR d   1     -11.869 -33.218 -33.991  0.00  0.00     0.086 H 
BRANCH  14  16
ATOM     16  N   THR d   1     -11.607 -32.887 -31.957  0.00  0.00    -0.346 N 
ATOM     17  C   THR d   1     -10.279 -33.039 -31.853  0.00  0.00     0.241 C 
ATOM     18  O   THR d   1      -9.522 -32.840 -32.810  0.00  0.00    -0.271 OA
ATOM     19  H55 THR d   1     -12.187 -33.037 -31.156  0.00  0.00     0.163 HD
BRANCH  17  20
ATOM     20  CA  THR d   1      -9.726 -33.469 -30.498  0.00  0.00     0.092 C 
ATOM     21  H45 THR d   1      -8.647 -33.255 -30.488  0.00  0.00     0.088 H 
BRANCH  20  22
ATOM     22  N   THR d   1     -10.353 -32.710 -29.418  0.00  0.00    -0.346 N 
ATOM     23  C   THR d   1     -10.208 -31.387 -29.348  0.00  0.00     0.241 C 
ATOM     24  O   THR d   1      -9.517 -30.755 -30.157  0.00  0.00    -0.271 OA
ATOM     25  H44 THR d   1     -10.895 -33.187 -28.726  0.00  0.00     0.163 HD
BRANCH  23  26
ATOM     26  CA  THR d   1     -10.953 -30.673 -28.229  0.00  0.00     0.093 C 
ATOM     27  H36 THR d   1     -10.968 -29.597 -28.458  0.00  0.00     0.088 H 
BRANCH  26  28
ATOM     28  N   THR d   1     -12.330 -31.147 -28.140  0.00  0.00    -0.346 N 
ATOM     29  C   THR d   1     -13.154 -31.017 -29.179  0.00  0.00     0.241 C 
ATOM     30  O   THR d   1     -12.800 -30.484 -30.235  0.00  0.00    -0.271 OA
ATOM     31  H35 THR d   1     -12.657 -31.571 -27.296  0.00  0.00     0.163 HD
BRANCH  29  32
ATOM     32  CA  THR d   1     -14.566 -31.565 -29.021  0.00  0.00     0.098 C 
ATOM     33  H32 THR d   1     -14.987 -31.728 -30.024  0.00  0.00     0.088 H 
BRANCH  32  34
ATOM     34  N   THR d   1     -14.555 -32.843 -28.316  0.00  0.00    -0.346 N 
ATOM     35  C   THR d   1     -13.858 -33.880 -28.803  0.00  0.00     0.240 C 
ATOM     36  O   THR d   1     -13.289 -33.842 -29.903  0.00  0.00    -0.271 OA
ATOM     37  H31 THR d   1     -15.070 -32.946 -27.465  0.00  0.00     0.163 HD
BRANCH  35  38
ATOM     38  CA  THR d   1     -13.784 -35.129 -27.938  0.00  0.00     0.086 C 
ATOM     39  H27 THR d   1     -12.907 -35.716 -28.248  0.00  0.00     0.086 H 
BRANCH  38  40
ATOM     40  N   THR d   1     -13.626 -34.774 -26.527  0.00  0.00    -0.346 N 
ATOM     41  C   THR d   1     -12.550 -34.083 -26.117  0.00  0.00     0.241 C 
ATOM     42  O   THR d   1     -11.641 -33.754 -26.889  0.00  0.00    -0.271 OA
ATOM     43  H26 THR d   1     -14.323 -35.048 -25.864  0.00  0.00     0.163 HD
BRANCH  41  44
ATOM     44  CA  THR d   1     -12.469 -33.738 -24.634  0.00  0.00     0.093 C 
ATOM     45  H18 THR d   1     -11.665 -33.000 -24.494  0.00  0.00     0.088 H 
BRANCH  44  46
ATOM     46  N   THR d   1     -13.717 -33.153 -24.152  0.00  0.00    -0.346 N 
ATOM     47  C   THR d   1     -14.239 -32.066 -24.728  0.00  0.00     0.243 C 
ATOM     48  O   THR d   1     -13.694 -31.496 -25.681  0.00  0.00    -0.271 OA
ATOM     49  H17 THR d   1     -14.189 -33.573 -23.377  0.00  0.00     0.163 HD
BRANCH  47  50
ATOM     50  CA  THR d   1     -15.555 -31.542 -24.158  0.00  0.00     0.113 C 
ATOM     51  H11 THR d   1     -15.998 -30.852 -24.890  0.00  0.00     0.091 H 
BRANCH  50  52
ATOM     52  N   THR d   1     -16.495 -32.628 -23.917  0.00  0.00    -0.344 N 
ATOM     53  C   THR d   1     -16.878 -33.405 -24.926  0.00  0.00     0.251 C 
ATOM     54  O   THR d   1     -16.497 -33.229 -26.082  0.00  0.00    -0.271 OA
ATOM     55  H10 THR d   1     -16.851 -32.789 -22.996  0.00  0.00     0.163 HD
BRANCH  53  56
ATOM     56  CA  THR d   1     -17.826 -34.537 -24.565  0.00  0.00     0.199 C 
ATOM     57  H4  THR d   1     -18.500 -34.185 -23.770  0.00  0.00     0.103 H 
BRANCH  56  58
ATOM     58  N   THR d   1     -18.652 -34.946 -25.700  0.00  0.00    -0.064 N 
ATOM     59  H1  THR d   1     -19.180 -34.155 -26.033  0.00  0.00     0.275 HD
ATOM     60  H2  THR d   1     -19.285 -35.675 -25.410  0.00  0.00     0.275 HD
ATOM     61  H3  THR d   1     -18.060 -35.291 -26.439  0.00  0.00     0.275 HD
ENDBRANCH  56  58
BRANCH  56  62
ATOM     62  CB  THR d   1     -16.998 -35.709 -24.017  0.00  0.00     0.068 C 
ATOM     63  H5  THR d   1     -16.698 -35.489 -22.982  0.00  0.00     0.086 H 
BRANCH  62  64
ATOM     64  OG1 THR d   1     -15.828 -35.898 -24.823  0.00  0.00    -0.393 OA
ATOM     65  H6  THR d   1     -15.302 -35.107 -24.806  0.00  0.00     0.210 HD
ENDBRANCH  62  64
BRANCH  62  66
ATOM     66  CG2 THR d   1     -17.824 -36.977 -24.045  0.00  0.00    -0.050 C 
ATOM     67  H7  THR d   1     -17.226 -37.813 -23.652  0.00  0.00     0.031 H 
ATOM     68  H8  THR d   1     -18.124 -37.196 -25.080  0.00  0.00     0.031 H 
ATOM     69  H9  THR d   1     -18.722 -36.844 -23.423  0.00  0.00     0.031 H 
ENDBRANCH  62  66
ENDBRANCH  56  62
ENDBRANCH  53  56
ENDBRANCH  50  52
BRANCH  50  70
ATOM     70  CB  THR d   1     -15.312 -30.785 -22.860  0.00  0.00     0.060 C 
ATOM     71  H12 THR d   1     -14.811 -31.451 -22.142  0.00  0.00     0.086 H 
BRANCH  70  72
ATOM     72  OG1 THR d   1     -16.574 -30.376 -22.316  0.00  0.00    -0.393 OA
ATOM     73  H13 THR d   1     -16.430 -29.903 -21.505  0.00  0.00     0.210 HD
ENDBRANCH  70  72
BRANCH  70  74
ATOM     74  CG2 THR d   1     -14.417 -29.577 -23.117  0.00  0.00    -0.050 C 
ATOM     75  H14 THR d   1     -14.248 -29.038 -22.173  0.00  0.00     0.031 H 
ATOM     76  H15 THR d   1     -14.905 -28.907 -23.840  0.00  0.00     0.031 H 
ATOM     77  H16 THR d   1     -13.452 -29.915 -23.523  0.00  0.00     0.031 H 
ENDBRANCH  70  74
ENDBRANCH  50  70
ENDBRANCH  47  50
ENDBRANCH  44  46
BRANCH  44  78
ATOM     78  CB  THR d   1     -12.129 -34.988 -23.823  0.00  0.00    -0.014 C 
ATOM     79  H19 THR d   1     -12.964 -35.699 -23.906  0.00  0.00     0.043 H 
ATOM     80  H20 THR d   1     -11.997 -34.699 -22.770  0.00  0.00     0.043 H 
BRANCH  78  81
ATOM     81  CG  THR d   1     -10.870 -35.666 -24.297  0.00  0.00    -0.056 A 
ATOM     82  CD1 THR d   1     -10.900 -36.957 -24.827  0.00  0.00    -0.074 A 
ATOM     83  CE1 THR d   1      -9.736 -37.580 -25.259  0.00  0.00    -0.051 A 
ATOM     84  H21 THR d   1     -11.846 -37.481 -24.903  0.00  0.00     0.084 H 
ATOM     85  CZ  THR d   1      -8.538 -36.891 -25.180  0.00  0.00     0.065 A 
ATOM     86  H23 THR d   1      -9.765 -38.590 -25.652  0.00  0.00     0.087 H 
ATOM     87  CE2 THR d   1      -8.494 -35.604 -24.673  0.00  0.00    -0.051 A 
ATOM     88  CD2 THR d   1      -9.649 -35.004 -24.239  0.00  0.00    -0.074 A 
ATOM     89  H24 THR d   1      -7.551 -35.072 -24.619  0.00  0.00     0.087 H 
ATOM     90  H22 THR d   1      -9.609 -33.995 -23.844  0.00  0.00     0.084 H 
BRANCH  85  91
ATOM     91  OH  THR d   1      -7.371 -37.469 -25.610  0.00  0.00    -0.361 OA
ATOM     92  H25 THR d   1      -6.756 -37.515 -24.887  0.00  0.00     0.217 HD
ENDBRANCH  85  91
ENDBRANCH  78  81
ENDBRANCH  44  78
ENDBRANCH  41  44
ENDBRANCH  38  40
BRANCH  38  93
ATOM     93  CB  THR d   1     -15.037 -35.985 -28.142  0.00  0.00    -0.049 C 
ATOM     94  H28 THR d   1     -15.137 -36.240 -29.207  0.00  0.00     0.030 H 
ATOM     95  H29 THR d   1     -15.923 -35.421 -27.815  0.00  0.00     0.030 H 
ATOM     96  H30 THR d   1     -14.951 -36.908 -27.550  0.00  0.00     0.030 H 
ENDBRANCH  38  93
ENDBRANCH  35  38
ENDBRANCH  32  34
BRANCH  32  97
ATOM     97  CB  THR d   1     -15.449 -30.557 -28.285  0.00  0.00     0.043 C 
ATOM     98  H33 THR d   1     -15.278 -29.559 -28.716  0.00  0.00     0.052 H 
ATOM     99  H34 THR d   1     -15.165 -30.551 -27.222  0.00  0.00     0.052 H 
BRANCH  97 100
ATOM    100  CG  THR d   1     -16.935 -30.885 -28.390  0.00  0.00     0.175 C 
ATOM    101  OD1 THR d   1     -17.316 -31.657 -29.299  0.00  0.00    -0.648 OA
ATOM    102  OD2 THR d   1     -17.720 -30.352 -27.569  0.00  0.00    -0.648 OA
ENDBRANCH  97 100
ENDBRANCH  32  97
ENDBRANCH  29  32
ENDBRANCH  26  28
BRANCH  26 103
ATOM    103  CB  THR d   1     -10.254 -30.871 -26.884  0.00  0.00    -0.014 C 
ATOM    104  H37 THR d   1     -10.296 -31.940 -26.628  0.00  0.00     0.043 H 
ATOM    105  H38 THR d   1     -10.797 -30.290 -26.124  0.00  0.00     0.043 H 
BRANCH 103 106
ATOM    106  CG  THR d   1      -8.816 -30.440 -26.866  0.00  0.00    -0.056 A 
ATOM    107  CD1 THR d   1      -7.844 -31.265 -26.326  0.00  0.00    -0.077 A 
ATOM    108  CE1 THR d   1      -6.519 -30.869 -26.281  0.00  0.00    -0.082 A 
ATOM    109  H39 THR d   1      -8.125 -32.235 -25.933  0.00  0.00     0.084 H 
ATOM    110  CZ  THR d   1      -6.156 -29.649 -26.796  0.00  0.00    -0.083 A 
ATOM    111  H41 THR d   1      -5.771 -31.519 -25.841  0.00  0.00     0.083 H 
ATOM    112  CE2 THR d   1      -7.113 -28.821 -27.337  0.00  0.00    -0.082 A 
ATOM    113  H43 THR d   1      -5.118 -29.339 -26.776  0.00  0.00     0.083 H 
ATOM    114  CD2 THR d   1      -8.437 -29.219 -27.376  0.00  0.00    -0.077 A 
ATOM    115  H42 THR d   1      -6.828 -27.853 -27.734  0.00  0.00     0.083 H 
ATOM    116  H40 THR d   1      -9.182 -28.564 -27.812  0.00  0.00     0.084 H 
ENDBRANCH 103 106
ENDBRANCH  26 103
ENDBRANCH  23  26
ENDBRANCH  20  22
BRANCH  20 117
ATOM    117  CB  THR d   1      -9.916 -34.978 -30.263  0.00  0.00    -0.030 C 
ATOM    118  H46 THR d   1     -10.994 -35.198 -30.247  0.00  0.00     0.043 H 
BRANCH 117 119
ATOM    119  CG1 THR d   1      -9.311 -35.390 -28.923  0.00  0.00    -0.063 C 
ATOM    120  H47 THR d   1      -9.675 -34.703 -28.145  0.00  0.00     0.033 H 
ATOM    121  H48 THR d   1      -8.216 -35.318 -28.992  0.00  0.00     0.033 H 
BRANCH 119 122
ATOM    122  CD1 THR d   1      -9.681 -36.801 -28.537  0.00  0.00    -0.076 C 
ATOM    123  H52 THR d   1      -9.222 -37.048 -27.568  0.00  0.00     0.027 H 
ATOM    124  H53 THR d   1      -9.315 -37.499 -29.305  0.00  0.00     0.027 H 
ATOM    125  H54 THR d   1     -10.775 -36.884 -28.457  0.00  0.00     0.027 H 
ENDBRANCH 119 122
ENDBRANCH 117 119
BRANCH 117 126
ATOM    126  CG2 THR d   1      -9.275 -35.769 -31.378  0.00  0.00    -0.071 C 
ATOM    127  H49 THR d   1      -9.714 -35.468 -32.340  0.00  0.00     0.028 H 
ATOM    128  H50 THR d   1      -9.451 -36.842 -31.214  0.00  0.00     0.028 H 
ATOM    129  H51 THR d   1      -8.193 -35.573 -31.392  0.00  0.00     0.028 H 
ENDBRANCH 117 126
ENDBRANCH  20 117
ENDBRANCH  17  20
ENDBRANCH  14  16
BRANCH  14 130
ATOM    130  CB  THR d   1     -13.741 -32.598 -33.135  0.00  0.00    -0.049 C 
ATOM    131  H57 THR d   1     -14.185 -32.308 -34.099  0.00  0.00     0.030 H 
ATOM    132  H58 THR d   1     -14.102 -31.922 -32.346  0.00  0.00     0.030 H 
ATOM    133  H59 THR d   1     -14.031 -33.631 -32.894  0.00  0.00     0.030 H 
ENDBRANCH  14 130
ENDBRANCH  11  14
ENDBRANCH   8  10
BRANCH   8 134
ATOM    134  CB  THR d   1     -10.707 -28.076 -31.845  0.00  0.00     0.044 C 
ATOM    135  H62 THR d   1     -11.432 -28.387 -31.079  0.00  0.00     0.077 H 
ATOM    136  H63 THR d   1     -10.848 -27.009 -32.071  0.00  0.00     0.077 H 
BRANCH 134 137
ATOM    137  OG  THR d   1      -9.383 -28.279 -31.347  0.00  0.00    -0.398 OA
ATOM    138  H64 THR d   1      -9.259 -29.199 -31.148  0.00  0.00     0.209 HD
ENDBRANCH 134 137
ENDBRANCH   8 134
ENDBRANCH   5   8
ENDBRANCH   1   4
BRANCH   1 139
ATOM    139  C   THR d   1      -6.503 -28.796 -34.150  0.00  0.00     0.236 C 
ATOM    140  O   THR d   1      -5.446 -28.596 -34.764  0.00  0.00    -0.272 OA
ATOM    141  N   THR d   1      -6.705 -28.322 -32.928  0.00  0.00    -0.346 N 
ATOM    142  H68 THR d   1      -7.568 -28.524 -32.464  0.00  0.00     0.163 HD
BRANCH 141 143
ATOM    143  CA  THR d   1      -5.705 -27.515 -32.243  0.00  0.00     0.089 C 
ATOM    144  H69 THR d   1      -4.879 -27.331 -32.946  0.00  0.00     0.087 H 
BRANCH 143 145
ATOM    145  C   THR d   1      -5.123 -28.249 -31.034  0.00  0.00     0.241 C 
ATOM    146  O   THR d   1      -4.833 -27.648 -29.998  0.00  0.00    -0.271 OA
ATOM    147  N   THR d   1      -4.952 -29.571 -31.150  0.00  0.00    -0.344 N 
ATOM    148  H81 THR d   1      -5.279 -30.044 -31.968  0.00  0.00     0.163 HD
BRANCH 147 149
ATOM    149  CA  THR d   1      -4.292 -30.327 -30.090  0.00  0.00     0.113 C 
ATOM    150  H82 THR d   1      -4.580 -29.875 -29.130  0.00  0.00     0.091 H 
BRANCH 149 151
ATOM    151  C   THR d   1      -2.769 -30.273 -30.192  0.00  0.00     0.243 C 
ATOM    152  O   THR d   1      -2.085 -30.608 -29.218  0.00  0.00    -0.271 OA
ATOM    153  N   THR d   1      -2.225 -29.852 -31.334  0.00  0.00    -0.350 N 
ATOM    154  H88 THR d   1      -2.824 -29.586 -32.089  0.00  0.00     0.163 HD
BRANCH 153 155
ATOM    155  CA  THR d   1      -0.789 -29.769 -31.511  0.00  0.00     0.069 C 
ATOM    156  H89 THR d   1      -0.563 -29.822 -32.586  0.00  0.00     0.078 H 
ATOM    157  H90 THR d   1      -0.321 -30.621 -30.995  0.00  0.00     0.078 H 
BRANCH 155 158
ATOM    158  C   THR d   1      -0.203 -28.483 -30.955  0.00  0.00     0.236 C 
ATOM    159  O   THR d   1      -0.891 -27.638 -30.382  0.00  0.00    -0.272 OA
ATOM    160  N   THR d   1       1.112 -28.346 -31.120  0.00  0.00    -0.346 N 
ATOM    161  H91 THR d   1       1.641 -29.096 -31.517  0.00  0.00     0.163 HD
BRANCH 160 162
ATOM    162  CA  THR d   1       1.787 -27.116 -30.728  0.00  0.00     0.089 C 
ATOM    163  H92 THR d   1       1.655 -26.969 -29.646  0.00  0.00     0.087 H 
BRANCH 162 164
ATOM    164  C   THR d   1       1.171 -25.935 -31.466  0.00  0.00     0.241 C 
ATOM    165  O   THR d   1       0.887 -26.010 -32.666  0.00  0.00    -0.271 OA
ATOM    166  N   THR d   1       0.963 -24.841 -30.740  0.00  0.00    -0.346 N 
ATOM    167 4H10 THR d   1       1.332 -24.810 -29.811  0.00  0.00     0.163 HD
BRANCH 166 168
ATOM    168  CA  THR d   1       0.224 -23.684 -31.230  0.00  0.00     0.089 C 
ATOM    169 5H10 THR d   1      -0.264 -23.953 -32.178  0.00  0.00     0.087 H 
BRANCH 168 170
ATOM    170  C   THR d   1       1.188 -22.529 -31.490  0.00  0.00     0.241 C 
ATOM    171  O   THR d   1       1.988 -22.178 -30.615  0.00  0.00    -0.271 OA
ATOM    172  N   THR d   1       1.122 -21.958 -32.700  0.00  0.00    -0.346 N 
ATOM    173 7H11 THR d   1       0.476 -22.325 -33.370  0.00  0.00     0.163 HD
BRANCH 172 174
ATOM    174  CA  THR d   1       1.957 -20.819 -33.081  0.00  0.00     0.097 C 
ATOM    175 8H11 THR d   1       2.989 -21.020 -32.758  0.00  0.00     0.088 H 
BRANCH 174 176
ATOM    176  C   THR d   1       1.469 -19.534 -32.430  0.00  0.00     0.241 C 
ATOM    177  O   THR d   1       0.272 -19.349 -32.209  0.00  0.00    -0.271 OA
ATOM    178  N   THR d   1       2.401 -18.612 -32.211  0.00  0.00    -0.346 N 
ATOM    179 3H12 THR d   1       3.354 -18.834 -32.417  0.00  0.00     0.163 HD
BRANCH 178 180
ATOM    180  CA  THR d   1       2.090 -17.287 -31.681  0.00  0.00     0.086 C 
ATOM    181 4H12 THR d   1       1.430 -17.416 -30.810  0.00  0.00     0.086 H 
BRANCH 180 182
ATOM    182  C   THR d   1       1.363 -16.407 -32.701  0.00  0.00     0.240 C 
ATOM    183  O   THR d   1       0.949 -16.840 -33.781  0.00  0.00    -0.271 OA
ATOM    184  N   THR d   1       1.271 -15.122 -32.340  0.00  0.00    -0.344 N 
ATOM    185 8H12 THR d   1       1.712 -14.895 -31.472  0.00  0.00     0.163 HD
BRANCH 184 186
ATOM    186  CA  THR d   1       0.618 -13.985 -33.025  0.00  0.00     0.099 C 
ATOM    187 9H12 THR d   1       0.751 -13.111 -32.370  0.00  0.00     0.090 H 
BRANCH 186 188
ATOM    188  C   THR d   1      -0.885 -14.180 -33.195  0.00  0.00     0.197 C 
ATOM    189  O   THR d   1      -1.401 -15.251 -33.493  0.00  0.00    -0.646 OA
ATOM    190  OXT THR d   1      -1.635 -13.227 -32.993  0.00  0.00    -0.646 OA
ENDBRANCH 186 188
BRANCH 186 191
ATOM    191  CB  THR d   1       1.291 -13.631 -34.385  0.00  0.00    -0.032 C 
ATOM    192 0H13 THR d   1       1.192 -12.543 -34.509  0.00  0.00     0.042 H 
BRANCH 191 193
ATOM    193  CG1 THR d   1       0.564 -14.262 -35.581  0.00  0.00    -0.071 C 
ATOM    194 1H13 THR d   1       1.078 -13.982 -36.512  0.00  0.00     0.028 H 
ATOM    195 2H13 THR d   1      -0.474 -13.900 -35.612  0.00  0.00     0.028 H 
ATOM    196 3H13 THR d   1       0.567 -15.357 -35.476  0.00  0.00     0.028 H 
ENDBRANCH 191 193
BRANCH 191 197
ATOM    197  CG2 THR d   1       2.786 -13.923 -34.354  0.00  0.00    -0.071 C 
ATOM    198 4H13 THR d   1       3.236 -13.441 -33.474  0.00  0.00     0.028 H 
ATOM    199 5H13 THR d   1       3.256 -13.529 -35.267  0.00  0.00     0.028 H 
ATOM    200 6H13 THR d   1       2.946 -15.010 -34.298  0.00  0.00     0.028 H 
ENDBRANCH 191 197
ENDBRANCH 186 191
ENDBRANCH 184 186
ENDBRANCH 180 182
BRANCH 180 201
ATOM    201  CB  THR d   1       3.369 -16.595 -31.221  0.00  0.00    -0.049 C 
ATOM    202 5H12 THR d   1       3.124 -15.599 -30.824  0.00  0.00     0.030 H 
ATOM    203 6H12 THR d   1       4.057 -16.491 -32.073  0.00  0.00     0.030 H 
ATOM    204 7H12 THR d   1       3.848 -17.196 -30.434  0.00  0.00     0.030 H 
ENDBRANCH 180 201
ENDBRANCH 178 180
ENDBRANCH 174 176
BRANCH 174 205
ATOM    205  CB  THR d   1       1.937 -20.598 -34.593  0.00  0.00     0.036 C 
ATOM    206 9H11 THR d   1       2.447 -19.649 -34.815  0.00  0.00     0.051 H 
ATOM    207 0H12 THR d   1       0.890 -20.538 -34.925  0.00  0.00     0.051 H 
BRANCH 205 208
ATOM    208  CG  THR d   1       2.614 -21.692 -35.352  0.00  0.00     0.217 C 
ATOM    209  OD1 THR d   1       3.669 -22.172 -34.952  0.00  0.00    -0.274 OA
ATOM    210  ND2 THR d   1       2.017 -22.093 -36.470  0.00  0.00    -0.370 N 
ATOM    211 1H12 THR d   1       2.424 -22.822 -37.020  0.00  0.00     0.159 HD
ATOM    212 2H12 THR d   1       1.161 -21.665 -36.761  0.00  0.00     0.159 HD
ENDBRANCH 205 208
ENDBRANCH 174 205
ENDBRANCH 172 174
ENDBRANCH 168 170
BRANCH 168 213
ATOM    213  CB  THR d   1      -0.861 -23.278 -30.223  0.00  0.00    -0.036 C 
ATOM    214 6H10 THR d   1      -1.283 -22.312 -30.536  0.00  0.00     0.036 H 
ATOM    215 7H10 THR d   1      -0.395 -23.171 -29.233  0.00  0.00     0.036 H 
BRANCH 213 216
ATOM    216  CG  THR d   1      -1.996 -24.288 -30.115  0.00  0.00    -0.048 C 
ATOM    217 8H10 THR d   1      -1.588 -25.292 -30.305  0.00  0.00     0.035 H 
ATOM    218 9H10 THR d   1      -2.749 -24.048 -30.880  0.00  0.00     0.035 H 
BRANCH 216 219
ATOM    219  CD  THR d   1      -2.686 -24.295 -28.735  0.00  0.00     0.009 C 
ATOM    220 0H11 THR d   1      -3.493 -25.042 -28.756  0.00  0.00     0.064 H 
ATOM    221 1H11 THR d   1      -3.114 -23.297 -28.558  0.00  0.00     0.064 H 
BRANCH 219 222
ATOM    222  NE  THR d   1      -1.788 -24.617 -27.617  0.00  0.00    -0.227 N 
ATOM    223  CZ  THR d   1      -2.212 -24.962 -26.402  0.00  0.00     0.665 C 
ATOM    224  NH1 THR d   1      -3.510 -25.036 -26.153  0.00  0.00    -0.235 N 
ATOM    225  NH2 THR d   1      -1.349 -25.239 -25.436  0.00  0.00    -0.235 N 
ATOM    226 3H11 THR d   1      -3.840 -25.302 -25.214  0.00  0.00     0.174 HD
ATOM    227 4H11 THR d   1      -4.190 -24.827 -26.898  0.00  0.00     0.174 HD
ATOM    228 5H11 THR d   1      -0.337 -25.185 -25.619  0.00  0.00     0.174 HD
ATOM    229 6H11 THR d   1      -1.690 -25.509 -24.502  0.00  0.00     0.174 HD
ATOM    230 2H11 THR d   1      -0.772 -24.573 -27.782  0.00  0.00     0.177 HD
ENDBRANCH 219 222
ENDBRANCH 216 219
ENDBRANCH 213 216
ENDBRANCH 168 213
ENDBRANCH 166 168
ENDBRANCH 162 164
BRANCH 162 231
ATOM    231  CB  THR d   1       3.284 -27.196 -31.035  0.00  0.00    -0.038 C 
ATOM    232  H93 THR d   1       3.700 -26.181 -30.959  0.00  0.00     0.036 H 
ATOM    233  H94 THR d   1       3.399 -27.563 -32.066  0.00  0.00     0.036 H 
BRANCH 231 234
ATOM    234  CG  THR d   1       4.098 -28.109 -30.116  0.00  0.00    -0.061 C 
ATOM    235  H95 THR d   1       4.176 -29.109 -30.567  0.00  0.00     0.033 H 
ATOM    236  H96 THR d   1       3.600 -28.185 -29.138  0.00  0.00     0.033 H 
BRANCH 234 237
ATOM    237  CD  THR d   1       5.508 -27.518 -29.930  0.00  0.00    -0.043 C 
ATOM    238  H97 THR d   1       5.409 -26.491 -29.549  0.00  0.00     0.035 H 
ATOM    239  H98 THR d   1       6.011 -27.500 -30.908  0.00  0.00     0.035 H 
BRANCH 237 240
ATOM    240  CE  THR d   1       6.368 -28.310 -28.961  0.00  0.00     0.080 C 
ATOM    241  H99 THR d   1       6.721 -29.224 -29.460  0.00  0.00     0.075 H 
ATOM    242 0H10 THR d   1       5.763 -28.581 -28.084  0.00  0.00     0.075 H 
BRANCH 240 243
ATOM    243  NZ  THR d   1       7.557 -27.509 -28.507  0.00  0.00    -0.079 N 
ATOM    244 1H10 THR d   1       8.108 -28.059 -27.866  0.00  0.00     0.274 HD
ATOM    245 2H10 THR d   1       7.241 -26.671 -28.044  0.00  0.00     0.274 HD
ATOM    246 3H10 THR d   1       8.119 -27.260 -29.306  0.00  0.00     0.274 HD
ENDBRANCH 240 243
ENDBRANCH 237 240
ENDBRANCH 234 237
ENDBRANCH 231 234
ENDBRANCH 162 231
ENDBRANCH 160 162
ENDBRANCH 155 158
ENDBRANCH 153 155
ENDBRANCH 149 151
BRANCH 149 247
ATOM    247  CB  THR d   1      -4.765 -31.792 -30.091  0.00  0.00     0.060 C 
ATOM    248  H83 THR d   1      -4.311 -32.309 -29.233  0.00  0.00     0.086 H 
BRANCH 247 249
ATOM    249  OG1 THR d   1      -4.351 -32.439 -31.296  0.00  0.00    -0.393 OA
ATOM    250  H84 THR d   1      -4.647 -33.342 -31.287  0.00  0.00     0.210 HD
ENDBRANCH 247 249
BRANCH 247 251
ATOM    251  CG2 THR d   1      -6.290 -31.876 -29.967  0.00  0.00    -0.050 C 
ATOM    252  H85 THR d   1      -6.601 -32.931 -29.970  0.00  0.00     0.031 H 
ATOM    253  H86 THR d   1      -6.756 -31.354 -30.816  0.00  0.00     0.031 H 
ATOM    254  H87 THR d   1      -6.608 -31.403 -29.026  0.00  0.00     0.031 H 
ENDBRANCH 247 251
ENDBRANCH 149 247
ENDBRANCH 147 149
ENDBRANCH 143 145
BRANCH 143 255
ATOM    255  CB  THR d   1      -6.304 -26.160 -31.860  0.00  0.00    -0.036 C 
ATOM    256  H70 THR d   1      -5.520 -25.546 -31.392  0.00  0.00     0.036 H 
ATOM    257  H71 THR d   1      -7.120 -26.324 -31.141  0.00  0.00     0.036 H 
BRANCH 255 258
ATOM    258  CG  THR d   1      -6.864 -25.403 -33.081  0.00  0.00    -0.048 C 
ATOM    259  H72 THR d   1      -7.706 -25.977 -33.495  0.00  0.00     0.035 H 
ATOM    260  H73 THR d   1      -6.070 -25.320 -33.837  0.00  0.00     0.035 H 
BRANCH 258 261
ATOM    261  CD  THR d   1      -7.360 -23.986 -32.731  0.00  0.00     0.009 C 
ATOM    262  H74 THR d   1      -8.210 -24.070 -32.038  0.00  0.00     0.064 H 
ATOM    263  H75 THR d   1      -7.688 -23.488 -33.655  0.00  0.00     0.064 H 
BRANCH 261 264
ATOM    264  NE  THR d   1      -6.319 -23.174 -32.103  0.00  0.00    -0.227 N 
ATOM    265  CZ  THR d   1      -5.394 -22.491 -32.769  0.00  0.00     0.665 C 
ATOM    266  NH1 THR d   1      -5.377 -22.510 -34.087  0.00  0.00    -0.235 N 
ATOM    267  NH2 THR d   1      -4.483 -21.788 -32.116  0.00  0.00    -0.235 N 
ATOM    268  H77 THR d   1      -4.659 -21.980 -34.600  0.00  0.00     0.174 HD
ATOM    269  H78 THR d   1      -6.082 -23.055 -34.603  0.00  0.00     0.174 HD
ATOM    270  H79 THR d   1      -4.489 -21.768 -31.086  0.00  0.00     0.174 HD
ATOM    271  H80 THR d   1      -3.768 -21.261 -32.637  0.00  0.00     0.174 HD
ATOM    272  H76 THR d   1      -6.301 -23.128 -31.074  0.00  0.00     0.177 HD
ENDBRANCH 261 264
ENDBRANCH 258 261
ENDBRANCH 255 258
ENDBRANCH 143 255
ENDBRANCH 141 143
ENDBRANCH   1 139
TORSDOF 79
