REMARK  12 active torsions:
REMARK  status: ('A' for Active; 'I' for Inactive)
REMARK    1  A    between atoms: C1_1  and  C2_2 
REMARK    2  A    between atoms: C1_1  and  C8_8 
REMARK    3  A    between atoms: C1_1  and  C14_14 
REMARK    4  A    between atoms: C5_5  and  N1_26 
REMARK    5  A    between atoms: C11_11  and  N2_27 
REMARK    6  A    between atoms: C17_17  and  N3_28 
REMARK    7  A    between atoms: N1_26  and  C20_20 
REMARK    8  A    between atoms: N1_26  and  C21_21 
REMARK    9  A    between atoms: N2_27  and  C22_22 
REMARK   10  A    between atoms: N2_27  and  C23_23 
REMARK   11  A    between atoms: N3_28  and  C24_24 
REMARK   12  A    between atoms: N3_28  and  C25_25 
ROOT
ATOM      1  C1  CVI d   1      36.658  29.844   7.733  0.00  0.00     0.022 C 
ATOM      2  H1  CVI d   1      36.844  28.843   8.150  0.00  0.00     0.062 H 
ENDROOT
BRANCH   1   3
ATOM      3  C2  CVI d   1      37.531  30.540   8.693  0.00  0.00    -0.045 A 
ATOM      4  C3  CVI d   1      38.843  30.171   8.845  0.00  0.00    -0.074 A 
ATOM      5  C4  CVI d   1      39.605  30.827   9.782  0.00  0.00    -0.057 A 
ATOM      6  H2  CVI d   1      39.270  29.380   8.240  0.00  0.00     0.084 H 
ATOM      7  C5  CVI d   1      39.054  31.830  10.551  0.00  0.00     0.029 A 
ATOM      8  H3  CVI d   1      40.645  30.554   9.917  0.00  0.00     0.086 H 
ATOM      9  C6  CVI d   1      37.740  32.182  10.402  0.00  0.00    -0.057 A 
ATOM     10  C7  CVI d   1      36.978  31.523   9.469  0.00  0.00    -0.074 A 
ATOM     11  H4  CVI d   1      37.308  32.968  11.011  0.00  0.00     0.086 H 
ATOM     12  H5  CVI d   1      35.933  31.782   9.346  0.00  0.00     0.084 H 
BRANCH   7  13
ATOM     13  N1  CVI d   1      39.834  32.472  11.497  0.00  0.00    -0.390 N 
BRANCH  13  14
ATOM     14  C20 CVI d   1      41.196  32.029  11.679  0.00  0.00    -0.019 C 
ATOM     15  H14 CVI d   1      41.678  32.635  12.460  0.00  0.00     0.056 H 
ATOM     16  H15 CVI d   1      41.748  32.143  10.734  0.00  0.00     0.056 H 
ATOM     17  H16 CVI d   1      41.200  30.971  11.981  0.00  0.00     0.056 H 
ENDBRANCH  13  14
BRANCH  13  18
ATOM     18  C21 CVI d   1      39.313  33.541  12.310  0.00  0.00    -0.019 C 
ATOM     19  H17 CVI d   1      38.268  33.738  12.030  0.00  0.00     0.056 H 
ATOM     20  H18 CVI d   1      39.913  34.449  12.150  0.00  0.00     0.056 H 
ATOM     21  H19 CVI d   1      39.361  33.252  13.370  0.00  0.00     0.056 H 
ENDBRANCH  13  18
ENDBRANCH   7  13
ENDBRANCH   1   3
BRANCH   1  22
ATOM     22  C8  CVI d   1      37.106  29.478   6.376  0.00  0.00    -0.045 A 
ATOM     23  C9  CVI d   1      36.569  28.356   5.793  0.00  0.00    -0.074 A 
ATOM     24  C10 CVI d   1      36.969  27.998   4.531  0.00  0.00    -0.057 A 
ATOM     25  H6  CVI d   1      35.837  27.760   6.325  0.00  0.00     0.084 H 
ATOM     26  C11 CVI d   1      37.896  28.761   3.872  0.00  0.00     0.029 A 
ATOM     27  H7  CVI d   1      36.554  27.116   4.058  0.00  0.00     0.086 H 
ATOM     28  C12 CVI d   1      38.435  29.877   4.459  0.00  0.00    -0.057 A 
ATOM     29  C13 CVI d   1      38.039  30.243   5.716  0.00  0.00    -0.074 A 
ATOM     30  H8  CVI d   1      39.173  30.468   3.928  0.00  0.00     0.086 H 
ATOM     31  H9  CVI d   1      38.456  31.126   6.187  0.00  0.00     0.084 H 
BRANCH  26  32
ATOM     32  N2  CVI d   1      38.304  28.396   2.608  0.00  0.00    -0.390 N 
BRANCH  32  33
ATOM     33  C22 CVI d   1      39.299  29.172   1.907  0.00  0.00    -0.019 C 
ATOM     34  H20 CVI d   1      39.487  28.722   0.921  0.00  0.00     0.056 H 
ATOM     35  H21 CVI d   1      40.232  29.183   2.489  0.00  0.00     0.056 H 
ATOM     36  H22 CVI d   1      38.936  30.202   1.776  0.00  0.00     0.056 H 
ENDBRANCH  32  33
BRANCH  32  37
ATOM     37  C23 CVI d   1      37.747  27.216   2.002  0.00  0.00    -0.019 C 
ATOM     38  H23 CVI d   1      37.012  26.765   2.685  0.00  0.00     0.056 H 
ATOM     39  H24 CVI d   1      38.551  26.493   1.800  0.00  0.00     0.056 H 
ATOM     40  H25 CVI d   1      37.252  27.487   1.058  0.00  0.00     0.056 H 
ENDBRANCH  32  37
ENDBRANCH  26  32
ENDBRANCH   1  22
BRANCH   1  41
ATOM     41  C14 CVI d   1      35.214  29.855   8.041  0.00  0.00    -0.045 A 
ATOM     42  C15 CVI d   1      34.812  29.601   9.331  0.00  0.00    -0.074 A 
ATOM     43  C16 CVI d   1      33.475  29.614   9.644  0.00  0.00    -0.057 A 
ATOM     44  H10 CVI d   1      35.548  29.391  10.099  0.00  0.00     0.084 H 
ATOM     45  C17 CVI d   1      32.548  29.871   8.668  0.00  0.00     0.029 A 
ATOM     46  H11 CVI d   1      33.154  29.421  10.661  0.00  0.00     0.086 H 
ATOM     47  C18 CVI d   1      32.948  30.108   7.369  0.00  0.00    -0.057 A 
ATOM     48  C19 CVI d   1      34.289  30.106   7.054  0.00  0.00    -0.074 A 
ATOM     49  H12 CVI d   1      32.209  30.295   6.598  0.00  0.00     0.086 H 
ATOM     50  H13 CVI d   1      34.612  30.300   6.038  0.00  0.00     0.084 H 
BRANCH  45  51
ATOM     51  N3  CVI d   1      31.211  29.854   9.021  0.00  0.00    -0.390 N 
BRANCH  51  52
ATOM     52  C24 CVI d   1      30.865  29.670  10.403  0.00  0.00    -0.019 C 
ATOM     53  H26 CVI d   1      29.770  29.681  10.511  0.00  0.00     0.056 H 
ATOM     54  H27 CVI d   1      31.301  30.483  11.002  0.00  0.00     0.056 H 
ATOM     55  H28 CVI d   1      31.258  28.705  10.754  0.00  0.00     0.056 H 
ENDBRANCH  51  52
BRANCH  51  56
ATOM     56  C25 CVI d   1      30.175  29.984   8.027  0.00  0.00    -0.019 C 
ATOM     57  H29 CVI d   1      30.633  30.116   7.035  0.00  0.00     0.056 H 
ATOM     58  H30 CVI d   1      29.549  30.858   8.262  0.00  0.00     0.056 H 
ATOM     59  H31 CVI d   1      29.553  29.077   8.025  0.00  0.00     0.056 H 
ENDBRANCH  51  56
ENDBRANCH  45  51
ENDBRANCH   1  41
TORSDOF 12
