REMARK  8 active torsions:
REMARK  status: ('A' for Active; 'I' for Inactive)
REMARK    1  A    between atoms: C10_3  and  O14_12 
REMARK    2  A    between atoms: C12_22  and  C15_4 
REMARK    3  A    between atoms: O13_14  and  C17_5 
REMARK    4  A    between atoms: O14_12  and  C18_11 
REMARK    5  A    between atoms: C9_13  and  O13_14 
REMARK    6  A    between atoms: N7_21  and  C3_20 
REMARK    7  A    between atoms: N7_21  and  C12_22 
REMARK    8  A    between atoms: C12_22  and  C16_23 
ROOT
ATOM      1  N7  AXE d   1       1.544 -32.691  43.293  0.00  0.00    -0.366 N 
ATOM      2  H14 AXE d   1       0.659 -32.197  43.108  0.00  0.00     0.161 HD
ENDROOT
BRANCH   1   3
ATOM      3  C3  AXE d   1       2.326 -32.226  44.278  0.00  0.00     0.138 A 
ATOM      4  C1  AXE d   1       1.828 -31.423  45.325  0.00  0.00     0.041 A 
ATOM      5  C4  AXE d   1       0.479 -31.045  45.447  0.00  0.00    -0.032 A 
ATOM      6  C2  AXE d   1       2.736 -30.980  46.295  0.00  0.00     0.075 A 
ATOM      7  C9  AXE d   1       0.033 -30.247  46.512  0.00  0.00     0.102 A 
ATOM      8  H1  AXE d   1      -0.233 -31.378  44.701  0.00  0.00     0.089 H 
ATOM      9  C10 AXE d   1       0.956 -29.813  47.469  0.00  0.00     0.103 A 
ATOM     10  C5  AXE d   1       2.300 -30.185  47.352  0.00  0.00    -0.019 A 
ATOM     11  H2  AXE d   1       3.013 -29.849  48.096  0.00  0.00     0.091 H 
ATOM     12  N6  AXE d   1       4.037 -31.321  46.203  0.00  0.00    -0.241 NA
ATOM     13  C11 AXE d   1       4.474 -32.074  45.202  0.00  0.00     0.089 A 
ATOM     14  N8  AXE d   1       3.648 -32.515  44.259  0.00  0.00    -0.224 NA
ATOM     15  H13 AXE d   1       5.525 -32.335  45.152  0.00  0.00     0.146 H 
BRANCH   7  16
ATOM     16  O13 AXE d   1      -1.280 -29.869  46.658  0.00  0.00    -0.353 OA
BRANCH  16  17
ATOM     17  C17 AXE d   1      -2.201 -30.216  45.602  0.00  0.00     0.010 C 
ATOM     18  H3  AXE d   1      -3.207 -29.851  45.858  0.00  0.00     0.066 H 
ATOM     19  H4  AXE d   1      -2.228 -31.309  45.483  0.00  0.00     0.066 H 
ATOM     20  H5  AXE d   1      -1.871 -29.753  44.661  0.00  0.00     0.066 H 
ENDBRANCH  16  17
ENDBRANCH   7  16
BRANCH   9  21
ATOM     21  O14 AXE d   1       0.532 -29.040  48.519  0.00  0.00    -0.353 OA
BRANCH  21  22
ATOM     22  C18 AXE d   1       1.270 -27.820  48.676  0.00  0.00     0.010 C 
ATOM     23  H10 AXE d   1       0.872 -27.259  49.534  0.00  0.00     0.066 H 
ATOM     24  H11 AXE d   1       1.173 -27.213  47.764  0.00  0.00     0.066 H 
ATOM     25  H12 AXE d   1       2.331 -28.053  48.850  0.00  0.00     0.066 H 
ENDBRANCH  21  22
ENDBRANCH   9  21
ENDBRANCH   1   3
BRANCH   1  26
ATOM     26  C12 AXE d   1       1.868 -33.867  42.454  0.00  0.00     0.034 C 
ATOM     27  H15 AXE d   1       2.951 -34.056  42.498  0.00  0.00     0.079 H 
BRANCH  26  28
ATOM     28  C15 AXE d   1       1.128 -35.111  42.979  0.00  0.00    -0.025 A 
ATOM     29  C20 AXE d   1      -0.263 -35.209  42.833  0.00  0.00    -0.074 A 
ATOM     30  C23 AXE d   1      -0.950 -36.325  43.310  0.00  0.00    -0.082 A 
ATOM     31  H6  AXE d   1      -0.809 -34.410  42.345  0.00  0.00     0.084 H 
ATOM     32  C24 AXE d   1      -0.261 -37.354  43.947  0.00  0.00    -0.072 A 
ATOM     33  H21 AXE d   1      -2.025 -36.392  43.184  0.00  0.00     0.083 H 
ATOM     34  C21 AXE d   1       1.124 -37.270  44.103  0.00  0.00    -0.025 A 
ATOM     35  H8  AXE d   1      -0.798 -38.218  44.321  0.00  0.00     0.084 H 
ATOM     36  C19 AXE d   1       1.822 -36.151  43.621  0.00  0.00    -0.018 A 
ATOM     37  C25 AXE d   1       1.801 -38.313  44.739  0.00  0.00    -0.072 A 
ATOM     38  C22 AXE d   1       3.212 -36.095  43.794  0.00  0.00    -0.072 A 
ATOM     39  C26 AXE d   1       3.885 -37.140  44.432  0.00  0.00    -0.082 A 
ATOM     40  H7  AXE d   1       3.767 -35.237  43.431  0.00  0.00     0.084 H 
ATOM     41  C27 AXE d   1       3.185 -38.252  44.906  0.00  0.00    -0.082 A 
ATOM     42  H9  AXE d   1       4.960 -37.087  44.560  0.00  0.00     0.083 H 
ATOM     43  H19 AXE d   1       3.712 -39.060  45.399  0.00  0.00     0.083 H 
ATOM     44  H20 AXE d   1       1.250 -39.172  45.104  0.00  0.00     0.084 H 
ENDBRANCH  26  28
BRANCH  26  45
ATOM     45  C16 AXE d   1       1.474 -33.553  41.000  0.00  0.00    -0.053 C 
ATOM     46  H16 AXE d   1       1.708 -34.418  40.362  0.00  0.00     0.030 H 
ATOM     47  H17 AXE d   1       2.036 -32.675  40.649  0.00  0.00     0.030 H 
ATOM     48  H18 AXE d   1       0.396 -33.342  40.950  0.00  0.00     0.030 H 
ENDBRANCH  26  45
ENDBRANCH   1  26
TORSDOF 8
