REMARK  10 active torsions:
REMARK  status: ('A' for Active; 'I' for Inactive)
REMARK    1  A    between atoms: O13_10  and  C14_2 
REMARK    2  A    between atoms: C6_4  and  N16_16 
REMARK    3  A    between atoms: C8_6  and  C15_14 
REMARK    4  A    between atoms: C12_8  and  O13_10 
REMARK    5  A    between atoms: O2_12  and  C3_9 
REMARK    6  A    between atoms: C1_11  and  O2_12 
REMARK    7  A    between atoms: N16_16  and  C17_17 
REMARK    8  A    between atoms: C17_17  and  C29_18 
REMARK    9  A    between atoms: C17_17  and  C18_19 
REMARK   10  A    between atoms: C20_24  and  C21_25 
ROOT
ATOM      1  C4  AWT d   1      20.267 -30.364  45.403  0.00  0.00    -0.032 A 
ATOM      2  C5  AWT d   1      21.621 -30.724  45.252  0.00  0.00     0.041 A 
ATOM      3  C6  AWT d   1      22.110 -31.543  44.209  0.00  0.00     0.138 A 
ATOM      4  C11 AWT d   1      22.122 -29.448  47.258  0.00  0.00    -0.019 A 
ATOM      5  C8  AWT d   1      24.296 -31.337  45.095  0.00  0.00     0.125 A 
ATOM      6  C10 AWT d   1      22.544 -30.247  46.197  0.00  0.00     0.075 A 
ATOM      7  C12 AWT d   1      20.776 -29.091  47.397  0.00  0.00     0.103 A 
ATOM      8  C1  AWT d   1      19.838 -29.554  46.469  0.00  0.00     0.102 A 
ATOM      9  N9  AWT d   1      23.848 -30.564  46.094  0.00  0.00    -0.233 NA
ATOM     10  N7  AWT d   1      23.438 -31.814  44.170  0.00  0.00    -0.216 NA
ATOM     11  H1  AWT d   1      19.540 -30.719  44.681  0.00  0.00     0.089 H 
ATOM     12  H5  AWT d   1      22.846 -29.098  47.985  0.00  0.00     0.091 H 
ENDROOT
BRANCH   3  13
ATOM     13  N16 AWT d   1      21.308 -32.031  43.242  0.00  0.00    -0.366 N 
ATOM     14  H12 AWT d   1      20.364 -31.626  43.166  0.00  0.00     0.161 HD
BRANCH  13  15
ATOM     15  C17 AWT d   1      21.665 -33.097  42.281  0.00  0.00     0.033 C 
ATOM     16  H13 AWT d   1      22.758 -33.213  42.247  0.00  0.00     0.079 H 
BRANCH  15  17
ATOM     17  C29 AWT d   1      21.170 -32.704  40.868  0.00  0.00    -0.053 C 
ATOM     18  H14 AWT d   1      21.435 -33.497  40.153  0.00  0.00     0.030 H 
ATOM     19  H15 AWT d   1      21.645 -31.760  40.562  0.00  0.00     0.030 H 
ATOM     20  H16 AWT d   1      20.078 -32.576  40.885  0.00  0.00     0.030 H 
ENDBRANCH  15  17
BRANCH  15  21
ATOM     21  C18 AWT d   1      21.044 -34.399  42.797  0.00  0.00    -0.035 A 
ATOM     22  C19 AWT d   1      21.856 -35.297  43.490  0.00  0.00    -0.064 A 
ATOM     23  C20 AWT d   1      21.322 -36.493  43.991  0.00  0.00    -0.022 A 
ATOM     24  H17 AWT d   1      22.905 -35.069  43.642  0.00  0.00     0.085 H 
ATOM     25  C26 AWT d   1      19.959 -36.766  43.803  0.00  0.00    -0.072 A 
ATOM     26  C27 AWT d   1      19.148 -35.861  43.121  0.00  0.00    -0.082 A 
ATOM     27  H20 AWT d   1      19.535 -37.685  44.190  0.00  0.00     0.084 H 
ATOM     28  C28 AWT d   1      19.684 -34.680  42.625  0.00  0.00    -0.075 A 
ATOM     29  H19 AWT d   1      18.096 -36.080  42.977  0.00  0.00     0.083 H 
ATOM     30  H18 AWT d   1      19.048 -33.974  42.103  0.00  0.00     0.084 H 
BRANCH  23  31
ATOM     31  C21 AWT d   1      22.143 -37.388  44.690  0.00  0.00     0.010 A 
ATOM     32  C22 AWT d   1      21.771 -38.248  45.636  0.00  0.00     0.034 A 
ATOM     33  N23 AWT d   1      22.867 -38.882  46.046  0.00  0.00    -0.187 NA
ATOM     34  H21 AWT d   1      20.759 -38.404  46.005  0.00  0.00     0.118 H 
ATOM     35  N24 AWT d   1      23.851 -38.465  45.431  0.00  0.00    -0.289 N 
ATOM     36  C25 AWT d   1      23.462 -37.528  44.571  0.00  0.00     0.008 A 
ATOM     37  H23 AWT d   1      24.819 -38.790  45.562  0.00  0.00     0.188 HD
ATOM     38  H22 AWT d   1      24.107 -36.974  43.891  0.00  0.00     0.115 H 
ENDBRANCH  23  31
ENDBRANCH  15  21
ENDBRANCH  13  15
ENDBRANCH   3  13
BRANCH   5  39
ATOM     39  C15 AWT d   1      25.788 -31.668  45.014  0.00  0.00    -0.019 C 
ATOM     40  H9  AWT d   1      26.316 -31.190  45.852  0.00  0.00     0.037 H 
ATOM     41  H10 AWT d   1      26.195 -31.294  44.063  0.00  0.00     0.037 H 
ATOM     42  H11 AWT d   1      25.925 -32.758  45.069  0.00  0.00     0.037 H 
ENDBRANCH   5  39
BRANCH   8  43
ATOM     43  O2  AWT d   1      18.527 -29.177  46.656  0.00  0.00    -0.353 OA
BRANCH  43  44
ATOM     44  C3  AWT d   1      17.505 -29.737  45.824  0.00  0.00     0.010 C 
ATOM     45  H6  AWT d   1      16.528 -29.324  46.115  0.00  0.00     0.066 H 
ATOM     46  H7  AWT d   1      17.491 -30.830  45.945  0.00  0.00     0.066 H 
ATOM     47  H8  AWT d   1      17.710 -29.487  44.773  0.00  0.00     0.066 H 
ENDBRANCH  43  44
ENDBRANCH   8  43
BRANCH   7  48
ATOM     48  O13 AWT d   1      20.360 -28.308  48.444  0.00  0.00    -0.353 OA
BRANCH  48  49
ATOM     49  C14 AWT d   1      21.324 -27.323  48.852  0.00  0.00     0.010 C 
ATOM     50  H2  AWT d   1      20.919 -26.739  49.691  0.00  0.00     0.066 H 
ATOM     51  H3  AWT d   1      21.541 -26.651  48.009  0.00  0.00     0.066 H 
ATOM     52  H4  AWT d   1      22.250 -27.825  49.169  0.00  0.00     0.066 H 
ENDBRANCH  48  49
ENDBRANCH   7  48
TORSDOF 10
