REMARK  10 active torsions:
REMARK  status: ('A' for Active; 'I' for Inactive)
REMARK    1  A    between atoms: C6_3  and  C7_5 
REMARK    2  A    between atoms: C11_4  and  C12_7 
REMARK    3  A    between atoms: C13_8  and  C11_4 
REMARK    4  A    between atoms: C11_4  and  N10_21 
REMARK    5  A    between atoms: N10_21  and  C9_6 
REMARK    6  A    between atoms: C16_18  and  C18_17 
REMARK    7  A    between atoms: C1_26  and  O30_27 
REMARK    8  A    between atoms: O30_27  and  C31_28 
REMARK    9  A    between atoms: C27_29  and  O28_30 
REMARK   10  A    between atoms: O28_30  and  C29_31 
ROOT
ATOM      1  C11 AWZ d   1       1.808 -33.693  42.496  0.00  0.00     0.039 C 
ATOM      2  H2  AWZ d   1       2.904 -33.768  42.444  0.00  0.00     0.080 H 
ENDROOT
BRANCH   1   3
ATOM      3  C12 AWZ d   1       1.263 -33.475  41.068  0.00  0.00    -0.053 C 
ATOM      4  H6  AWZ d   1       1.692 -32.553  40.648  0.00  0.00     0.030 H 
ATOM      5  H7  AWZ d   1       0.167 -33.386  41.103  0.00  0.00     0.030 H 
ATOM      6  H8  AWZ d   1       1.541 -34.330  40.435  0.00  0.00     0.030 H 
ENDBRANCH   1   3
BRANCH   1   7
ATOM      7  C13 AWZ d   1       1.245 -34.960  43.128  0.00  0.00     0.006 A 
ATOM      8  C14 AWZ d   1      -0.003 -35.444  43.007  0.00  0.00    -0.067 A 
ATOM      9  C15 AWZ d   1      -0.213 -36.579  43.712  0.00  0.00    -0.063 A 
ATOM     10  H1  AWZ d   1      -0.771 -34.968  42.400  0.00  0.00     0.085 H 
ATOM     11  C16 AWZ d   1       0.857 -37.014  44.400  0.00  0.00     0.033 A 
ATOM     12  H16 AWZ d   1      -1.170 -37.098  43.722  0.00  0.00     0.085 H 
ATOM     13  S17 AWZ d   1       2.124 -35.939  44.141  0.00  0.00    -0.090 SA
BRANCH  11  14
ATOM     14  C18 AWZ d   1       0.995 -38.109  45.247  0.00  0.00     0.070 A 
ATOM     15  N19 AWZ d   1       0.130 -38.408  46.215  0.00  0.00    -0.333 N 
ATOM     16  C25 AWZ d   1      -1.149 -37.957  46.804  0.00  0.00     0.002 C 
ATOM     17  C20 AWZ d   1       0.590 -39.494  46.848  0.00  0.00     0.106 A 
ATOM     18  C24 AWZ d   1      -1.665 -39.131  47.632  0.00  0.00    -0.043 C 
ATOM     19  H13 AWZ d   1      -0.986 -37.078  47.446  0.00  0.00     0.065 H 
ATOM     20  H14 AWZ d   1      -1.867 -37.703  46.011  0.00  0.00     0.065 H 
ATOM     21  C23 AWZ d   1      -0.386 -39.887  47.968  0.00  0.00    -0.008 C 
ATOM     22  H11 AWZ d   1      -2.171 -38.782  48.544  0.00  0.00     0.035 H 
ATOM     23  H12 AWZ d   1      -2.354 -39.757  47.047  0.00  0.00     0.035 H 
ATOM     24  H9  AWZ d   1      -0.563 -40.973  47.968  0.00  0.00     0.044 H 
ATOM     25  H10 AWZ d   1       0.003 -39.579  48.950  0.00  0.00     0.044 H 
ATOM     26  N21 AWZ d   1       1.741 -39.845  46.270  0.00  0.00    -0.245 NA
ATOM     27  C22 AWZ d   1       1.997 -38.985  45.287  0.00  0.00     0.031 A 
ATOM     28  H15 AWZ d   1       2.868 -38.996  44.634  0.00  0.00     0.118 H 
ENDBRANCH  11  14
ENDBRANCH   1   7
BRANCH   1  29
ATOM     29  N10 AWZ d   1       1.429 -32.560  43.386  0.00  0.00    -0.365 N 
ATOM     30  H17 AWZ d   1       0.542 -32.074  43.190  0.00  0.00     0.162 HD
BRANCH  29  31
ATOM     31  C9  AWZ d   1       2.163 -32.126  44.429  0.00  0.00     0.138 A 
ATOM     32  C3  AWZ d   1       1.611 -31.296  45.431  0.00  0.00     0.041 A 
ATOM     33  C4  AWZ d   1       2.446 -30.864  46.472  0.00  0.00     0.075 A 
ATOM     34  C2  AWZ d   1       0.268 -30.885  45.433  0.00  0.00    -0.032 A 
ATOM     35  N5  AWZ d   1       3.739 -31.234  46.500  0.00  0.00    -0.233 NA
ATOM     36  C26 AWZ d   1       1.944 -30.053  47.487  0.00  0.00    -0.019 A 
ATOM     37  C6  AWZ d   1       4.253 -32.021  45.534  0.00  0.00     0.125 A 
ATOM     38  N8  AWZ d   1       3.476 -32.454  44.514  0.00  0.00    -0.216 NA
ATOM     39  C27 AWZ d   1       0.606 -29.644  47.486  0.00  0.00     0.103 A 
ATOM     40  H18 AWZ d   1       2.599 -29.734  48.289  0.00  0.00     0.091 H 
ATOM     41  C1  AWZ d   1      -0.247 -30.067  46.456  0.00  0.00     0.102 A 
ATOM     42  H19 AWZ d   1      -0.386 -31.205  44.630  0.00  0.00     0.089 H 
BRANCH  37  43
ATOM     43  C7  AWZ d   1       5.732 -32.423  45.605  0.00  0.00    -0.019 C 
ATOM     44  H3  AWZ d   1       5.980 -33.061  44.744  0.00  0.00     0.037 H 
ATOM     45  H4  AWZ d   1       5.917 -32.977  46.537  0.00  0.00     0.037 H 
ATOM     46  H5  AWZ d   1       6.359 -31.519  45.585  0.00  0.00     0.037 H 
ENDBRANCH  37  43
BRANCH  39  47
ATOM     47  O28 AWZ d   1       0.128 -28.850  48.496  0.00  0.00    -0.353 OA
BRANCH  47  48
ATOM     48  C29 AWZ d   1       0.907 -27.656  48.698  0.00  0.00     0.010 C 
ATOM     49  H23 AWZ d   1       0.470 -27.068  49.519  0.00  0.00     0.066 H 
ATOM     50  H24 AWZ d   1       0.905 -27.056  47.776  0.00  0.00     0.066 H 
ATOM     51  H25 AWZ d   1       1.941 -27.931  48.954  0.00  0.00     0.066 H 
ENDBRANCH  47  48
ENDBRANCH  39  47
BRANCH  41  52
ATOM     52  O30 AWZ d   1      -1.558 -29.646  46.483  0.00  0.00    -0.353 OA
BRANCH  52  53
ATOM     53  C31 AWZ d   1      -2.536 -30.407  45.751  0.00  0.00     0.010 C 
ATOM     54  H20 AWZ d   1      -3.526 -29.944  45.873  0.00  0.00     0.066 H 
ATOM     55  H21 AWZ d   1      -2.563 -31.437  46.136  0.00  0.00     0.066 H 
ATOM     56  H22 AWZ d   1      -2.266 -30.421  44.685  0.00  0.00     0.066 H 
ENDBRANCH  52  53
ENDBRANCH  41  52
ENDBRANCH  29  31
ENDBRANCH   1  29
TORSDOF 10
