REMARK  12 active torsions:
REMARK  status: ('A' for Active; 'I' for Inactive)
REMARK    1  A    between atoms: C6_2  and  C7_3 
REMARK    2  A    between atoms: C13_4  and  C11_23 
REMARK    3  A    between atoms: C23_30  and  C24_9 
REMARK    4  A    between atoms: C24_9  and  O25_31 
REMARK    5  A    between atoms: O28_12  and  C29_11 
REMARK    6  A    between atoms: C27_13  and  O28_12 
REMARK    7  A    between atoms: C1_14  and  O30_15 
REMARK    8  A    between atoms: O30_15  and  C31_16 
REMARK    9  A    between atoms: N10_22  and  C9_21 
REMARK   10  A    between atoms: C11_23  and  N10_22 
REMARK   11  A    between atoms: C11_23  and  C12_24 
REMARK   12  A    between atoms: C18_28  and  C16_27 
ROOT
ATOM      1  N10 AWW d   1      21.849 -32.757  43.371  0.00  0.00    -0.365 N 
ATOM      2  H18 AWW d   1      20.885 -32.432  43.210  0.00  0.00     0.162 HD
ENDROOT
BRANCH   1   3
ATOM      3  C9  AWW d   1      22.535 -32.234  44.396  0.00  0.00     0.138 A 
ATOM      4  C3  AWW d   1      21.957 -31.379  45.359  0.00  0.00     0.041 A 
ATOM      5  C4  AWW d   1      22.787 -30.884  46.375  0.00  0.00     0.075 A 
ATOM      6  C2  AWW d   1      20.605 -30.996  45.358  0.00  0.00    -0.032 A 
ATOM      7  C26 AWW d   1      22.277 -30.042  47.359  0.00  0.00    -0.019 A 
ATOM      8  N5  AWW d   1      24.086 -31.229  46.414  0.00  0.00    -0.233 NA
ATOM      9  C27 AWW d   1      20.933 -29.662  47.349  0.00  0.00     0.103 A 
ATOM     10  H10 AWW d   1      22.931 -29.677  48.143  0.00  0.00     0.091 H 
ATOM     11  C1  AWW d   1      20.087 -30.151  46.350  0.00  0.00     0.102 A 
ATOM     12  C6  AWW d   1      24.619 -32.042  45.484  0.00  0.00     0.125 A 
ATOM     13  N8  AWW d   1      23.852 -32.530  44.494  0.00  0.00    -0.216 NA
ATOM     14  H17 AWW d   1      19.950 -31.361  44.575  0.00  0.00     0.089 H 
BRANCH   9  15
ATOM     15  O28 AWW d   1      20.424 -28.833  48.323  0.00  0.00    -0.353 OA
BRANCH  15  16
ATOM     16  C29 AWW d   1      21.317 -27.798  48.741  0.00  0.00     0.010 C 
ATOM     17  H11 AWW d   1      20.832 -27.187  49.516  0.00  0.00     0.066 H 
ATOM     18  H12 AWW d   1      21.572 -27.163  47.880  0.00  0.00     0.066 H 
ATOM     19  H13 AWW d   1      22.234 -28.248  49.149  0.00  0.00     0.066 H 
ENDBRANCH  15  16
ENDBRANCH   9  15
BRANCH  11  20
ATOM     20  O30 AWW d   1      18.775 -29.750  46.380  0.00  0.00    -0.353 OA
BRANCH  20  21
ATOM     21  C31 AWW d   1      17.804 -30.460  45.592  0.00  0.00     0.010 C 
ATOM     22  H14 AWW d   1      16.812 -30.006  45.736  0.00  0.00     0.066 H 
ATOM     23  H15 AWW d   1      17.775 -31.513  45.908  0.00  0.00     0.066 H 
ATOM     24  H16 AWW d   1      18.082 -30.404  44.529  0.00  0.00     0.066 H 
ENDBRANCH  20  21
ENDBRANCH  11  20
BRANCH  12  25
ATOM     25  C7  AWW d   1      26.105 -32.406  45.560  0.00  0.00    -0.019 C 
ATOM     26  H1  AWW d   1      26.559 -31.913  46.432  0.00  0.00     0.037 H 
ATOM     27  H2  AWW d   1      26.612 -32.069  44.644  0.00  0.00     0.037 H 
ATOM     28  H3  AWW d   1      26.211 -33.496  45.658  0.00  0.00     0.037 H 
ENDBRANCH  12  25
ENDBRANCH   1   3
BRANCH   1  29
ATOM     29  C11 AWW d   1      22.407 -33.774  42.464  0.00  0.00     0.039 C 
ATOM     30  H19 AWW d   1      23.501 -33.803  42.576  0.00  0.00     0.080 H 
BRANCH  29  31
ATOM     31  C13 AWW d   1      21.816 -35.149  42.795  0.00  0.00     0.006 A 
ATOM     32  S17 AWW d   1      20.207 -35.634  42.534  0.00  0.00    -0.092 SA
ATOM     33  C16 AWW d   1      20.449 -37.181  43.131  0.00  0.00     0.016 A 
ATOM     34  C15 AWW d   1      21.737 -37.289  43.514  0.00  0.00    -0.065 A 
ATOM     35  C14 AWW d   1      22.488 -36.174  43.331  0.00  0.00    -0.067 A 
ATOM     36  H4  AWW d   1      22.145 -38.205  43.939  0.00  0.00     0.085 H 
ATOM     37  H23 AWW d   1      23.543 -36.118  43.596  0.00  0.00     0.085 H 
BRANCH  33  38
ATOM     38  C18 AWW d   1      19.412 -38.108  43.156  0.00  0.00    -0.011 A 
ATOM     39  C19 AWW d   1      19.007 -38.657  41.932  0.00  0.00    -0.071 A 
ATOM     40  C20 AWW d   1      17.966 -39.581  41.871  0.00  0.00    -0.082 A 
ATOM     41  H24 AWW d   1      19.511 -38.359  41.020  0.00  0.00     0.084 H 
ATOM     42  C21 AWW d   1      17.330 -39.956  43.052  0.00  0.00    -0.082 A 
ATOM     43  H5  AWW d   1      17.656 -40.001  40.921  0.00  0.00     0.083 H 
ATOM     44  C22 AWW d   1      17.725 -39.399  44.269  0.00  0.00    -0.074 A 
ATOM     45  H6  AWW d   1      16.526 -40.682  43.026  0.00  0.00     0.083 H 
ATOM     46  C23 AWW d   1      18.777 -38.474  44.347  0.00  0.00    -0.023 A 
ATOM     47  H7  AWW d   1      17.206 -39.688  45.176  0.00  0.00     0.084 H 
BRANCH  46  48
ATOM     48  C24 AWW d   1      19.173 -37.898  45.725  0.00  0.00     0.041 C 
ATOM     49  H8  AWW d   1      18.868 -36.842  45.761  0.00  0.00     0.081 H 
ATOM     50  H9  AWW d   1      20.266 -37.968  45.830  0.00  0.00     0.081 H 
BRANCH  48  51
ATOM     51  O25 AWW d   1      18.568 -38.581  46.828  0.00  0.00    -0.396 OA
ATOM     52  H25 AWW d   1      17.623 -38.521  46.756  0.00  0.00     0.209 HD
ENDBRANCH  48  51
ENDBRANCH  46  48
ENDBRANCH  33  38
ENDBRANCH  29  31
BRANCH  29  53
ATOM     53  C12 AWW d   1      22.041 -33.434  41.002  0.00  0.00    -0.053 C 
ATOM     54  H20 AWW d   1      22.461 -34.198  40.332  0.00  0.00     0.030 H 
ATOM     55  H21 AWW d   1      22.454 -32.449  40.740  0.00  0.00     0.030 H 
ATOM     56  H22 AWW d   1      20.947 -33.413  40.893  0.00  0.00     0.030 H 
ENDBRANCH  29  53
ENDBRANCH   1  29
TORSDOF 12
