REMARK  13 active torsions:
REMARK  status: ('A' for Active; 'I' for Inactive)
REMARK    1  A    between atoms: N3_1  and  C4_2 
REMARK    2  A    between atoms: C2_22  and  N3_1 
REMARK    3  A    between atoms: C7_5  and  O8_15 
REMARK    4  A    between atoms: C10_6  and  O11_14 
REMARK    5  A    between atoms: C22_9  and  C24_10 
REMARK    6  A    between atoms: O11_14  and  C12_13 
REMARK    7  A    between atoms: O8_15  and  C9_16 
REMARK    8  A    between atoms: C16_19  and  C18_20 
REMARK    9  A    between atoms: C2_22  and  C1_23 
REMARK   10  A    between atoms: C19_24  and  C2_22 
REMARK   11  A    between atoms: C29_29  and  C30_30 
REMARK   12  A    between atoms: C30_30  and  N31_31 
REMARK   13  A    between atoms: N31_31  and  C32_32 
ROOT
ATOM      1  C2  AXH d   1       1.155 -32.854  41.946  0.00  0.00     0.039 C 
ATOM      2  H16 AXH d   1       2.199 -32.780  41.607  0.00  0.00     0.080 H 
ENDROOT
BRANCH   1   3
ATOM      3  N3  AXH d   1       0.875 -31.774  42.911  0.00  0.00    -0.365 N 
ATOM      4  H1  AXH d   1      -0.062 -31.346  42.892  0.00  0.00     0.162 HD
BRANCH   3   5
ATOM      5  C4  AXH d   1       1.757 -31.308  43.815  0.00  0.00     0.138 A 
ATOM      6  C5  AXH d   1       1.379 -30.434  44.863  0.00  0.00     0.041 A 
ATOM      7  C6  AXH d   1       0.062 -29.990  45.069  0.00  0.00    -0.032 A 
ATOM      8  C14 AXH d   1       2.372 -29.992  45.750  0.00  0.00     0.075 A 
ATOM      9  C7  AXH d   1      -0.267 -29.125  46.124  0.00  0.00     0.102 A 
ATOM     10  H2  AXH d   1      -0.720 -30.324  44.396  0.00  0.00     0.089 H 
ATOM     11  C10 AXH d   1       0.732 -28.693  47.001  0.00  0.00     0.103 A 
ATOM     12  C13 AXH d   1       2.051 -29.127  46.805  0.00  0.00    -0.019 A 
ATOM     13  H3  AXH d   1       2.832 -28.790  47.477  0.00  0.00     0.091 H 
ATOM     14  N15 AXH d   1       3.645 -30.399  45.581  0.00  0.00    -0.233 NA
ATOM     15  C16 AXH d   1       3.987 -31.227  44.579  0.00  0.00     0.125 A 
ATOM     16  N17 AXH d   1       3.056 -31.670  43.709  0.00  0.00    -0.216 NA
BRANCH   9  17
ATOM     17  O8  AXH d   1      -1.549 -28.686  46.337  0.00  0.00    -0.353 OA
BRANCH  17  18
ATOM     18  C9  AXH d   1      -2.551 -29.083  45.392  0.00  0.00     0.010 C 
ATOM     19  H10 AXH d   1      -3.522 -28.660  45.688  0.00  0.00     0.066 H 
ATOM     20  H11 AXH d   1      -2.620 -30.181  45.370  0.00  0.00     0.066 H 
ATOM     21  H12 AXH d   1      -2.280 -28.712  44.392  0.00  0.00     0.066 H 
ENDBRANCH  17  18
ENDBRANCH   9  17
BRANCH  11  22
ATOM     22  O11 AXH d   1       0.381 -27.851  48.026  0.00  0.00    -0.353 OA
BRANCH  22  23
ATOM     23  C12 AXH d   1       1.437 -27.430  48.913  0.00  0.00     0.010 C 
ATOM     24  H7  AXH d   1       1.024 -26.763  49.684  0.00  0.00     0.066 H 
ATOM     25  H8  AXH d   1       2.207 -26.894  48.338  0.00  0.00     0.066 H 
ATOM     26  H9  AXH d   1       1.886 -28.312  49.393  0.00  0.00     0.066 H 
ENDBRANCH  22  23
ENDBRANCH  11  22
BRANCH  15  27
ATOM     27  C18 AXH d   1       5.446 -31.662  44.427  0.00  0.00    -0.019 C 
ATOM     28  H13 AXH d   1       6.051 -31.202  45.223  0.00  0.00     0.037 H 
ATOM     29  H14 AXH d   1       5.825 -31.339  43.446  0.00  0.00     0.037 H 
ATOM     30  H15 AXH d   1       5.512 -32.757  44.503  0.00  0.00     0.037 H 
ENDBRANCH  15  27
ENDBRANCH   3   5
ENDBRANCH   1   3
BRANCH   1  31
ATOM     31  C1  AXH d   1       0.227 -32.710  40.735  0.00  0.00    -0.053 C 
ATOM     32  H17 AXH d   1       0.436 -33.515  40.015  0.00  0.00     0.030 H 
ATOM     33  H18 AXH d   1       0.399 -31.735  40.255  0.00  0.00     0.030 H 
ATOM     34  H19 AXH d   1      -0.820 -32.776  41.066  0.00  0.00     0.030 H 
ENDBRANCH   1  31
BRANCH   1  35
ATOM     35  C19 AXH d   1       0.950 -34.200  42.644  0.00  0.00     0.005 A 
ATOM     36  C23 AXH d   1      -0.195 -34.881  42.767  0.00  0.00    -0.057 A 
ATOM     37  C22 AXH d   1      -0.084 -36.050  43.446  0.00  0.00    -0.018 A 
ATOM     38  H20 AXH d   1      -1.139 -34.526  42.356  0.00  0.00     0.086 H 
ATOM     39  C21 AXH d   1       1.164 -36.317  43.877  0.00  0.00    -0.034 A 
ATOM     40  S20 AXH d   1       2.170 -35.050  43.408  0.00  0.00    -0.103 SA
ATOM     41  H4  AXH d   1       1.470 -37.201  44.434  0.00  0.00     0.096 H 
BRANCH  37  42
ATOM     42  C24 AXH d   1      -1.158 -36.908  43.688  0.00  0.00    -0.018 A 
ATOM     43  C25 AXH d   1      -1.901 -37.371  42.594  0.00  0.00    -0.072 A 
ATOM     44  C26 AXH d   1      -2.982 -38.233  42.780  0.00  0.00    -0.082 A 
ATOM     45  H21 AXH d   1      -1.633 -37.056  41.592  0.00  0.00     0.084 H 
ATOM     46  C27 AXH d   1      -3.326 -38.637  44.072  0.00  0.00    -0.082 A 
ATOM     47  H5  AXH d   1      -3.551 -38.587  41.928  0.00  0.00     0.083 H 
ATOM     48  C28 AXH d   1      -2.589 -38.176  45.165  0.00  0.00    -0.074 A 
ATOM     49  H22 AXH d   1      -4.164 -39.307  44.226  0.00  0.00     0.083 H 
ATOM     50  C29 AXH d   1      -1.502 -37.305  45.002  0.00  0.00    -0.022 A 
ATOM     51  H6  AXH d   1      -2.864 -38.499  46.163  0.00  0.00     0.084 H 
BRANCH  50  52
ATOM     52  C30 AXH d   1      -0.757 -36.872  46.292  0.00  0.00     0.105 C 
ATOM     53  H23 AXH d   1       0.023 -36.146  46.019  0.00  0.00     0.083 H 
ATOM     54  H24 AXH d   1      -0.290 -37.761  46.742  0.00  0.00     0.083 H 
BRANCH  52  55
ATOM     55  N31 AXH d   1      -1.647 -36.252  47.291  0.00  0.00    -0.075 N 
ATOM     56  H25 AXH d   1      -2.365 -36.912  47.547  0.00  0.00     0.277 HD
ATOM     57  H26 AXH d   1      -2.073 -35.432  46.888  0.00  0.00     0.277 HD
BRANCH  55  58
ATOM     58  C32 AXH d   1      -0.899 -35.861  48.501  0.00  0.00     0.065 C 
ATOM     59  H27 AXH d   1      -1.588 -35.403  49.226  0.00  0.00     0.067 H 
ATOM     60  H28 AXH d   1      -0.117 -35.137  48.230  0.00  0.00     0.067 H 
ATOM     61  H29 AXH d   1      -0.435 -36.752  48.949  0.00  0.00     0.067 H 
ENDBRANCH  55  58
ENDBRANCH  52  55
ENDBRANCH  50  52
ENDBRANCH  37  42
ENDBRANCH   1  35
TORSDOF 13
