REMARK  5 active torsions:
REMARK  status: ('A' for Active; 'I' for Inactive)
REMARK    1  A    between atoms: C14_8  and  C1_1 
REMARK    2  A    between atoms: C4_4  and  C7_7 
REMARK    3  A    between atoms: C7_7  and  P8_20 
REMARK    4  A    between atoms: C18_12  and  O20_26 
REMARK    5  A    between atoms: C19_13  and  C21_14 
ROOT
ATOM      1  C14 AY8 d   1       9.495 -18.777 -16.572  0.00  0.00     0.008 A 
ATOM      2  C15 AY8 d   1       9.958 -18.251 -13.883  0.00  0.00    -0.074 A 
ATOM      3  C16 AY8 d   1       9.408 -17.281 -14.694  0.00  0.00    -0.081 A 
ATOM      4  C17 AY8 d   1       9.169 -17.551 -16.023  0.00  0.00    -0.070 A 
ATOM      5  C18 AY8 d   1      10.055 -19.739 -15.736  0.00  0.00     0.083 A 
ATOM      6  C19 AY8 d   1      10.285 -19.491 -14.386  0.00  0.00    -0.020 A 
ATOM      7  H5  AY8 d   1      10.135 -18.035 -12.836  0.00  0.00     0.084 H 
ATOM      8  H6  AY8 d   1       9.164 -16.307 -14.286  0.00  0.00     0.083 H 
ATOM      9  H7  AY8 d   1       8.718 -16.790 -16.649  0.00  0.00     0.085 H 
ENDROOT
BRANCH   1  10
ATOM     10  C1  AY8 d   1       9.173 -19.006 -17.971  0.00  0.00    -0.022 A 
ATOM     11  C2  AY8 d   1       8.213 -19.940 -18.312  0.00  0.00    -0.072 A 
ATOM     12  C6  AY8 d   1       7.868 -20.153 -19.631  0.00  0.00    -0.081 A 
ATOM     13  H1  AY8 d   1       7.724 -20.513 -17.532  0.00  0.00     0.084 H 
ATOM     14  C5  AY8 d   1       8.482 -19.415 -20.627  0.00  0.00    -0.070 A 
ATOM     15  H4  AY8 d   1       7.120 -20.895 -19.885  0.00  0.00     0.083 H 
ATOM     16  C4  AY8 d   1       9.441 -18.468 -20.317  0.00  0.00     0.028 A 
ATOM     17  H3  AY8 d   1       8.208 -19.581 -21.663  0.00  0.00     0.084 H 
ATOM     18  C3  AY8 d   1       9.776 -18.280 -18.987  0.00  0.00    -0.060 A 
ATOM     19  H2  AY8 d   1      10.531 -17.545 -18.733  0.00  0.00     0.086 H 
BRANCH  16  20
ATOM     20  C7  AY8 d   1      10.090 -17.662 -21.406  0.00  0.00     0.380 C 
ATOM     21  F12 AY8 d   1      11.409 -17.379 -21.196  0.00  0.00    -0.185 F 
ATOM     22  F13 AY8 d   1      10.003 -18.200 -22.657  0.00  0.00    -0.185 F 
BRANCH  20  23
ATOM     23  P8  AY8 d   1       9.467 -15.986 -21.812  0.00  0.00     0.339 P 
ATOM     24  O9  AY8 d   1      10.219 -15.390 -22.968  0.00  0.00    -0.635 OA
ATOM     25  O10 AY8 d   1       9.582 -15.147 -20.431  0.00  0.00    -0.635 OA
ATOM     26  O11 AY8 d   1       7.854 -16.108 -21.956  0.00  0.00    -0.635 OA
ENDBRANCH  20  23
ENDBRANCH  16  20
ENDBRANCH   1  10
BRANCH   5  27
ATOM     27  O20 AY8 d   1      10.374 -20.973 -16.274  0.00  0.00    -0.359 OA
ATOM     28  H19 AY8 d   1      10.157 -20.980 -17.199  0.00  0.00     0.217 HD
ENDBRANCH   5  27
BRANCH   6  29
ATOM     29  C21 AY8 d   1      10.857 -20.462 -13.391  0.00  0.00    -0.026 C 
ATOM     30  C22 AY8 d   1      12.328 -20.802 -13.564  0.00  0.00    -0.058 C 
ATOM     31  C23 AY8 d   1      12.835 -21.597 -12.369  0.00  0.00    -0.064 C 
ATOM     32  H9  AY8 d   1      12.907 -19.871 -13.651  0.00  0.00     0.034 H 
ATOM     33  H10 AY8 d   1      12.456 -21.401 -14.478  0.00  0.00     0.034 H 
ATOM     34  C24 AY8 d   1      11.953 -22.794 -12.033  0.00  0.00    -0.065 C 
ATOM     35  H11 AY8 d   1      12.870 -20.931 -11.494  0.00  0.00     0.033 H 
ATOM     36  H12 AY8 d   1      13.848 -21.960 -12.594  0.00  0.00     0.033 H 
ATOM     37  C25 AY8 d   1      10.477 -22.435 -11.919  0.00  0.00    -0.064 C 
ATOM     38  H13 AY8 d   1      12.286 -23.216 -11.073  0.00  0.00     0.033 H 
ATOM     39  H14 AY8 d   1      12.070 -23.548 -12.825  0.00  0.00     0.033 H 
ATOM     40  C26 AY8 d   1       9.992 -21.692 -13.156  0.00  0.00    -0.058 C 
ATOM     41  H15 AY8 d   1      10.331 -21.795 -11.036  0.00  0.00     0.033 H 
ATOM     42  H16 AY8 d   1       9.891 -23.359 -11.803  0.00  0.00     0.033 H 
ATOM     43  H17 AY8 d   1      10.057 -22.357 -14.030  0.00  0.00     0.034 H 
ATOM     44  H18 AY8 d   1       8.947 -21.381 -13.009  0.00  0.00     0.034 H 
ATOM     45  H8  AY8 d   1      10.819 -19.914 -12.438  0.00  0.00     0.047 H 
ENDBRANCH   6  29
TORSDOF 5
