REMARK  3 active torsions:
REMARK  status: ('A' for Active; 'I' for Inactive)
REMARK    1  A    between atoms: C8_4  and  C10_6 
REMARK       I    between atoms: C10_6  and  N12_17 
REMARK    2  A    between atoms: C13_7  and  N7_15 
REMARK    3  A    between atoms: C15_9  and  C19_11 
ROOT
ATOM      1  C1  AYN d   1       2.455  -3.531  -0.352  0.00  0.00    -0.082 A 
ATOM      2  C2  AYN d   1       2.493  -2.686   0.728  0.00  0.00    -0.071 A 
ATOM      3  C3  AYN d   1       1.296  -2.159   1.246  0.00  0.00    -0.007 A 
ATOM      4  C8  AYN d   1      -0.345  -1.105   2.361  0.00  0.00     0.108 A 
ATOM      5  C9  AYN d   1       1.002  -1.281   2.316  0.00  0.00    -0.039 A 
ATOM      6  C4  AYN d   1       0.060  -2.517   0.656  0.00  0.00     0.050 A 
ATOM      7  C5  AYN d   1       0.050  -3.390  -0.446  0.00  0.00    -0.056 A 
ATOM      8  C6  AYN d   1       1.241  -3.894  -0.941  0.00  0.00    -0.081 A 
ATOM      9  N7  AYN d   1      -0.937  -1.870   1.357  0.00  0.00    -0.306 N 
ATOM     10  H1  AYN d   1       3.382  -3.923  -0.755  0.00  0.00     0.083 H 
ATOM     11  H2  AYN d   1       3.443  -2.425   1.181  0.00  0.00     0.084 H 
ATOM     12  H3  AYN d   1       1.729  -0.825   2.987  0.00  0.00     0.088 H 
ATOM     13  H6  AYN d   1      -0.890  -3.669  -0.908  0.00  0.00     0.087 H 
ATOM     14  H7  AYN d   1       1.232  -4.572  -1.787  0.00  0.00     0.083 H 
ENDROOT
BRANCH   9  15
ATOM     15  C13 AYN d   1      -2.300  -1.966   1.021  0.00  0.00     0.041 A 
ATOM     16  C14 AYN d   1      -2.963  -0.806   0.621  0.00  0.00    -0.042 A 
ATOM     17  C15 AYN d   1      -4.302  -0.848   0.258  0.00  0.00     0.050 A 
ATOM     18  H4  AYN d   1      -2.428   0.136   0.593  0.00  0.00     0.088 H 
ATOM     19  C16 AYN d   1      -4.996  -2.058   0.281  0.00  0.00    -0.068 A 
ATOM     20  C17 AYN d   1      -4.339  -3.225   0.659  0.00  0.00    -0.080 A 
ATOM     21  H5  AYN d   1      -6.044  -2.089   0.005  0.00  0.00     0.084 H 
ATOM     22  C18 AYN d   1      -2.996  -3.183   1.022  0.00  0.00    -0.057 A 
ATOM     23  H10 AYN d   1      -4.874  -4.168   0.671  0.00  0.00     0.083 H 
ATOM     24  H11 AYN d   1      -2.486  -4.096   1.307  0.00  0.00     0.086 H 
BRANCH  17  25
ATOM     25  C19 AYN d   1      -4.992   0.428  -0.147  0.00  0.00     0.417 C 
ATOM     26  F20 AYN d   1      -5.914   0.192  -1.171  0.00  0.00    -0.166 F 
ATOM     27  F21 AYN d   1      -5.657   0.909   0.977  0.00  0.00    -0.166 F 
ATOM     28  F22 AYN d   1      -4.068   1.386  -0.586  0.00  0.00    -0.166 F 
ENDBRANCH  17  25
ENDBRANCH   9  15
BRANCH   4  29
ATOM     29  C10 AYN d   1      -1.014  -0.252   3.363  0.00  0.00     0.266 C 
ATOM     30  O11 AYN d   1      -2.057  -0.617   3.874  0.00  0.00    -0.266 OA
ATOM     31  N12 AYN d   1      -0.465   0.917   3.751  0.00  0.00    -0.365 N 
ATOM     32  H8  AYN d   1      -0.928   1.486   4.431  0.00  0.00     0.159 HD
ATOM     33  H9  AYN d   1       0.405   1.215   3.359  0.00  0.00     0.159 HD
ENDBRANCH   4  29
TORSDOF 3
