REMARK  8 active torsions:
REMARK  status: ('A' for Active; 'I' for Inactive)
REMARK    1  A    between atoms: CAQ_11  and  CAA_1 
REMARK    2  A    between atoms: CAS_13  and  CAB_2 
REMARK    3  A    between atoms: CAV_16  and  CAC_3 
REMARK    4  A    between atoms: CAW_17  and  CAD_4 
REMARK    5  A    between atoms: CAR_12  and  CAH_7 
REMARK    6  A    between atoms: CAH_7  and  NAX_21 
REMARK    7  A    between atoms: CAP_10  and  CAU_15 
REMARK       I    between atoms: NAM_20  and  CAP_10 
REMARK    8  A    between atoms: CAT_14  and  NAM_20 
ROOT
ATOM      1  CAH B0H d   1       5.588  15.547  50.343  0.00  0.00     0.123 C 
ATOM      2  H16 B0H d   1       5.682  15.809  49.279  0.00  0.00     0.085 H 
ATOM      3  H17 B0H d   1       6.245  16.197  50.940  0.00  0.00     0.085 H 
ENDROOT
BRANCH   1   4
ATOM      4  CAR B0H d   1       6.023  14.069  50.541  0.00  0.00     0.069 A 
ATOM      5  CAF B0H d   1       7.057  13.722  51.328  0.00  0.00    -0.016 A 
ATOM      6  SAO B0H d   1       7.227  12.061  51.267  0.00  0.00    -0.062 SA
ATOM      7  H13 B0H d   1       7.677  14.406  51.906  0.00  0.00     0.098 H 
ATOM      8  CAT B0H d   1       5.908  11.854  50.208  0.00  0.00     0.173 A 
ATOM      9  NAL B0H d   1       5.390  13.056  49.919  0.00  0.00    -0.227 NA
BRANCH   8  10
ATOM     10  NAM B0H d   1       5.430  10.736  49.669  0.00  0.00    -0.300 N 
ATOM     11  CAP B0H d   1       6.005   9.530  49.903  0.00  0.00     0.283 C 
ATOM     12  OAE B0H d   1       6.971   9.361  50.642  0.00  0.00    -0.265 OA
ATOM     13  H24 B0H d   1       4.626  10.786  49.076  0.00  0.00     0.171 HD
BRANCH  11  14
ATOM     14  CAU B0H d   1       5.404   8.518  49.243  0.00  0.00     0.169 A 
ATOM     15  CAS B0H d   1       5.856   7.290  48.924  0.00  0.00     0.072 A 
ATOM     16  NAK B0H d   1       4.933   6.634  48.227  0.00  0.00    -0.231 NA
ATOM     17  CAQ B0H d   1       3.907   7.466  48.097  0.00  0.00     0.142 A 
ATOM     18  OAN B0H d   1       4.159   8.637  48.720  0.00  0.00    -0.289 OA
BRANCH  15  19
ATOM     19  CAB B0H d   1       7.196   6.670  49.260  0.00  0.00    -0.033 C 
ATOM     20  H4  B0H d   1       7.242   5.651  48.848  0.00  0.00     0.035 H 
ATOM     21  H5  B0H d   1       7.318   6.630  50.352  0.00  0.00     0.035 H 
ATOM     22  H6  B0H d   1       8.002   7.279  48.823  0.00  0.00     0.035 H 
ENDBRANCH  15  19
BRANCH  17  23
ATOM     23  CAA B0H d   1       2.589   7.133  47.382  0.00  0.00    -0.015 C 
ATOM     24  H1  B0H d   1       2.646   6.118  46.961  0.00  0.00     0.038 H 
ATOM     25  H2  B0H d   1       2.418   7.857  46.572  0.00  0.00     0.038 H 
ATOM     26  H3  B0H d   1       1.758   7.185  48.101  0.00  0.00     0.038 H 
ENDBRANCH  17  23
ENDBRANCH  11  14
ENDBRANCH   8  10
ENDBRANCH   1   4
BRANCH   1  27
ATOM     27  NAX B0H d   1       4.199  15.755  50.765  0.00  0.00    -0.065 N 
ATOM     28  CAI B0H d   1       4.095  15.495  52.217  0.00  0.00     0.087 C 
ATOM     29  CAV B0H d   1       2.669  15.736  52.734  0.00  0.00    -0.034 C 
ATOM     30  H18 B0H d   1       4.374  14.449  52.413  0.00  0.00     0.076 H 
ATOM     31  H19 B0H d   1       4.786  16.165  52.750  0.00  0.00     0.076 H 
ATOM     32  CAG B0H d   1       2.266  17.170  52.409  0.00  0.00    -0.056 C 
ATOM     33  H22 B0H d   1       1.978  15.038  52.239  0.00  0.00     0.042 H 
ATOM     34  CAW B0H d   1       2.378  17.424  50.903  0.00  0.00    -0.034 C 
ATOM     35  H14 B0H d   1       2.930  17.864  52.945  0.00  0.00     0.034 H 
ATOM     36  H15 B0H d   1       1.227  17.337  52.729  0.00  0.00     0.034 H 
ATOM     37  CAJ B0H d   1       3.803  17.136  50.444  0.00  0.00     0.087 C 
ATOM     38  H23 B0H d   1       1.677  16.769  50.365  0.00  0.00     0.042 H 
ATOM     39  H20 B0H d   1       4.489  17.832  50.948  0.00  0.00     0.076 H 
ATOM     40  H21 B0H d   1       3.866  17.283  49.356  0.00  0.00     0.076 H 
ATOM     41  H25 B0H d   1       3.597  15.115  50.271  0.00  0.00     0.280 HD
BRANCH  29  42
ATOM     42  CAC B0H d   1       2.611  15.518  54.241  0.00  0.00    -0.071 C 
ATOM     43  H7  B0H d   1       1.585  15.694  54.598  0.00  0.00     0.028 H 
ATOM     44  H8  B0H d   1       3.297  16.218  54.739  0.00  0.00     0.028 H 
ATOM     45  H9  B0H d   1       2.908  14.485  54.474  0.00  0.00     0.028 H 
ENDBRANCH  29  42
BRANCH  34  46
ATOM     46  CAD B0H d   1       2.043  18.887  50.610  0.00  0.00    -0.071 C 
ATOM     47  H10 B0H d   1       1.015  19.101  50.939  0.00  0.00     0.028 H 
ATOM     48  H11 B0H d   1       2.128  19.073  49.529  0.00  0.00     0.028 H 
ATOM     49  H12 B0H d   1       2.744  19.539  51.151  0.00  0.00     0.028 H 
ENDBRANCH  34  46
ENDBRANCH   1  27
TORSDOF 8
