REMARK  7 active torsions:
REMARK  status: ('A' for Active; 'I' for Inactive)
REMARK    1  A    between atoms: C3_3  and  O14_21 
REMARK    2  A    between atoms: C8_4  and  C10_6 
REMARK       I    between atoms: C10_6  and  N11_19 
REMARK    3  A    between atoms: C13_7  and  N7_18 
REMARK    4  A    between atoms: O14_21  and  C15_8 
REMARK    5  A    between atoms: C24_13  and  C22_12 
REMARK    6  A    between atoms: C25_26  and  C24_13 
REMARK    7  A    between atoms: C25_26  and  C26_27 
ROOT
ATOM      1  C1  AYZ d   1       2.415  -3.190   0.321  0.00  0.00    -0.068 A 
ATOM      2  C2  AYZ d   1       2.278  -3.976  -0.782  0.00  0.00    -0.050 A 
ATOM      3  C3  AYZ d   1       1.022  -4.166  -1.356  0.00  0.00     0.080 A 
ATOM      4  C8  AYZ d   1      -0.149  -1.330   2.056  0.00  0.00     0.108 A 
ATOM      5  C9  AYZ d   1       1.164  -1.675   1.987  0.00  0.00    -0.039 A 
ATOM      6  C4  AYZ d   1      -0.111  -3.539  -0.828  0.00  0.00    -0.023 A 
ATOM      7  C5  AYZ d   1       1.303  -2.548   0.880  0.00  0.00    -0.006 A 
ATOM      8  C6  AYZ d   1       0.024  -2.723   0.306  0.00  0.00     0.053 A 
ATOM      9  N7  AYZ d   1      -0.862  -1.991   1.055  0.00  0.00    -0.306 N 
ATOM     10  H1  AYZ d   1       3.393  -3.060   0.770  0.00  0.00     0.085 H 
ATOM     11  H2  AYZ d   1       3.148  -4.456  -1.215  0.00  0.00     0.087 H 
ATOM     12  H3  AYZ d   1       1.958  -1.344   2.655  0.00  0.00     0.088 H 
ATOM     13  H9  AYZ d   1      -1.082  -3.682  -1.289  0.00  0.00     0.091 H 
ENDROOT
BRANCH   9  14
ATOM     14  C13 AYZ d   1      -2.231  -1.821   0.783  0.00  0.00     0.040 A 
ATOM     15  C19 AYZ d   1      -3.140  -2.865   0.585  0.00  0.00    -0.057 A 
ATOM     16  C20 AYZ d   1      -4.470  -2.567   0.292  0.00  0.00    -0.080 A 
ATOM     17  H4  AYZ d   1      -2.814  -3.896   0.659  0.00  0.00     0.086 H 
ATOM     18  C21 AYZ d   1      -4.901  -1.247   0.184  0.00  0.00    -0.077 A 
ATOM     19  H5  AYZ d   1      -5.179  -3.374   0.146  0.00  0.00     0.083 H 
ATOM     20  C22 AYZ d   1      -3.998  -0.201   0.377  0.00  0.00    -0.056 A 
ATOM     21  H6  AYZ d   1      -5.938  -1.032  -0.050  0.00  0.00     0.084 H 
ATOM     22  C23 AYZ d   1      -2.674  -0.500   0.650  0.00  0.00    -0.051 A 
ATOM     23  H12 AYZ d   1      -1.962   0.310   0.764  0.00  0.00     0.087 H 
BRANCH  20  24
ATOM     24  C24 AYZ d   1      -4.427   1.243   0.268  0.00  0.00    -0.032 C 
ATOM     25  H7  AYZ d   1      -5.506   1.273   0.054  0.00  0.00     0.040 H 
ATOM     26  H8  AYZ d   1      -3.876   1.711  -0.561  0.00  0.00     0.040 H 
BRANCH  24  27
ATOM     27  C25 AYZ d   1      -4.158   2.050   1.554  0.00  0.00     0.019 C 
ATOM     28  H13 AYZ d   1      -4.253   3.123   1.330  0.00  0.00     0.049 H 
ATOM     29  H14 AYZ d   1      -3.137   1.837   1.904  0.00  0.00     0.049 H 
BRANCH  27  30
ATOM     30  C26 AYZ d   1      -5.141   1.685   2.649  0.00  0.00     0.172 C 
ATOM     31  O28 AYZ d   1      -6.330   1.661   2.437  0.00  0.00    -0.648 OA
ATOM     32  O27 AYZ d   1      -4.720   1.384   3.881  0.00  0.00    -0.648 OA
ENDBRANCH  27  30
ENDBRANCH  24  27
ENDBRANCH  20  24
ENDBRANCH   9  14
BRANCH   4  33
ATOM     33  C10 AYZ d   1      -0.737  -0.446   3.078  0.00  0.00     0.266 C 
ATOM     34  N11 AYZ d   1      -0.140   0.729   3.357  0.00  0.00    -0.365 N 
ATOM     35  H10 AYZ d   1      -0.531   1.337   4.049  0.00  0.00     0.159 HD
ATOM     36  H11 AYZ d   1       0.694   0.994   2.872  0.00  0.00     0.159 HD
ATOM     37  O12 AYZ d   1      -1.770  -0.788   3.675  0.00  0.00    -0.266 OA
ENDBRANCH   4  33
BRANCH   3  38
ATOM     38  O14 AYZ d   1       0.989  -4.949  -2.469  0.00  0.00    -0.255 OA
BRANCH  38  39
ATOM     39  C15 AYZ d   1      -0.172  -5.663  -2.807  0.00  0.00     0.530 C 
ATOM     40  F16 AYZ d   1      -0.524  -6.363  -1.657  0.00  0.00    -0.144 F 
ATOM     41  F17 AYZ d   1      -1.159  -4.765  -3.229  0.00  0.00    -0.144 F 
ATOM     42  F18 AYZ d   1       0.139  -6.571  -3.820  0.00  0.00    -0.144 F 
ENDBRANCH  38  39
ENDBRANCH   3  38
TORSDOF 7
