REMARK  5 active torsions:
REMARK  status: ('A' for Active; 'I' for Inactive)
REMARK    1  A    between atoms: N_1  and  CA_2 
REMARK    2  A    between atoms: CA_2  and  C_3 
REMARK    3  A    between atoms: CA_2  and  CB_5 
REMARK    4  A    between atoms: CB_5  and  CG_6 
REMARK    5  A    between atoms: CG_6  and  CD_7 
REMARK       I    between atoms: CD_7  and  NE2_9 
ROOT
ATOM      1  CB  GLN d   1      19.969  56.390  47.046  0.00  0.00    -0.021 C 
ATOM      2  H5  GLN d   1      20.434  55.792  46.248  0.00  0.00     0.037 H 
ATOM      3  H6  GLN d   1      20.020  55.838  47.996  0.00  0.00     0.037 H 
ENDROOT
BRANCH   1   4
ATOM      4  CA  GLN d   1      18.485  56.574  46.690  0.00  0.00     0.183 C 
ATOM      5  H4  GLN d   1      18.034  55.574  46.614  0.00  0.00     0.101 H 
BRANCH   4   6
ATOM      6  N   GLN d   1      18.302  57.203  45.423  0.00  0.00    -0.065 N 
ATOM      7  H1  GLN d   1      18.782  56.673  44.712  0.00  0.00     0.275 HD
ATOM      8  H2  GLN d   1      18.676  58.139  45.455  0.00  0.00     0.275 HD
ATOM      9  H3  GLN d   1      17.318  57.242  45.206  0.00  0.00     0.275 HD
ENDBRANCH   4   6
BRANCH   4  10
ATOM     10  C   GLN d   1      17.806  57.288  47.819  0.00  0.00     0.204 C 
ATOM     11  O   GLN d   1      17.477  58.363  47.661  0.00  0.00    -0.646 OA
ATOM     12  OXT GLN d   1      17.561  56.783  48.833  0.00  0.00    -0.646 OA
ENDBRANCH   4  10
ENDBRANCH   1   4
BRANCH   1  13
ATOM     13  CG  GLN d   1      20.776  57.652  47.204  0.00  0.00     0.011 C 
ATOM     14  H7  GLN d   1      20.366  58.224  48.050  0.00  0.00     0.047 H 
ATOM     15  H8  GLN d   1      20.682  58.243  46.281  0.00  0.00     0.047 H 
BRANCH  13  16
ATOM     16  CD  GLN d   1      22.276  57.394  47.469  0.00  0.00     0.215 C 
ATOM     17  OE1 GLN d   1      22.657  56.288  47.712  0.00  0.00    -0.274 OA
ATOM     18  NE2 GLN d   1      23.069  58.394  47.450  0.00  0.00    -0.370 N 
ATOM     19  H9  GLN d   1      24.046  58.261  47.618  0.00  0.00     0.159 HD
ATOM     20  H10 GLN d   1      22.713  59.311  47.267  0.00  0.00     0.159 HD
ENDBRANCH  13  16
ENDBRANCH   1  13
TORSDOF 5
