REMARK  4 active torsions:
REMARK  status: ('A' for Active; 'I' for Inactive)
REMARK    1  A    between atoms: C14_7  and  C15_10 
REMARK    2  A    between atoms: C14_7  and  N7_13 
REMARK    3  A    between atoms: C15_10  and  C16_8 
REMARK    4  A    between atoms: C16_8  and  N17_12 
ROOT
ATOM      1  C2  B0K d   1      19.421  -2.341  18.817  0.00  0.00     0.105 A 
ATOM      2  C3  B0K d   1      18.838  -3.095  19.805  0.00  0.00     0.085 A 
ATOM      3  C4  B0K d   1      17.912  -4.117  19.452  0.00  0.00     0.059 A 
ATOM      4  C5  B0K d   1      17.601  -4.346  18.114  0.00  0.00     0.049 A 
ATOM      5  C6  B0K d   1      18.197  -3.575  17.116  0.00  0.00     0.049 A 
ATOM      6  N9  B0K d   1      20.254  -1.445  19.411  0.00  0.00    -0.240 NA
ATOM      7  C1  B0K d   1      19.101  -2.576  17.457  0.00  0.00     0.060 A 
ATOM      8  C8  B0K d   1      20.188  -1.642  20.714  0.00  0.00     0.067 A 
ATOM      9  N7  B0K d   1      19.345  -2.627  20.981  0.00  0.00    -0.338 N 
ATOM     10 BR1  B0K d   1      17.068  -5.208  20.815  0.00  0.00    -0.047 Br
ATOM     11 BR2  B0K d   1      16.340  -5.740  17.632  0.00  0.00    -0.048 Br
ATOM     12 BR3  B0K d   1      17.765  -3.895  15.253  0.00  0.00    -0.048 Br
ATOM     13 BR4  B0K d   1      19.935  -1.496  16.079  0.00  0.00    -0.047 Br
ATOM     14  H7  B0K d   1      20.745  -1.077  21.460  0.00  0.00     0.143 H 
ENDROOT
BRANCH   9  15
ATOM     15  C14 B0K d   1      19.040  -3.100  22.318  0.00  0.00     0.002 C 
ATOM     16  H1  B0K d   1      18.106  -3.680  22.299  0.00  0.00     0.065 H 
ATOM     17  H2  B0K d   1      19.860  -3.738  22.679  0.00  0.00     0.065 H 
BRANCH  15  18
ATOM     18  C15 B0K d   1      18.877  -1.899  23.251  0.00  0.00    -0.028 C 
ATOM     19  H5  B0K d   1      18.082  -2.120  23.978  0.00  0.00     0.037 H 
ATOM     20  H6  B0K d   1      18.592  -1.021  22.652  0.00  0.00     0.037 H 
BRANCH  18  21
ATOM     21  C16 B0K d   1      20.164  -1.581  24.010  0.00  0.00     0.081 C 
ATOM     22  H3  B0K d   1      20.918  -1.211  23.300  0.00  0.00     0.075 H 
ATOM     23  H4  B0K d   1      20.533  -2.498  24.492  0.00  0.00     0.075 H 
BRANCH  21  24
ATOM     24  N17 B0K d   1      19.935  -0.571  25.026  0.00  0.00    -0.079 N 
ATOM     25  H8  B0K d   1      20.798  -0.380  25.511  0.00  0.00     0.274 HD
ATOM     26  H9  B0K d   1      19.247  -0.905  25.683  0.00  0.00     0.274 HD
ATOM     27  H10 B0K d   1      19.601   0.274  24.590  0.00  0.00     0.274 HD
ENDBRANCH  21  24
ENDBRANCH  18  21
ENDBRANCH  15  18
ENDBRANCH   9  15
TORSDOF 4
