REMARK  3 active torsions:
REMARK  status: ('A' for Active; 'I' for Inactive)
REMARK    1  A    between atoms: C1_6  and  C_7 
REMARK    2  A    between atoms: C1_6  and  C4_8 
REMARK    3  A    between atoms: C7_13  and  C10_14 
ROOT
ATOM      1  C4  F37 d   1       6.709  38.565   7.802  0.00  0.00    -0.029 A 
ATOM      2  C5  F37 d   1       6.122  37.374   8.273  0.00  0.00    -0.073 A 
ATOM      3  C6  F37 d   1       6.184  36.998   9.635  0.00  0.00    -0.069 A 
ATOM      4  C9  F37 d   1       7.341  39.389   8.742  0.00  0.00    -0.073 A 
ATOM      5  C8  F37 d   1       7.381  39.043  10.110  0.00  0.00    -0.069 A 
ATOM      6  C7  F37 d   1       6.838  37.825  10.583  0.00  0.00     0.010 A 
ATOM      7  H8  F37 d   1       5.608  36.727   7.571  0.00  0.00     0.084 H 
ATOM      8  H9  F37 d   1       5.727  36.069   9.957  0.00  0.00     0.085 H 
ATOM      9  H10 F37 d   1       7.808  40.310   8.413  0.00  0.00     0.084 H 
ATOM     10  H11 F37 d   1       7.839  39.727  10.815  0.00  0.00     0.085 H 
ENDROOT
BRANCH   6  11
ATOM     11  C10 F37 d   1       6.836  37.499  11.966  0.00  0.00     0.141 A 
ATOM     12  N3  F37 d   1       7.606  38.220  12.890  0.00  0.00    -0.307 N 
ATOM     13  C17 F37 d   1       7.582  37.971  14.253  0.00  0.00     0.259 A 
ATOM     14  H12 F37 d   1       8.200  38.948  12.549  0.00  0.00     0.170 HD
ATOM     15  O2  F37 d   1       8.322  38.637  14.974  0.00  0.00    -0.267 OA
ATOM     16  C12 F37 d   1       6.692  36.994  14.741  0.00  0.00     0.061 A 
ATOM     17  C11 F37 d   1       5.961  36.267  13.789  0.00  0.00     0.074 A 
ATOM     18  C13 F37 d   1       6.607  36.682  16.092  0.00  0.00    -0.065 A 
ATOM     19  N2  F37 d   1       6.014  36.554  12.459  0.00  0.00    -0.230 NA
ATOM     20  C16 F37 d   1       5.087  35.266  14.206  0.00  0.00    -0.054 A 
ATOM     21  C15 F37 d   1       4.977  34.948  15.558  0.00  0.00    -0.081 A 
ATOM     22  H13 F37 d   1       4.490  34.732  13.476  0.00  0.00     0.087 H 
ATOM     23  C14 F37 d   1       5.734  35.657  16.505  0.00  0.00    -0.082 A 
ATOM     24  H14 F37 d   1       4.309  34.156  15.878  0.00  0.00     0.083 H 
ATOM     25  H15 F37 d   1       5.646  35.414  17.558  0.00  0.00     0.083 H 
ATOM     26  H16 F37 d   1       7.205  37.220  16.819  0.00  0.00     0.085 H 
ENDBRANCH   6  11
BRANCH   1  27
ATOM     27  C1  F37 d   1       6.643  38.929   6.395  0.00  0.00     0.074 C 
ATOM     28  C3  F37 d   1       7.854  38.450   5.623  0.00  0.00     0.024 C 
ATOM     29  N1  F37 d   1       7.267  37.868   4.418  0.00  0.00    -0.340 N 
ATOM     30  H2  F37 d   1       8.520  39.289   5.373  0.00  0.00     0.068 H 
ATOM     31  H3  F37 d   1       8.414  37.695   6.194  0.00  0.00     0.068 H 
ATOM     32  C2  F37 d   1       5.946  37.870   4.522  0.00  0.00     0.317 C 
ATOM     33  H1  F37 d   1       7.783  37.521   3.635  0.00  0.00     0.164 HD
ATOM     34  O   F37 d   1       5.204  37.432   3.644  0.00  0.00    -0.247 OA
ATOM     35  N   F37 d   1       5.494  38.397   5.658  0.00  0.00    -0.328 N 
ATOM     36  H4  F37 d   1       4.540  38.425   5.955  0.00  0.00     0.165 HD
BRANCH  27  37
ATOM     37  C   F37 d   1       6.448  40.439   6.183  0.00  0.00    -0.047 C 
ATOM     38  H5  F37 d   1       5.567  40.778   6.747  0.00  0.00     0.031 H 
ATOM     39  H6  F37 d   1       6.298  40.643   5.112  0.00  0.00     0.031 H 
ATOM     40  H7  F37 d   1       7.339  40.977   6.538  0.00  0.00     0.031 H 
ENDBRANCH  27  37
ENDBRANCH   1  27
TORSDOF 3
