REMARK  3 active torsions:
REMARK  status: ('A' for Active; 'I' for Inactive)
REMARK    1  A    between atoms: C1_7  and  C_8 
REMARK    2  A    between atoms: C1_7  and  C4_9 
REMARK    3  A    between atoms: C7_14  and  C10_15 
ROOT
ATOM      1  C4  F37 d   1     -36.948 -10.612   6.849  0.00  0.00    -0.021 A 
ATOM      2  C5  F37 d   1     -36.259  -9.891   7.841  0.00  0.00    -0.073 A 
ATOM      3  C6  F37 d   1     -36.269 -10.213   9.204  0.00  0.00    -0.069 A 
ATOM      4  C9  F37 d   1     -37.652 -11.705   7.366  0.00  0.00    -0.073 A 
ATOM      5  C8  F37 d   1     -37.712 -12.018   8.743  0.00  0.00    -0.069 A 
ATOM      6  C7  F37 d   1     -37.001 -11.301   9.685  0.00  0.00     0.010 A 
ATOM      7  H6  F37 d   1     -35.681  -9.028   7.530  0.00  0.00     0.084 H 
ATOM      8  H7  F37 d   1     -35.698  -9.607   9.898  0.00  0.00     0.085 H 
ATOM      9  H8  F37 d   1     -38.181 -12.348   6.672  0.00  0.00     0.084 H 
ATOM     10  H9  F37 d   1     -38.334 -12.844   9.069  0.00  0.00     0.085 H 
ENDROOT
BRANCH   6  11
ATOM     11  C10 F37 d   1     -37.063 -11.600  11.068  0.00  0.00     0.141 A 
ATOM     12  N3  F37 d   1     -36.296 -10.891  12.017  0.00  0.00    -0.307 N 
ATOM     13  C17 F37 d   1     -36.324 -11.110  13.360  0.00  0.00     0.259 A 
ATOM     14  H10 F37 d   1     -35.687 -10.175  11.678  0.00  0.00     0.170 HD
ATOM     15  O2  F37 d   1     -35.570 -10.464  14.123  0.00  0.00    -0.267 OA
ATOM     16  C12 F37 d   1     -37.190 -12.109  13.788  0.00  0.00     0.061 A 
ATOM     17  C11 F37 d   1     -37.916 -12.818  12.830  0.00  0.00     0.074 A 
ATOM     18  C13 F37 d   1     -37.296 -12.413  15.140  0.00  0.00    -0.065 A 
ATOM     19  N2  F37 d   1     -37.861 -12.542  11.523  0.00  0.00    -0.230 NA
ATOM     20  C16 F37 d   1     -38.775 -13.836  13.235  0.00  0.00    -0.054 A 
ATOM     21  C15 F37 d   1     -38.892 -14.163  14.598  0.00  0.00    -0.081 A 
ATOM     22  H11 F37 d   1     -39.355 -14.378  12.498  0.00  0.00     0.087 H 
ATOM     23  C14 F37 d   1     -38.178 -13.421  15.545  0.00  0.00    -0.082 A 
ATOM     24  H12 F37 d   1     -39.529 -14.982  14.912  0.00  0.00     0.083 H 
ATOM     25  H13 F37 d   1     -38.309 -13.629  16.601  0.00  0.00     0.083 H 
ATOM     26  H14 F37 d   1     -36.703 -11.876  15.871  0.00  0.00     0.085 H 
ENDBRANCH   6  11
BRANCH   1  27
ATOM     27  C1  F37 d   1     -36.877 -10.232   5.394  0.00  0.00     0.139 C 
ATOM     28  C3  F37 d   1     -37.510  -9.032   5.356  0.00  0.00     0.258 C 
ATOM     29  N1  F37 d   1     -38.517  -9.113   4.528  0.00  0.00    -0.277 N 
ATOM     30  O1  F37 d   1     -37.148  -7.931   5.776  0.00  0.00    -0.270 OA
ATOM     31  C2  F37 d   1     -38.625 -10.380   4.195  0.00  0.00     0.324 C 
ATOM     32  H1  F37 d   1     -39.093  -8.360   4.210  0.00  0.00     0.173 HD
ATOM     33  O   F37 d   1     -39.528 -10.705   3.434  0.00  0.00    -0.247 OA
ATOM     34  N   F37 d   1     -37.684 -11.149   4.776  0.00  0.00    -0.321 N 
ATOM     35  H2  F37 d   1     -37.596 -12.145   4.760  0.00  0.00     0.165 HD
BRANCH  27  36
ATOM     36  C   F37 d   1     -35.423 -10.285   5.129  0.00  0.00    -0.040 C 
ATOM     37  H3  F37 d   1     -34.918  -9.489   5.696  0.00  0.00     0.032 H 
ATOM     38  H4  F37 d   1     -35.241 -10.142   4.054  0.00  0.00     0.032 H 
ATOM     39  H5  F37 d   1     -35.029 -11.264   5.441  0.00  0.00     0.032 H 
ENDBRANCH  27  36
ENDBRANCH   1  27
TORSDOF 3
