REMARK  6 active torsions:
REMARK  status: ('A' for Active; 'I' for Inactive)
REMARK    1  A    between atoms: CAJ_13  and  C5_1 
REMARK    2  A    between atoms: C6_2  and  O6_3 
REMARK    3  A    between atoms: N1_4  and  CAQ_14 
REMARK    4  A    between atoms: N3_6  and  CAR_15 
REMARK    5  A    between atoms: N_8  and  CA_9 
REMARK       I    between atoms: N_8  and  CAJ_13 
REMARK    6  A    between atoms: CA_9  and  C_10 
ROOT
ATOM      1  C5  B2E d   1      92.041 -69.856   0.147  0.00  0.00     0.151 A 
ATOM      2  C6  B2E d   1      93.467 -69.589   0.102  0.00  0.00     0.167 A 
ATOM      3  N1  B2E d   1      94.009 -68.372   0.680  0.00  0.00    -0.283 N 
ATOM      4  C2  B2E d   1      93.109 -67.344   1.356  0.00  0.00     0.332 A 
ATOM      5  N3  B2E d   1      91.628 -67.692   1.374  0.00  0.00    -0.270 N 
ATOM      6  C4  B2E d   1      91.136 -68.915   0.783  0.00  0.00     0.271 A 
ATOM      7  O2  B2E d   1      93.525 -66.349   1.839  0.00  0.00    -0.246 OA
ATOM      8  O4  B2E d   1      89.972 -69.148   0.820  0.00  0.00    -0.267 OA
ENDROOT
BRANCH   1   9
ATOM      9  CAJ B2E d   1      91.488 -71.129  -0.466  0.00  0.00     0.262 C 
ATOM     10  N   B2E d   1      90.176 -71.591  -0.066  0.00  0.00    -0.347 N 
ATOM     11  H2  B2E d   1      89.651 -71.078   0.614  0.00  0.00     0.163 HD
ATOM     12  OAN B2E d   1      92.108 -71.722  -1.282  0.00  0.00    -0.267 OA
BRANCH  10  13
ATOM     13  CA  B2E d   1      89.623 -72.796  -0.650  0.00  0.00     0.075 C 
ATOM     14  H3  B2E d   1      90.251 -73.660  -0.387  0.00  0.00     0.080 H 
ATOM     15  H4  B2E d   1      89.579 -72.694  -1.744  0.00  0.00     0.080 H 
BRANCH  13  16
ATOM     16  C   B2E d   1      88.217 -72.990  -0.092  0.00  0.00     0.191 C 
ATOM     17  O   B2E d   1      87.807 -72.210   0.806  0.00  0.00    -0.647 OA
ATOM     18  OXT B2E d   1      87.479 -73.913  -0.526  0.00  0.00    -0.647 OA
ENDBRANCH  13  16
ENDBRANCH  10  13
ENDBRANCH   1   9
BRANCH   2  19
ATOM     19  O6  B2E d   1      94.318 -70.514  -0.519  0.00  0.00    -0.345 OA
ATOM     20  H1  B2E d   1      93.806 -71.247  -0.841  0.00  0.00     0.219 HD
ENDBRANCH   2  19
BRANCH   3  21
ATOM     21  CAQ B2E d   1      95.443 -68.133   0.612  0.00  0.00    -0.008 C 
ATOM     22  H5  B2E d   1      95.930 -68.972   0.094  0.00  0.00     0.057 H 
ATOM     23  H6  B2E d   1      95.849 -68.045   1.631  0.00  0.00     0.057 H 
ATOM     24  H7  B2E d   1      95.634 -67.201   0.060  0.00  0.00     0.057 H 
ENDBRANCH   3  21
BRANCH   5  25
ATOM     25  CAR B2E d   1      90.679 -66.779   2.001  0.00  0.00    -0.007 C 
ATOM     26  H8  B2E d   1      91.218 -65.905   2.397  0.00  0.00     0.057 H 
ATOM     27  H9  B2E d   1      90.163 -67.295   2.824  0.00  0.00     0.057 H 
ATOM     28  H10 B2E d   1      89.941 -66.448   1.255  0.00  0.00     0.057 H 
ENDBRANCH   5  25
TORSDOF 6
