REMARK  3 active torsions:
REMARK  status: ('A' for Active; 'I' for Inactive)
REMARK    1  A    between atoms: N03_3  and  C07_7 
REMARK    2  A    between atoms: C10_10  and  C13_13 
REMARK    3  A    between atoms: C17_17  and  C22_22 
ROOT
ATOM      1  C13 B4B d   1     185.373 -45.159  17.468  0.00  0.00     0.009 A 
ATOM      2  C14 B4B d   1     185.003 -44.379  18.579  0.00  0.00     0.017 A 
ATOM      3  N15 B4B d   1     185.285 -44.787  19.834  0.00  0.00    -0.240 NA
ATOM      4  C16 B4B d   1     185.894 -45.994  20.052  0.00  0.00     0.162 A 
ATOM      5  C17 B4B d   1     186.273 -46.637  21.267  0.00  0.00     0.042 A 
ATOM      6  C18 B4B d   1     186.860 -47.830  20.865  0.00  0.00     0.037 A 
ATOM      7  N19 B4B d   1     186.843 -47.898  19.527  0.00  0.00    -0.178 NA
ATOM      8  N20 B4B d   1     186.245 -46.769  19.030  0.00  0.00    -0.225 N 
ATOM      9  C21 B4B d   1     185.985 -46.390  17.736  0.00  0.00     0.018 A 
ATOM     10  H15 B4B d   1     184.483 -43.435  18.424  0.00  0.00     0.116 H 
ATOM     11  H16 B4B d   1     187.269 -48.589  21.531  0.00  0.00     0.118 H 
ATOM     12  H17 B4B d   1     186.256 -47.050  16.913  0.00  0.00     0.116 H 
ENDROOT
BRANCH   1  13
ATOM     13  C10 B4B d   1     185.059 -44.777  16.145  0.00  0.00    -0.023 A 
ATOM     14  C09 B4B d   1     183.966 -43.948  15.880  0.00  0.00    -0.070 A 
ATOM     15  C08 B4B d   1     183.626 -43.612  14.577  0.00  0.00    -0.061 A 
ATOM     16  H12 B4B d   1     183.376 -43.562  16.703  0.00  0.00     0.084 H 
ATOM     17  C07 B4B d   1     184.361 -44.072  13.486  0.00  0.00     0.010 A 
ATOM     18  H11 B4B d   1     182.766 -42.975  14.403  0.00  0.00     0.086 H 
ATOM     19  C12 B4B d   1     185.416 -44.921  13.745  0.00  0.00    -0.061 A 
ATOM     20  C11 B4B d   1     185.758 -45.273  15.047  0.00  0.00    -0.070 A 
ATOM     21  H14 B4B d   1     185.990 -45.322  12.918  0.00  0.00     0.086 H 
ATOM     22  H13 B4B d   1     186.589 -45.950  15.211  0.00  0.00     0.084 H 
BRANCH  17  23
ATOM     23  N03 B4B d   1     184.019 -43.764  12.130  0.00  0.00    -0.280 NA
ATOM     24  C02 B4B d   1     183.097 -42.684  11.887  0.00  0.00     0.006 C 
ATOM     25  C01 B4B d   1     182.820 -42.339  10.427  0.00  0.00     0.093 C 
ATOM     26  H3  B4B d   1     182.138 -42.952  12.354  0.00  0.00     0.058 H 
ATOM     27  H4  B4B d   1     183.502 -41.784  12.372  0.00  0.00     0.058 H 
ATOM     28  N06 B4B d   1     182.534 -43.485   9.609  0.00  0.00    -0.073 N 
ATOM     29  H1  B4B d   1     183.705 -41.831  10.016  0.00  0.00     0.077 H 
ATOM     30  H2  B4B d   1     181.956 -41.660  10.388  0.00  0.00     0.077 H 
ATOM     31  C05 B4B d   1     183.459 -44.578   9.840  0.00  0.00     0.093 C 
ATOM     32  H9  B4B d   1     182.591 -43.213   8.640  0.00  0.00     0.277 HD
ATOM     33  H10 B4B d   1     181.600 -43.803   9.814  0.00  0.00     0.277 HD
ATOM     34  C04 B4B d   1     183.658 -44.902  11.318  0.00  0.00     0.006 C 
ATOM     35  H7  B4B d   1     183.071 -45.475   9.335  0.00  0.00     0.077 H 
ATOM     36  H8  B4B d   1     184.434 -44.307   9.408  0.00  0.00     0.077 H 
ATOM     37  H5  B4B d   1     182.719 -45.321  11.709  0.00  0.00     0.058 H 
ATOM     38  H6  B4B d   1     184.457 -45.653  11.402  0.00  0.00     0.058 H 
ENDBRANCH  17  23
ENDBRANCH   1  13
BRANCH   5  39
ATOM     39  C22 B4B d   1     186.159 -46.238  22.612  0.00  0.00    -0.008 A 
ATOM     40  C23 B4B d   1     187.321 -46.347  23.388  0.00  0.00    -0.071 A 
ATOM     41  C24 B4B d   1     187.339 -46.033  24.754  0.00  0.00    -0.080 A 
ATOM     42  H18 B4B d   1     188.236 -46.685  22.916  0.00  0.00     0.084 H 
ATOM     43  C25 B4B d   1     186.177 -45.572  25.371  0.00  0.00    -0.054 A 
ATOM     44  H19 B4B d   1     188.252 -46.148  25.328  0.00  0.00     0.083 H 
ATOM     45  C26 B4B d   1     184.981 -45.469  24.608  0.00  0.00     0.067 A 
ATOM     46  H20 B4B d   1     186.185 -45.295  26.419  0.00  0.00     0.087 H 
ATOM     47  C27 B4B d   1     184.952 -45.793  23.261  0.00  0.00     0.004 A 
ATOM     48  N31 B4B d   1     183.861 -45.027  25.295  0.00  0.00    -0.260 NA
ATOM     49  C28 B4B d   1     183.693 -45.651  22.577  0.00  0.00    -0.069 A 
ATOM     50  C29 B4B d   1     182.580 -45.200  23.281  0.00  0.00    -0.065 A 
ATOM     51  H21 B4B d   1     183.613 -45.893  21.523  0.00  0.00     0.085 H 
ATOM     52  C30 B4B d   1     182.685 -44.899  24.645  0.00  0.00     0.003 A 
ATOM     53  H22 B4B d   1     181.630 -45.081  22.773  0.00  0.00     0.085 H 
ATOM     54  H23 B4B d   1     181.810 -44.559  25.186  0.00  0.00     0.114 H 
ENDBRANCH   5  39
TORSDOF 3
