REMARK  9 active torsions:
REMARK  status: ('A' for Active; 'I' for Inactive)
REMARK    1  A    between atoms: N_1  and  CA_2 
REMARK    2  A    between atoms: CA_2  and  C_3 
REMARK    3  A    between atoms: CA_2  and  CB_5 
REMARK       I    between atoms: C_3  and  N_6 
REMARK    4  A    between atoms: N_6  and  CA_7 
REMARK    5  A    between atoms: CA_7  and  C_8 
REMARK    6  A    between atoms: CA_7  and  CB_10 
REMARK    7  A    between atoms: CB_10  and  CG_11 
REMARK    8  A    between atoms: CG_11  and  CD1_12 
REMARK    9  A    between atoms: CG_11  and  CD2_13 
ROOT
ATOM      1  CA  LEU d   1      24.339  17.643  -4.728  0.00  0.00     0.096 C 
ATOM      2  H9  LEU d   1      23.581  17.544  -5.519  0.00  0.00     0.089 H 
ENDROOT
BRANCH   1   3
ATOM      3  N   LEU d   1      23.747  17.202  -3.472  0.00  0.00    -0.345 N 
ATOM      4  C   ALA d   1      22.778  16.294  -3.436  0.00  0.00     0.248 C 
ATOM      5  O   ALA d   1      22.291  15.793  -4.448  0.00  0.00    -0.271 OA
ATOM      6  H8  LEU d   1      24.079  17.593  -2.614  0.00  0.00     0.163 HD
BRANCH   4   7
ATOM      7  CA  ALA d   1      22.284  15.892  -2.053  0.00  0.00     0.172 C 
ATOM      8  H4  ALA d   1      22.553  16.691  -1.346  0.00  0.00     0.098 H 
BRANCH   7   9
ATOM      9  N   ALA d   1      20.836  15.737  -2.036  0.00  0.00    -0.067 N 
ATOM     10  H1  ALA d   1      20.537  15.471  -1.111  0.00  0.00     0.275 HD
ATOM     11  H2  ALA d   1      20.567  15.022  -2.694  0.00  0.00     0.275 HD
ATOM     12  H3  ALA d   1      20.402  16.610  -2.292  0.00  0.00     0.275 HD
ENDBRANCH   7   9
BRANCH   7  13
ATOM     13  CB  ALA d   1      22.958  14.610  -1.605  0.00  0.00    -0.042 C 
ATOM     14  H5  ALA d   1      24.050  14.744  -1.623  0.00  0.00     0.030 H 
ATOM     15  H6  ALA d   1      22.677  13.791  -2.284  0.00  0.00     0.030 H 
ATOM     16  H7  ALA d   1      22.636  14.364  -0.582  0.00  0.00     0.030 H 
ENDBRANCH   7  13
ENDBRANCH   4   7
ENDBRANCH   1   3
BRANCH   1  17
ATOM     17  C   LEU d   1      25.541  16.790  -5.106  0.00  0.00     0.196 C 
ATOM     18  O   LEU d   1      25.898  16.699  -6.281  0.00  0.00    -0.646 OA
ATOM     19  OXT LEU d   1      26.178  16.184  -4.241  0.00  0.00    -0.646 OA
ENDBRANCH   1  17
BRANCH   1  20
ATOM     20  CB  LEU d   1      24.756  19.108  -4.637  0.00  0.00    -0.034 C 
ATOM     21  H10 LEU d   1      25.498  19.297  -5.427  0.00  0.00     0.037 H 
ATOM     22  H11 LEU d   1      25.221  19.266  -3.652  0.00  0.00     0.037 H 
BRANCH  20  23
ATOM     23  CG  LEU d   1      23.634  20.132  -4.794  0.00  0.00    -0.059 C 
ATOM     24  H12 LEU d   1      22.774  19.805  -4.191  0.00  0.00     0.038 H 
BRANCH  23  25
ATOM     25  CD1 LEU d   1      24.087  21.490  -4.289  0.00  0.00    -0.073 C 
ATOM     26  H13 LEU d   1      23.270  22.217  -4.408  0.00  0.00     0.028 H 
ATOM     27  H14 LEU d   1      24.961  21.823  -4.867  0.00  0.00     0.028 H 
ATOM     28  H15 LEU d   1      24.358  21.414  -3.226  0.00  0.00     0.028 H 
ENDBRANCH  23  25
BRANCH  23  29
ATOM     29  CD2 LEU d   1      23.198  20.213  -6.249  0.00  0.00    -0.073 C 
ATOM     30  H16 LEU d   1      22.875  19.219  -6.591  0.00  0.00     0.028 H 
ATOM     31  H17 LEU d   1      24.041  20.557  -6.866  0.00  0.00     0.028 H 
ATOM     32  H18 LEU d   1      22.362  20.922  -6.343  0.00  0.00     0.028 H 
ENDBRANCH  23  29
ENDBRANCH  20  23
ENDBRANCH   1  20
TORSDOF 9
