REMARK  9 active torsions:
REMARK  status: ('A' for Active; 'I' for Inactive)
REMARK    1  A    between atoms: N_1  and  CA_2 
REMARK    2  A    between atoms: CA_2  and  C_3 
REMARK    3  A    between atoms: CA_2  and  CB_5 
REMARK       I    between atoms: C_3  and  N_9 
REMARK    4  A    between atoms: CB_5  and  CG_6 
REMARK    5  A    between atoms: N_9  and  CA_10 
REMARK    6  A    between atoms: CA_10  and  C_11 
REMARK    7  A    between atoms: CA_10  and  CB_13 
REMARK    8  A    between atoms: CB_13  and  CG_14 
REMARK    9  A    between atoms: CG_14  and  CD_15 
ROOT
ATOM      1  C   ASP d   1      22.336  15.783  -3.278  0.00  0.00     0.249 C 
ATOM      2  O   ASP d   1      22.447  14.742  -3.930  0.00  0.00    -0.271 OA
ATOM      3  N   GLU d   1      22.701  16.976  -3.731  0.00  0.00    -0.345 N 
ATOM      4  H7  GLU d   1      22.527  17.781  -3.163  0.00  0.00     0.163 HD
ENDROOT
BRANCH   3   5
ATOM      5  CA  GLU d   1      23.343  17.155  -5.020  0.00  0.00     0.097 C 
ATOM      6  H8  GLU d   1      22.713  16.688  -5.791  0.00  0.00     0.089 H 
BRANCH   5   7
ATOM      7  C   GLU d   1      24.711  16.476  -5.041  0.00  0.00     0.196 C 
ATOM      8  O   GLU d   1      25.332  16.263  -3.999  0.00  0.00    -0.646 OA
ATOM      9  OXT GLU d   1      25.224  16.114  -6.098  0.00  0.00    -0.646 OA
ENDBRANCH   5   7
BRANCH   5  10
ATOM     10  CB  GLU d   1      23.475  18.645  -5.338  0.00  0.00    -0.028 C 
ATOM     11  H9  GLU d   1      22.483  19.027  -5.621  0.00  0.00     0.037 H 
ATOM     12  H10 GLU d   1      24.167  18.758  -6.185  0.00  0.00     0.037 H 
BRANCH  10  13
ATOM     13  CG  GLU d   1      23.996  19.481  -4.182  0.00  0.00     0.018 C 
ATOM     14  H11 GLU d   1      24.945  19.047  -3.832  0.00  0.00     0.049 H 
ATOM     15  H12 GLU d   1      23.258  19.455  -3.367  0.00  0.00     0.049 H 
BRANCH  13  16
ATOM     16  CD  GLU d   1      24.237  20.926  -4.573  0.00  0.00     0.172 C 
ATOM     17  OE1 GLU d   1      24.415  21.193  -5.780  0.00  0.00    -0.648 OA
ATOM     18  OE2 GLU d   1      24.246  21.795  -3.674  0.00  0.00    -0.648 OA
ENDBRANCH  13  16
ENDBRANCH  10  13
ENDBRANCH   5  10
ENDBRANCH   3   5
BRANCH   1  19
ATOM     19  CA  ASP d   1      21.757  15.780  -1.874  0.00  0.00     0.185 C 
ATOM     20  H4  ASP d   1      22.111  16.683  -1.355  0.00  0.00     0.100 H 
BRANCH  19  21
ATOM     21  N   ASP d   1      20.302  15.820  -1.904  0.00  0.00    -0.066 N 
ATOM     22  H1  ASP d   1      19.946  15.817  -0.961  0.00  0.00     0.275 HD
ATOM     23  H2  ASP d   1      19.954  15.013  -2.397  0.00  0.00     0.275 HD
ATOM     24  H3  ASP d   1      19.998  16.658  -2.375  0.00  0.00     0.275 HD
ENDBRANCH  19  21
BRANCH  19  25
ATOM     25  CB  ASP d   1      22.254  14.558  -1.100  0.00  0.00     0.050 C 
ATOM     26  H5  ASP d   1      23.227  14.251  -1.512  0.00  0.00     0.052 H 
ATOM     27  H6  ASP d   1      21.528  13.741  -1.226  0.00  0.00     0.052 H 
BRANCH  25  28
ATOM     28  CG  ASP d   1      22.420  14.838   0.382  0.00  0.00     0.175 C 
ATOM     29  OD1 ASP d   1      22.308  16.015   0.783  0.00  0.00    -0.648 OA
ATOM     30  OD2 ASP d   1      22.674  13.886   1.148  0.00  0.00    -0.648 OA
ENDBRANCH  25  28
ENDBRANCH  19  25
ENDBRANCH   1  19
TORSDOF 9
