REMARK  7 active torsions:
REMARK  status: ('A' for Active; 'I' for Inactive)
REMARK    1  A    between atoms: N_1  and  CA_2 
REMARK    2  A    between atoms: CA_2  and  C_3 
REMARK    3  A    between atoms: CA_2  and  CB_5 
REMARK       I    between atoms: C_3  and  N_12 
REMARK    4  A    between atoms: CB_5  and  CG_6 
REMARK    5  A    between atoms: N_12  and  CA_13 
REMARK    6  A    between atoms: CA_13  and  C_14 
REMARK    7  A    between atoms: CA_13  and  CB_16 
ROOT
ATOM      1  CA  PHE d   1      21.019  17.690  -2.588  0.00  0.00     0.179 C 
ATOM      2  H4  PHE d   1      21.130  18.510  -1.863  0.00  0.00     0.099 H 
ENDROOT
BRANCH   1   3
ATOM      3  N   PHE d   1      19.680  17.137  -2.442  0.00  0.00    -0.066 N 
ATOM      4  H1  PHE d   1      19.566  16.774  -1.508  0.00  0.00     0.275 HD
ATOM      5  H2  PHE d   1      19.549  16.393  -3.110  0.00  0.00     0.275 HD
ATOM      6  H3  PHE d   1      18.998  17.861  -2.607  0.00  0.00     0.275 HD
ENDBRANCH   1   3
BRANCH   1   7
ATOM      7  C   PHE d   1      21.249  18.256  -3.986  0.00  0.00     0.249 C 
ATOM      8  O   PHE d   1      20.900  17.628  -4.986  0.00  0.00    -0.271 OA
ATOM      9  N   ALA d   1      21.814  19.459  -4.038  0.00  0.00    -0.345 N 
ATOM     10  H12 ALA d   1      21.896  19.991  -3.195  0.00  0.00     0.163 HD
BRANCH   9  11
ATOM     11  CA  ALA d   1      22.317  20.029  -5.281  0.00  0.00     0.093 C 
ATOM     12  H13 ALA d   1      21.551  19.913  -6.062  0.00  0.00     0.089 H 
BRANCH  11  13
ATOM     13  C   ALA d   1      23.565  19.275  -5.695  0.00  0.00     0.196 C 
ATOM     14  O   ALA d   1      24.387  18.922  -4.853  0.00  0.00    -0.646 OA
ATOM     15  OXT ALA d   1      23.798  19.004  -6.867  0.00  0.00    -0.646 OA
ENDBRANCH  11  13
BRANCH  11  16
ATOM     16  CB  ALA d   1      22.628  21.512  -5.121  0.00  0.00    -0.048 C 
ATOM     17  H14 ALA d   1      23.005  21.913  -6.074  0.00  0.00     0.030 H 
ATOM     18  H15 ALA d   1      23.391  21.644  -4.340  0.00  0.00     0.030 H 
ATOM     19  H16 ALA d   1      21.712  22.050  -4.834  0.00  0.00     0.030 H 
ENDBRANCH  11  16
ENDBRANCH   9  11
ENDBRANCH   1   7
BRANCH   1  20
ATOM     20  CB  PHE d   1      22.073  16.625  -2.279  0.00  0.00    -0.006 C 
ATOM     21  H5  PHE d   1      23.058  17.016  -2.574  0.00  0.00     0.043 H 
ATOM     22  H6  PHE d   1      21.842  15.727  -2.872  0.00  0.00     0.043 H 
BRANCH  20  23
ATOM     23  CG  PHE d   1      22.136  16.231  -0.828  0.00  0.00    -0.056 A 
ATOM     24  CD1 PHE d   1      22.004  17.184   0.170  0.00  0.00    -0.077 A 
ATOM     25  CE1 PHE d   1      22.053  16.823   1.507  0.00  0.00    -0.082 A 
ATOM     26  H7  PHE d   1      21.861  18.224  -0.099  0.00  0.00     0.084 H 
ATOM     27  CZ  PHE d   1      22.231  15.496   1.854  0.00  0.00    -0.083 A 
ATOM     28  H9  PHE d   1      21.952  17.578   2.278  0.00  0.00     0.083 H 
ATOM     29  CE2 PHE d   1      22.360  14.537   0.866  0.00  0.00    -0.082 A 
ATOM     30  H11 PHE d   1      22.269  15.208   2.898  0.00  0.00     0.083 H 
ATOM     31  CD2 PHE d   1      22.310  14.904  -0.464  0.00  0.00    -0.077 A 
ATOM     32  H10 PHE d   1      22.500  13.497   1.136  0.00  0.00     0.083 H 
ATOM     33  H8  PHE d   1      22.408  14.146  -1.233  0.00  0.00     0.084 H 
ENDBRANCH  20  23
ENDBRANCH   1  20
TORSDOF 7
