REMARK WARNING: 32 MAX_TORS EXCEEDED!!!
REMARK  79 active torsions:
REMARK  status: ('A' for Active; 'I' for Inactive)
REMARK    1  A    between atoms: N_1  and  CA_2 
REMARK    2  A    between atoms: CA_2  and  C_3 
REMARK    3  A    between atoms: CA_2  and  CB_5 
REMARK       I    between atoms: C_3  and  N_12 
REMARK    4  A    between atoms: CB_5  and  CG_6 
REMARK    5  A    between atoms: CG_6  and  CD_7 
REMARK    6  A    between atoms: CD_7  and  NE_8 
REMARK       I    between atoms: NE_8  and  CZ_9 
REMARK       I    between atoms: CZ_9  and  NH1_10 
REMARK       I    between atoms: CZ_9  and  NH2_11 
REMARK    7  A    between atoms: N_12  and  CA_13 
REMARK    8  A    between atoms: CA_13  and  C_14 
REMARK    9  A    between atoms: CA_13  and  CB_16 
REMARK       I    between atoms: C_14  and  N_21 
REMARK   10  A    between atoms: CB_16  and  CG_17 
REMARK   11  A    between atoms: CG_17  and  CD_18 
REMARK   12  A    between atoms: CD_18  and  CE_19 
REMARK   13  A    between atoms: CE_19  and  NZ_20 
REMARK   14  A    between atoms: N_21  and  CA_22 
REMARK   15  A    between atoms: CA_22  and  C_23 
REMARK   16  A    between atoms: CA_22  and  CB_25 
REMARK       I    between atoms: C_23  and  N_30 
REMARK   17  A    between atoms: CB_25  and  CG_26 
REMARK   18  A    between atoms: CG_26  and  CD_27 
REMARK       I    between atoms: CD_27  and  NE2_29 
REMARK   19  A    between atoms: N_30  and  CA_31 
REMARK   20  A    between atoms: CA_31  and  C_32 
REMARK   21  A    between atoms: CA_31  and  CB_34 
REMARK       I    between atoms: C_32  and  N_38 
REMARK   22  A    between atoms: CB_34  and  CG_35 
REMARK   23  A    between atoms: CG_35  and  CD1_36 
REMARK   24  A    between atoms: CG_35  and  CD2_37 
REMARK   25  A    between atoms: N_38  and  CA_39 
REMARK   26  A    between atoms: CA_39  and  C_40 
REMARK   27  A    between atoms: CA_39  and  CB_42 
REMARK       I    between atoms: C_40  and  N_46 
REMARK   28  A    between atoms: CB_42  and  CG_43 
REMARK   29  A    between atoms: CG_43  and  SD_44 
REMARK   30  A    between atoms: SD_44  and  CE_45 
REMARK   31  A    between atoms: N_46  and  CA_47 
REMARK   32  A    between atoms: CA_47  and  C_48 
REMARK   33  A    between atoms: CA_47  and  CB_50 
REMARK       I    between atoms: C_48  and  N_53 
REMARK   34  A    between atoms: CB_50  and  OG1_51 
REMARK   35  A    between atoms: CB_50  and  CG2_52 
REMARK   36  A    between atoms: N_53  and  CA_54 
REMARK   37  A    between atoms: CA_54  and  C_55 
REMARK   38  A    between atoms: CA_54  and  CB_57 
REMARK       I    between atoms: C_55  and  N_62 
REMARK   39  A    between atoms: CB_57  and  CG_58 
REMARK   40  A    between atoms: CG_58  and  CD_59 
REMARK   41  A    between atoms: CD_59  and  CE_60 
REMARK   42  A    between atoms: CE_60  and  NZ_61 
REMARK   43  A    between atoms: N_62  and  CA_63 
REMARK   44  A    between atoms: CA_63  and  C_64 
REMARK   45  A    between atoms: CA_63  and  CB_66 
REMARK       I    between atoms: C_64  and  N_67 
REMARK   46  A    between atoms: N_67  and  CA_68 
REMARK   47  A    between atoms: CA_68  and  C_69 
REMARK   48  A    between atoms: CA_68  and  CB_71 
REMARK       I    between atoms: C_69  and  N_72 
REMARK   49  A    between atoms: N_72  and  CA_73 
REMARK   50  A    between atoms: CA_73  and  C_74 
REMARK   51  A    between atoms: CA_73  and  CB_76 
REMARK       I    between atoms: C_74  and  N_83 
REMARK   52  A    between atoms: CB_76  and  CG_77 
REMARK   53  A    between atoms: CG_77  and  CD_78 
REMARK   54  A    between atoms: CD_78  and  NE_79 
REMARK       I    between atoms: NE_79  and  CZ_80 
REMARK       I    between atoms: CZ_80  and  NH1_81 
REMARK   55  A    between atoms: N_83  and  CA_84 
REMARK   56  A    between atoms: CA_84  and  C_85 
REMARK   57  A    between atoms: CA_84  and  CB_87 
REMARK       I    between atoms: C_85  and  N_92 
REMARK   58  A    between atoms: CB_87  and  CG_88 
REMARK   59  A    between atoms: CG_88  and  CD_89 
REMARK   60  A    between atoms: CD_89  and  CE_90 
REMARK   61  A    between atoms: CE_90  and  NZ_91 
REMARK   62  A    between atoms: N_92  and  CA_93 
REMARK   63  A    between atoms: CA_93  and  C_94 
REMARK   64  A    between atoms: CA_93  and  CB_96 
REMARK       I    between atoms: C_94  and  N_98 
REMARK   65  A    between atoms: CB_96  and  OG_97 
REMARK   66  A    between atoms: N_98  and  CA_99 
REMARK   67  A    between atoms: CA_99  and  C_100 
REMARK   68  A    between atoms: CA_99  and  CB_102 
REMARK       I    between atoms: C_100  and  N_103 
REMARK   69  A    between atoms: CA_104  and  C_105 
REMARK       I    between atoms: C_105  and  N_110 
REMARK   70  A    between atoms: N_110  and  CA_111 
REMARK   71  A    between atoms: CA_111  and  C_112 
REMARK   72  A    between atoms: CA_111  and  CB_114 
REMARK       I    between atoms: C_112  and  N_115 
REMARK   73  A    between atoms: N_115  and  CA_116 
REMARK   74  A    between atoms: CA_116  and  C_117 
REMARK   75  A    between atoms: CA_116  and  CB_119 
REMARK       I    between atoms: C_117  and  N_122 
REMARK   76  A    between atoms: CB_119  and  OG1_120 
REMARK   77  A    between atoms: CB_119  and  CG2_121 
REMARK   78  A    between atoms: N_122  and  CA_123 
REMARK   79  A    between atoms: CA_123  and  C_124 
ROOT
ATOM      1  CA  ARG d   1      97.722 -19.194  24.073  0.00  0.00     0.089 C 
ATOM      2  H65 ARG d   1      97.532 -20.158  24.568  0.00  0.00     0.087 H 
ENDROOT
BRANCH   1   3
ATOM      3  N   ARG d   1      99.116 -19.159  23.630  0.00  0.00    -0.346 N 
ATOM      4  C   ARG d   1      99.689 -20.222  23.066  0.00  0.00     0.243 C 
ATOM      5  O   ARG d   1      99.160 -21.329  23.050  0.00  0.00    -0.271 OA
ATOM      6  H64 ARG d   1      99.649 -18.322  23.753  0.00  0.00     0.163 HD
BRANCH   4   7
ATOM      7  CA  ARG d   1     101.030 -20.007  22.377  0.00  0.00     0.113 C 
ATOM      8  H58 ARG d   1     101.530 -19.127  22.808  0.00  0.00     0.091 H 
BRANCH   7   9
ATOM      9  N   ARG d   1     101.899 -21.176  22.553  0.00  0.00    -0.344 N 
ATOM     10  C   ARG d   1     103.192 -21.101  22.914  0.00  0.00     0.241 C 
ATOM     11  O   ARG d   1     103.762 -20.035  23.161  0.00  0.00    -0.271 OA
ATOM     12  H57 ARG d   1     101.506 -22.082  22.395  0.00  0.00     0.163 HD
BRANCH  10  13
ATOM     13  CA  ARG d   1     103.941 -22.430  23.027  0.00  0.00     0.090 C 
ATOM     14  H49 ARG d   1     103.449 -23.167  22.375  0.00  0.00     0.087 H 
BRANCH  13  15
ATOM     15  N   ARG d   1     105.333 -22.287  22.598  0.00  0.00    -0.346 N 
ATOM     16  C   ARG d   1     105.715 -22.502  21.337  0.00  0.00     0.241 C 
ATOM     17  O   ARG d   1     104.915 -22.659  20.411  0.00  0.00    -0.271 OA
ATOM     18  H48 ARG d   1     106.021 -22.019  23.272  0.00  0.00     0.163 HD
BRANCH  16  19
ATOM     19  CA  ARG d   1     107.222 -22.533  21.064  0.00  0.00     0.089 C 
ATOM     20  H38 ARG d   1     107.760 -22.491  22.023  0.00  0.00     0.087 H 
BRANCH  19  21
ATOM     21  N   ARG d   1     107.563 -23.768  20.378  0.00  0.00    -0.346 N 
ATOM     22  C   ARG d   1     108.054 -24.843  20.984  0.00  0.00     0.241 C 
ATOM     23  O   ARG d   1     108.186 -24.929  22.209  0.00  0.00    -0.271 OA
ATOM     24  H37 ARG d   1     107.419 -23.811  19.389  0.00  0.00     0.163 HD
BRANCH  22  25
ATOM     25  CA  ARG d   1     108.453 -25.997  20.067  0.00  0.00     0.090 C 
ATOM     26  H30 ARG d   1     108.097 -25.775  19.050  0.00  0.00     0.087 H 
BRANCH  25  27
ATOM     27  N   ARG d   1     109.908 -26.101  20.037  0.00  0.00    -0.346 N 
ATOM     28  C   ARG d   1     110.672 -25.379  19.212  0.00  0.00     0.241 C 
ATOM     29  O   ARG d   1     110.211 -24.613  18.359  0.00  0.00    -0.271 OA
ATOM     30  H29 ARG d   1     110.354 -26.742  20.662  0.00  0.00     0.163 HD
BRANCH  28  31
ATOM     31  CA  ARG d   1     112.178 -25.559  19.380  0.00  0.00     0.089 C 
ATOM     32  H17 ARG d   1     112.358 -26.473  19.965  0.00  0.00     0.087 H 
BRANCH  31  33
ATOM     33  N   ARG d   1     112.850 -25.693  18.093  0.00  0.00    -0.346 N 
ATOM     34  C   ARG d   1     112.782 -26.816  17.379  0.00  0.00     0.248 C 
ATOM     35  O   ARG d   1     112.275 -27.855  17.800  0.00  0.00    -0.271 OA
ATOM     36  H16 ARG d   1     113.376 -24.921  17.736  0.00  0.00     0.163 HD
BRANCH  34  37
ATOM     37  CA  ARG d   1     113.388 -26.761  15.976  0.00  0.00     0.176 C 
ATOM     38  H4  ARG d   1     114.357 -26.243  16.025  0.00  0.00     0.099 H 
BRANCH  37  39
ATOM     39  N   ARG d   1     113.604 -28.121  15.498  0.00  0.00    -0.067 N 
ATOM     40  H1  ARG d   1     114.004 -28.093  14.573  0.00  0.00     0.275 HD
ATOM     41  H2  ARG d   1     112.723 -28.611  15.469  0.00  0.00     0.275 HD
ATOM     42  H3  ARG d   1     114.234 -28.600  16.122  0.00  0.00     0.275 HD
ENDBRANCH  37  39
BRANCH  37  43
ATOM     43  CB  ARG d   1     112.466 -25.985  15.023  0.00  0.00    -0.029 C 
ATOM     44  H5  ARG d   1     112.314 -24.980  15.445  0.00  0.00     0.036 H 
ATOM     45  H6  ARG d   1     111.503 -26.515  14.980  0.00  0.00     0.036 H 
BRANCH  43  46
ATOM     46  CG  ARG d   1     112.976 -25.819  13.584  0.00  0.00    -0.047 C 
ATOM     47  H7  ARG d   1     113.264 -26.807  13.196  0.00  0.00     0.035 H 
ATOM     48  H8  ARG d   1     113.856 -25.160  13.596  0.00  0.00     0.035 H 
BRANCH  46  49
ATOM     49  CD  ARG d   1     111.913 -25.208  12.642  0.00  0.00     0.009 C 
ATOM     50  H9  ARG d   1     111.912 -25.771  11.697  0.00  0.00     0.064 H 
ATOM     51  H10 ARG d   1     112.178 -24.159  12.443  0.00  0.00     0.064 H 
BRANCH  49  52
ATOM     52  NE  ARG d   1     110.564 -25.253  13.220  0.00  0.00    -0.227 N 
ATOM     53  CZ  ARG d   1     109.719 -24.223  13.309  0.00  0.00     0.665 C 
ATOM     54  NH1 ARG d   1     110.041 -23.017  12.828  0.00  0.00    -0.235 N 
ATOM     55  NH2 ARG d   1     108.524 -24.415  13.877  0.00  0.00    -0.235 N 
ATOM     56  H12 ARG d   1     109.374 -22.236  12.907  0.00  0.00     0.174 HD
ATOM     57  H13 ARG d   1     110.956 -22.869  12.378  0.00  0.00     0.174 HD
ATOM     58  H14 ARG d   1     108.273 -25.343  14.248  0.00  0.00     0.174 HD
ATOM     59  H15 ARG d   1     107.854 -23.635  13.943  0.00  0.00     0.174 HD
ATOM     60  H11 ARG d   1     110.241 -26.159  13.589  0.00  0.00     0.177 HD
ENDBRANCH  49  52
ENDBRANCH  46  49
ENDBRANCH  43  46
ENDBRANCH  37  43
ENDBRANCH  34  37
ENDBRANCH  31  33
BRANCH  31  61
ATOM     61  CB  ARG d   1     112.751 -24.373  20.133  0.00  0.00    -0.038 C 
ATOM     62  H18 ARG d   1     112.289 -24.329  21.130  0.00  0.00     0.036 H 
ATOM     63  H19 ARG d   1     112.514 -23.453  19.578  0.00  0.00     0.036 H 
BRANCH  61  64
ATOM     64  CG  ARG d   1     114.240 -24.471  20.294  0.00  0.00    -0.061 C 
ATOM     65  H20 ARG d   1     114.714 -24.355  19.308  0.00  0.00     0.033 H 
ATOM     66  H21 ARG d   1     114.490 -25.459  20.707  0.00  0.00     0.033 H 
BRANCH  64  67
ATOM     67  CD  ARG d   1     114.771 -23.406  21.220  0.00  0.00    -0.043 C 
ATOM     68  H22 ARG d   1     114.436 -23.621  22.245  0.00  0.00     0.035 H 
ATOM     69  H23 ARG d   1     114.381 -22.427  20.904  0.00  0.00     0.035 H 
BRANCH  67  70
ATOM     70  CE  ARG d   1     116.314 -23.368  21.191  0.00  0.00     0.080 C 
ATOM     71  H24 ARG d   1     116.668 -22.950  22.145  0.00  0.00     0.075 H 
ATOM     72  H25 ARG d   1     116.629 -22.714  20.365  0.00  0.00     0.075 H 
BRANCH  70  73
ATOM     73  NZ  ARG d   1     116.955 -24.717  20.998  0.00  0.00    -0.079 N 
ATOM     74  H26 ARG d   1     117.958 -24.614  20.989  0.00  0.00     0.274 HD
ATOM     75  H27 ARG d   1     116.650 -25.112  20.122  0.00  0.00     0.274 HD
ATOM     76  H28 ARG d   1     116.686 -25.328  21.753  0.00  0.00     0.274 HD
ENDBRANCH  70  73
ENDBRANCH  67  70
ENDBRANCH  64  67
ENDBRANCH  61  64
ENDBRANCH  31  61
ENDBRANCH  28  31
ENDBRANCH  25  27
BRANCH  25  77
ATOM     77  CB  ARG d   1     107.815 -27.308  20.518  0.00  0.00    -0.030 C 
ATOM     78  H31 ARG d   1     108.277 -27.617  21.467  0.00  0.00     0.037 H 
ATOM     79  H32 ARG d   1     108.003 -28.074  19.752  0.00  0.00     0.037 H 
BRANCH  77  80
ATOM     80  CG  ARG d   1     106.297 -27.180  20.726  0.00  0.00     0.011 C 
ATOM     81  H33 ARG d   1     105.865 -26.678  19.848  0.00  0.00     0.047 H 
ATOM     82  H34 ARG d   1     106.117 -26.570  21.623  0.00  0.00     0.047 H 
BRANCH  80  83
ATOM     83  CD  ARG d   1     105.611 -28.505  20.904  0.00  0.00     0.215 C 
ATOM     84  OE1 ARG d   1     106.244 -29.528  21.219  0.00  0.00    -0.274 OA
ATOM     85  NE2 ARG d   1     104.303 -28.507  20.688  0.00  0.00    -0.370 N 
ATOM     86  H35 ARG d   1     103.781 -29.354  20.788  0.00  0.00     0.159 HD
ATOM     87  H36 ARG d   1     103.838 -27.661  20.425  0.00  0.00     0.159 HD
ENDBRANCH  80  83
ENDBRANCH  77  80
ENDBRANCH  25  77
ENDBRANCH  22  25
ENDBRANCH  19  21
BRANCH  19  88
ATOM     88  CB  ARG d   1     107.641 -21.337  20.207  0.00  0.00    -0.035 C 
ATOM     89  H39 ARG d   1     107.430 -20.421  20.778  0.00  0.00     0.037 H 
ATOM     90  H40 ARG d   1     107.031 -21.347  19.291  0.00  0.00     0.037 H 
BRANCH  88  91
ATOM     91  CG  ARG d   1     109.112 -21.303  19.792  0.00  0.00    -0.059 C 
ATOM     92  H41 ARG d   1     109.345 -22.246  19.275  0.00  0.00     0.038 H 
BRANCH  91  93
ATOM     93  CD1 ARG d   1     109.356 -20.168  18.837  0.00  0.00    -0.073 C 
ATOM     94  H42 ARG d   1     110.417 -20.155  18.547  0.00  0.00     0.028 H 
ATOM     95  H43 ARG d   1     109.097 -19.216  19.325  0.00  0.00     0.028 H 
ATOM     96  H44 ARG d   1     108.732 -20.302  17.941  0.00  0.00     0.028 H 
ENDBRANCH  91  93
BRANCH  91  97
ATOM     97  CD2 ARG d   1     110.030 -21.190  21.013  0.00  0.00    -0.073 C 
ATOM     98  H45 ARG d   1     109.835 -22.029  21.697  0.00  0.00     0.028 H 
ATOM     99  H46 ARG d   1     109.834 -20.240  21.532  0.00  0.00     0.028 H 
ATOM    100  H47 ARG d   1     111.080 -21.220  20.686  0.00  0.00     0.028 H 
ENDBRANCH  91  97
ENDBRANCH  88  91
ENDBRANCH  19  88
ENDBRANCH  16  19
ENDBRANCH  13  15
BRANCH  13 101
ATOM    101  CB  ARG d   1     103.881 -22.933  24.472  0.00  0.00    -0.030 C 
ATOM    102  H50 ARG d   1     102.822 -23.034  24.753  0.00  0.00     0.037 H 
ATOM    103  H51 ARG d   1     104.361 -22.180  25.114  0.00  0.00     0.037 H 
BRANCH 101 104
ATOM    104  CG  ARG d   1     104.577 -24.296  24.729  0.00  0.00    -0.021 C 
ATOM    105  H52 ARG d   1     104.292 -24.629  25.738  0.00  0.00     0.049 H 
ATOM    106  H53 ARG d   1     105.663 -24.125  24.693  0.00  0.00     0.049 H 
BRANCH 104 107
ATOM    107  SD  ARG d   1     104.197 -25.649  23.579  0.00  0.00    -0.173 SA
BRANCH 107 108
ATOM    108  CE  ARG d   1     102.516 -26.087  24.058  0.00  0.00    -0.035 C 
ATOM    109  H54 ARG d   1     102.158 -26.913  23.425  0.00  0.00     0.041 H 
ATOM    110  H55 ARG d   1     101.859 -25.214  23.929  0.00  0.00     0.041 H 
ATOM    111  H56 ARG d   1     102.505 -26.401  25.112  0.00  0.00     0.041 H 
ENDBRANCH 107 108
ENDBRANCH 104 107
ENDBRANCH 101 104
ENDBRANCH  13 101
ENDBRANCH  10  13
ENDBRANCH   7   9
BRANCH   7 112
ATOM    112  CB  ARG d   1     100.728 -19.750  20.888  0.00  0.00     0.060 C 
ATOM    113  H59 ARG d   1      99.897 -19.033  20.817  0.00  0.00     0.086 H 
BRANCH 112 114
ATOM    114  OG1 ARG d   1     100.340 -20.989  20.266  0.00  0.00    -0.393 OA
ATOM    115  H60 ARG d   1      99.564 -21.329  20.696  0.00  0.00     0.210 HD
ENDBRANCH 112 114
BRANCH 112 116
ATOM    116  CG2 ARG d   1     101.907 -19.187  20.161  0.00  0.00    -0.050 C 
ATOM    117  H61 ARG d   1     101.642 -19.022  19.106  0.00  0.00     0.031 H 
ATOM    118  H62 ARG d   1     102.747 -19.894  20.222  0.00  0.00     0.031 H 
ATOM    119  H63 ARG d   1     102.199 -18.231  20.620  0.00  0.00     0.031 H 
ENDBRANCH 112 116
ENDBRANCH   7 112
ENDBRANCH   4   7
ENDBRANCH   1   3
BRANCH   1 120
ATOM    120  C   ARG d   1      96.790 -19.071  22.869  0.00  0.00     0.241 C 
ATOM    121  O   ARG d   1      97.022 -18.263  21.966  0.00  0.00    -0.271 OA
ATOM    122  N   ARG d   1      95.753 -19.900  22.833  0.00  0.00    -0.346 N 
ATOM    123  H77 ARG d   1      95.637 -20.586  23.552  0.00  0.00     0.163 HD
BRANCH 122 124
ATOM    124  CA  ARG d   1      94.787 -19.813  21.752  0.00  0.00     0.086 C 
ATOM    125  H78 ARG d   1      95.327 -19.720  20.798  0.00  0.00     0.086 H 
BRANCH 124 126
ATOM    126  C   ARG d   1      93.945 -18.575  21.964  0.00  0.00     0.240 C 
ATOM    127  O   ARG d   1      93.629 -18.209  23.098  0.00  0.00    -0.271 OA
ATOM    128  N   ARG d   1      93.666 -17.880  20.873  0.00  0.00    -0.346 N 
ATOM    129  H82 ARG d   1      93.995 -18.226  19.994  0.00  0.00     0.163 HD
BRANCH 128 130
ATOM    130  CA  ARG d   1      92.905 -16.637  20.884  0.00  0.00     0.086 C 
ATOM    131  H83 ARG d   1      92.897 -16.220  21.902  0.00  0.00     0.086 H 
BRANCH 130 132
ATOM    132  C   ARG d   1      91.488 -16.942  20.447  0.00  0.00     0.240 C 
ATOM    133  O   ARG d   1      91.291 -17.608  19.422  0.00  0.00    -0.271 OA
ATOM    134  N   ARG d   1      90.507 -16.448  21.206  0.00  0.00    -0.346 N 
ATOM    135  H87 ARG d   1      90.735 -15.873  21.991  0.00  0.00     0.163 HD
BRANCH 134 136
ATOM    136  CA  ARG d   1      89.110 -16.734  20.908  0.00  0.00     0.089 C 
ATOM    137  H88 ARG d   1      89.007 -16.855  19.820  0.00  0.00     0.087 H 
BRANCH 136 138
ATOM    138  C   ARG d   1      88.204 -15.587  21.350  0.00  0.00     0.241 C 
ATOM    139  O   ARG d   1      88.262 -15.147  22.501  0.00  0.00    -0.271 OA
ATOM    140  N   ARG d   1      87.355 -15.125  20.433  0.00  0.00    -0.346 N 
ATOM    141 0H10 ARG d   1      87.472 -15.392  19.477  0.00  0.00     0.163 HD
BRANCH 140 142
ATOM    142  CA  ARG d   1      86.256 -14.235  20.799  0.00  0.00     0.089 C 
ATOM    143 1H10 ARG d   1      86.672 -13.349  21.300  0.00  0.00     0.087 H 
BRANCH 142 144
ATOM    144  C   ARG d   1      85.289 -14.933  21.746  0.00  0.00     0.241 C 
ATOM    145  O   ARG d   1      84.847 -16.045  21.481  0.00  0.00    -0.271 OA
ATOM    146  N   ARG d   1      84.909 -14.244  22.816  0.00  0.00    -0.344 N 
ATOM    147 3H11 ARG d   1      85.306 -13.339  22.971  0.00  0.00     0.163 HD
BRANCH 146 148
ATOM    148  CA  ARG d   1      83.939 -14.754  23.771  0.00  0.00     0.109 C 
ATOM    149 4H11 ARG d   1      83.196 -15.367  23.240  0.00  0.00     0.090 H 
BRANCH 148 150
ATOM    150  C   ARG d   1      83.229 -13.568  24.428  0.00  0.00     0.243 C 
ATOM    151  O   ARG d   1      83.867 -12.579  24.808  0.00  0.00    -0.271 OA
ATOM    152  N   ARG d   1      81.907 -13.645  24.537  0.00  0.00    -0.346 N 
ATOM    153 8H11 ARG d   1      81.422 -14.450  24.196  0.00  0.00     0.163 HD
BRANCH 152 154
ATOM    154  CA  ARG d   1      81.169 -12.557  25.152  0.00  0.00     0.086 C 
ATOM    155 9H11 ARG d   1      81.326 -11.647  24.555  0.00  0.00     0.086 H 
BRANCH 154 156
ATOM    156  C   ARG d   1      81.645 -12.302  26.584  0.00  0.00     0.243 C 
ATOM    157  O   ARG d   1      82.178 -13.192  27.259  0.00  0.00    -0.271 OA
ATOM    158  N   ARG d   1      81.385 -11.112  27.097  0.00  0.00    -0.337 N 
ATOM    159  CA  ARG d   1      81.701 -10.841  28.496  0.00  0.00     0.091 C 
ATOM    160  CD  ARG d   1      80.880  -9.918  26.400  0.00  0.00    -0.001 C 
ATOM    161  CB  ARG d   1      81.457  -9.329  28.622  0.00  0.00    -0.036 C 
ATOM    162 3H12 ARG d   1      82.755 -11.078  28.705  0.00  0.00     0.087 H 
ATOM    163  CG  ARG d   1      80.638  -8.956  27.483  0.00  0.00    -0.048 C 
ATOM    164 4H12 ARG d   1      82.413  -8.785  28.599  0.00  0.00     0.036 H 
ATOM    165 5H12 ARG d   1      80.930  -9.104  29.561  0.00  0.00     0.036 H 
ATOM    166 6H12 ARG d   1      80.908  -7.944  27.147  0.00  0.00     0.035 H 
ATOM    167 7H12 ARG d   1      79.576  -8.977  27.767  0.00  0.00     0.035 H 
ATOM    168 8H12 ARG d   1      79.948 -10.144  25.861  0.00  0.00     0.064 H 
ATOM    169 9H12 ARG d   1      81.628  -9.531  25.692  0.00  0.00     0.064 H 
BRANCH 159 170
ATOM    170  C   ARG d   1      80.820 -11.649  29.448  0.00  0.00     0.241 C 
ATOM    171  O   ARG d   1      79.708 -12.089  29.112  0.00  0.00    -0.271 OA
ATOM    172  N   ARG d   1      81.363 -11.874  30.640  0.00  0.00    -0.346 N 
ATOM    173 0H13 ARG d   1      82.268 -11.493  30.831  0.00  0.00     0.163 HD
BRANCH 172 174
ATOM    174  CA  ARG d   1      80.701 -12.652  31.685  0.00  0.00     0.086 C 
ATOM    175 1H13 ARG d   1      79.627 -12.705  31.455  0.00  0.00     0.086 H 
BRANCH 174 176
ATOM    176  C   ARG d   1      80.891 -11.968  33.031  0.00  0.00     0.240 C 
ATOM    177  O   ARG d   1      81.982 -11.471  33.345  0.00  0.00    -0.271 OA
ATOM    178  N   ARG d   1      79.820 -11.955  33.816  0.00  0.00    -0.344 N 
ATOM    179 5H13 ARG d   1      78.977 -12.366  33.468  0.00  0.00     0.163 HD
BRANCH 178 180
ATOM    180  CA  ARG d   1      79.800 -11.379  35.151  0.00  0.00     0.113 C 
ATOM    181 6H13 ARG d   1      80.662 -10.703  35.250  0.00  0.00     0.091 H 
BRANCH 180 182
ATOM    182  C   ARG d   1      79.882 -12.429  36.259  0.00  0.00     0.243 C 
ATOM    183  O   ARG d   1      80.296 -12.118  37.384  0.00  0.00    -0.271 OA
ATOM    184  N   ARG d   1      79.448 -13.652  35.982  0.00  0.00    -0.349 N 
ATOM    185 2H14 ARG d   1      79.010 -13.824  35.099  0.00  0.00     0.163 HD
BRANCH 184 186
ATOM    186  CA  ARG d   1      79.591 -14.751  36.926  0.00  0.00     0.075 C 
ATOM    187 3H14 ARG d   1      78.685 -14.817  37.547  0.00  0.00     0.080 H 
ATOM    188 4H14 ARG d   1      80.464 -14.566  37.569  0.00  0.00     0.080 H 
BRANCH 186 189
ATOM    189  C   ARG d   1      79.786 -16.067  36.177  0.00  0.00     0.191 C 
ATOM    190  O   ARG d   1      79.955 -16.056  34.945  0.00  0.00    -0.647 OA
ATOM    191  OXT ARG d   1      79.774 -17.141  36.804  0.00  0.00    -0.647 OA
ENDBRANCH 186 189
ENDBRANCH 184 186
ENDBRANCH 180 182
BRANCH 180 192
ATOM    192  CB  ARG d   1      78.505 -10.576  35.325  0.00  0.00     0.060 C 
ATOM    193 7H13 ARG d   1      78.481 -10.143  36.336  0.00  0.00     0.086 H 
BRANCH 192 194
ATOM    194  OG1 ARG d   1      77.391 -11.454  35.148  0.00  0.00    -0.393 OA
ATOM    195 8H13 ARG d   1      77.430 -12.148  35.796  0.00  0.00     0.210 HD
ENDBRANCH 192 194
BRANCH 192 196
ATOM    196  CG2 ARG d   1      78.408  -9.486  34.321  0.00  0.00    -0.050 C 
ATOM    197 9H13 ARG d   1      77.471  -8.931  34.472  0.00  0.00     0.031 H 
ATOM    198 0H14 ARG d   1      78.419  -9.917  33.309  0.00  0.00     0.031 H 
ATOM    199 1H14 ARG d   1      79.262  -8.803  34.438  0.00  0.00     0.031 H 
ENDBRANCH 192 196
ENDBRANCH 180 192
ENDBRANCH 178 180
ENDBRANCH 174 176
BRANCH 174 200
ATOM    200  CB  ARG d   1      81.253 -14.068  31.775  0.00  0.00    -0.049 C 
ATOM    201 2H13 ARG d   1      80.728 -14.616  32.571  0.00  0.00     0.030 H 
ATOM    202 3H13 ARG d   1      82.328 -14.029  32.004  0.00  0.00     0.030 H 
ATOM    203 4H13 ARG d   1      81.101 -14.582  30.815  0.00  0.00     0.030 H 
ENDBRANCH 174 200
ENDBRANCH 172 174
ENDBRANCH 159 170
ENDBRANCH 154 156
BRANCH 154 204
ATOM    204  CB  ARG d   1      79.681 -12.875  25.196  0.00  0.00    -0.049 C 
ATOM    205 0H12 ARG d   1      79.141 -12.039  25.665  0.00  0.00     0.030 H 
ATOM    206 1H12 ARG d   1      79.519 -13.791  25.783  0.00  0.00     0.030 H 
ATOM    207 2H12 ARG d   1      79.308 -13.024  24.172  0.00  0.00     0.030 H 
ENDBRANCH 154 204
ENDBRANCH 152 154
ENDBRANCH 148 150
BRANCH 148 208
ATOM    208  CB  ARG d   1      84.636 -15.622  24.808  0.00  0.00     0.044 C 
ATOM    209 5H11 ARG d   1      85.397 -15.023  25.328  0.00  0.00     0.077 H 
ATOM    210 6H11 ARG d   1      85.120 -16.471  24.303  0.00  0.00     0.077 H 
BRANCH 208 211
ATOM    211  OG  ARG d   1      83.707 -16.111  25.750  0.00  0.00    -0.398 OA
ATOM    212 7H11 ARG d   1      83.049 -16.631  25.304  0.00  0.00     0.209 HD
ENDBRANCH 208 211
ENDBRANCH 148 208
ENDBRANCH 146 148
ENDBRANCH 142 144
BRANCH 142 213
ATOM    213  CB  ARG d   1      85.487 -13.791  19.555  0.00  0.00    -0.038 C 
ATOM    214 2H10 ARG d   1      85.041 -14.679  19.083  0.00  0.00     0.036 H 
ATOM    215 3H10 ARG d   1      86.194 -13.320  18.856  0.00  0.00     0.036 H 
BRANCH 213 216
ATOM    216  CG  ARG d   1      84.345 -12.769  19.874  0.00  0.00    -0.061 C 
ATOM    217 4H10 ARG d   1      84.796 -11.806  20.154  0.00  0.00     0.033 H 
ATOM    218 5H10 ARG d   1      83.747 -13.152  20.714  0.00  0.00     0.033 H 
BRANCH 216 219
ATOM    219  CD  ARG d   1      83.425 -12.555  18.666  0.00  0.00    -0.043 C 
ATOM    220 6H10 ARG d   1      82.660 -11.806  18.920  0.00  0.00     0.035 H 
ATOM    221 7H10 ARG d   1      82.936 -13.506  18.409  0.00  0.00     0.035 H 
BRANCH 219 222
ATOM    222  CE  ARG d   1      84.232 -12.064  17.468  0.00  0.00     0.080 C 
ATOM    223 8H10 ARG d   1      84.989 -12.816  17.201  0.00  0.00     0.075 H 
ATOM    224 9H10 ARG d   1      84.731 -11.117  17.723  0.00  0.00     0.075 H 
BRANCH 222 225
ATOM    225  NZ  ARG d   1      83.321 -11.850  16.322  0.00  0.00    -0.079 N 
ATOM    226 0H11 ARG d   1      83.850 -11.525  15.528  0.00  0.00     0.274 HD
ATOM    227 1H11 ARG d   1      82.628 -11.161  16.568  0.00  0.00     0.274 HD
ATOM    228 2H11 ARG d   1      82.864 -12.718  16.089  0.00  0.00     0.274 HD
ENDBRANCH 222 225
ENDBRANCH 219 222
ENDBRANCH 216 219
ENDBRANCH 213 216
ENDBRANCH 142 213
ENDBRANCH 140 142
ENDBRANCH 136 138
BRANCH 136 229
ATOM    229  CB  ARG d   1      88.682 -18.046  21.586  0.00  0.00    -0.036 C 
ATOM    230  H89 ARG d   1      88.976 -17.997  22.645  0.00  0.00     0.036 H 
ATOM    231  H90 ARG d   1      89.214 -18.875  21.096  0.00  0.00     0.036 H 
BRANCH 229 232
ATOM    232  CG  ARG d   1      87.186 -18.335  21.520  0.00  0.00    -0.048 C 
ATOM    233  H91 ARG d   1      86.844 -18.181  20.486  0.00  0.00     0.035 H 
ATOM    234  H92 ARG d   1      86.663 -17.634  22.188  0.00  0.00     0.035 H 
BRANCH 232 235
ATOM    235  CD  ARG d   1      86.836 -19.761  21.941  0.00  0.00     0.009 C 
ATOM    236  H93 ARG d   1      87.189 -19.939  22.968  0.00  0.00     0.064 H 
ATOM    237  H94 ARG d   1      87.319 -20.476  21.258  0.00  0.00     0.064 H 
BRANCH 235 238
ATOM    238  NE  ARG d   1      85.383 -19.934  21.885  0.00  0.00    -0.227 N 
ATOM    239  CZ  ARG d   1      84.545 -19.687  22.895  0.00  0.00     0.665 C 
ATOM    240  NH1 ARG d   1      84.977 -19.288  24.077  0.00  0.00    -0.235 N 
ATOM    241  NH2 ARG d   1      83.249 -19.849  22.728  0.00  0.00    -0.235 N 
ATOM    242  H96 ARG d   1      84.305 -19.106  24.836  0.00  0.00     0.174 HD
ATOM    243  H97 ARG d   1      85.986 -19.159  24.240  0.00  0.00     0.174 HD
ATOM    244  H98 ARG d   1      82.882 -20.159  21.817  0.00  0.00     0.174 HD
ATOM    245  H99 ARG d   1      82.602 -19.665  23.508  0.00  0.00     0.174 HD
ATOM    246  H95 ARG d   1      84.977 -20.271  21.001  0.00  0.00     0.177 HD
ENDBRANCH 235 238
ENDBRANCH 232 235
ENDBRANCH 229 232
ENDBRANCH 136 229
ENDBRANCH 134 136
ENDBRANCH 130 132
BRANCH 130 247
ATOM    247  CB  ARG d   1      93.532 -15.623  19.929  0.00  0.00    -0.049 C 
ATOM    248  H84 ARG d   1      92.948 -14.691  19.948  0.00  0.00     0.030 H 
ATOM    249  H85 ARG d   1      93.534 -16.033  18.908  0.00  0.00     0.030 H 
ATOM    250  H86 ARG d   1      94.565 -15.414  20.243  0.00  0.00     0.030 H 
ENDBRANCH 130 247
ENDBRANCH 128 130
ENDBRANCH 124 126
BRANCH 124 251
ATOM    251  CB  ARG d   1      93.908 -21.065  21.689  0.00  0.00    -0.049 C 
ATOM    252  H79 ARG d   1      93.189 -20.967  20.862  0.00  0.00     0.030 H 
ATOM    253  H80 ARG d   1      93.362 -21.178  22.637  0.00  0.00     0.030 H 
ATOM    254  H81 ARG d   1      94.541 -21.949  21.522  0.00  0.00     0.030 H 
ENDBRANCH 124 251
ENDBRANCH 122 124
ENDBRANCH   1 120
BRANCH   1 255
ATOM    255  CB  ARG d   1      97.461 -18.073  25.075  0.00  0.00    -0.038 C 
ATOM    256  H66 ARG d   1      96.413 -18.136  25.403  0.00  0.00     0.036 H 
ATOM    257  H67 ARG d   1      97.631 -17.110  24.572  0.00  0.00     0.036 H 
BRANCH 255 258
ATOM    258  CG  ARG d   1      98.348 -18.139  26.295  0.00  0.00    -0.061 C 
ATOM    259  H68 ARG d   1      99.397 -18.029  25.984  0.00  0.00     0.033 H 
ATOM    260  H69 ARG d   1      98.212 -19.113  26.788  0.00  0.00     0.033 H 
BRANCH 258 261
ATOM    261  CD  ARG d   1      98.003 -17.040  27.268  0.00  0.00    -0.043 C 
ATOM    262  H70 ARG d   1      97.236 -17.398  27.970  0.00  0.00     0.035 H 
ATOM    263  H71 ARG d   1      97.618 -16.169  26.717  0.00  0.00     0.035 H 
BRANCH 261 264
ATOM    264  CE  ARG d   1      99.248 -16.643  28.037  0.00  0.00     0.080 C 
ATOM    265  H72 ARG d   1      99.973 -16.221  27.325  0.00  0.00     0.075 H 
ATOM    266  H73 ARG d   1      99.671 -17.547  28.498  0.00  0.00     0.075 H 
BRANCH 264 267
ATOM    267  NZ  ARG d   1      99.008 -15.630  29.121  0.00  0.00    -0.079 N 
ATOM    268  H74 ARG d   1      99.879 -15.419  29.583  0.00  0.00     0.274 HD
ATOM    269  H75 ARG d   1      98.354 -16.003  29.791  0.00  0.00     0.274 HD
ATOM    270  H76 ARG d   1      98.630 -14.788  28.716  0.00  0.00     0.274 HD
ENDBRANCH 264 267
ENDBRANCH 261 264
ENDBRANCH 258 261
ENDBRANCH 255 258
ENDBRANCH   1 255
TORSDOF 79
