REMARK WARNING: 32 MAX_TORS EXCEEDED!!!
REMARK  33 active torsions:
REMARK  status: ('A' for Active; 'I' for Inactive)
REMARK    1  A    between atoms: C1_1  and  N1_9 
REMARK    2  A    between atoms: C2_2  and  O2_11 
REMARK    3  A    between atoms: C3_3  and  O3_10 
REMARK    4  A    between atoms: O4_12  and  C4_4 
REMARK    5  A    between atoms: C5_5  and  C6_6 
REMARK    6  A    between atoms: C6_6  and  O6_14 
REMARK    7  A    between atoms: C7_7  and  C8_8 
REMARK       I    between atoms: N1_9  and  C7_7 
REMARK    8  A    between atoms: C1_21  and  O4_12 
REMARK    9  A    between atoms: C2_16  and  O2_22 
REMARK   10  A    between atoms: C3_17  and  O3_23 
REMARK   11  A    between atoms: O4_24  and  C4_18 
REMARK   12  A    between atoms: C5_19  and  C6_20 
REMARK   13  A    between atoms: C6_20  and  O6_26 
REMARK   14  A    between atoms: C1_41  and  O4_24 
REMARK   15  A    between atoms: O6_26  and  C1_27 
REMARK   16  A    between atoms: C2_28  and  O2_32 
REMARK   17  A    between atoms: C3_29  and  O3_33 
REMARK   18  A    between atoms: C4_30  and  O4_34 
REMARK   19  A    between atoms: C2_36  and  O2_42 
REMARK   20  A    between atoms: C3_37  and  O3_43 
REMARK   21  A    between atoms: O4_44  and  C4_38 
REMARK   22  A    between atoms: C5_39  and  C6_40 
REMARK   23  A    between atoms: C6_40  and  O6_46 
REMARK   24  A    between atoms: C1_61  and  O4_44 
REMARK   25  A    between atoms: O6_46  and  C1_47 
REMARK   26  A    between atoms: C2_48  and  O2_52 
REMARK   27  A    between atoms: C3_49  and  O3_53 
REMARK   28  A    between atoms: C4_50  and  O4_54 
REMARK   29  A    between atoms: C2_56  and  O2_62 
REMARK   30  A    between atoms: C3_57  and  O3_63 
REMARK   31  A    between atoms: C4_58  and  O4_64 
REMARK   32  A    between atoms: C5_59  and  C6_60 
REMARK   33  A    between atoms: C6_60  and  O6_66 
ROOT
ATOM      1  H15 NBG d   1      -2.634 126.156  27.442  0.00  0.00     0.094 H 
ATOM      2  H16 NBG d   1      -3.852 128.541  25.892  0.00  0.00     0.091 H 
ATOM      3  H17 NBG d   1      -2.642 128.404  28.715  0.00  0.00     0.091 H 
ATOM      4  H18 NBG d   1      -1.659 129.745  26.114  0.00  0.00     0.090 H 
ATOM      5  H21 NBG d   1      -1.731 127.654  24.923  0.00  0.00     0.133 H 
ATOM      6  C2  BGC d   1      -2.853 126.701  26.512  0.00  0.00     0.110 C 
ATOM      7  C3  BGC d   1      -3.630 127.999  26.823  0.00  0.00     0.092 C 
ATOM      8  C4  BGC d   1      -2.798 128.898  27.745  0.00  0.00     0.096 C 
ATOM      9  C5  BGC d   1      -1.481 129.178  27.040  0.00  0.00     0.089 C 
ATOM     10  C1  BGC d   1      -1.552 127.091  25.851  0.00  0.00     0.159 C 
ATOM     11  O5  BGC d   1      -0.867 127.900  26.773  0.00  0.00    -0.348 OA
ENDROOT
BRANCH   8  12
ATOM     12  O4  BGC d   1      -3.382 130.162  27.921  0.00  0.00    -0.348 OA
BRANCH  12  13
ATOM     13  C1  BGC d   1      -3.749 130.527  29.223  0.00  0.00     0.159 C 
ATOM     14  C2  BGC d   1      -3.968 132.043  29.286  0.00  0.00     0.110 C 
ATOM     15  C3  BGC d   1      -4.458 132.431  30.677  0.00  0.00     0.092 C 
ATOM     16  H33 NBG d   1      -4.708 132.358  28.536  0.00  0.00     0.094 H 
ATOM     17  C4  BGC d   1      -5.607 131.520  31.097  0.00  0.00     0.096 C 
ATOM     18  H34 NBG d   1      -3.620 132.356  31.386  0.00  0.00     0.091 H 
ATOM     19  C5  BGC d   1      -5.351 130.028  30.872  0.00  0.00     0.089 C 
ATOM     20  H35 NBG d   1      -6.508 131.819  30.541  0.00  0.00     0.091 H 
ATOM     21  O5  BGC d   1      -4.956 129.825  29.523  0.00  0.00    -0.348 OA
ATOM     22  H36 NBG d   1      -4.527 129.704  31.525  0.00  0.00     0.090 H 
ATOM     23  H39 NBG d   1      -2.961 130.241  29.935  0.00  0.00     0.133 H 
BRANCH  14  24
ATOM     24  O2  BGC d   1      -2.704 132.628  29.003  0.00  0.00    -0.388 OA
ATOM     25  H40 NBG d   1      -2.417 132.356  28.139  0.00  0.00     0.210 HD
ENDBRANCH  14  24
BRANCH  15  26
ATOM     26  O3  BGC d   1      -5.017 133.723  30.719  0.00  0.00    -0.390 OA
ATOM     27  H41 NBG d   1      -5.318 133.908  31.601  0.00  0.00     0.210 HD
ENDBRANCH  15  26
BRANCH  17  28
ATOM     28  O4  BGC d   1      -5.828 131.658  32.512  0.00  0.00    -0.348 OA
BRANCH  28  29
ATOM     29  C1  BGC d   1      -7.037 132.375  32.793  0.00  0.00     0.159 C 
ATOM     30  C2  BGC d   1      -7.286 132.195  34.257  0.00  0.00     0.110 C 
ATOM     31  C3  BGC d   1      -8.464 133.035  34.679  0.00  0.00     0.092 C 
ATOM     32  H51 NBG d   1      -6.386 132.451  34.836  0.00  0.00     0.094 H 
ATOM     33  C4  BGC d   1      -8.356 134.485  34.192  0.00  0.00     0.090 C 
ATOM     34  H52 NBG d   1      -9.357 132.623  34.186  0.00  0.00     0.091 H 
ATOM     35  C5  BGC d   1      -8.042 134.539  32.684  0.00  0.00     0.089 C 
ATOM     36  H53 NBG d   1      -7.608 135.045  34.772  0.00  0.00     0.091 H 
ATOM     37  O5  BGC d   1      -6.875 133.742  32.444  0.00  0.00    -0.348 OA
ATOM     38  H54 NBG d   1      -8.897 134.095  32.153  0.00  0.00     0.090 H 
ATOM     39  H57 NBG d   1      -7.874 131.954  32.217  0.00  0.00     0.133 H 
BRANCH  30  40
ATOM     40  O2  BGC d   1      -7.696 130.824  34.494  0.00  0.00    -0.388 OA
ATOM     41  H58 NBG d   1      -7.857 130.699  35.422  0.00  0.00     0.210 HD
ENDBRANCH  30  40
BRANCH  31  42
ATOM     42  O3  BGC d   1      -8.649 132.839  36.095  0.00  0.00    -0.390 OA
ATOM     43  H59 NBG d   1      -8.702 131.909  36.281  0.00  0.00     0.210 HD
ENDBRANCH  31  42
BRANCH  33  44
ATOM     44  O4  BGC d   1      -9.665 135.026  34.336  0.00  0.00    -0.390 OA
ATOM     45  H60 NBG d   1      -9.911 135.017  35.254  0.00  0.00     0.210 HD
ENDBRANCH  33  44
BRANCH  35  46
ATOM     46  C6  BGC d   1      -7.802 135.931  32.086  0.00  0.00     0.043 C 
ATOM     47  H55 NBG d   1      -8.741 136.317  31.663  0.00  0.00     0.078 H 
ATOM     48  H56 NBG d   1      -7.042 135.865  31.294  0.00  0.00     0.078 H 
BRANCH  46  49
ATOM     49  O6  BGC d   1      -7.342 136.815  33.122  0.00  0.00    -0.398 OA
ATOM     50  H61 NBG d   1      -8.000 136.869  33.806  0.00  0.00     0.209 HD
ENDBRANCH  46  49
ENDBRANCH  35  46
ENDBRANCH  28  29
ENDBRANCH  17  28
BRANCH  19  51
ATOM     51  C6  BGC d   1      -6.612 129.227  31.255  0.00  0.00     0.049 C 
ATOM     52  H37 NBG d   1      -6.710 129.231  32.351  0.00  0.00     0.078 H 
ATOM     53  H38 NBG d   1      -6.490 128.192  30.901  0.00  0.00     0.078 H 
BRANCH  51  54
ATOM     54  O6  BGC d   1      -7.825 129.769  30.683  0.00  0.00    -0.356 OA
BRANCH  54  55
ATOM     55  C1  XYS d   1      -7.971 129.574  29.241  0.00  0.00     0.158 C 
ATOM     56  C2  XYS d   1      -9.355 130.013  28.799  0.00  0.00     0.110 C 
ATOM     57  C3  XYS d   1     -10.423 128.969  29.222  0.00  0.00     0.091 C 
ATOM     58  H43 NBG d   1      -9.375 130.141  27.707  0.00  0.00     0.094 H 
ATOM     59  C4  XYS d   1     -10.017 127.526  28.877  0.00  0.00     0.083 C 
ATOM     60  H44 NBG d   1     -10.543 129.034  30.314  0.00  0.00     0.091 H 
ATOM     61  C5  XYS d   1      -8.650 127.244  29.485  0.00  0.00     0.049 C 
ATOM     62  H45 NBG d   1      -9.981 127.407  27.784  0.00  0.00     0.090 H 
ATOM     63  O5  XYS d   1      -7.777 128.206  28.883  0.00  0.00    -0.356 OA
ATOM     64  H46 NBG d   1      -8.323 126.221  29.246  0.00  0.00     0.078 H 
ATOM     65  H47 NBG d   1      -8.677 127.375  30.577  0.00  0.00     0.078 H 
ATOM     66  H42 NBG d   1      -7.217 130.186  28.724  0.00  0.00     0.133 H 
BRANCH  56  67
ATOM     67  O2  XYS d   1      -9.646 131.263  29.454  0.00  0.00    -0.388 OA
ATOM     68  H48 NBG d   1      -9.622 131.139  30.395  0.00  0.00     0.210 HD
ENDBRANCH  56  67
BRANCH  57  69
ATOM     69  O3  XYS d   1     -11.680 129.276  28.610  0.00  0.00    -0.390 OA
ATOM     70  H49 NBG d   1     -12.343 128.676  28.932  0.00  0.00     0.210 HD
ENDBRANCH  57  69
BRANCH  59  71
ATOM     71  O4  XYS d   1     -10.919 126.589  29.431  0.00  0.00    -0.391 OA
ATOM     72  H50 NBG d   1     -11.786 126.736  29.073  0.00  0.00     0.210 HD
ENDBRANCH  59  71
ENDBRANCH  54  55
ENDBRANCH  51  54
ENDBRANCH  19  51
ENDBRANCH  12  13
ENDBRANCH   8  12
BRANCH   7  73
ATOM     73  O3  BGC d   1      -4.824 127.605  27.443  0.00  0.00    -0.390 OA
ATOM     74  H23 NBG d   1      -5.319 127.050  26.851  0.00  0.00     0.210 HD
ENDBRANCH   7  73
BRANCH   9  75
ATOM     75  C6  BGC d   1      -0.488 129.915  27.939  0.00  0.00     0.049 C 
ATOM     76  H19 NBG d   1       0.017 129.217  28.623  0.00  0.00     0.078 H 
ATOM     77  H20 NBG d   1      -0.993 130.699  28.523  0.00  0.00     0.078 H 
BRANCH  75  78
ATOM     78  O6  BGC d   1       0.436 130.482  27.018  0.00  0.00    -0.356 OA
BRANCH  78  79
ATOM     79  C1  XYS d   1       1.683 130.808  27.573  0.00  0.00     0.158 C 
ATOM     80  C2  XYS d   1       2.154 132.015  26.767  0.00  0.00     0.110 C 
ATOM     81  C3  XYS d   1       2.427 131.558  25.334  0.00  0.00     0.091 C 
ATOM     82  H25 NBG d   1       3.097 132.375  27.205  0.00  0.00     0.094 H 
ATOM     83  C4  XYS d   1       3.365 130.367  25.343  0.00  0.00     0.083 C 
ATOM     84  H26 NBG d   1       1.498 131.326  24.792  0.00  0.00     0.091 H 
ATOM     85  C5  XYS d   1       2.651 129.271  26.116  0.00  0.00     0.049 C 
ATOM     86  H27 NBG d   1       4.292 130.635  25.872  0.00  0.00     0.090 H 
ATOM     87  O5  XYS d   1       2.595 129.728  27.450  0.00  0.00    -0.356 OA
ATOM     88  H28 NBG d   1       3.214 128.328  26.056  0.00  0.00     0.078 H 
ATOM     89  H29 NBG d   1       1.637 129.118  25.719  0.00  0.00     0.078 H 
ATOM     90  H24 NBG d   1       1.575 131.072  28.636  0.00  0.00     0.133 H 
BRANCH  80  91
ATOM     91  O2  XYS d   1       1.220 133.101  26.795  0.00  0.00    -0.388 OA
ATOM     92  H30 NBG d   1       0.400 132.822  26.404  0.00  0.00     0.210 HD
ENDBRANCH  80  91
BRANCH  81  93
ATOM     93  O3  XYS d   1       3.112 132.641  24.776  0.00  0.00    -0.390 OA
ATOM     94  H31 NBG d   1       2.542 133.401  24.760  0.00  0.00     0.210 HD
ENDBRANCH  81  93
BRANCH  83  95
ATOM     95  O4  XYS d   1       3.707 129.980  24.026  0.00  0.00    -0.391 OA
ATOM     96  H32 NBG d   1       4.284 129.226  24.058  0.00  0.00     0.210 HD
ENDBRANCH  83  95
ENDBRANCH  78  79
ENDBRANCH  75  78
ENDBRANCH   9  75
BRANCH   6  97
ATOM     97  O2  BGC d   1      -3.673 125.908  25.696  0.00  0.00    -0.388 OA
ATOM     98  H22 NBG d   1      -3.886 126.386  24.903  0.00  0.00     0.210 HD
ENDBRANCH   6  97
BRANCH  10  99
ATOM     99  O4  NBG d   1      -0.877 125.887  25.557  0.00  0.00    -0.348 OA
BRANCH  99 100
ATOM    100  C4  NBG d   1       0.195 126.046  24.602  0.00  0.00     0.096 C 
ATOM    101  C3  NBG d   1       1.491 125.366  25.116  0.00  0.00     0.092 C 
ATOM    102  C2  NBG d   1       2.643 125.564  24.164  0.00  0.00     0.104 C 
ATOM    103  H3  NBG d   1       1.297 124.286  25.192  0.00  0.00     0.091 H 
ATOM    104  C1  NBG d   1       2.257 125.310  22.714  0.00  0.00     0.133 C 
ATOM    105  H2  NBG d   1       2.978 126.608  24.247  0.00  0.00     0.093 H 
ATOM    106  O5  NBG d   1       0.961 125.853  22.372  0.00  0.00    -0.354 OA
ATOM    107  H1  NBG d   1       2.249 124.216  22.603  0.00  0.00     0.122 H 
ATOM    108  C5  NBG d   1      -0.109 125.462  23.233  0.00  0.00     0.089 C 
ATOM    109  H5  NBG d   1      -0.118 124.367  23.334  0.00  0.00     0.090 H 
ATOM    110  H4  NBG d   1       0.380 127.124  24.484  0.00  0.00     0.091 H 
BRANCH 101 111
ATOM    111  O3  NBG d   1       1.842 125.856  26.440  0.00  0.00    -0.390 OA
ATOM    112  H12 NBG d   1       1.135 125.665  27.045  0.00  0.00     0.210 HD
ENDBRANCH 101 111
BRANCH 102 113
ATOM    113  O2  NBG d   1       3.728 124.704  24.545  0.00  0.00    -0.389 OA
ATOM    114  H13 NBG d   1       3.440 123.799  24.512  0.00  0.00     0.210 HD
ENDBRANCH 102 113
BRANCH 104 115
ATOM    115  N1  NBG d   1       3.004 125.869  21.605  0.00  0.00    -0.333 N 
ATOM    116  C7  NBG d   1       3.607 125.120  20.692  0.00  0.00     0.215 C 
ATOM    117  O7  NBG d   1       3.699 123.893  20.805  0.00  0.00    -0.274 OA
ATOM    118  H11 NBG d   1       3.067 126.864  21.525  0.00  0.00     0.165 HD
BRANCH 116 119
ATOM    119  C8  NBG d   1       4.210 125.833  19.492  0.00  0.00    -0.003 C 
ATOM    120  H8  NBG d   1       4.674 125.094  18.822  0.00  0.00     0.040 H 
ATOM    121  H9  NBG d   1       4.973 126.547  19.835  0.00  0.00     0.040 H 
ATOM    122  H10 NBG d   1       3.419 126.373  18.951  0.00  0.00     0.040 H 
ENDBRANCH 116 119
ENDBRANCH 104 115
BRANCH 108 123
ATOM    123  C6  NBG d   1      -1.404 125.863  22.576  0.00  0.00     0.043 C 
ATOM    124  H6  NBG d   1      -2.258 125.471  23.148  0.00  0.00     0.078 H 
ATOM    125  H7  NBG d   1      -1.444 125.477  21.547  0.00  0.00     0.078 H 
BRANCH 123 126
ATOM    126  O6  NBG d   1      -1.426 127.270  22.570  0.00  0.00    -0.398 OA
ATOM    127  H14 NBG d   1      -0.680 127.595  22.080  0.00  0.00     0.209 HD
ENDBRANCH 123 126
ENDBRANCH 108 123
ENDBRANCH  99 100
ENDBRANCH  10  99
TORSDOF 33
