REMARK  6 active torsions:
REMARK  status: ('A' for Active; 'I' for Inactive)
REMARK    1  A    between atoms: C6_7  and  N11_12 
REMARK    2  A    between atoms: N7_8  and  C8_9 
REMARK    3  A    between atoms: C8_9  and  C9_10 
REMARK    4  A    between atoms: C8_9  and  C10_11 
REMARK    5  A    between atoms: N11_12  and  C12_13 
REMARK    6  A    between atoms: C12_13  and  C13_14 
ROOT
ATOM      1  N1  ATZ d   1     132.136  70.930  -2.679  0.00  0.00    -0.030 NA
ATOM      2  C2  ATZ d   1     131.649  69.803  -2.203  0.00  0.00     0.259 A 
ATOM      3 CL2  ATZ d   1     131.214  69.875  -0.511  0.00  0.00    -0.040 Cl
ATOM      4  N3  ATZ d   1     131.449  68.626  -2.789  0.00  0.00    -0.030 NA
ATOM      5  C4  ATZ d   1     131.842  68.652  -4.105  0.00  0.00     0.741 A 
ATOM      6  N5  ATZ d   1     132.355  69.710  -4.736  0.00  0.00     0.130 NA
ATOM      7  C6  ATZ d   1     132.480  70.813  -3.995  0.00  0.00     0.741 A 
ATOM      8  N7  ATZ d   1     131.717  67.520  -4.842  0.00  0.00    -0.218 N 
ATOM      9  H   ATZ d   1     132.035  67.594  -5.819  0.00  0.00     0.178 HD
ENDROOT
BRANCH   8  10
ATOM     10  C8  ATZ d   1     131.196  66.210  -4.452  0.00  0.00     0.019 C 
ATOM     11  H   ATZ d   1     131.495  65.517  -5.253  0.00  0.00     0.072 H 
BRANCH  10  12
ATOM     12  C9  ATZ d   1     131.854  65.647  -3.175  0.00  0.00    -0.057 C 
ATOM     13  H   ATZ d   1     131.418  64.665  -2.940  0.00  0.00     0.030 H 
ATOM     14  H   ATZ d   1     131.677  66.337  -2.337  0.00  0.00     0.030 H 
ATOM     15  H   ATZ d   1     132.936  65.538  -3.338  0.00  0.00     0.030 H 
ENDBRANCH  10  12
BRANCH  10  16
ATOM     16  C10 ATZ d   1     129.691  66.209  -4.466  0.00  0.00    -0.057 C 
ATOM     17  H   ATZ d   1     129.322  65.216  -4.170  0.00  0.00     0.030 H 
ATOM     18  H   ATZ d   1     129.334  66.446  -5.479  0.00  0.00     0.030 H 
ATOM     19  H   ATZ d   1     129.317  66.964  -3.759  0.00  0.00     0.030 H 
ENDBRANCH  10  16
ENDBRANCH   8  10
BRANCH   7  20
ATOM     20  N11 ATZ d   1     132.992  71.922  -4.577  0.00  0.00    -0.222 N 
ATOM     21  H   ATZ d   1     133.254  71.851  -5.571  0.00  0.00     0.177 HD
BRANCH  20  22
ATOM     22  C12 ATZ d   1     133.207  73.208  -3.926  0.00  0.00     0.006 C 
ATOM     23  H   ATZ d   1     133.860  73.079  -3.050  0.00  0.00     0.064 H 
ATOM     24  H   ATZ d   1     132.243  73.631  -3.606  0.00  0.00     0.064 H 
BRANCH  22  25
ATOM     25  C13 ATZ d   1     133.853  74.113  -4.906  0.00  0.00    -0.061 C 
ATOM     26  H   ATZ d   1     134.027  75.094  -4.440  0.00  0.00     0.029 H 
ATOM     27  H   ATZ d   1     133.197  74.234  -5.781  0.00  0.00     0.029 H 
ATOM     28  H   ATZ d   1     134.814  73.683  -5.225  0.00  0.00     0.029 H 
ENDBRANCH  22  25
ENDBRANCH  20  22
ENDBRANCH   7  20
TORSDOF 6
