REMARK  5 active torsions:
REMARK  status: ('A' for Active; 'I' for Inactive)
REMARK    1  A    between atoms: C11_8  and  C8_18 
REMARK    2  A    between atoms: C9_19  and  C12_9 
REMARK    3  A    between atoms: C1_11  and  C6_16 
REMARK    4  A    between atoms: C2_12  and  C10_20 
REMARK       I    between atoms: C6_16  and  N18_24 
REMARK    5  A    between atoms: N18_24  and  C29_29 
ROOT
ATOM      1  C17 MOL d   1      18.141   7.501  74.383  0.00  0.00    -0.070 A 
ATOM      2  C1  MOL d   1      17.752  10.740  71.748  0.00  0.00     0.079 A 
ATOM      3  C2  MOL d   1      17.702  11.703  72.714  0.00  0.00     0.103 A 
ATOM      4  C3  MOL d   1      17.976   9.473  72.439  0.00  0.00     0.017 A 
ATOM      5  O4  MOL d   1      17.863  11.152  73.974  0.00  0.00    -0.308 OA
ATOM      6  C5  MOL d   1      18.009   9.790  73.789  0.00  0.00     0.087 A 
ATOM      7  C7  MOL d   1      18.084   8.134  72.057  0.00  0.00    -0.059 A 
ATOM      8  C9  MOL d   1      18.130   7.127  73.031  0.00  0.00    -0.025 A 
ATOM      9  C14 MOL d   1      18.109   8.830  74.776  0.00  0.00    -0.049 A 
ATOM     10  H2  MOL d   1      18.175   6.728  75.142  0.00  0.00     0.085 H 
ATOM     11  H8  MOL d   1      18.132   7.873  71.006  0.00  0.00     0.086 H 
ATOM     12  H9  MOL d   1      18.161   9.106  75.823  0.00  0.00     0.087 H 
ENDROOT
BRANCH   8  13
ATOM     13  C12 MOL d   1      18.049   5.691  72.640  0.00  0.00    -0.025 A 
ATOM     14  C13 MOL d   1      18.691   4.712  73.407  0.00  0.00    -0.056 A 
ATOM     15  C11 MOL d   1      18.504   3.353  73.150  0.00  0.00     0.041 A 
ATOM     16  H1  MOL d   1      19.346   5.015  74.216  0.00  0.00     0.086 H 
ATOM     17  C26 MOL d   1      17.692   2.970  72.084  0.00  0.00    -0.066 A 
ATOM     18  C28 MOL d   1      17.074   3.927  71.297  0.00  0.00    -0.081 A 
ATOM     19  H11 MOL d   1      17.544   1.918  71.870  0.00  0.00     0.085 H 
ATOM     20  C27 MOL d   1      17.246   5.275  71.572  0.00  0.00    -0.072 A 
ATOM     21  H12 MOL d   1      16.453   3.621  70.463  0.00  0.00     0.083 H 
ATOM     22  H7  MOL d   1      16.753   6.015  70.953  0.00  0.00     0.084 H 
BRANCH  15  23
ATOM     23  C8  MOL d   1      19.142   2.321  74.028  0.00  0.00     0.209 C 
ATOM     24  O16 MOL d   1      19.047   1.119  73.785  0.00  0.00    -0.644 OA
ATOM     25  O21 MOL d   1      19.820   2.783  75.054  0.00  0.00    -0.644 OA
ENDBRANCH  15  23
ENDBRANCH   8  13
BRANCH   2  26
ATOM     26  C6  MOL d   1      17.629  10.897  70.287  0.00  0.00     0.255 C 
ATOM     27  O15 MOL d   1      18.604  10.720  69.569  0.00  0.00    -0.268 OA
ATOM     28  N18 MOL d   1      16.430  11.239  69.819  0.00  0.00    -0.361 N 
ATOM     29  H10 MOL d   1      15.685  11.395  70.468  0.00  0.00     0.162 HD
BRANCH  28  30
ATOM     30  C29 MOL d   1      16.166  11.394  68.397  0.00  0.00    -0.018 C 
ATOM     31  H13 MOL d   1      15.114  11.678  68.248  0.00  0.00     0.056 H 
ATOM     32  H14 MOL d   1      16.365  10.443  67.881  0.00  0.00     0.056 H 
ATOM     33  H15 MOL d   1      16.819  12.178  67.986  0.00  0.00     0.056 H 
ENDBRANCH  28  30
ENDBRANCH   2  26
BRANCH   3  34
ATOM     34  C10 MOL d   1      17.504  13.160  72.700  0.00  0.00    -0.001 A 
ATOM     35  C19 MOL d   1      17.639  13.877  71.512  0.00  0.00    -0.067 A 
ATOM     36  C23 MOL d   1      17.403  15.239  71.471  0.00  0.00    -0.045 A 
ATOM     37  H3  MOL d   1      17.933  13.359  70.606  0.00  0.00     0.085 H 
ATOM     38  C22 MOL d   1      17.079  15.877  72.635  0.00  0.00     0.116 A 
ATOM     39  H5  MOL d   1      17.473  15.787  70.538  0.00  0.00     0.088 H 
ATOM     40  C24 MOL d   1      16.927  15.218  73.829  0.00  0.00    -0.045 A 
ATOM     41  F25 MOL d   1      16.952  17.231  72.616  0.00  0.00    -0.206 F 
ATOM     42  C20 MOL d   1      17.139  13.849  73.855  0.00  0.00    -0.067 A 
ATOM     43  H6  MOL d   1      16.648  15.755  74.729  0.00  0.00     0.088 H 
ATOM     44  H4  MOL d   1      17.019  13.307  74.786  0.00  0.00     0.085 H 
ENDBRANCH   3  34
TORSDOF 5
