REMARK  9 active torsions:
REMARK  status: ('A' for Active; 'I' for Inactive)
REMARK    1  A    between atoms: C13_1  and  C1_13 
REMARK    2  A    between atoms: C16_4  and  C20_6 
REMARK    3  A    between atoms: C16_4  and  C21_7 
REMARK    4  A    between atoms: C16_4  and  C22_8 
REMARK    5  A    between atoms: N11_23  and  C16_4 
REMARK    6  A    between atoms: C8_20  and  C23_9 
REMARK    7  A    between atoms: C9_21  and  C24_10 
REMARK       I    between atoms: C24_10  and  N26_27 
REMARK    8  A    between atoms: C10_22  and  C12_11 
REMARK    9  A    between atoms: N26_27  and  C27_12 
REMARK       I    between atoms: C10_22  and  N11_23 
ROOT
ATOM      1  C1  8XP d   1      24.596   8.473  14.541  0.00  0.00    -0.025 A 
ATOM      2  C2  8XP d   1      24.854   8.890  13.226  0.00  0.00    -0.070 A 
ATOM      3  C3  8XP d   1      26.055   9.479  12.864  0.00  0.00    -0.049 A 
ATOM      4  C4  8XP d   1      27.001   9.658  13.854  0.00  0.00     0.087 A 
ATOM      5  C5  8XP d   1      26.808   9.233  15.161  0.00  0.00     0.017 A 
ATOM      6  C6  8XP d   1      25.603   8.623  15.504  0.00  0.00    -0.059 A 
ATOM      7  O7  8XP d   1      28.213  10.315  13.728  0.00  0.00    -0.308 OA
ATOM      8  C8  8XP d   1      28.800  10.294  14.981  0.00  0.00     0.103 A 
ATOM      9  C9  8XP d   1      28.004   9.649  15.885  0.00  0.00     0.079 A 
ATOM     10  H16 8XP d   1      24.090   8.747  12.470  0.00  0.00     0.085 H 
ATOM     11  H17 8XP d   1      26.245   9.788  11.842  0.00  0.00     0.087 H 
ATOM     12  H18 8XP d   1      25.445   8.265  16.515  0.00  0.00     0.086 H 
ENDROOT
BRANCH   1  13
ATOM     13  C13 8XP d   1      23.234   8.022  14.943  0.00  0.00    -0.025 A 
ATOM     14  C18 8XP d   1      23.042   6.931  15.796  0.00  0.00    -0.072 A 
ATOM     15  C19 8XP d   1      21.762   6.552  16.181  0.00  0.00    -0.081 A 
ATOM     16  H1  8XP d   1      23.899   6.376  16.160  0.00  0.00     0.084 H 
ATOM     17  C17 8XP d   1      20.655   7.251  15.720  0.00  0.00    -0.068 A 
ATOM     18  H3  8XP d   1      21.627   5.706  16.845  0.00  0.00     0.083 H 
ATOM     19  C12 8XP d   1      20.819   8.320  14.840  0.00  0.00     0.032 A 
ATOM     20  H2  8XP d   1      19.661   6.965  16.045  0.00  0.00     0.085 H 
ATOM     21  C14 8XP d   1      22.109   8.706  14.473  0.00  0.00    -0.057 A 
ATOM     22  H20 8XP d   1      22.241   9.553  13.810  0.00  0.00     0.086 H 
BRANCH  19  23
ATOM     23  C10 8XP d   1      19.705   9.115  14.219  0.00  0.00     0.252 C 
ATOM     24  N11 8XP d   1      18.493   8.530  14.090  0.00  0.00    -0.349 N 
ATOM     25  H19 8XP d   1      18.413   7.580  14.393  0.00  0.00     0.163 HD
ATOM     26  O15 8XP d   1      19.900  10.265  13.827  0.00  0.00    -0.268 OA
BRANCH  24  27
ATOM     27  C16 8XP d   1      17.269   9.169  13.539  0.00  0.00     0.022 C 
BRANCH  27  28
ATOM     28  C20 8XP d   1      17.559   9.656  12.121  0.00  0.00    -0.054 C 
ATOM     29  H4  8XP d   1      16.658  10.131  11.705  0.00  0.00     0.030 H 
ATOM     30  H5  8XP d   1      17.847   8.801  11.491  0.00  0.00     0.030 H 
ATOM     31  H6  8XP d   1      18.381  10.387  12.145  0.00  0.00     0.030 H 
ENDBRANCH  27  28
BRANCH  27  32
ATOM     32  C21 8XP d   1      16.146   8.134  13.515  0.00  0.00    -0.054 C 
ATOM     33  H7  8XP d   1      15.944   7.789  14.540  0.00  0.00     0.030 H 
ATOM     34  H8  8XP d   1      16.449   7.279  12.893  0.00  0.00     0.030 H 
ATOM     35  H9  8XP d   1      15.237   8.589  13.095  0.00  0.00     0.030 H 
ENDBRANCH  27  32
BRANCH  27  36
ATOM     36  C22 8XP d   1      16.875  10.348  14.427  0.00  0.00    -0.054 C 
ATOM     37  H10 8XP d   1      17.689  11.087  14.438  0.00  0.00     0.030 H 
ATOM     38  H11 8XP d   1      16.691   9.991  15.451  0.00  0.00     0.030 H 
ATOM     39  H12 8XP d   1      15.961  10.815  14.032  0.00  0.00     0.030 H 
ENDBRANCH  27  36
ENDBRANCH  24  27
ENDBRANCH  19  23
ENDBRANCH   1  13
BRANCH   9  40
ATOM     40  C24 8XP d   1      28.220   9.416  17.334  0.00  0.00     0.255 C 
ATOM     41  O25 8XP d   1      27.446   9.886  18.167  0.00  0.00    -0.268 OA
ATOM     42  N26 8XP d   1      29.289   8.688  17.647  0.00  0.00    -0.361 N 
ATOM     43  H21 8XP d   1      29.799   8.239  16.913  0.00  0.00     0.162 HD
BRANCH  42  44
ATOM     44  C27 8XP d   1      29.743   8.523  19.022  0.00  0.00    -0.018 C 
ATOM     45  H13 8XP d   1      30.639   7.885  19.038  0.00  0.00     0.056 H 
ATOM     46  H14 8XP d   1      28.947   8.053  19.617  0.00  0.00     0.056 H 
ATOM     47  H15 8XP d   1      29.987   9.507  19.448  0.00  0.00     0.056 H 
ENDBRANCH  42  44
ENDBRANCH   9  40
BRANCH   8  48
ATOM     48  C23 8XP d   1      30.060  11.036  15.081  0.00  0.00    -0.001 A 
ATOM     49  C28 8XP d   1      30.823  11.325  13.947  0.00  0.00    -0.067 A 
ATOM     50  C29 8XP d   1      31.980  12.080  14.045  0.00  0.00    -0.045 A 
ATOM     51  H22 8XP d   1      30.506  10.954  12.979  0.00  0.00     0.085 H 
ATOM     52  C30 8XP d   1      32.357  12.535  15.282  0.00  0.00     0.116 A 
ATOM     53  H23 8XP d   1      32.572  12.306  13.166  0.00  0.00     0.088 H 
ATOM     54  C31 8XP d   1      31.664  12.243  16.425  0.00  0.00    -0.045 A 
ATOM     55  F33 8XP d   1      33.403  13.393  15.367  0.00  0.00    -0.206 F 
ATOM     56  C32 8XP d   1      30.503  11.502  16.321  0.00  0.00    -0.067 A 
ATOM     57  H24 8XP d   1      32.018  12.585  17.391  0.00  0.00     0.088 H 
ATOM     58  H25 8XP d   1      29.928  11.279  17.213  0.00  0.00     0.085 H 
ENDBRANCH   8  48
TORSDOF 9
