REMARK  7 active torsions:
REMARK  status: ('A' for Active; 'I' for Inactive)
REMARK    1  A    between atoms: C13_1  and  C6_16 
REMARK    2  A    between atoms: C17_3  and  N21_25 
REMARK    3  A    between atoms: C15_4  and  C14_23 
REMARK       I    between atoms: N21_25  and  C15_4 
REMARK       I    between atoms: N33_34  and  C34_9 
REMARK    4  A    between atoms: C34_9  and  O36_36 
REMARK    5  A    between atoms: C7_17  and  N8_18 
REMARK    6  A    between atoms: C30_31  and  N33_34 
REMARK    7  A    between atoms: O36_36  and  C37_37 
ROOT
ATOM      1  C18 9EY d   1      39.321 -22.069  27.768  0.00  0.00    -0.039 C 
ATOM      2  C17 9EY d   1      39.741 -20.911  28.695  0.00  0.00     0.070 C 
ATOM      3  C19 9EY d   1      40.110 -23.399  28.028  0.00  0.00    -0.062 C 
ATOM      4  C20 9EY d   1      40.192 -23.891  29.503  0.00  0.00    -0.057 C 
ATOM      5  C22 9EY d   1      41.235 -20.763  28.670  0.00  0.00     0.127 A 
ATOM      6  C24 9EY d   1      43.268 -20.674  27.874  0.00  0.00     0.007 A 
ATOM      7  C27 9EY d   1      44.376 -21.418  30.109  0.00  0.00     0.021 A 
ATOM      8  N23 9EY d   1      41.953 -20.534  27.551  0.00  0.00    -0.350 N 
ATOM      9  C25 9EY d   1      43.299 -20.992  29.203  0.00  0.00     0.086 A 
ATOM     10  N26 9EY d   1      42.015 -21.022  29.699  0.00  0.00    -0.231 NA
ATOM     11  C28 9EY d   1      45.547 -20.655  30.160  0.00  0.00    -0.066 A 
ATOM     12  C29 9EY d   1      46.571 -20.981  31.031  0.00  0.00    -0.056 A 
ATOM     13  C30 9EY d   1      46.441 -22.072  31.891  0.00  0.00     0.039 A 
ATOM     14  C31 9EY d   1      45.292 -22.860  31.827  0.00  0.00    -0.030 A 
ATOM     15  C32 9EY d   1      44.262 -22.555  30.947  0.00  0.00     0.049 A 
ATOM     16  C38 9EY d   1      41.399 -24.781  29.835  0.00  0.00     0.010 C 
ATOM     17  C39 9EY d   1      42.735 -24.066  29.741  0.00  0.00     0.222 C 
ATOM     18  N40 9EY d   1      43.116 -23.402  30.858  0.00  0.00    -0.326 N 
ATOM     19  O41 9EY d   1      43.389 -24.049  28.700  0.00  0.00    -0.273 OA
ATOM     20  H2  9EY d   1      39.493 -21.761  26.726  0.00  0.00     0.036 H 
ATOM     21  H3  9EY d   1      38.249 -22.265  27.920  0.00  0.00     0.036 H 
ATOM     22  H4  9EY d   1      39.473 -21.216  29.717  0.00  0.00     0.085 H 
ATOM     23  H5  9EY d   1      41.139 -23.251  27.669  0.00  0.00     0.033 H 
ATOM     24  H6  9EY d   1      39.627 -24.193  27.439  0.00  0.00     0.033 H 
ATOM     25  H7  9EY d   1      39.278 -24.463  29.721  0.00  0.00     0.033 H 
ATOM     26  H8  9EY d   1      40.234 -23.006  30.154  0.00  0.00     0.033 H 
ATOM     27  H9  9EY d   1      44.122 -20.556  27.209  0.00  0.00     0.115 H 
ATOM     28  H16 9EY d   1      41.575 -20.297  26.622  0.00  0.00     0.166 HD
ATOM     29  H17 9EY d   1      45.654 -19.796  29.508  0.00  0.00     0.085 H 
ATOM     30  H18 9EY d   1      47.477 -20.387  31.046  0.00  0.00     0.086 H 
ATOM     31  H19 9EY d   1      45.202 -23.724  32.475  0.00  0.00     0.090 H 
ATOM     32  H24 9EY d   1      41.409 -25.627  29.132  0.00  0.00     0.047 H 
ATOM     33  H25 9EY d   1      41.279 -25.158  30.861  0.00  0.00     0.047 H 
ATOM     34  H26 9EY d   1      42.555 -23.513  31.678  0.00  0.00     0.169 HD
ENDROOT
BRANCH   2  35
ATOM     35  N21 9EY d   1      39.020 -19.659  28.453  0.00  0.00    -0.346 N 
ATOM     36  C15 9EY d   1      39.027 -18.706  29.413  0.00  0.00     0.241 C 
ATOM     37  O16 9EY d   1      39.683 -18.836  30.456  0.00  0.00    -0.269 OA
ATOM     38  H15 9EY d   1      38.531 -19.511  27.593  0.00  0.00     0.163 HD
BRANCH  36  39
ATOM     39  C14 9EY d   1      38.270 -17.468  29.117  0.00  0.00    -0.017 C 
ATOM     40  C13 9EY d   1      37.710 -17.067  27.977  0.00  0.00    -0.066 C 
ATOM     41  H1  9EY d   1      37.785 -17.727  27.114  0.00  0.00     0.085 H 
ATOM     42  H14 9EY d   1      38.154 -16.784  29.956  0.00  0.00     0.092 H 
BRANCH  40  43
ATOM     43  C6  9EY d   1      36.997 -15.791  27.807  0.00  0.00    -0.005 A 
ATOM     44  C5  9EY d   1      35.876 -15.549  28.622  0.00  0.00    -0.050 A 
ATOM     45  C4  9EY d   1      35.219 -14.334  28.542  0.00  0.00     0.035 A 
ATOM     46  H12 9EY d   1      35.529 -16.311  29.310  0.00  0.00     0.087 H 
ATOM     47 CL1  9EY d   1      33.822 -14.050  29.558  0.00  0.00    -0.084 Cl
ATOM     48  C3  9EY d   1      35.641 -13.341  27.681  0.00  0.00    -0.060 A 
ATOM     49  C2  9EY d   1      36.757 -13.561  26.884  0.00  0.00    -0.053 A 
ATOM     50  H11 9EY d   1      35.107 -12.399  27.628  0.00  0.00     0.086 H 
ATOM     51  C7  9EY d   1      37.429 -14.781  26.931  0.00  0.00     0.071 A 
ATOM     52  H10 9EY d   1      37.108 -12.778  26.221  0.00  0.00     0.087 H 
BRANCH  51  53
ATOM     53  N8  9EY d   1      38.533 -14.995  26.048  0.00  0.00    -0.205 N 
ATOM     54  C9  9EY d   1      38.633 -14.960  24.714  0.00  0.00     0.113 A 
ATOM     55  N10 9EY d   1      39.852 -15.255  24.357  0.00  0.00    -0.122 NA
ATOM     56  H13 9EY d   1      37.820 -14.721  24.030  0.00  0.00     0.149 H 
ATOM     57  N11 9EY d   1      40.528 -15.472  25.512  0.00  0.00    -0.023 NA
ATOM     58  N12 9EY d   1      39.750 -15.324  26.538  0.00  0.00    -0.040 NA
ENDBRANCH  51  53
ENDBRANCH  40  43
ENDBRANCH  36  39
ENDBRANCH   2  35
BRANCH  13  59
ATOM     59  N33 9EY d   1      47.445 -22.497  32.800  0.00  0.00    -0.303 N 
ATOM     60  C34 9EY d   1      48.738 -22.078  32.853  0.00  0.00     0.364 C 
ATOM     61  O35 9EY d   1      49.297 -21.381  32.033  0.00  0.00    -0.238 OA
ATOM     62  H20 9EY d   1      47.171 -23.180  33.477  0.00  0.00     0.171 HD
BRANCH  60  63
ATOM     63  O36 9EY d   1      49.325 -22.559  33.966  0.00  0.00    -0.309 OA
BRANCH  63  64
ATOM     64  C37 9EY d   1      50.752 -22.320  34.089  0.00  0.00     0.015 C 
ATOM     65  H21 9EY d   1      51.117 -22.755  35.031  0.00  0.00     0.067 H 
ATOM     66  H22 9EY d   1      50.944 -21.237  34.087  0.00  0.00     0.067 H 
ATOM     67  H23 9EY d   1      51.276 -22.787  33.242  0.00  0.00     0.067 H 
ENDBRANCH  63  64
ENDBRANCH  60  63
ENDBRANCH  13  59
TORSDOF 7
