REMARK  8 active torsions:
REMARK  status: ('A' for Active; 'I' for Inactive)
REMARK    1  A    between atoms: C13_1  and  C6_17 
REMARK    2  A    between atoms: C18_2  and  N17_26 
REMARK    3  A    between atoms: C15_3  and  C14_24 
REMARK       I    between atoms: N17_26  and  C15_3 
REMARK    4  A    between atoms: C24_9  and  N37_37 
REMARK    5  A    between atoms: C34_10  and  C43_43 
REMARK    6  A    between atoms: C7_18  and  N8_19 
REMARK       I    between atoms: N37_37  and  C38_38 
REMARK    7  A    between atoms: C38_38  and  O39_39 
REMARK    8  A    between atoms: O39_39  and  C41_41 
ROOT
ATOM      1  C18 9FD d   1      39.875 -20.941  28.605  0.00  0.00     0.070 C 
ATOM      2  C19 9FD d   1      41.371 -20.872  28.673  0.00  0.00     0.127 A 
ATOM      3  C20 9FD d   1      39.424 -21.937  27.527  0.00  0.00    -0.039 C 
ATOM      4  C21 9FD d   1      44.463 -21.356  30.333  0.00  0.00     0.021 A 
ATOM      5  C22 9FD d   1      45.589 -20.533  30.410  0.00  0.00    -0.066 A 
ATOM      6  C23 9FD d   1      46.625 -20.822  31.283  0.00  0.00    -0.056 A 
ATOM      7  C24 9FD d   1      46.553 -21.938  32.118  0.00  0.00     0.039 A 
ATOM      8  C34 9FD d   1      41.148 -25.274  28.906  0.00  0.00    -0.050 C 
ATOM      9  C33 9FD d   1      40.178 -24.071  28.925  0.00  0.00    -0.061 C 
ATOM     10  C25 9FD d   1      45.429 -22.758  32.057  0.00  0.00    -0.030 A 
ATOM     11  C26 9FD d   1      44.392 -22.489  31.172  0.00  0.00     0.049 A 
ATOM     12  N27 9FD d   1      42.162 -20.615  27.608  0.00  0.00    -0.350 N 
ATOM     13  C28 9FD d   1      43.460 -20.718  28.025  0.00  0.00     0.007 A 
ATOM     14  C29 9FD d   1      43.411 -21.043  29.351  0.00  0.00     0.086 A 
ATOM     15  N30 9FD d   1      42.082 -21.135  29.751  0.00  0.00    -0.231 NA
ATOM     16  N31 9FD d   1      43.335 -23.417  31.014  0.00  0.00    -0.326 N 
ATOM     17  C32 9FD d   1      40.067 -23.345  27.561  0.00  0.00    -0.062 C 
ATOM     18  C35 9FD d   1      42.114 -25.293  30.096  0.00  0.00     0.013 C 
ATOM     19  C36 9FD d   1      43.222 -24.271  29.971  0.00  0.00     0.222 C 
ATOM     20  O42 9FD d   1      43.963 -24.245  28.989  0.00  0.00    -0.273 OA
ATOM     21  H2  9FD d   1      39.521 -21.323  29.574  0.00  0.00     0.085 H 
ATOM     22  H3  9FD d   1      39.651 -21.492  26.547  0.00  0.00     0.036 H 
ATOM     23  H4  9FD d   1      38.336 -22.066  27.628  0.00  0.00     0.036 H 
ATOM     24  H5  9FD d   1      45.653 -19.655  29.777  0.00  0.00     0.085 H 
ATOM     25  H6  9FD d   1      47.496 -20.178  31.318  0.00  0.00     0.086 H 
ATOM     26  H7  9FD d   1      41.756 -25.174  27.995  0.00  0.00     0.040 H 
ATOM     27  H8  9FD d   1      40.533 -23.349  29.676  0.00  0.00     0.033 H 
ATOM     28  H9  9FD d   1      39.179 -24.434  29.209  0.00  0.00     0.033 H 
ATOM     29  H16 9FD d   1      45.362 -23.620  32.711  0.00  0.00     0.090 H 
ATOM     30  H17 9FD d   1      41.845 -20.384  26.656  0.00  0.00     0.166 HD
ATOM     31  H18 9FD d   1      44.354 -20.570  27.421  0.00  0.00     0.115 H 
ATOM     32  H19 9FD d   1      42.626 -23.443  31.719  0.00  0.00     0.169 HD
ATOM     33  H20 9FD d   1      41.087 -23.247  27.161  0.00  0.00     0.033 H 
ATOM     34  H21 9FD d   1      39.473 -23.990  26.897  0.00  0.00     0.033 H 
ATOM     35  H22 9FD d   1      42.566 -26.294  30.166  0.00  0.00     0.047 H 
ATOM     36  H23 9FD d   1      41.545 -25.083  31.014  0.00  0.00     0.047 H 
ENDROOT
BRANCH   1  37
ATOM     37  N17 9FD d   1      39.271 -19.631  28.415  0.00  0.00    -0.346 N 
ATOM     38  C15 9FD d   1      39.237 -18.756  29.439  0.00  0.00     0.241 C 
ATOM     39  O16 9FD d   1      39.800 -19.001  30.503  0.00  0.00    -0.269 OA
ATOM     40  H15 9FD d   1      38.883 -19.381  27.528  0.00  0.00     0.163 HD
BRANCH  38  41
ATOM     41  C14 9FD d   1      38.445 -17.520  29.223  0.00  0.00    -0.017 C 
ATOM     42  C13 9FD d   1      37.792 -17.124  28.130  0.00  0.00    -0.066 C 
ATOM     43  H1  9FD d   1      37.794 -17.807  27.282  0.00  0.00     0.085 H 
ATOM     44  H14 9FD d   1      38.389 -16.843  30.074  0.00  0.00     0.092 H 
BRANCH  42  45
ATOM     45  C6  9FD d   1      37.069 -15.853  27.959  0.00  0.00    -0.005 A 
ATOM     46  C5  9FD d   1      35.912 -15.633  28.725  0.00  0.00    -0.050 A 
ATOM     47  C4  9FD d   1      35.276 -14.402  28.675  0.00  0.00     0.035 A 
ATOM     48  H12 9FD d   1      35.518 -16.423  29.353  0.00  0.00     0.087 H 
ATOM     49 CL1  9FD d   1      33.813 -14.153  29.616  0.00  0.00    -0.084 Cl
ATOM     50  C3  9FD d   1      35.763 -13.369  27.893  0.00  0.00    -0.060 A 
ATOM     51  C2  9FD d   1      36.904 -13.576  27.123  0.00  0.00    -0.053 A 
ATOM     52  H11 9FD d   1      35.261 -12.408  27.880  0.00  0.00     0.086 H 
ATOM     53  C7  9FD d   1      37.533 -14.825  27.119  0.00  0.00     0.071 A 
ATOM     54  H10 9FD d   1      37.306 -12.767  26.525  0.00  0.00     0.087 H 
BRANCH  53  55
ATOM     55  N8  9FD d   1      38.583 -15.071  26.177  0.00  0.00    -0.205 N 
ATOM     56  C9  9FD d   1      38.607 -15.054  24.839  0.00  0.00     0.113 A 
ATOM     57  N10 9FD d   1      39.800 -15.374  24.416  0.00  0.00    -0.122 NA
ATOM     58  H13 9FD d   1      37.760 -14.810  24.200  0.00  0.00     0.149 H 
ATOM     59  N11 9FD d   1      40.537 -15.599  25.536  0.00  0.00    -0.023 NA
ATOM     60  N12 9FD d   1      39.819 -15.425  26.604  0.00  0.00    -0.040 NA
ENDBRANCH  53  55
ENDBRANCH  42  45
ENDBRANCH  38  41
ENDBRANCH   1  37
BRANCH   8  61
ATOM     61  C43 9FD d   1      40.415 -26.610  28.820  0.00  0.00    -0.072 C 
ATOM     62  H28 9FD d   1      39.722 -26.594  27.965  0.00  0.00     0.028 H 
ATOM     63  H29 9FD d   1      39.849 -26.778  29.748  0.00  0.00     0.028 H 
ATOM     64  H30 9FD d   1      41.146 -27.421  28.685  0.00  0.00     0.028 H 
ENDBRANCH   8  61
BRANCH   7  65
ATOM     65  N37 9FD d   1      47.590 -22.365  32.998  0.00  0.00    -0.303 N 
ATOM     66  C38 9FD d   1      48.860 -21.878  33.080  0.00  0.00     0.364 C 
ATOM     67  O40 9FD d   1      49.388 -21.119  32.293  0.00  0.00    -0.238 OA
ATOM     68  H24 9FD d   1      47.359 -23.107  33.627  0.00  0.00     0.171 HD
BRANCH  66  69
ATOM     69  O39 9FD d   1      49.462 -22.364  34.184  0.00  0.00    -0.309 OA
BRANCH  69  70
ATOM     70  C41 9FD d   1      50.845 -21.973  34.393  0.00  0.00     0.015 C 
ATOM     71  H25 9FD d   1      51.219 -22.431  35.320  0.00  0.00     0.067 H 
ATOM     72  H26 9FD d   1      50.908 -20.878  34.474  0.00  0.00     0.067 H 
ATOM     73  H27 9FD d   1      51.455 -22.314  33.543  0.00  0.00     0.067 H 
ENDBRANCH  69  70
ENDBRANCH  66  69
ENDBRANCH   7  65
TORSDOF 8
