REMARK  8 active torsions:
REMARK  status: ('A' for Active; 'I' for Inactive)
REMARK    1  A    between atoms: C13_1  and  C6_19 
REMARK    2  A    between atoms: C17_3  and  N43_43 
REMARK    3  A    between atoms: C15_4  and  C14_26 
REMARK       I    between atoms: N43_43  and  C15_4 
REMARK    4  A    between atoms: C23_9  and  N36_36 
REMARK    5  A    between atoms: C33_13  and  C42_42 
REMARK    6  A    between atoms: C7_20  and  N8_21 
REMARK       I    between atoms: N36_36  and  C37_37 
REMARK    7  A    between atoms: C37_37  and  O38_38 
REMARK    8  A    between atoms: O38_38  and  C40_40 
ROOT
ATOM      1  C18 9FA d   1      41.188 -20.775  28.638  0.00  0.00     0.127 A 
ATOM      2  C17 9FA d   1      39.691 -20.887  28.560  0.00  0.00     0.073 C 
ATOM      3  C19 9FA d   1      39.283 -21.910  27.487  0.00  0.00    -0.025 C 
ATOM      4  C20 9FA d   1      44.299 -21.234  30.264  0.00  0.00     0.021 A 
ATOM      5  C21 9FA d   1      45.411 -20.391  30.371  0.00  0.00    -0.066 A 
ATOM      6  C22 9FA d   1      46.436 -20.673  31.258  0.00  0.00    -0.056 A 
ATOM      7  C23 9FA d   1      46.353 -21.785  32.096  0.00  0.00     0.039 A 
ATOM      8  C24 9FA d   1      45.259 -22.642  31.989  0.00  0.00    -0.030 A 
ATOM      9  C34 9FA d   1      41.982 -25.181  29.967  0.00  0.00     0.015 C 
ATOM     10  C27 9FA d   1      43.266 -20.519  28.002  0.00  0.00     0.007 A 
ATOM     11  C33 9FA d   1      41.030 -25.218  28.754  0.00  0.00    -0.034 C 
ATOM     12  C25 9FA d   1      44.242 -22.389  31.076  0.00  0.00     0.049 A 
ATOM     13  N26 9FA d   1      41.971 -20.452  27.586  0.00  0.00    -0.350 N 
ATOM     14  C28 9FA d   1      43.229 -20.889  29.315  0.00  0.00     0.086 A 
ATOM     15  N29 9FA d   1      41.904 -21.038  29.711  0.00  0.00    -0.231 NA
ATOM     16  N30 9FA d   1      43.177 -23.312  30.927  0.00  0.00    -0.326 N 
ATOM     17  C31 9FA d   1      40.059 -23.212  27.573  0.00  0.00    -0.104 C 
ATOM     18  C32 9FA d   1      40.207 -23.960  28.659  0.00  0.00    -0.102 C 
ATOM     19  C35 9FA d   1      43.037 -24.100  29.843  0.00  0.00     0.222 C 
ATOM     20  O41 9FA d   1      43.707 -23.965  28.819  0.00  0.00    -0.273 OA
ATOM     21  H2  9FA d   1      39.352 -21.293  29.525  0.00  0.00     0.085 H 
ATOM     22  H3  9FA d   1      39.457 -21.465  26.496  0.00  0.00     0.042 H 
ATOM     23  H4  9FA d   1      38.212 -22.133  27.606  0.00  0.00     0.042 H 
ATOM     24  H5  9FA d   1      45.471 -19.504  29.750  0.00  0.00     0.085 H 
ATOM     25  H6  9FA d   1      47.306 -20.027  31.301  0.00  0.00     0.086 H 
ATOM     26  H7  9FA d   1      45.201 -23.517  32.626  0.00  0.00     0.090 H 
ATOM     27  H8  9FA d   1      42.484 -26.156  30.052  0.00  0.00     0.048 H 
ATOM     28  H9  9FA d   1      41.390 -24.994  30.875  0.00  0.00     0.048 H 
ATOM     29  H10 9FA d   1      44.154 -20.317  27.405  0.00  0.00     0.115 H 
ATOM     30  H11 9FA d   1      41.651 -25.263  27.847  0.00  0.00     0.046 H 
ATOM     31  H17 9FA d   1      41.648 -20.201  26.641  0.00  0.00     0.166 HD
ATOM     32  H18 9FA d   1      42.499 -23.382  31.659  0.00  0.00     0.169 HD
ATOM     33  H19 9FA d   1      40.538 -23.564  26.660  0.00  0.00     0.076 H 
ATOM     34  H20 9FA d   1      39.688 -23.636  29.560  0.00  0.00     0.076 H 
ENDROOT
BRANCH   2  35
ATOM     35  N43 9FA d   1      39.036 -19.582  28.413  0.00  0.00    -0.346 N 
ATOM     36  C15 9FA d   1      39.037 -18.687  29.425  0.00  0.00     0.241 C 
ATOM     37  O16 9FA d   1      39.656 -18.890  30.477  0.00  0.00    -0.269 OA
ATOM     38  H28 9FA d   1      38.583 -19.352  27.552  0.00  0.00     0.163 HD
BRANCH  36  39
ATOM     39  C14 9FA d   1      38.298 -17.426  29.182  0.00  0.00    -0.017 C 
ATOM     40  C13 9FA d   1      37.756 -16.993  28.038  0.00  0.00    -0.066 C 
ATOM     41  H1  9FA d   1      37.870 -17.627  27.160  0.00  0.00     0.085 H 
ATOM     42  H16 9FA d   1      38.181 -16.769  30.043  0.00  0.00     0.092 H 
BRANCH  40  43
ATOM     43  C6  9FA d   1      37.018 -15.729  27.869  0.00  0.00    -0.005 A 
ATOM     44  C5  9FA d   1      35.893 -15.513  28.684  0.00  0.00    -0.050 A 
ATOM     45  C4  9FA d   1      35.220 -14.308  28.618  0.00  0.00     0.035 A 
ATOM     46  H14 9FA d   1      35.555 -16.289  29.361  0.00  0.00     0.087 H 
ATOM     47 CL1  9FA d   1      33.807 -14.065  29.616  0.00  0.00    -0.084 Cl
ATOM     48  C3  9FA d   1      35.629 -13.299  27.768  0.00  0.00    -0.060 A 
ATOM     49  C2  9FA d   1      36.746 -13.495  26.967  0.00  0.00    -0.053 A 
ATOM     50  H13 9FA d   1      35.083 -12.363  27.727  0.00  0.00     0.086 H 
ATOM     51  C7  9FA d   1      37.433 -14.706  26.997  0.00  0.00     0.071 A 
ATOM     52  H12 9FA d   1      37.086 -12.700  26.314  0.00  0.00     0.087 H 
BRANCH  51  53
ATOM     53  N8  9FA d   1      38.523 -14.903  26.094  0.00  0.00    -0.205 N 
ATOM     54  C9  9FA d   1      38.590 -14.904  24.758  0.00  0.00     0.113 A 
ATOM     55  N10 9FA d   1      39.791 -15.242  24.377  0.00  0.00    -0.122 NA
ATOM     56  H15 9FA d   1      37.766 -14.659  24.089  0.00  0.00     0.149 H 
ATOM     57  N11 9FA d   1      40.494 -15.435  25.520  0.00  0.00    -0.023 NA
ATOM     58  N12 9FA d   1      39.747 -15.241  26.563  0.00  0.00    -0.040 NA
ENDBRANCH  51  53
ENDBRANCH  40  43
ENDBRANCH  36  39
ENDBRANCH   2  35
BRANCH  11  59
ATOM     59  C42 9FA d   1      40.185 -26.493  28.787  0.00  0.00    -0.069 C 
ATOM     60  H25 9FA d   1      39.511 -26.509  27.918  0.00  0.00     0.028 H 
ATOM     61  H26 9FA d   1      39.591 -26.515  29.713  0.00  0.00     0.028 H 
ATOM     62  H27 9FA d   1      40.846 -27.372  28.754  0.00  0.00     0.028 H 
ENDBRANCH  11  59
BRANCH   7  63
ATOM     63  N36 9FA d   1      47.357 -22.182  33.019  0.00  0.00    -0.303 N 
ATOM     64  C37 9FA d   1      48.639 -21.728  33.098  0.00  0.00     0.364 C 
ATOM     65  O39 9FA d   1      49.198 -21.019  32.287  0.00  0.00    -0.238 OA
ATOM     66  H21 9FA d   1      47.092 -22.876  33.689  0.00  0.00     0.171 HD
BRANCH  64  67
ATOM     67  O38 9FA d   1      49.224 -22.214  34.214  0.00  0.00    -0.309 OA
BRANCH  67  68
ATOM     68  C40 9FA d   1      50.667 -22.047  34.316  0.00  0.00     0.015 C 
ATOM     69  H22 9FA d   1      51.020 -22.481  35.263  0.00  0.00     0.067 H 
ATOM     70  H23 9FA d   1      50.915 -20.976  34.289  0.00  0.00     0.067 H 
ATOM     71  H24 9FA d   1      51.156 -22.558  33.473  0.00  0.00     0.067 H 
ENDBRANCH  67  68
ENDBRANCH  64  67
ENDBRANCH   7  63
TORSDOF 8
