REMARK  9 active torsions:
REMARK  status: ('A' for Active; 'I' for Inactive)
REMARK       I    between atoms: N17_23  and  C18_2 
REMARK    1  A    between atoms: C18_2  and  O20_25 
REMARK    2  A    between atoms: O20_25  and  C21_5 
REMARK    3  A    between atoms: C22_6  and  C26_28 
REMARK    4  A    between atoms: C26_28  and  C27_10 
REMARK    5  A    between atoms: N5_16  and  C1_12 
REMARK       I    between atoms: C28_29  and  N5_16 
REMARK    6  A    between atoms: C14_22  and  N17_23 
REMARK    7  A    between atoms: C29_30  and  C28_29 
REMARK    8  A    between atoms: C31_32  and  C30_31 
REMARK    9  A    between atoms: C32_33  and  N38_38 
ROOT
ATOM      1  C13 9F7 d   1      46.749 -20.928  31.034  0.00  0.00    -0.056 A 
ATOM      2  C16 9F7 d   1      44.382 -22.501  31.008  0.00  0.00     0.049 A 
ATOM      3  C15 9F7 d   1      45.429 -22.839  31.865  0.00  0.00    -0.030 A 
ATOM      4  C22 9F7 d   1      41.417 -24.826  29.862  0.00  0.00     0.024 C 
ATOM      5  C23 9F7 d   1      42.778 -24.030  29.870  0.00  0.00     0.226 C 
ATOM      6  C11 9F7 d   1      44.528 -21.324  30.147  0.00  0.00     0.021 A 
ATOM      7  C12 9F7 d   1      45.705 -20.585  30.190  0.00  0.00    -0.066 A 
ATOM      8  C1  9F7 d   1      39.921 -20.944  28.628  0.00  0.00     0.070 C 
ATOM      9  C2  9F7 d   1      39.498 -22.100  27.715  0.00  0.00    -0.039 C 
ATOM     10  C3  9F7 d   1      40.239 -23.433  27.989  0.00  0.00    -0.062 C 
ATOM     11  C4  9F7 d   1      40.197 -23.989  29.438  0.00  0.00    -0.053 C 
ATOM     12  C6  9F7 d   1      41.431 -20.730  28.563  0.00  0.00     0.127 A 
ATOM     13  N7  9F7 d   1      42.244 -20.464  27.458  0.00  0.00    -0.350 N 
ATOM     14  C8  9F7 d   1      43.561 -20.563  27.890  0.00  0.00     0.007 A 
ATOM     15  C9  9F7 d   1      43.493 -20.897  29.237  0.00  0.00     0.086 A 
ATOM     16  N10 9F7 d   1      42.182 -20.955  29.648  0.00  0.00    -0.231 NA
ATOM     17  C14 9F7 d   1      46.620 -22.044  31.903  0.00  0.00     0.039 A 
ATOM     18  N24 9F7 d   1      43.192 -23.274  30.963  0.00  0.00    -0.326 N 
ATOM     19  O25 9F7 d   1      43.507 -24.062  28.886  0.00  0.00    -0.273 OA
ATOM     20  H1  9F7 d   1      47.663 -20.345  31.031  0.00  0.00     0.086 H 
ATOM     21  H2  9F7 d   1      45.341 -23.709  32.506  0.00  0.00     0.090 H 
ATOM     22  H6  9F7 d   1      41.225 -25.170  30.889  0.00  0.00     0.054 H 
ATOM     23  H7  9F7 d   1      45.809 -19.718  29.547  0.00  0.00     0.085 H 
ATOM     24  H12 9F7 d   1      39.691 -21.253  29.658  0.00  0.00     0.085 H 
ATOM     25  H13 9F7 d   1      39.693 -21.805  26.673  0.00  0.00     0.036 H 
ATOM     26  H14 9F7 d   1      38.420 -22.271  27.852  0.00  0.00     0.036 H 
ATOM     27  H15 9F7 d   1      41.296 -23.284  27.724  0.00  0.00     0.033 H 
ATOM     28  H16 9F7 d   1      39.800 -24.196  27.330  0.00  0.00     0.033 H 
ATOM     29  H17 9F7 d   1      40.116 -23.135  30.127  0.00  0.00     0.034 H 
ATOM     30  H18 9F7 d   1      39.302 -24.622  29.532  0.00  0.00     0.034 H 
ATOM     31  H20 9F7 d   1      41.927 -20.238  26.504  0.00  0.00     0.166 HD
ATOM     32  H21 9F7 d   1      44.461 -20.410  27.296  0.00  0.00     0.115 H 
ATOM     33  H23 9F7 d   1      42.609 -23.276  31.775  0.00  0.00     0.169 HD
ENDROOT
BRANCH   8  34
ATOM     34  N5  9F7 d   1      39.145 -19.706  28.384  0.00  0.00    -0.346 N 
ATOM     35  C28 9F7 d   1      39.149 -18.699  29.384  0.00  0.00     0.241 C 
ATOM     36  O34 9F7 d   1      39.764 -18.888  30.447  0.00  0.00    -0.269 OA
ATOM     37  H19 9F7 d   1      38.631 -19.583  27.535  0.00  0.00     0.163 HD
BRANCH  35  38
ATOM     38  C29 9F7 d   1      38.398 -17.426  29.212  0.00  0.00    -0.017 C 
ATOM     39  C30 9F7 d   1      37.859 -17.076  28.055  0.00  0.00    -0.066 C 
ATOM     40  H27 9F7 d   1      37.960 -17.741  27.198  0.00  0.00     0.085 H 
ATOM     41  H26 9F7 d   1      38.288 -16.760  30.067  0.00  0.00     0.092 H 
BRANCH  39  42
ATOM     42  C31 9F7 d   1      37.135 -15.824  27.901  0.00  0.00    -0.005 A 
ATOM     43  C32 9F7 d   1      37.542 -14.865  26.991  0.00  0.00     0.071 A 
ATOM     44  C33 9F7 d   1      36.838 -13.655  26.884  0.00  0.00    -0.053 A 
ATOM     45  C35 9F7 d   1      35.715 -13.424  27.671  0.00  0.00    -0.060 A 
ATOM     46  H11 9F7 d   1      37.172 -12.897  26.184  0.00  0.00     0.087 H 
ATOM     47  C36 9F7 d   1      35.303 -14.405  28.566  0.00  0.00     0.035 A 
ATOM     48  H28 9F7 d   1      35.168 -12.492  27.588  0.00  0.00     0.086 H 
ATOM     49  C37 9F7 d   1      35.996 -15.603  28.685  0.00  0.00    -0.050 A 
ATOM     50 CL43 9F7 d   1      33.899 -14.117  29.541  0.00  0.00    -0.084 Cl
ATOM     51  H29 9F7 d   1      35.657 -16.362  29.381  0.00  0.00     0.087 H 
BRANCH  43  52
ATOM     52  N38 9F7 d   1      38.634 -15.128  26.077  0.00  0.00    -0.205 N 
ATOM     53  C39 9F7 d   1      38.632 -15.026  24.680  0.00  0.00     0.113 A 
ATOM     54  N40 9F7 d   1      39.899 -15.267  24.245  0.00  0.00    -0.122 NA
ATOM     55  H30 9F7 d   1      37.771 -14.795  24.054  0.00  0.00     0.149 H 
ATOM     56  N41 9F7 d   1      40.647 -15.512  25.333  0.00  0.00    -0.023 NA
ATOM     57  N42 9F7 d   1      39.943 -15.446  26.427  0.00  0.00    -0.040 NA
ENDBRANCH  43  52
ENDBRANCH  39  42
ENDBRANCH  35  38
ENDBRANCH   8  34
BRANCH   4  58
ATOM     58  C26 9F7 d   1      41.612 -26.065  28.971  0.00  0.00    -0.057 C 
ATOM     59  H24 9F7 d   1      42.549 -26.561  29.266  0.00  0.00     0.033 H 
ATOM     60  H25 9F7 d   1      41.687 -25.732  27.925  0.00  0.00     0.033 H 
BRANCH  58  61
ATOM     61  C27 9F7 d   1      40.499 -27.062  29.070  0.00  0.00    -0.076 C 
ATOM     62  H8  9F7 d   1      40.710 -27.914  28.407  0.00  0.00     0.027 H 
ATOM     63  H9  9F7 d   1      39.554 -26.588  28.767  0.00  0.00     0.027 H 
ATOM     64  H10 9F7 d   1      40.415 -27.416  30.108  0.00  0.00     0.027 H 
ENDBRANCH  58  61
ENDBRANCH   4  58
BRANCH  17  65
ATOM     65  N17 9F7 d   1      47.593 -22.467  32.855  0.00  0.00    -0.303 N 
ATOM     66  C18 9F7 d   1      48.890 -22.005  32.984  0.00  0.00     0.364 C 
ATOM     67  O19 9F7 d   1      49.509 -21.261  32.244  0.00  0.00    -0.238 OA
ATOM     68  H22 9F7 d   1      47.306 -23.175  33.500  0.00  0.00     0.171 HD
BRANCH  66  69
ATOM     69  O20 9F7 d   1      49.472 -22.600  34.098  0.00  0.00    -0.309 OA
BRANCH  69  70
ATOM     70  C21 9F7 d   1      50.821 -22.308  34.489  0.00  0.00     0.015 C 
ATOM     71  H3  9F7 d   1      51.074 -22.885  35.391  0.00  0.00     0.067 H 
ATOM     72  H4  9F7 d   1      50.916 -21.233  34.703  0.00  0.00     0.067 H 
ATOM     73  H5  9F7 d   1      51.507 -22.582  33.674  0.00  0.00     0.067 H 
ENDBRANCH  69  70
ENDBRANCH  66  69
ENDBRANCH  17  65
TORSDOF 9
