REMARK  7 active torsions:
REMARK  status: ('A' for Active; 'I' for Inactive)
REMARK    1  A    between atoms: C17_4  and  C26_28 
REMARK       I    between atoms: N20_24  and  C21_7 
REMARK    2  A    between atoms: C21_7  and  O22_25 
REMARK    3  A    between atoms: O22_25  and  C24_8 
REMARK    4  A    between atoms: N37_37  and  C2_13 
REMARK    5  A    between atoms: C8_19  and  N20_24 
REMARK    6  A    between atoms: C29_30  and  C39_39 
REMARK    7  A    between atoms: C35_35  and  C32_33 
REMARK       I    between atoms: C35_35  and  N37_37 
ROOT
ATOM      1  N14 9F1 d   1      41.881 -20.755  29.733  0.00  0.00    -0.229 NA
ATOM      2  C13 9F1 d   1      43.214 -20.703  29.362  0.00  0.00     0.110 A 
ATOM      3  C18 9F1 d   1      41.763 -24.909  30.004  0.00  0.00     0.015 C 
ATOM      4  C17 9F1 d   1      40.844 -24.898  28.763  0.00  0.00    -0.034 C 
ATOM      5  C16 9F1 d   1      39.973 -22.862  27.578  0.00  0.00    -0.104 C 
ATOM      6  C19 9F1 d   1      42.909 -23.930  29.890  0.00  0.00     0.222 C 
ATOM      7  C12 9F1 d   1      43.307 -20.332  28.052  0.00  0.00     0.135 A 
ATOM      8  C27 9F1 d   1      40.088 -23.608  28.661  0.00  0.00    -0.102 C 
ATOM      9 CL1  9F1 d   1      44.674 -20.110  27.046  0.00  0.00    -0.062 Cl
ATOM     10  C2  9F1 d   1      39.702 -20.518  28.535  0.00  0.00     0.073 C 
ATOM     11  C3  9F1 d   1      41.202 -20.444  28.645  0.00  0.00     0.129 A 
ATOM     12  C4  9F1 d   1      39.231 -21.556  27.506  0.00  0.00    -0.025 C 
ATOM     13  C5  9F1 d   1      44.280 -21.091  30.319  0.00  0.00     0.023 A 
ATOM     14  C6  9F1 d   1      45.410 -20.277  30.443  0.00  0.00    -0.066 A 
ATOM     15  C7  9F1 d   1      46.412 -20.575  31.354  0.00  0.00    -0.056 A 
ATOM     16  C8  9F1 d   1      46.309 -21.702  32.169  0.00  0.00     0.039 A 
ATOM     17  C9  9F1 d   1      45.188 -22.523  32.054  0.00  0.00    -0.030 A 
ATOM     18  C10 9F1 d   1      44.180 -22.243  31.134  0.00  0.00     0.049 A 
ATOM     19  N11 9F1 d   1      42.005 -20.158  27.591  0.00  0.00    -0.331 N 
ATOM     20  N15 9F1 d   1      43.092 -23.140  30.968  0.00  0.00    -0.326 N 
ATOM     21  O25 9F1 d   1      43.612 -23.877  28.878  0.00  0.00    -0.273 OA
ATOM     22  H1  9F1 d   1      42.176 -25.921  30.127  0.00  0.00     0.048 H 
ATOM     23  H2  9F1 d   1      41.163 -24.647  30.888  0.00  0.00     0.048 H 
ATOM     24  H3  9F1 d   1      41.478 -24.988  27.869  0.00  0.00     0.046 H 
ATOM     25  H4  9F1 d   1      40.452 -23.220  26.668  0.00  0.00     0.076 H 
ATOM     26  H8  9F1 d   1      39.588 -23.254  29.562  0.00  0.00     0.076 H 
ATOM     27  H9  9F1 d   1      39.315 -20.828  29.517  0.00  0.00     0.085 H 
ATOM     28  H10 9F1 d   1      38.163 -21.754  27.677  0.00  0.00     0.042 H 
ATOM     29  H11 9F1 d   1      39.369 -21.134  26.500  0.00  0.00     0.042 H 
ATOM     30  H12 9F1 d   1      45.504 -19.398  29.816  0.00  0.00     0.085 H 
ATOM     31  H13 9F1 d   1      47.279 -19.929  31.433  0.00  0.00     0.086 H 
ATOM     32  H14 9F1 d   1      45.099 -23.395  32.692  0.00  0.00     0.090 H 
ATOM     33  H15 9F1 d   1      41.713 -19.872  26.646  0.00  0.00     0.168 HD
ATOM     34  H16 9F1 d   1      42.414 -23.190  31.701  0.00  0.00     0.169 HD
ENDROOT
BRANCH  10  35
ATOM     35  N37 9F1 d   1      39.146 -19.209  28.229  0.00  0.00    -0.345 N 
ATOM     36  C35 9F1 d   1      39.064 -18.216  29.133  0.00  0.00     0.258 C 
ATOM     37  O38 9F1 d   1      39.526 -18.298  30.267  0.00  0.00    -0.267 OA
ATOM     38  H23 9F1 d   1      38.809 -19.039  27.303  0.00  0.00     0.163 HD
BRANCH  36  39
ATOM     39  C32 9F1 d   1      38.323 -16.983  28.683  0.00  0.00     0.109 A 
ATOM     40  C33 9F1 d   1      37.045 -16.683  29.126  0.00  0.00     0.135 A 
ATOM     41  C28 9F1 d   1      36.343 -15.566  28.740  0.00  0.00    -0.039 A 
ATOM     42  F34 9F1 d   1      36.447 -17.564  29.953  0.00  0.00    -0.205 F 
ATOM     43  C29 9F1 d   1      36.914 -14.673  27.835  0.00  0.00    -0.056 A 
ATOM     44  H21 9F1 d   1      35.352 -15.381  29.137  0.00  0.00     0.089 H 
ATOM     45  C30 9F1 d   1      38.188 -14.948  27.349  0.00  0.00    -0.039 A 
ATOM     46  C31 9F1 d   1      38.846 -16.078  27.772  0.00  0.00     0.135 A 
ATOM     47  H22 9F1 d   1      38.659 -14.275  26.641  0.00  0.00     0.089 H 
ATOM     48  F36 9F1 d   1      40.054 -16.354  27.234  0.00  0.00    -0.205 F 
BRANCH  43  49
ATOM     49  C39 9F1 d   1      36.155 -13.460  27.364  0.00  0.00    -0.051 C 
ATOM     50  H24 9F1 d   1      35.176 -13.423  27.864  0.00  0.00     0.033 H 
ATOM     51  H25 9F1 d   1      36.009 -13.519  26.275  0.00  0.00     0.033 H 
ATOM     52  H26 9F1 d   1      36.726 -12.552  27.609  0.00  0.00     0.033 H 
ENDBRANCH  43  49
ENDBRANCH  36  39
ENDBRANCH  10  35
BRANCH   4  53
ATOM     53  C26 9F1 d   1      39.903 -26.098  28.795  0.00  0.00    -0.069 C 
ATOM     54  H18 9F1 d   1      39.254 -26.079  27.907  0.00  0.00     0.028 H 
ATOM     55  H19 9F1 d   1      39.283 -26.054  29.703  0.00  0.00     0.028 H 
ATOM     56  H20 9F1 d   1      40.493 -27.026  28.798  0.00  0.00     0.028 H 
ENDBRANCH   4  53
BRANCH  16  57
ATOM     57  N20 9F1 d   1      47.319 -22.154  33.068  0.00  0.00    -0.303 N 
ATOM     58  C21 9F1 d   1      48.596 -21.702  33.185  0.00  0.00     0.364 C 
ATOM     59  O23 9F1 d   1      49.167 -20.963  32.414  0.00  0.00    -0.238 OA
ATOM     60  H17 9F1 d   1      47.056 -22.893  33.688  0.00  0.00     0.171 HD
BRANCH  58  61
ATOM     61  O22 9F1 d   1      49.152 -22.211  34.301  0.00  0.00    -0.309 OA
BRANCH  61  62
ATOM     62  C24 9F1 d   1      50.580 -22.019  34.449  0.00  0.00     0.015 C 
ATOM     63  H5  9F1 d   1      50.915 -22.475  35.392  0.00  0.00     0.067 H 
ATOM     64  H6  9F1 d   1      50.806 -20.942  34.462  0.00  0.00     0.067 H 
ATOM     65  H7  9F1 d   1      51.103 -22.494  33.606  0.00  0.00     0.067 H 
ENDBRANCH  61  62
ENDBRANCH  58  61
ENDBRANCH  16  57
TORSDOF 7
