REMARK  17 active torsions:
REMARK  status: ('A' for Active; 'I' for Inactive)
REMARK    1  A    between atoms: S_2  and  C17_4 
REMARK    2  A    between atoms: S_2  and  N_11 
REMARK    3  A    between atoms: C20_7  and  C21_8 
REMARK    4  A    between atoms: N_11  and  C8_12 
REMARK    5  A    between atoms: N_11  and  C4_23 
REMARK    6  A    between atoms: C8_12  and  C9_13 
REMARK       I    between atoms: C9_13  and  N1_14 
REMARK    7  A    between atoms: N1_14  and  C10_15 
REMARK    8  A    between atoms: C10_15  and  C14_16 
REMARK    9  A    between atoms: C10_15  and  C11_19 
REMARK   10  A    between atoms: C14_16  and  C16_17 
REMARK   11  A    between atoms: C14_16  and  C15_18 
REMARK   12  A    between atoms: C11_19  and  C13_20 
REMARK   13  A    between atoms: C11_19  and  C12_21 
REMARK   14  A    between atoms: C6_27  and  O1_28 
REMARK   15  A    between atoms: O1_28  and  C7_29 
REMARK   16  A    between atoms: C1_30  and  O_31 
REMARK   17  A    between atoms: O_31  and  C_32 
ROOT
ATOM      1  N   0X0 d   1      32.653  31.061  30.195  0.00  0.00    -0.263 N 
ENDROOT
BRANCH   1   2
ATOM      2  S   0X0 d   1      32.543  29.451  30.722  0.00  0.00     0.265 S 
ATOM      3  O4  0X0 d   1      31.967  28.689  29.662  0.00  0.00    -0.200 OA
ATOM      4  O3  0X0 d   1      33.816  29.090  31.263  0.00  0.00    -0.200 OA
BRANCH   2   5
ATOM      5  C17 0X0 d   1      31.369  29.562  32.038  0.00  0.00     0.080 A 
ATOM      6  C23 0X0 d   1      30.090  29.053  31.868  0.00  0.00    -0.060 A 
ATOM      7  C22 0X0 d   1      29.173  29.157  32.902  0.00  0.00    -0.076 A 
ATOM      8  H1  0X0 d   1      29.810  28.578  30.935  0.00  0.00     0.085 H 
ATOM      9  C20 0X0 d   1      29.503  29.762  34.106  0.00  0.00    -0.062 A 
ATOM     10  H2  0X0 d   1      28.175  28.756  32.767  0.00  0.00     0.084 H 
ATOM     11  C19 0X0 d   1      30.788  30.272  34.253  0.00  0.00    -0.076 A 
ATOM     12  C18 0X0 d   1      31.725  30.180  33.233  0.00  0.00    -0.060 A 
ATOM     13  H6  0X0 d   1      31.064  30.752  35.185  0.00  0.00     0.084 H 
ATOM     14  H7  0X0 d   1      32.722  30.585  33.366  0.00  0.00     0.085 H 
BRANCH   9  15
ATOM     15  C21 0X0 d   1      28.495  29.865  35.223  0.00  0.00    -0.051 C 
ATOM     16  H3  0X0 d   1      28.952  30.375  36.084  0.00  0.00     0.033 H 
ATOM     17  H4  0X0 d   1      28.175  28.856  35.522  0.00  0.00     0.033 H 
ATOM     18  H5  0X0 d   1      27.623  30.439  34.878  0.00  0.00     0.033 H 
ENDBRANCH   9  15
ENDBRANCH   2   5
ENDBRANCH   1   2
BRANCH   1  19
ATOM     19  C8  0X0 d   1      33.585  31.955  30.906  0.00  0.00     0.084 C 
ATOM     20  H8  0X0 d   1      33.821  31.430  31.843  0.00  0.00     0.080 H 
ATOM     21  H9  0X0 d   1      32.997  32.857  31.129  0.00  0.00     0.080 H 
BRANCH  19  22
ATOM     22  C9  0X0 d   1      34.915  32.472  30.405  0.00  0.00     0.236 C 
ATOM     23  N1  0X0 d   1      35.520  31.823  29.408  0.00  0.00    -0.354 N 
ATOM     24  H10 0X0 d   1      35.077  31.019  29.012  0.00  0.00     0.162 HD
ATOM     25  O2  0X0 d   1      35.400  33.470  30.930  0.00  0.00    -0.272 OA
BRANCH  23  26
ATOM     26  C10 0X0 d   1      36.815  32.257  28.879  0.00  0.00     0.018 C 
ATOM     27  H11 0X0 d   1      37.180  33.008  29.595  0.00  0.00     0.073 H 
BRANCH  26  28
ATOM     28  C14 0X0 d   1      37.861  31.119  28.931  0.00  0.00    -0.041 C 
ATOM     29  H12 0X0 d   1      37.572  30.378  28.171  0.00  0.00     0.042 H 
BRANCH  28  30
ATOM     30  C16 0X0 d   1      37.869  30.407  30.288  0.00  0.00    -0.071 C 
ATOM     31  H13 0X0 d   1      38.625  29.608  30.279  0.00  0.00     0.028 H 
ATOM     32  H14 0X0 d   1      36.877  29.971  30.479  0.00  0.00     0.028 H 
ATOM     33  H15 0X0 d   1      38.110  31.131  31.081  0.00  0.00     0.028 H 
ENDBRANCH  28  30
BRANCH  28  34
ATOM     34  C15 0X0 d   1      39.268  31.615  28.579  0.00  0.00    -0.071 C 
ATOM     35  H16 0X0 d   1      39.244  32.123  27.604  0.00  0.00     0.028 H 
ATOM     36  H17 0X0 d   1      39.957  30.759  28.530  0.00  0.00     0.028 H 
ATOM     37  H18 0X0 d   1      39.612  32.319  29.351  0.00  0.00     0.028 H 
ENDBRANCH  28  34
ENDBRANCH  26  28
BRANCH  26  38
ATOM     38  C11 0X0 d   1      36.722  33.038  27.504  0.00  0.00    -0.041 C 
ATOM     39  H19 0X0 d   1      37.756  33.276  27.213  0.00  0.00     0.042 H 
BRANCH  38  40
ATOM     40  C13 0X0 d   1      36.139  32.194  26.374  0.00  0.00    -0.071 C 
ATOM     41  H20 0X0 d   1      36.102  32.792  25.451  0.00  0.00     0.028 H 
ATOM     42  H21 0X0 d   1      35.122  31.872  26.644  0.00  0.00     0.028 H 
ATOM     43  H22 0X0 d   1      36.773  31.310  26.212  0.00  0.00     0.028 H 
ENDBRANCH  38  40
BRANCH  38  44
ATOM     44  C12 0X0 d   1      35.995  34.362  27.645  0.00  0.00    -0.071 C 
ATOM     45  H23 0X0 d   1      36.442  34.940  28.467  0.00  0.00     0.028 H 
ATOM     46  H24 0X0 d   1      34.933  34.176  27.863  0.00  0.00     0.028 H 
ATOM     47  H25 0X0 d   1      36.082  34.930  26.707  0.00  0.00     0.028 H 
ENDBRANCH  38  44
ENDBRANCH  26  38
ENDBRANCH  23  26
ENDBRANCH  19  22
ENDBRANCH   1  19
BRANCH   1  48
ATOM     48  C4  0X0 d   1      31.846  31.594  29.119  0.00  0.00     0.048 A 
ATOM     49  C3  0X0 d   1      30.741  32.375  29.443  0.00  0.00    -0.054 A 
ATOM     50  C2  0X0 d   1      29.936  32.909  28.460  0.00  0.00    -0.046 A 
ATOM     51  H26 0X0 d   1      30.510  32.566  30.485  0.00  0.00     0.087 H 
ATOM     52  C1  0X0 d   1      30.218  32.672  27.124  0.00  0.00     0.101 A 
ATOM     53  H27 0X0 d   1      29.080  33.516  28.733  0.00  0.00     0.087 H 
ATOM     54  C6  0X0 d   1      31.332  31.881  26.767  0.00  0.00     0.103 A 
ATOM     55  C5  0X0 d   1      32.152  31.342  27.771  0.00  0.00    -0.021 A 
ATOM     56  H28 0X0 d   1      33.013  30.737  27.509  0.00  0.00     0.091 H 
BRANCH  52  57
ATOM     57  O   0X0 d   1      29.479  33.158  26.083  0.00  0.00    -0.353 OA
BRANCH  57  58
ATOM     58  C   0X0 d   1      28.122  33.540  26.348  0.00  0.00     0.010 C 
ATOM     59  H32 0X0 d   1      27.657  33.909  25.422  0.00  0.00     0.066 H 
ATOM     60  H33 0X0 d   1      28.107  34.335  27.108  0.00  0.00     0.066 H 
ATOM     61  H34 0X0 d   1      27.561  32.669  26.717  0.00  0.00     0.066 H 
ENDBRANCH  57  58
ENDBRANCH  52  57
BRANCH  54  62
ATOM     62  O1  0X0 d   1      31.521  31.714  25.410  0.00  0.00    -0.353 OA
BRANCH  62  63
ATOM     63  C7  0X0 d   1      31.854  30.417  24.934  0.00  0.00     0.010 C 
ATOM     64  H29 0X0 d   1      31.971  30.447  23.841  0.00  0.00     0.066 H 
ATOM     65  H30 0X0 d   1      31.052  29.712  25.198  0.00  0.00     0.066 H 
ATOM     66  H31 0X0 d   1      32.797  30.088  25.395  0.00  0.00     0.066 H 
ENDBRANCH  62  63
ENDBRANCH  54  62
ENDBRANCH   1  48
TORSDOF 17
