REMARK  6 active torsions:
REMARK  status: ('A' for Active; 'I' for Inactive)
REMARK    1  A    between atoms: C4_2  and  C1_15 
REMARK    2  A    between atoms: C7_4  and  C5_3 
REMARK       I    between atoms: C5_3  and  N13_28 
REMARK    3  A    between atoms: C7_4  and  C16_16 
REMARK    4  A    between atoms: N2_29  and  C7_4 
REMARK    5  A    between atoms: C9_35  and  C15_7 
REMARK    6  A    between atoms: N13_28  and  C17_8 
ROOT
ATOM      1  C7  9KV d   1      13.367  23.219   4.733  0.00  0.00     0.099 C 
ATOM      2  H1  9KV d   1      14.428  23.041   4.506  0.00  0.00     0.089 H 
ENDROOT
BRANCH   1   3
ATOM      3  C5  9KV d   1      12.639  21.904   4.403  0.00  0.00     0.241 C 
ATOM      4  N13 9KV d   1      12.421  21.668   3.109  0.00  0.00    -0.355 N 
ATOM      5  H31 9KV d   1      12.731  22.348   2.445  0.00  0.00     0.162 HD
ATOM      6  O14 9KV d   1      12.294  21.140   5.280  0.00  0.00    -0.271 OA
BRANCH   4   7
ATOM      7  C17 9KV d   1      11.753  20.468   2.609  0.00  0.00     0.012 C 
ATOM      8  C24 9KV d   1      12.738  19.684   1.741  0.00  0.00    -0.046 C 
ATOM      9  C33 9KV d   1      12.077  18.456   1.062  0.00  0.00    -0.063 C 
ATOM     10  H7  9KV d   1      13.567  19.334   2.374  0.00  0.00     0.035 H 
ATOM     11  H8  9KV d   1      13.130  20.352   0.960  0.00  0.00     0.035 H 
ATOM     12  C35 9KV d   1      10.825  18.827   0.332  0.00  0.00    -0.065 C 
ATOM     13  H25 9KV d   1      11.831  17.712   1.834  0.00  0.00     0.033 H 
ATOM     14  H26 9KV d   1      12.789  18.019   0.346  0.00  0.00     0.033 H 
ATOM     15  C32 9KV d   1       9.861  19.566   1.240  0.00  0.00    -0.063 C 
ATOM     16  H27 9KV d   1      11.084  19.474  -0.519  0.00  0.00     0.033 H 
ATOM     17  H28 9KV d   1      10.340  17.911  -0.037  0.00  0.00     0.033 H 
ATOM     18  C25 9KV d   1      10.509  20.821   1.817  0.00  0.00    -0.046 C 
ATOM     19  H23 9KV d   1       8.971  19.854   0.662  0.00  0.00     0.033 H 
ATOM     20  H24 9KV d   1       9.563  18.902   2.065  0.00  0.00     0.033 H 
ATOM     21  H16 9KV d   1      10.785  21.496   0.993  0.00  0.00     0.035 H 
ATOM     22  H17 9KV d   1       9.791  21.326   2.480  0.00  0.00     0.035 H 
ATOM     23  H2  9KV d   1      11.456  19.844   3.465  0.00  0.00     0.072 H 
ENDBRANCH   4   7
ENDBRANCH   1   3
BRANCH   1  24
ATOM     24  C16 9KV d   1      13.311  23.620   6.224  0.00  0.00    -0.025 C 
ATOM     25  C22 9KV d   1      13.765  25.067   6.428  0.00  0.00    -0.059 C 
ATOM     26  C31 9KV d   1      13.736  25.488   7.947  0.00  0.00    -0.065 C 
ATOM     27  H5  9KV d   1      13.096  25.732   5.863  0.00  0.00     0.033 H 
ATOM     28  H6  9KV d   1      14.793  25.173   6.050  0.00  0.00     0.033 H 
ATOM     29  C36 9KV d   1      14.511  24.515   8.822  0.00  0.00    -0.065 C 
ATOM     30  H21 9KV d   1      12.691  25.517   8.288  0.00  0.00     0.033 H 
ATOM     31  H22 9KV d   1      14.182  26.488   8.047  0.00  0.00     0.033 H 
ATOM     32  C30 9KV d   1      14.084  23.067   8.567  0.00  0.00    -0.065 C 
ATOM     33  H29 9KV d   1      15.584  24.615   8.603  0.00  0.00     0.033 H 
ATOM     34  H30 9KV d   1      14.328  24.761   9.878  0.00  0.00     0.033 H 
ATOM     35  C23 9KV d   1      14.179  22.701   7.080  0.00  0.00    -0.059 C 
ATOM     36  H19 9KV d   1      14.739  22.396   9.142  0.00  0.00     0.033 H 
ATOM     37  H20 9KV d   1      13.044  22.938   8.900  0.00  0.00     0.033 H 
ATOM     38  H14 9KV d   1      15.226  22.793   6.755  0.00  0.00     0.033 H 
ATOM     39  H15 9KV d   1      13.842  21.663   6.945  0.00  0.00     0.033 H 
ATOM     40  H11 9KV d   1      12.268  23.530   6.562  0.00  0.00     0.043 H 
ENDBRANCH   1  24
BRANCH   1  41
ATOM     41  N2  9KV d   1      12.935  24.322   3.864  0.00  0.00    -0.314 N 
ATOM     42  C8  9KV d   1      11.650  24.883   3.762  0.00  0.00     0.066 A 
ATOM     43  C10 9KV d   1      11.768  25.872   2.801  0.00  0.00     0.086 A 
ATOM     44  C18 9KV d   1      10.466  24.618   4.405  0.00  0.00    -0.055 A 
ATOM     45  N3  9KV d   1      13.076  25.926   2.307  0.00  0.00    -0.228 NA
ATOM     46  C19 9KV d   1      10.660  26.635   2.453  0.00  0.00    -0.053 A 
ATOM     47  C1  9KV d   1      13.719  24.989   2.981  0.00  0.00     0.149 A 
ATOM     48  C27 9KV d   1       9.453  26.376   3.097  0.00  0.00    -0.081 A 
ATOM     49  H13 9KV d   1      10.733  27.411   1.700  0.00  0.00     0.087 H 
ATOM     50  C26 9KV d   1       9.361  25.383   4.058  0.00  0.00    -0.081 A 
ATOM     51  H18 9KV d   1       8.575  26.959   2.843  0.00  0.00     0.083 H 
ATOM     52  H9  9KV d   1       8.411  25.200   4.547  0.00  0.00     0.083 H 
ATOM     53  H12 9KV d   1      10.397  23.840   5.156  0.00  0.00     0.087 H 
BRANCH  47  54
ATOM     54  C4  9KV d   1      15.136  24.676   2.805  0.00  0.00     0.051 A 
ATOM     55  C11 9KV d   1      16.191  25.347   3.388  0.00  0.00    -0.061 A 
ATOM     56  C12 9KV d   1      17.453  24.836   3.047  0.00  0.00    -0.064 A 
ATOM     57  H32 9KV d   1      16.056  26.198   4.054  0.00  0.00     0.085 H 
ATOM     58  C9  9KV d   1      17.403  23.768   2.199  0.00  0.00     0.016 A 
ATOM     59  H33 9KV d   1      18.386  25.253   3.424  0.00  0.00     0.085 H 
ATOM     60  S6  9KV d   1      15.728  23.376   1.807  0.00  0.00    -0.086 SA
BRANCH  58  61
ATOM     61  C15 9KV d   1      18.532  22.991   1.651  0.00  0.00    -0.019 A 
ATOM     62  C20 9KV d   1      19.828  23.512   1.657  0.00  0.00    -0.072 A 
ATOM     63  C29 9KV d   1      20.885  22.773   1.140  0.00  0.00    -0.082 A 
ATOM     64  H3  9KV d   1      20.010  24.499   2.067  0.00  0.00     0.084 H 
ATOM     65  C34 9KV d   1      20.668  21.517   0.616  0.00  0.00    -0.083 A 
ATOM     66  H34 9KV d   1      21.887  23.187   1.149  0.00  0.00     0.083 H 
ATOM     67  C28 9KV d   1      19.393  20.992   0.607  0.00  0.00    -0.082 A 
ATOM     68  H35 9KV d   1      21.496  20.945   0.213  0.00  0.00     0.083 H 
ATOM     69  C21 9KV d   1      18.332  21.722   1.121  0.00  0.00    -0.072 A 
ATOM     70  H10 9KV d   1      19.219  20.004   0.196  0.00  0.00     0.083 H 
ATOM     71  H4  9KV d   1      17.335  21.298   1.109  0.00  0.00     0.084 H 
ENDBRANCH  58  61
ENDBRANCH  47  54
ENDBRANCH   1  41
TORSDOF 6
