REMARK  7 active torsions:
REMARK  status: ('A' for Active; 'I' for Inactive)
REMARK    1  A    between atoms: C5_3  and  C4_2 
REMARK       I    between atoms: C4_2  and  N8_17 
REMARK    2  A    between atoms: C5_3  and  N2_15 
REMARK    3  A    between atoms: C11_23  and  C5_3 
REMARK    4  A    between atoms: C17_8  and  C21_9 
REMARK    5  A    between atoms: C21_9  and  O20_33 
REMARK    6  A    between atoms: C1_14  and  C9_30 
REMARK    7  A    between atoms: N8_17  and  C14_18 
ROOT
ATOM      1  C5  9KY d   1      13.289  18.418  -4.746  0.00  0.00     0.099 C 
ATOM      2  H1  9KY d   1      14.287  18.659  -4.353  0.00  0.00     0.089 H 
ENDROOT
BRANCH   1   3
ATOM      3  C4  9KY d   1      12.495  19.697  -4.466  0.00  0.00     0.241 C 
ATOM      4  O10 9KY d   1      11.903  20.303  -5.347  0.00  0.00    -0.271 OA
ATOM      5  N8  9KY d   1      12.515  20.080  -3.188  0.00  0.00    -0.355 N 
ATOM      6  H13 9KY d   1      13.030  19.514  -2.545  0.00  0.00     0.162 HD
BRANCH   5   7
ATOM      7  C14 9KY d   1      11.844  21.260  -2.656  0.00  0.00     0.012 C 
ATOM      8  C24 9KY d   1      12.779  21.972  -1.680  0.00  0.00    -0.046 C 
ATOM      9  C31 9KY d   1      12.099  23.162  -1.022  0.00  0.00    -0.063 C 
ATOM     10  H8  9KY d   1      13.665  22.325  -2.228  0.00  0.00     0.035 H 
ATOM     11  H9  9KY d   1      13.089  21.262  -0.900  0.00  0.00     0.035 H 
ATOM     12  C32 9KY d   1      10.823  22.742  -0.313  0.00  0.00    -0.065 C 
ATOM     13  H15 9KY d   1      11.852  23.906  -1.794  0.00  0.00     0.033 H 
ATOM     14  H16 9KY d   1      12.787  23.608  -0.289  0.00  0.00     0.033 H 
ATOM     15  C30 9KY d   1       9.860  22.056  -1.296  0.00  0.00    -0.063 C 
ATOM     16  H17 9KY d   1      10.335  23.632   0.110  0.00  0.00     0.033 H 
ATOM     17  H18 9KY d   1      11.073  22.041   0.497  0.00  0.00     0.033 H 
ATOM     18  C25 9KY d   1      10.531  20.858  -1.972  0.00  0.00    -0.046 C 
ATOM     19  H19 9KY d   1       9.555  22.780  -2.066  0.00  0.00     0.033 H 
ATOM     20  H20 9KY d   1       8.972  21.709  -0.747  0.00  0.00     0.033 H 
ATOM     21  H21 9KY d   1      10.744  20.092  -1.212  0.00  0.00     0.035 H 
ATOM     22  H22 9KY d   1       9.847  20.445  -2.727  0.00  0.00     0.035 H 
ATOM     23  H14 9KY d   1      11.612  21.944  -3.486  0.00  0.00     0.072 H 
ENDBRANCH   5   7
ENDBRANCH   1   3
BRANCH   1  24
ATOM     24  N2  9KY d   1      12.789  17.314  -3.842  0.00  0.00    -0.315 N 
ATOM     25  C6  9KY d   1      11.478  16.811  -3.672  0.00  0.00     0.066 A 
ATOM     26  C7  9KY d   1      11.604  15.816  -2.698  0.00  0.00     0.086 A 
ATOM     27  C18 9KY d   1      10.255  17.114  -4.262  0.00  0.00    -0.055 A 
ATOM     28  N3  9KY d   1      12.930  15.710  -2.271  0.00  0.00    -0.228 NA
ATOM     29  C19 9KY d   1      10.478  15.097  -2.293  0.00  0.00    -0.053 A 
ATOM     30  C1  9KY d   1      13.591  16.612  -2.976  0.00  0.00     0.142 A 
ATOM     31  C27 9KY d   1       9.249  15.390  -2.874  0.00  0.00    -0.081 A 
ATOM     32  H30 9KY d   1      10.560  14.323  -1.538  0.00  0.00     0.087 H 
ATOM     33  C26 9KY d   1       9.134  16.380  -3.843  0.00  0.00    -0.081 A 
ATOM     34  H31 9KY d   1       8.368  14.838  -2.567  0.00  0.00     0.083 H 
ATOM     35  H10 9KY d   1       8.165  16.588  -4.282  0.00  0.00     0.083 H 
ATOM     36  H32 9KY d   1      10.171  17.888  -5.017  0.00  0.00     0.087 H 
BRANCH  30  37
ATOM     37  C9  9KY d   1      15.029  16.863  -2.834  0.00  0.00     0.010 A 
ATOM     38  C13 9KY d   1      16.013  16.282  -3.624  0.00  0.00    -0.069 A 
ATOM     39  C16 9KY d   1      17.350  16.595  -3.415  0.00  0.00    -0.074 A 
ATOM     40  H2  9KY d   1      15.737  15.583  -4.405  0.00  0.00     0.085 H 
ATOM     41  C17 9KY d   1      17.728  17.495  -2.421  0.00  0.00    -0.035 A 
ATOM     42  H34 9KY d   1      18.110  16.132  -4.034  0.00  0.00     0.084 H 
ATOM     43  C15 9KY d   1      16.739  18.073  -1.646  0.00  0.00    -0.074 A 
ATOM     44  C12 9KY d   1      15.412  17.767  -1.846  0.00  0.00    -0.069 A 
ATOM     45  H3  9KY d   1      17.013  18.778  -0.869  0.00  0.00     0.084 H 
ATOM     46  H33 9KY d   1      14.655  18.235  -1.227  0.00  0.00     0.085 H 
BRANCH  41  47
ATOM     47  C21 9KY d   1      19.170  17.845  -2.183  0.00  0.00     0.040 C 
ATOM     48  H4  9KY d   1      19.534  17.271  -1.318  0.00  0.00     0.081 H 
ATOM     49  H5  9KY d   1      19.240  18.921  -1.965  0.00  0.00     0.081 H 
BRANCH  47  50
ATOM     50  O20 9KY d   1      19.991  17.554  -3.296  0.00  0.00    -0.396 OA
ATOM     51  H35 9KY d   1      20.889  17.792  -3.097  0.00  0.00     0.209 HD
ENDBRANCH  47  50
ENDBRANCH  41  47
ENDBRANCH  30  37
ENDBRANCH   1  24
BRANCH   1  52
ATOM     52  C11 9KY d   1      13.619  17.962  -6.197  0.00  0.00    -0.025 C 
ATOM     53  C22 9KY d   1      13.003  16.621  -6.593  0.00  0.00    -0.059 C 
ATOM     54  C29 9KY d   1      13.595  16.115  -7.921  0.00  0.00    -0.065 C 
ATOM     55  H6  9KY d   1      11.916  16.744  -6.707  0.00  0.00     0.033 H 
ATOM     56  H7  9KY d   1      13.208  15.883  -5.803  0.00  0.00     0.033 H 
ATOM     57  C33 9KY d   1      13.381  17.124  -9.060  0.00  0.00    -0.065 C 
ATOM     58  H24 9KY d   1      13.108  15.166  -8.190  0.00  0.00     0.033 H 
ATOM     59  H25 9KY d   1      14.675  15.949  -7.790  0.00  0.00     0.033 H 
ATOM     60  C28 9KY d   1      13.875  18.577  -8.668  0.00  0.00    -0.065 C 
ATOM     61  H26 9KY d   1      13.941  16.785  -9.944  0.00  0.00     0.033 H 
ATOM     62  H27 9KY d   1      12.308  17.166  -9.300  0.00  0.00     0.033 H 
ATOM     63  C23 9KY d   1      13.320  19.017  -7.270  0.00  0.00    -0.059 C 
ATOM     64  H11 9KY d   1      13.528  19.290  -9.430  0.00  0.00     0.033 H 
ATOM     65  H12 9KY d   1      14.974  18.583  -8.634  0.00  0.00     0.033 H 
ATOM     66  H28 9KY d   1      12.231  19.155  -7.344  0.00  0.00     0.033 H 
ATOM     67  H29 9KY d   1      13.791  19.968  -6.980  0.00  0.00     0.033 H 
ATOM     68  H23 9KY d   1      14.709  17.812  -6.212  0.00  0.00     0.043 H 
ENDBRANCH   1  52
TORSDOF 7
