REMARK  11 active torsions:
REMARK  status: ('A' for Active; 'I' for Inactive)
REMARK    1  A    between atoms: C5_2  and  C8_4 
REMARK    2  A    between atoms: C27_22  and  C20_7 
REMARK    3  A    between atoms: C16_16  and  C22_9 
REMARK    4  A    between atoms: C24_10  and  C30_25 
REMARK    5  A    between atoms: C1_13  and  C11_14 
REMARK    6  A    between atoms: C31_26  and  C27_22 
REMARK    7  A    between atoms: C27_22  and  C32_27 
REMARK    8  A    between atoms: N7_33  and  C3_24 
REMARK    9  A    between atoms: C35_30  and  C31_26 
REMARK   10  A    between atoms: C37_32  and  C35_30 
REMARK   11  A    between atoms: C36_31  and  O38_37 
REMARK       I    between atoms: C37_32  and  N7_33 
ROOT
ATOM      1  C15 9L1 d   1     -11.267  41.061  -4.651  0.00  0.00    -0.046 C 
ATOM      2  C17 9L1 d   1      -9.547  40.311  -2.836  0.00  0.00    -0.060 C 
ATOM      3  C20 9L1 d   1      -9.187  42.548  -1.937  0.00  0.00    -0.044 C 
ATOM      4  C21 9L1 d   1     -11.060  43.699  -3.393  0.00  0.00    -0.057 C 
ATOM      5  C24 9L1 d   1     -12.622  42.021  -6.606  0.00  0.00    -0.036 C 
ATOM      6  C26 9L1 d   1     -11.862  39.608  -6.655  0.00  0.00    -0.060 C 
ATOM      7  C28 9L1 d   1     -12.112  40.845  -7.480  0.00  0.00    -0.044 C 
ATOM      8  C14 9L1 d   1     -10.148  41.417  -3.701  0.00  0.00    -0.043 C 
ATOM      9  C16 9L1 d   1     -10.472  42.488  -2.731  0.00  0.00    -0.036 C 
ATOM     10  C18 9L1 d   1     -11.600  42.300  -5.468  0.00  0.00    -0.043 C 
ATOM     11  C19 9L1 d   1     -10.849  39.899  -5.556  0.00  0.00    -0.061 C 
ATOM     12  C23 9L1 d   1      -8.788  41.073  -1.753  0.00  0.00    -0.060 C 
ATOM     13  C25 9L1 d   1     -12.018  43.429  -4.562  0.00  0.00    -0.060 C 
ATOM     14  C29 9L1 d   1     -12.786  43.252  -7.513  0.00  0.00    -0.055 C 
ATOM     15  C33 9L1 d   1     -10.891  41.209  -8.317  0.00  0.00    -0.037 C 
ATOM     16  C34 9L1 d   1     -11.535  43.596  -8.320  0.00  0.00    -0.040 C 
ATOM     17  C36 9L1 d   1     -11.121  42.427  -9.175  0.00  0.00     0.036 C 
ATOM     18  H3  9L1 d   1     -12.153  40.758  -4.074  0.00  0.00     0.041 H 
ATOM     19  H4  9L1 d   1      -8.864  39.680  -3.424  0.00  0.00     0.033 H 
ATOM     20  H5  9L1 d   1     -10.336  39.685  -2.395  0.00  0.00     0.033 H 
ATOM     21  H6  9L1 d   1      -8.445  43.025  -2.595  0.00  0.00     0.041 H 
ATOM     22  H7  9L1 d   1     -10.229  44.311  -3.773  0.00  0.00     0.034 H 
ATOM     23  H8  9L1 d   1     -11.613  44.265  -2.629  0.00  0.00     0.034 H 
ATOM     24  H12 9L1 d   1     -11.472  38.811  -7.305  0.00  0.00     0.033 H 
ATOM     25  H13 9L1 d   1     -12.807  39.279  -6.199  0.00  0.00     0.033 H 
ATOM     26  H14 9L1 d   1     -12.920  40.603  -8.187  0.00  0.00     0.041 H 
ATOM     27  H15 9L1 d   1      -9.340  41.789  -4.348  0.00  0.00     0.041 H 
ATOM     28  H16 9L1 d   1     -10.669  42.616  -5.961  0.00  0.00     0.041 H 
ATOM     29  H17 9L1 d   1     -10.734  38.997  -4.938  0.00  0.00     0.033 H 
ATOM     30  H18 9L1 d   1      -9.885  40.148  -6.024  0.00  0.00     0.033 H 
ATOM     31  H20 9L1 d   1      -7.703  40.949  -1.883  0.00  0.00     0.033 H 
ATOM     32  H21 9L1 d   1      -9.081  40.717  -0.754  0.00  0.00     0.033 H 
ATOM     33  H22 9L1 d   1     -12.089  44.345  -5.166  0.00  0.00     0.033 H 
ATOM     34  H23 9L1 d   1     -13.007  43.187  -4.146  0.00  0.00     0.033 H 
ATOM     35  H25 9L1 d   1     -13.040  44.116  -6.882  0.00  0.00     0.034 H 
ATOM     36  H26 9L1 d   1     -13.609  43.057  -8.216  0.00  0.00     0.034 H 
ATOM     37  H35 9L1 d   1     -10.645  40.359  -8.970  0.00  0.00     0.037 H 
ATOM     38  H36 9L1 d   1     -10.047  41.408  -7.641  0.00  0.00     0.037 H 
ATOM     39  H37 9L1 d   1     -10.716  43.847  -7.630  0.00  0.00     0.036 H 
ATOM     40  H38 9L1 d   1     -11.748  44.460  -8.967  0.00  0.00     0.036 H 
ATOM     41  H41 9L1 d   1     -11.932  42.210  -9.886  0.00  0.00     0.082 H 
ENDROOT
BRANCH   3  42
ATOM     42  C27 9L1 d   1      -9.092  43.330  -0.605  0.00  0.00    -0.053 C 
ATOM     43  H24 9L1 d   1      -9.726  42.819   0.135  0.00  0.00     0.040 H 
BRANCH  42  44
ATOM     44  C31 9L1 d   1      -7.628  43.287  -0.122  0.00  0.00    -0.054 C 
ATOM     45  H30 9L1 d   1      -7.015  43.872  -0.824  0.00  0.00     0.034 H 
ATOM     46  H31 9L1 d   1      -7.293  42.239  -0.127  0.00  0.00     0.034 H 
BRANCH  44  47
ATOM     47  C35 9L1 d   1      -7.419  43.848   1.276  0.00  0.00     0.010 C 
ATOM     48  H39 9L1 d   1      -8.225  43.476   1.926  0.00  0.00     0.047 H 
ATOM     49  H40 9L1 d   1      -7.468  44.946   1.223  0.00  0.00     0.047 H 
BRANCH  47  50
ATOM     50  C37 9L1 d   1      -6.095  43.456   1.882  0.00  0.00     0.222 C 
ATOM     51  N7  9L1 d   1      -5.535  44.430   2.625  0.00  0.00    -0.327 N 
ATOM     52  H42 9L1 d   1      -6.061  45.279   2.676  0.00  0.00     0.169 HD
ATOM     53  O39 9L1 d   1      -5.596  42.345   1.697  0.00  0.00    -0.273 OA
BRANCH  51  54
ATOM     54  C3  9L1 d   1      -4.316  44.436   3.345  0.00  0.00     0.036 A 
ATOM     55  C4  9L1 d   1      -3.395  43.392   3.419  0.00  0.00    -0.041 A 
ATOM     56  C5  9L1 d   1      -2.229  43.535   4.169  0.00  0.00     0.043 A 
ATOM     57  H1  9L1 d   1      -3.587  42.465   2.891  0.00  0.00     0.088 H 
ATOM     58  C6  9L1 d   1      -1.986  44.727   4.845  0.00  0.00    -0.050 A 
ATOM     59  C1  9L1 d   1      -2.906  45.770   4.774  0.00  0.00     0.043 A 
ATOM     60  H2  9L1 d   1      -1.079  44.844   5.428  0.00  0.00     0.086 H 
ATOM     61  C2  9L1 d   1      -4.065  45.618   4.022  0.00  0.00    -0.041 A 
ATOM     62  H19 9L1 d   1      -4.779  46.432   3.965  0.00  0.00     0.088 H 
BRANCH  56  63
ATOM     63  C8  9L1 d   1      -1.241  42.420   4.250  0.00  0.00     0.209 C 
ATOM     64  O10 9L1 d   1      -1.536  41.364   3.540  0.00  0.00    -0.644 OA
ATOM     65  O9  9L1 d   1      -0.232  42.503   4.940  0.00  0.00    -0.644 OA
ENDBRANCH  56  63
BRANCH  59  66
ATOM     66  C11 9L1 d   1      -2.652  47.053   5.484  0.00  0.00     0.209 C 
ATOM     67  O12 9L1 d   1      -3.374  48.030   5.312  0.00  0.00    -0.644 OA
ATOM     68  O13 9L1 d   1      -1.631  47.039   6.306  0.00  0.00    -0.644 OA
ENDBRANCH  59  66
ENDBRANCH  51  54
ENDBRANCH  47  50
ENDBRANCH  44  47
ENDBRANCH  42  44
BRANCH  42  69
ATOM     69  C32 9L1 d   1      -9.559  44.763  -0.699  0.00  0.00    -0.072 C 
ATOM     70  H32 9L1 d   1     -10.603  44.786  -1.044  0.00  0.00     0.028 H 
ATOM     71  H33 9L1 d   1      -8.925  45.309  -1.413  0.00  0.00     0.028 H 
ATOM     72  H34 9L1 d   1      -9.489  45.237   0.291  0.00  0.00     0.028 H 
ENDBRANCH  42  69
ENDBRANCH   3  42
BRANCH   9  73
ATOM     73  C22 9L1 d   1     -11.539  41.903  -1.772  0.00  0.00    -0.068 C 
ATOM     74  H9  9L1 d   1     -11.133  41.011  -1.272  0.00  0.00     0.028 H 
ATOM     75  H10 9L1 d   1     -12.435  41.625  -2.346  0.00  0.00     0.028 H 
ATOM     76  H11 9L1 d   1     -11.806  42.657  -1.017  0.00  0.00     0.028 H 
ENDBRANCH   9  73
BRANCH   5  77
ATOM     77  C30 9L1 d   1     -13.996  41.670  -6.019  0.00  0.00    -0.068 C 
ATOM     78  H27 9L1 d   1     -13.902  40.790  -5.365  0.00  0.00     0.028 H 
ATOM     79  H28 9L1 d   1     -14.697  41.446  -6.836  0.00  0.00     0.028 H 
ATOM     80  H29 9L1 d   1     -14.374  42.522  -5.435  0.00  0.00     0.028 H 
ENDBRANCH   5  77
BRANCH  17  81
ATOM     81  O38 9L1 d   1      -9.933  42.729  -9.915  0.00  0.00    -0.396 OA
ATOM     82  H43 9L1 d   1     -10.093  43.477 -10.478  0.00  0.00     0.210 HD
ENDBRANCH  17  81
TORSDOF 11
