REMARK  6 active torsions:
REMARK  status: ('A' for Active; 'I' for Inactive)
REMARK    1  A    between atoms: N1_1  and  C7_6 
REMARK    2  A    between atoms: C7_6  and  C6_5 
REMARK       I    between atoms: C6_5  and  N9_19 
REMARK    3  A    between atoms: C7_6  and  C23_21 
REMARK    4  A    between atoms: C16_17  and  C13_9 
REMARK    5  A    between atoms: N9_19  and  C12_18 
REMARK    6  A    between atoms: C2_27  and  C14_31 
ROOT
ATOM      1  C7  9L4 d   1      22.802  19.283   4.416  0.00  0.00     0.099 C 
ATOM      2  H1  9L4 d   1      21.777  19.601   4.176  0.00  0.00     0.089 H 
ENDROOT
BRANCH   1   3
ATOM      3  N1  9L4 d   1      23.139  18.072   3.553  0.00  0.00    -0.315 N 
ATOM      4  C4  9L4 d   1      24.367  17.445   3.423  0.00  0.00     0.069 A 
ATOM      5  C5  9L4 d   1      24.161  16.398   2.543  0.00  0.00     0.089 A 
ATOM      6  C8  9L4 d   1      25.594  17.720   4.007  0.00  0.00    -0.014 A 
ATOM      7  N3  9L4 d   1      22.821  16.370   2.124  0.00  0.00    -0.228 NA
ATOM      8  C10 9L4 d   1      25.229  15.569   2.207  0.00  0.00    -0.013 A 
ATOM      9  C2  9L4 d   1      22.251  17.384   2.747  0.00  0.00     0.142 A 
ATOM     10  C15 9L4 d   1      26.451  15.845   2.786  0.00  0.00     0.157 A 
ATOM     11  H3  9L4 d   1      25.105  14.741   1.519  0.00  0.00     0.092 H 
ATOM     12  F27 9L4 d   1      27.511  15.068   2.489  0.00  0.00    -0.203 F 
ATOM     13  C11 9L4 d   1      26.625  16.898   3.666  0.00  0.00     0.157 A 
ATOM     14  F26 9L4 d   1      27.846  17.119   4.203  0.00  0.00    -0.203 F 
ATOM     15  H2  9L4 d   1      25.726  18.545   4.698  0.00  0.00     0.092 H 
BRANCH   9  16
ATOM     16  C14 9L4 d   1      20.822  17.742   2.609  0.00  0.00     0.010 A 
ATOM     17  C24 9L4 d   1      19.813  16.910   3.100  0.00  0.00    -0.068 A 
ATOM     18  C32 9L4 d   1      18.476  17.265   2.969  0.00  0.00    -0.061 A 
ATOM     19  H6  9L4 d   1      20.076  15.978   3.588  0.00  0.00     0.085 H 
ATOM     20  C30 9L4 d   1      18.154  18.459   2.352  0.00  0.00     0.034 A 
ATOM     21  H19 9L4 d   1      17.696  16.614   3.346  0.00  0.00     0.086 H 
ATOM     22 CL33 9L4 d   1      16.482  18.916   2.190  0.00  0.00    -0.084 Cl
ATOM     23  C31 9L4 d   1      19.131  19.304   1.863  0.00  0.00    -0.061 A 
ATOM     24  C25 9L4 d   1      20.461  18.942   1.994  0.00  0.00    -0.068 A 
ATOM     25  H20 9L4 d   1      18.860  20.238   1.383  0.00  0.00     0.086 H 
ATOM     26  H21 9L4 d   1      21.233  19.600   1.613  0.00  0.00     0.085 H 
ENDBRANCH   9  16
ENDBRANCH   1   3
BRANCH   1  27
ATOM     27  C6  9L4 d   1      23.759  20.458   4.064  0.00  0.00     0.246 C 
ATOM     28  N9  9L4 d   1      24.081  20.551   2.745  0.00  0.00    -0.324 N 
ATOM     29  H7  9L4 d   1      23.687  19.882   2.114  0.00  0.00     0.169 HD
ATOM     30  O19 9L4 d   1      24.177  21.222   4.923  0.00  0.00    -0.271 OA
BRANCH  28  31
ATOM     31  C12 9L4 d   1      24.944  21.544   2.216  0.00  0.00     0.056 A 
ATOM     32  C17 9L4 d   1      24.464  22.845   1.974  0.00  0.00     0.061 A 
ATOM     33 CL28 9L4 d   1      22.802  23.241   2.304  0.00  0.00    -0.082 Cl
ATOM     34  C18 9L4 d   1      25.287  23.834   1.467  0.00  0.00    -0.043 A 
ATOM     35  C16 9L4 d   1      26.626  23.552   1.189  0.00  0.00     0.042 A 
ATOM     36  H22 9L4 d   1      24.893  24.827   1.286  0.00  0.00     0.087 H 
ATOM     37  C22 9L4 d   1      27.114  22.270   1.427  0.00  0.00    -0.064 A 
ATOM     38  C21 9L4 d   1      26.287  21.272   1.936  0.00  0.00    -0.054 A 
ATOM     39  H5  9L4 d   1      28.153  22.046   1.213  0.00  0.00     0.085 H 
ATOM     40  H4  9L4 d   1      26.686  20.280   2.116  0.00  0.00     0.087 H 
BRANCH  35  41
ATOM     41  C13 9L4 d   1      27.530  24.634   0.631  0.00  0.00     0.209 C 
ATOM     42  O20 9L4 d   1      27.022  25.822   0.668  0.00  0.00    -0.644 OA
ATOM     43  O29 9L4 d   1      28.653  24.400   0.180  0.00  0.00    -0.644 OA
ENDBRANCH  35  41
ENDBRANCH  28  31
ENDBRANCH   1  27
BRANCH   1  44
ATOM     44  C23 9L4 d   1      22.837  18.909   5.922  0.00  0.00    -0.025 C 
ATOM     45  C34 9L4 d   1      21.973  19.842   6.768  0.00  0.00    -0.059 C 
ATOM     46  C37 9L4 d   1      22.104  19.520   8.269  0.00  0.00    -0.065 C 
ATOM     47  H9  9L4 d   1      20.921  19.727   6.468  0.00  0.00     0.033 H 
ATOM     48  H10 9L4 d   1      22.292  20.880   6.595  0.00  0.00     0.033 H 
ATOM     49  C38 9L4 d   1      21.709  18.064   8.576  0.00  0.00    -0.065 C 
ATOM     50  H11 9L4 d   1      21.447  20.195   8.837  0.00  0.00     0.033 H 
ATOM     51  H12 9L4 d   1      23.148  19.679   8.578  0.00  0.00     0.033 H 
ATOM     52  C36 9L4 d   1      22.480  17.066   7.692  0.00  0.00    -0.065 C 
ATOM     53  H13 9L4 d   1      20.631  17.941   8.395  0.00  0.00     0.033 H 
ATOM     54  H14 9L4 d   1      21.930  17.850   9.632  0.00  0.00     0.033 H 
ATOM     55  C35 9L4 d   1      22.386  17.457   6.171  0.00  0.00    -0.059 C 
ATOM     56  H15 9L4 d   1      22.054  16.061   7.830  0.00  0.00     0.033 H 
ATOM     57  H16 9L4 d   1      23.537  17.061   7.996  0.00  0.00     0.033 H 
ATOM     58  H17 9L4 d   1      23.029  16.780   5.590  0.00  0.00     0.033 H 
ATOM     59  H18 9L4 d   1      21.343  17.347   5.839  0.00  0.00     0.033 H 
ATOM     60  H8  9L4 d   1      23.879  19.006   6.261  0.00  0.00     0.043 H 
ENDBRANCH   1  44
TORSDOF 6
