REMARK  7 active torsions:
REMARK  status: ('A' for Active; 'I' for Inactive)
REMARK    1  A    between atoms: C36_28  and  C8_4 
REMARK    2  A    between atoms: C10_5  and  C15_7 
REMARK    3  A    between atoms: N7_19  and  C10_5 
REMARK    4  A    between atoms: C10_5  and  C11_20 
REMARK       I    between atoms: C11_20  and  N12_6 
REMARK    5  A    between atoms: N12_6  and  C14_22 
REMARK    6  A    between atoms: C26_13  and  C27_30 
REMARK    7  A    between atoms: C27_30  and  C30_32 
ROOT
ATOM      1  C10 9L7 d   1      13.416  23.139   5.275  0.00  0.00     0.099 C 
ATOM      2  H2  9L7 d   1      14.483  22.974   5.067  0.00  0.00     0.089 H 
ENDROOT
BRANCH   1   3
ATOM      3  C15 9L7 d   1      13.319  23.470   6.777  0.00  0.00    -0.025 C 
ATOM      4  C20 9L7 d   1      14.319  22.631   7.605  0.00  0.00    -0.059 C 
ATOM      5  C19 9L7 d   1      14.223  22.955   9.131  0.00  0.00    -0.065 C 
ATOM      6  H7  9L7 d   1      15.340  22.849   7.258  0.00  0.00     0.033 H 
ATOM      7  H8  9L7 d   1      14.100  21.564   7.453  0.00  0.00     0.033 H 
ATOM      8  C18 9L7 d   1      14.399  24.470   9.401  0.00  0.00    -0.065 C 
ATOM      9  H28 9L7 d   1      15.011  22.403   9.664  0.00  0.00     0.033 H 
ATOM     10  H29 9L7 d   1      13.238  22.638   9.503  0.00  0.00     0.033 H 
ATOM     11  C17 9L7 d   1      13.426  25.310   8.561  0.00  0.00    -0.065 C 
ATOM     12  H26 9L7 d   1      14.212  24.667  10.467  0.00  0.00     0.033 H 
ATOM     13  H27 9L7 d   1      15.430  24.760   9.150  0.00  0.00     0.033 H 
ATOM     14  C16 9L7 d   1      13.557  24.991   7.066  0.00  0.00    -0.059 C 
ATOM     15  H5  9L7 d   1      12.397  25.095   8.884  0.00  0.00     0.033 H 
ATOM     16  H6  9L7 d   1      13.645  26.376   8.720  0.00  0.00     0.033 H 
ATOM     17  H24 9L7 d   1      12.814  25.581   6.509  0.00  0.00     0.033 H 
ATOM     18  H25 9L7 d   1      14.568  25.264   6.730  0.00  0.00     0.033 H 
ATOM     19  H4  9L7 d   1      12.301  23.216   7.108  0.00  0.00     0.043 H 
ENDBRANCH   1   3
BRANCH   1  20
ATOM     20  N7  9L7 d   1      12.967  24.234   4.372  0.00  0.00    -0.315 N 
ATOM     21  C6  9L7 d   1      11.671  24.777   4.226  0.00  0.00     0.066 A 
ATOM     22  C5  9L7 d   1      11.804  25.758   3.246  0.00  0.00     0.086 A 
ATOM     23  C3  9L7 d   1      10.456  24.508   4.851  0.00  0.00    -0.055 A 
ATOM     24  C4  9L7 d   1      10.686  26.506   2.858  0.00  0.00    -0.053 A 
ATOM     25  N9  9L7 d   1      13.130  25.823   2.790  0.00  0.00    -0.228 NA
ATOM     26  C1  9L7 d   1       9.461  26.255   3.467  0.00  0.00    -0.081 A 
ATOM     27  H1  9L7 d   1      10.774  27.270   2.094  0.00  0.00     0.087 H 
ATOM     28  C2  9L7 d   1       9.340  25.263   4.459  0.00  0.00    -0.081 A 
ATOM     29  H16 9L7 d   1       8.589  26.830   3.175  0.00  0.00     0.083 H 
ATOM     30  H17 9L7 d   1       8.377  25.081   4.923  0.00  0.00     0.083 H 
ATOM     31  C8  9L7 d   1      13.781  24.904   3.485  0.00  0.00     0.142 A 
ATOM     32  H18 9L7 d   1      10.375  23.742   5.614  0.00  0.00     0.087 H 
BRANCH  31  33
ATOM     33  C36 9L7 d   1      15.218  24.608   3.313  0.00  0.00     0.010 A 
ATOM     34  C32 9L7 d   1      15.639  24.066   2.098  0.00  0.00    -0.068 A 
ATOM     35  C28 9L7 d   1      16.975  23.756   1.883  0.00  0.00    -0.068 A 
ATOM     36  H30 9L7 d   1      14.914  23.885   1.313  0.00  0.00     0.085 H 
ATOM     37  C26 9L7 d   1      17.931  23.969   2.880  0.00  0.00     0.015 A 
ATOM     38  H15 9L7 d   1      17.281  23.343   0.929  0.00  0.00     0.085 H 
ATOM     39  C29 9L7 d   1      17.510  24.504   4.102  0.00  0.00    -0.068 A 
ATOM     40  C33 9L7 d   1      16.172  24.817   4.319  0.00  0.00    -0.068 A 
ATOM     41  H36 9L7 d   1      18.235  24.677   4.889  0.00  0.00     0.085 H 
ATOM     42  H37 9L7 d   1      15.864  25.226   5.274  0.00  0.00     0.085 H 
BRANCH  37  43
ATOM     43  C27 9L7 d   1      19.381  23.637   2.664  0.00  0.00     0.192 C 
ATOM     44  O31 9L7 d   1      20.233  24.225   3.318  0.00  0.00    -0.287 OA
BRANCH  43  45
ATOM     45  C30 9L7 d   1      19.813  22.589   1.661  0.00  0.00     0.015 A 
ATOM     46  C34 9L7 d   1      20.976  22.784   0.905  0.00  0.00    -0.069 A 
ATOM     47  C37 9L7 d   1      21.389  21.831  -0.025  0.00  0.00    -0.082 A 
ATOM     48  H31 9L7 d   1      21.561  23.686   1.045  0.00  0.00     0.085 H 
ATOM     49  C39 9L7 d   1      20.655  20.673  -0.211  0.00  0.00    -0.083 A 
ATOM     50  H32 9L7 d   1      22.289  21.998  -0.605  0.00  0.00     0.083 H 
ATOM     51  C38 9L7 d   1      19.499  20.462   0.533  0.00  0.00    -0.082 A 
ATOM     52  H33 9L7 d   1      20.980  19.933  -0.934  0.00  0.00     0.083 H 
ATOM     53  C35 9L7 d   1      19.078  21.411   1.466  0.00  0.00    -0.069 A 
ATOM     54  H34 9L7 d   1      18.922  19.556   0.388  0.00  0.00     0.083 H 
ATOM     55  H35 9L7 d   1      18.177  21.236   2.043  0.00  0.00     0.085 H 
ENDBRANCH  43  45
ENDBRANCH  37  43
ENDBRANCH  31  33
ENDBRANCH   1  20
BRANCH   1  56
ATOM     56  C11 9L7 d   1      12.682  21.849   4.911  0.00  0.00     0.241 C 
ATOM     57  N12 9L7 d   1      12.558  21.618   3.601  0.00  0.00    -0.355 N 
ATOM     58  H3  9L7 d   1      12.948  22.287   2.968  0.00  0.00     0.162 HD
ATOM     59  O13 9L7 d   1      12.244  21.097   5.776  0.00  0.00    -0.271 OA
BRANCH  57  60
ATOM     60  C14 9L7 d   1      11.892  20.455   3.039  0.00  0.00     0.012 C 
ATOM     61  C21 9L7 d   1      10.645  20.895   2.264  0.00  0.00    -0.046 C 
ATOM     62  C22 9L7 d   1       9.962  19.703   1.567  0.00  0.00    -0.063 C 
ATOM     63  H9  9L7 d   1       9.933  21.355   2.965  0.00  0.00     0.035 H 
ATOM     64  H10 9L7 d   1      10.939  21.633   1.503  0.00  0.00     0.035 H 
ATOM     65  C23 9L7 d   1      10.940  18.974   0.653  0.00  0.00    -0.065 C 
ATOM     66  H11 9L7 d   1       9.116  20.072   0.968  0.00  0.00     0.033 H 
ATOM     67  H12 9L7 d   1       9.592  19.003   2.331  0.00  0.00     0.033 H 
ATOM     68  C24 9L7 d   1      12.154  18.503   1.442  0.00  0.00    -0.063 C 
ATOM     69  H20 9L7 d   1      11.269  19.657  -0.144  0.00  0.00     0.033 H 
ATOM     70  H21 9L7 d   1      10.438  18.103   0.206  0.00  0.00     0.033 H 
ATOM     71  C25 9L7 d   1      12.861  19.679   2.133  0.00  0.00    -0.046 C 
ATOM     72  H13 9L7 d   1      12.860  18.014   0.755  0.00  0.00     0.033 H 
ATOM     73  H14 9L7 d   1      11.827  17.782   2.206  0.00  0.00     0.033 H 
ATOM     74  H22 9L7 d   1      13.258  20.360   1.366  0.00  0.00     0.035 H 
ATOM     75  H23 9L7 d   1      13.690  19.291   2.743  0.00  0.00     0.035 H 
ATOM     76  H19 9L7 d   1      11.579  19.795   3.861  0.00  0.00     0.072 H 
ENDBRANCH  57  60
ENDBRANCH   1  56
TORSDOF 7
