REMARK  7 active torsions:
REMARK  status: ('A' for Active; 'I' for Inactive)
REMARK    1  A    between atoms: N1_1  and  C7_6 
REMARK    2  A    between atoms: C7_6  and  C13_9 
REMARK    3  A    between atoms: C7_6  and  C17_10 
REMARK    4  A    between atoms: C10_8  and  C2_29 
REMARK    5  A    between atoms: C13_9  and  O16_16 
REMARK    6  A    between atoms: O16_16  and  C24_13 
REMARK    7  A    between atoms: C14_18  and  C12_19 
ROOT
ATOM      1  C7  9LA d   1      13.576  23.086   4.893  0.00  0.00     0.043 C 
ATOM      2  H2  9LA d   1      14.611  22.792   4.662  0.00  0.00     0.077 H 
ENDROOT
BRANCH   1   3
ATOM      3  N1  9LA d   1      13.216  24.185   3.947  0.00  0.00    -0.322 N 
ATOM      4  C4  9LA d   1      11.994  24.866   3.811  0.00  0.00     0.068 A 
ATOM      5  C5  9LA d   1      12.193  25.786   2.780  0.00  0.00     0.089 A 
ATOM      6  C6  9LA d   1      10.789  24.745   4.492  0.00  0.00    -0.014 A 
ATOM      7  N3  9LA d   1      13.499  25.682   2.289  0.00  0.00    -0.228 NA
ATOM      8  C8  9LA d   1      11.143  26.631   2.402  0.00  0.00    -0.013 A 
ATOM      9  C2  9LA d   1      14.064  24.724   3.002  0.00  0.00     0.141 A 
ATOM     10  C11 9LA d   1       9.948  26.504   3.084  0.00  0.00     0.157 A 
ATOM     11  H3  9LA d   1      11.263  27.357   1.605  0.00  0.00     0.092 H 
ATOM     12  C9  9LA d   1       9.778  25.585   4.103  0.00  0.00     0.157 A 
ATOM     13  F23 9LA d   1       8.916  27.293   2.757  0.00  0.00    -0.203 F 
ATOM     14  F22 9LA d   1       8.557  25.508   4.741  0.00  0.00    -0.203 F 
ATOM     15  H1  9LA d   1      10.655  24.023   5.290  0.00  0.00     0.092 H 
BRANCH   9  16
ATOM     16  C10 9LA d   1      15.456  24.262   2.825  0.00  0.00     0.010 A 
ATOM     17  C18 9LA d   1      15.726  23.117   2.075  0.00  0.00    -0.068 A 
ATOM     18  C30 9LA d   1      17.026  22.662   1.910  0.00  0.00    -0.061 A 
ATOM     19  H21 9LA d   1      14.908  22.575   1.615  0.00  0.00     0.085 H 
ATOM     20  C26 9LA d   1      18.059  23.358   2.502  0.00  0.00     0.034 A 
ATOM     21  H22 9LA d   1      17.227  21.772   1.324  0.00  0.00     0.086 H 
ATOM     22  C29 9LA d   1      17.822  24.490   3.254  0.00  0.00    -0.061 A 
ATOM     23 CL31 9LA d   1      19.699  22.793   2.302  0.00  0.00    -0.084 Cl
ATOM     24  C19 9LA d   1      16.519  24.937   3.416  0.00  0.00    -0.068 A 
ATOM     25  H23 9LA d   1      18.645  25.025   3.713  0.00  0.00     0.086 H 
ATOM     26  H24 9LA d   1      16.327  25.823   4.010  0.00  0.00     0.085 H 
ENDBRANCH   9  16
ENDBRANCH   1   3
BRANCH   1  27
ATOM     27  C13 9LA d   1      12.707  21.856   4.630  0.00  0.00     0.046 C 
ATOM     28  H4  9LA d   1      11.753  21.941   5.171  0.00  0.00     0.078 H 
ATOM     29  H5  9LA d   1      13.231  20.944   4.952  0.00  0.00     0.078 H 
BRANCH  27  30
ATOM     30  O16 9LA d   1      12.473  21.822   3.204  0.00  0.00    -0.349 OA
BRANCH  30  31
ATOM     31  C24 9LA d   1      11.639  20.850   2.693  0.00  0.00     0.068 A 
ATOM     32  C28 9LA d   1      11.596  20.677   1.315  0.00  0.00    -0.050 A 
ATOM     33  C21 9LA d   1      10.771  19.704   0.766  0.00  0.00    -0.064 A 
ATOM     34  H9  9LA d   1      12.205  21.300   0.670  0.00  0.00     0.087 H 
ATOM     35  C14 9LA d   1       9.976  18.895   1.579  0.00  0.00     0.041 A 
ATOM     36  H8  9LA d   1      10.744  19.571  -0.309  0.00  0.00     0.085 H 
ATOM     37  C20 9LA d   1      10.030  19.082   2.960  0.00  0.00    -0.064 A 
ATOM     38  C27 9LA d   1      10.852  20.051   3.515  0.00  0.00    -0.050 A 
ATOM     39  H7  9LA d   1       9.421  18.462   3.608  0.00  0.00     0.085 H 
ATOM     40  H10 9LA d   1      10.881  20.186   4.590  0.00  0.00     0.087 H 
BRANCH  35  41
ATOM     41  C12 9LA d   1       9.088  17.852   0.984  0.00  0.00     0.209 C 
ATOM     42  O15 9LA d   1       8.889  17.959  -0.298  0.00  0.00    -0.644 OA
ATOM     43  O25 9LA d   1       8.582  16.959   1.650  0.00  0.00    -0.644 OA
ENDBRANCH  35  41
ENDBRANCH  30  31
ENDBRANCH  27  30
ENDBRANCH   1  27
BRANCH   1  44
ATOM     44  C17 9LA d   1      13.584  23.552   6.353  0.00  0.00    -0.032 C 
ATOM     45  C32 9LA d   1      13.920  22.418   7.322  0.00  0.00    -0.060 C 
ATOM     46  C34 9LA d   1      13.900  22.889   8.777  0.00  0.00    -0.065 C 
ATOM     47  H11 9LA d   1      14.923  22.034   7.086  0.00  0.00     0.033 H 
ATOM     48  H12 9LA d   1      13.181  21.613   7.198  0.00  0.00     0.033 H 
ATOM     49  C36 9LA d   1      14.851  24.052   9.001  0.00  0.00    -0.065 C 
ATOM     50  H13 9LA d   1      14.199  22.053   9.427  0.00  0.00     0.033 H 
ATOM     51  H14 9LA d   1      12.879  23.208   9.035  0.00  0.00     0.033 H 
ATOM     52  C35 9LA d   1      14.560  25.198   8.035  0.00  0.00    -0.065 C 
ATOM     53  H15 9LA d   1      15.884  23.706   8.846  0.00  0.00     0.033 H 
ATOM     54  H16 9LA d   1      14.737  24.415  10.033  0.00  0.00     0.033 H 
ATOM     55  C33 9LA d   1      14.554  24.717   6.576  0.00  0.00    -0.060 C 
ATOM     56  H17 9LA d   1      15.334  25.971   8.153  0.00  0.00     0.033 H 
ATOM     57  H18 9LA d   1      13.575  25.626   8.274  0.00  0.00     0.033 H 
ATOM     58  H19 9LA d   1      14.256  25.555   5.928  0.00  0.00     0.033 H 
ATOM     59  H20 9LA d   1      15.569  24.389   6.307  0.00  0.00     0.033 H 
ATOM     60  H6  9LA d   1      12.570  23.907   6.589  0.00  0.00     0.043 H 
ENDBRANCH   1  44
TORSDOF 7
