REMARK  9 active torsions:
REMARK  status: ('A' for Active; 'I' for Inactive)
REMARK    1  A    between atoms: N3_1  and  C17_6 
REMARK       I    between atoms: C7_2  and  N11_18 
REMARK    2  A    between atoms: C1_20  and  C7_2 
REMARK    3  A    between atoms: C20_7  and  C13_5 
REMARK    4  A    between atoms: C13_5  and  O28_14 
REMARK    5  A    between atoms: C33_13  and  C34_12 
REMARK    6  A    between atoms: O28_14  and  C33_13 
REMARK    7  A    between atoms: N11_18  and  C25_17 
REMARK    8  A    between atoms: S4_31  and  N6_22 
REMARK    9  A    between atoms: S4_31  and  C9_34 
ROOT
ATOM      1  N3  9LD d   1     -28.908  -4.037 -13.091  0.00  0.00    -0.228 N 
ATOM      2  C8  9LD d   1     -28.487  -4.298 -15.180  0.00  0.00     0.067 A 
ATOM      3  C10 9LD d   1     -30.740  -3.925 -16.326  0.00  0.00     0.033 C 
ATOM      4  C1  9LD d   1     -30.123  -3.836 -13.753  0.00  0.00     0.136 A 
ATOM      5  C2  9LD d   1     -29.866  -4.006 -15.115  0.00  0.00     0.021 A 
ATOM      6  N6  9LD d   1     -29.906  -3.897 -17.561  0.00  0.00    -0.302 N 
ATOM      7  C18 9LD d   1     -28.806  -4.899 -17.544  0.00  0.00     0.011 C 
ATOM      8  C16 9LD d   1     -27.782  -4.549 -16.473  0.00  0.00    -0.007 C 
ATOM      9  N5  9LD d   1     -27.904  -4.321 -14.011  0.00  0.00    -0.171 NA
ATOM     10  H1  9LD d   1     -31.346  -3.009 -16.276  0.00  0.00     0.072 H 
ATOM     11  H2  9LD d   1     -31.403  -4.802 -16.355  0.00  0.00     0.072 H 
ATOM     12  H14 9LD d   1     -28.312  -4.911 -18.527  0.00  0.00     0.066 H 
ATOM     13  H15 9LD d   1     -29.226  -5.894 -17.332  0.00  0.00     0.066 H 
ATOM     14  H16 9LD d   1     -27.077  -5.385 -16.351  0.00  0.00     0.044 H 
ATOM     15  H17 9LD d   1     -27.231  -3.645 -16.773  0.00  0.00     0.044 H 
ENDROOT
BRANCH   4  16
ATOM     16  C7  9LD d   1     -31.429  -3.518 -13.146  0.00  0.00     0.275 C 
ATOM     17  N11 9LD d   1     -31.387  -2.719 -12.046  0.00  0.00    -0.322 N 
ATOM     18  H13 9LD d   1     -30.471  -2.425 -11.772  0.00  0.00     0.169 HD
ATOM     19  O19 9LD d   1     -32.468  -3.960 -13.632  0.00  0.00    -0.266 OA
BRANCH  17  20
ATOM     20  C25 9LD d   1     -32.485  -2.219 -11.194  0.00  0.00     0.035 A 
ATOM     21  C29 9LD d   1     -32.212  -1.241 -10.243  0.00  0.00    -0.056 A 
ATOM     22  C26 9LD d   1     -33.222  -0.762  -9.426  0.00  0.00    -0.065 A 
ATOM     23  H12 9LD d   1     -31.205  -0.853 -10.141  0.00  0.00     0.086 H 
ATOM     24  C20 9LD d   1     -34.528  -1.254  -9.533  0.00  0.00     0.039 A 
ATOM     25  H6  9LD d   1     -32.998   0.005  -8.693  0.00  0.00     0.085 H 
ATOM     26  C27 9LD d   1     -34.790  -2.237 -10.484  0.00  0.00    -0.065 A 
ATOM     27  C30 9LD d   1     -33.783  -2.718 -11.303  0.00  0.00    -0.056 A 
ATOM     28  H24 9LD d   1     -35.795  -2.630 -10.584  0.00  0.00     0.085 H 
ATOM     29  H23 9LD d   1     -34.005  -3.487 -12.034  0.00  0.00     0.086 H 
BRANCH  24  30
ATOM     30  C13 9LD d   1     -35.630  -0.755  -8.662  0.00  0.00     0.293 C 
ATOM     31  O23 9LD d   1     -36.803  -0.940  -8.877  0.00  0.00    -0.259 OA
BRANCH  30  32
ATOM     32  O28 9LD d   1     -35.171  -0.070  -7.599  0.00  0.00    -0.318 OA
BRANCH  32  33
ATOM     33  C33 9LD d   1     -35.782  -0.397  -6.255  0.00  0.00     0.026 C 
ATOM     34  H10 9LD d   1     -36.874  -0.278  -6.306  0.00  0.00     0.074 H 
ATOM     35  H11 9LD d   1     -35.538  -1.434  -5.980  0.00  0.00     0.074 H 
BRANCH  33  36
ATOM     36  C34 9LD d   1     -35.228   0.528  -5.248  0.00  0.00    -0.056 C 
ATOM     37  H7  9LD d   1     -35.664   0.302  -4.264  0.00  0.00     0.030 H 
ATOM     38  H8  9LD d   1     -35.472   1.563  -5.528  0.00  0.00     0.030 H 
ATOM     39  H9  9LD d   1     -34.136   0.408  -5.202  0.00  0.00     0.030 H 
ENDBRANCH  33  36
ENDBRANCH  32  33
ENDBRANCH  30  32
ENDBRANCH  24  30
ENDBRANCH  17  20
ENDBRANCH   4  16
BRANCH   1  40
ATOM     40  C17 9LD d   1     -28.529  -3.997 -11.650  0.00  0.00     0.059 A 
ATOM     41  C31 9LD d   1     -29.445  -4.364 -10.665  0.00  0.00    -0.055 A 
ATOM     42  C36 9LD d   1     -29.072  -4.321  -9.326  0.00  0.00    -0.081 A 
ATOM     43  H18 9LD d   1     -30.444  -4.681 -10.942  0.00  0.00     0.087 H 
ATOM     44  C37 9LD d   1     -27.799  -3.923  -8.963  0.00  0.00    -0.083 A 
ATOM     45  H19 9LD d   1     -29.786  -4.602  -8.560  0.00  0.00     0.083 H 
ATOM     46  C35 9LD d   1     -26.884  -3.563  -9.937  0.00  0.00    -0.081 A 
ATOM     47  H20 9LD d   1     -27.518  -3.893  -7.917  0.00  0.00     0.083 H 
ATOM     48  C32 9LD d   1     -27.238  -3.597 -11.281  0.00  0.00    -0.055 A 
ATOM     49  H21 9LD d   1     -25.886  -3.253  -9.650  0.00  0.00     0.083 H 
ATOM     50  H22 9LD d   1     -26.518  -3.315 -12.041  0.00  0.00     0.087 H 
ENDBRANCH   1  40
BRANCH   6  51
ATOM     51  S4  9LD d   1     -30.694  -3.707 -18.965  0.00  0.00     0.267 S 
ATOM     52  O14 9LD d   1     -31.642  -2.653 -18.783  0.00  0.00    -0.200 OA
ATOM     53  O15 9LD d   1     -29.706  -3.590 -19.989  0.00  0.00    -0.200 OA
BRANCH  51  54
ATOM     54  C9  9LD d   1     -31.565  -5.183 -19.226  0.00  0.00     0.120 A 
ATOM     55  C21 9LD d   1     -32.890  -5.362 -18.935  0.00  0.00    -0.053 A 
ATOM     56  C24 9LD d   1     -33.295  -6.684 -19.264  0.00  0.00    -0.075 A 
ATOM     57  H3  9LD d   1     -33.542  -4.599 -18.511  0.00  0.00     0.086 H 
ATOM     58  C22 9LD d   1     -32.307  -7.439 -19.771  0.00  0.00    -0.044 A 
ATOM     59  H5  9LD d   1     -34.310  -7.050 -19.119  0.00  0.00     0.084 H 
ATOM     60  S12 9LD d   1     -30.833  -6.590 -19.879  0.00  0.00    -0.088 SA
ATOM     61  H4  9LD d   1     -32.433  -8.476 -20.078  0.00  0.00     0.095 H 
ENDBRANCH  51  54
ENDBRANCH   6  51
TORSDOF 9
