REMARK  7 active torsions:
REMARK  status: ('A' for Active; 'I' for Inactive)
REMARK    1  A    between atoms: C10_5  and  C4_1 
REMARK    2  A    between atoms: S1_18  and  C6_2 
REMARK       I    between atoms: N14_23  and  C10_5 
REMARK    3  A    between atoms: C13_6  and  C22_10 
REMARK    4  A    between atoms: N2_30  and  C13_6 
REMARK    5  A    between atoms: N5_21  and  S1_18 
REMARK    6  A    between atoms: C19_24  and  N14_23 
REMARK    7  A    between atoms: C19_24  and  C23_25 
ROOT
ATOM      1  C4  9LG d   1      31.695  31.170  -0.411  0.00  0.00     0.104 A 
ATOM      2  C7  9LG d   1      30.508  31.791  -2.234  0.00  0.00    -0.030 A 
ATOM      3  C8  9LG d   1      30.675  32.013  -0.926  0.00  0.00    -0.043 A 
ATOM      4  C15 9LG d   1      30.135  32.259  -4.618  0.00  0.00     0.009 C 
ATOM      5  C17 9LG d   1      29.571  32.417  -3.221  0.00  0.00    -0.024 C 
ATOM      6  N5  9LG d   1      30.426  30.821  -4.901  0.00  0.00    -0.301 N 
ATOM      7  N2  9LG d   1      32.161  30.398  -1.482  0.00  0.00    -0.340 N 
ATOM      8  C3  9LG d   1      31.394  30.798  -2.654  0.00  0.00     0.037 A 
ATOM      9  C9  9LG d   1      31.521  30.266  -4.054  0.00  0.00     0.044 C 
ATOM     10  H1  9LG d   1      30.110  32.736  -0.340  0.00  0.00     0.088 H 
ATOM     11  H4  9LG d   1      31.065  32.840  -4.702  0.00  0.00     0.065 H 
ATOM     12  H5  9LG d   1      29.402  32.632  -5.349  0.00  0.00     0.065 H 
ATOM     13  H6  9LG d   1      29.455  33.486  -2.990  0.00  0.00     0.042 H 
ATOM     14  H7  9LG d   1      28.591  31.921  -3.162  0.00  0.00     0.042 H 
ATOM     15  H25 9LG d   1      32.494  30.564  -4.472  0.00  0.00     0.074 H 
ATOM     16  H26 9LG d   1      31.450  29.169  -4.036  0.00  0.00     0.074 H 
ENDROOT
BRANCH   1  17
ATOM     17  C10 9LG d   1      32.238  31.022   0.948  0.00  0.00     0.268 C 
ATOM     18  O18 9LG d   1      33.394  30.662   1.155  0.00  0.00    -0.266 OA
ATOM     19  N14 9LG d   1      31.371  31.305   1.935  0.00  0.00    -0.351 N 
ATOM     20  H14 9LG d   1      30.447  31.596   1.687  0.00  0.00     0.163 HD
BRANCH  19  21
ATOM     21  C19 9LG d   1      31.712  31.208   3.360  0.00  0.00     0.019 C 
ATOM     22  H15 9LG d   1      32.337  30.311   3.482  0.00  0.00     0.071 H 
ATOM     23  H16 9LG d   1      30.768  31.075   3.910  0.00  0.00     0.071 H 
BRANCH  21  24
ATOM     24  C23 9LG d   1      32.449  32.355   4.014  0.00  0.00    -0.041 A 
ATOM     25  C28 9LG d   1      33.282  32.111   5.104  0.00  0.00    -0.075 A 
ATOM     26  C34 9LG d   1      33.971  33.154   5.724  0.00  0.00    -0.082 A 
ATOM     27  H11 9LG d   1      33.396  31.099   5.475  0.00  0.00     0.084 H 
ATOM     28  C35 9LG d   1      33.828  34.451   5.260  0.00  0.00    -0.083 A 
ATOM     29  H20 9LG d   1      34.618  32.949   6.569  0.00  0.00     0.083 H 
ATOM     30  C33 9LG d   1      33.002  34.705   4.180  0.00  0.00    -0.082 A 
ATOM     31  H19 9LG d   1      34.361  35.263   5.741  0.00  0.00     0.083 H 
ATOM     32  C27 9LG d   1      32.315  33.665   3.562  0.00  0.00    -0.075 A 
ATOM     33  H18 9LG d   1      32.889  35.719   3.813  0.00  0.00     0.083 H 
ATOM     34  H17 9LG d   1      31.668  33.877   2.719  0.00  0.00     0.084 H 
ENDBRANCH  21  24
ENDBRANCH  19  21
ENDBRANCH   1  17
BRANCH   7  35
ATOM     35  C13 9LG d   1      33.186  29.359  -1.552  0.00  0.00     0.024 C 
ATOM     36  H2  9LG d   1      33.586  29.321  -2.576  0.00  0.00     0.072 H 
ATOM     37  H3  9LG d   1      33.996  29.610  -0.852  0.00  0.00     0.072 H 
BRANCH  35  38
ATOM     38  C22 9LG d   1      32.631  28.005  -1.193  0.00  0.00    -0.040 A 
ATOM     39  C26 9LG d   1      32.186  27.133  -2.182  0.00  0.00    -0.075 A 
ATOM     40  C32 9LG d   1      31.672  25.888  -1.847  0.00  0.00    -0.082 A 
ATOM     41  H10 9LG d   1      32.241  27.429  -3.223  0.00  0.00     0.084 H 
ATOM     42  C36 9LG d   1      31.592  25.498  -0.518  0.00  0.00    -0.083 A 
ATOM     43  H24 9LG d   1      31.331  25.217  -2.627  0.00  0.00     0.083 H 
ATOM     44  C31 9LG d   1      32.029  26.355   0.472  0.00  0.00    -0.082 A 
ATOM     45  H23 9LG d   1      31.189  24.526  -0.259  0.00  0.00     0.083 H 
ATOM     46  C25 9LG d   1      32.545  27.604   0.139  0.00  0.00    -0.075 A 
ATOM     47  H22 9LG d   1      31.970  26.054   1.512  0.00  0.00     0.083 H 
ATOM     48  H21 9LG d   1      32.883  28.271   0.923  0.00  0.00     0.084 H 
ENDBRANCH  35  38
ENDBRANCH   7  35
BRANCH   6  49
ATOM     49  S1  9LG d   1      30.372  30.354  -6.473  0.00  0.00     0.264 S 
ATOM     50  O11 9LG d   1      30.565  28.939  -6.490  0.00  0.00    -0.200 OA
ATOM     51  O12 9LG d   1      29.177  30.911  -7.026  0.00  0.00    -0.200 OA
BRANCH  49  52
ATOM     52  C6  9LG d   1      31.751  31.067  -7.336  0.00  0.00     0.118 A 
ATOM     53  C21 9LG d   1      32.696  30.200  -7.876  0.00  0.00    -0.057 A 
ATOM     54  C29 9LG d   1      33.787  30.721  -8.560  0.00  0.00    -0.081 A 
ATOM     55  H8  9LG d   1      32.582  29.128  -7.764  0.00  0.00     0.086 H 
ATOM     56  C30 9LG d   1      33.940  32.088  -8.706  0.00  0.00    -0.080 A 
ATOM     57  H13 9LG d   1      34.526  30.050  -8.983  0.00  0.00     0.083 H 
ATOM     58  C24 9LG d   1      33.004  32.962  -8.174  0.00  0.00    -0.044 A 
ATOM     59  H12 9LG d   1      34.798  32.479  -9.240  0.00  0.00     0.083 H 
ATOM     60  C16 9LG d   1      31.927  32.436  -7.500  0.00  0.00     0.139 A 
ATOM     61  H9  9LG d   1      33.119  34.034  -8.287  0.00  0.00     0.088 H 
ATOM     62  F20 9LG d   1      31.014  33.287  -6.982  0.00  0.00    -0.204 F 
ENDBRANCH  49  52
ENDBRANCH   6  49
TORSDOF 7
