REMARK  5 active torsions:
REMARK  status: ('A' for Active; 'I' for Inactive)
REMARK    1  A    between atoms: C10_4  and  C12_31 
REMARK    2  A    between atoms: C19_18  and  C20_8 
REMARK    3  A    between atoms: C19_18  and  C21_9 
REMARK       I    between atoms: C21_9  and  N22_22 
REMARK    4  A    between atoms: N9_17  and  C19_18 
REMARK    5  A    between atoms: N22_22  and  C29_23 
ROOT
ATOM      1  C29 9LJ d   1      11.876  20.762   2.354  0.00  0.00     0.055 A 
ATOM      2  C30 9LJ d   1      12.586  19.588   2.007  0.00  0.00     0.071 A 
ATOM      3  C31 9LJ d   1      11.954  18.565   1.299  0.00  0.00    -0.061 A 
ATOM      4  C32 9LJ d   1      10.624  18.693   0.932  0.00  0.00    -0.081 A 
ATOM      5  C33 9LJ d   1       9.917  19.834   1.262  0.00  0.00    -0.081 A 
ATOM      6  C34 9LJ d   1      10.532  20.874   1.970  0.00  0.00    -0.056 A 
ATOM      7  C35 9LJ d   1      13.966  19.441   2.385  0.00  0.00     0.102 C 
ATOM      8  N36 9LJ d   1      15.060  19.359   2.701  0.00  0.00    -0.191 NA
ATOM      9  H18 9LJ d   1      12.504  17.669   1.036  0.00  0.00     0.086 H 
ATOM     10  H19 9LJ d   1      10.136  17.895   0.384  0.00  0.00     0.083 H 
ATOM     11  H20 9LJ d   1       8.877  19.925   0.970  0.00  0.00     0.083 H 
ATOM     12  H21 9LJ d   1       9.969  21.766   2.221  0.00  0.00     0.087 H 
ENDROOT
BRANCH   1  13
ATOM     13  N22 9LJ d   1      12.548  21.788   3.074  0.00  0.00    -0.324 N 
ATOM     14  C21 9LJ d   1      12.864  21.843   4.391  0.00  0.00     0.245 C 
ATOM     15  O23 9LJ d   1      12.601  20.960   5.201  0.00  0.00    -0.271 OA
ATOM     16  H17 9LJ d   1      12.827  22.581   2.532  0.00  0.00     0.169 HD
BRANCH  14  17
ATOM     17  C19 9LJ d   1      13.621  23.170   4.822  0.00  0.00     0.099 C 
ATOM     18  H12 9LJ d   1      14.688  22.994   4.622  0.00  0.00     0.089 H 
BRANCH  17  19
ATOM     19  C20 9LJ d   1      13.533  23.489   6.323  0.00  0.00    -0.025 C 
ATOM     20  C24 9LJ d   1      14.401  22.529   7.148  0.00  0.00    -0.059 C 
ATOM     21  C25 9LJ d   1      14.350  22.848   8.642  0.00  0.00    -0.065 C 
ATOM     22  H5  9LJ d   1      15.443  22.608   6.804  0.00  0.00     0.033 H 
ATOM     23  H6  9LJ d   1      14.040  21.502   6.992  0.00  0.00     0.033 H 
ATOM     24  C26 9LJ d   1      14.781  24.275   8.917  0.00  0.00    -0.065 C 
ATOM     25  H13 9LJ d   1      15.022  22.162   9.178  0.00  0.00     0.033 H 
ATOM     26  H14 9LJ d   1      13.320  22.709   9.003  0.00  0.00     0.033 H 
ATOM     27  C27 9LJ d   1      13.933  25.265   8.128  0.00  0.00    -0.065 C 
ATOM     28  H7  9LJ d   1      15.835  24.394   8.627  0.00  0.00     0.033 H 
ATOM     29  H8  9LJ d   1      14.670  24.483   9.991  0.00  0.00     0.033 H 
ATOM     30  C28 9LJ d   1      13.958  24.947   6.620  0.00  0.00    -0.059 C 
ATOM     31  H15 9LJ d   1      14.326  26.280   8.287  0.00  0.00     0.033 H 
ATOM     32  H16 9LJ d   1      12.895  25.214   8.488  0.00  0.00     0.033 H 
ATOM     33  H9  9LJ d   1      13.268  25.630   6.103  0.00  0.00     0.033 H 
ATOM     34  H10 9LJ d   1      14.979  25.102   6.242  0.00  0.00     0.033 H 
ATOM     35  H4  9LJ d   1      12.486  23.364   6.635  0.00  0.00     0.043 H 
ENDBRANCH  17  19
BRANCH  17  36
ATOM     36  N9  9LJ d   1      13.213  24.293   3.941  0.00  0.00    -0.315 N 
ATOM     37  C8  9LJ d   1      11.945  24.879   3.809  0.00  0.00     0.069 A 
ATOM     38  C7  9LJ d   1      12.102  25.869   2.840  0.00  0.00     0.089 A 
ATOM     39  C3  9LJ d   1      10.729  24.628   4.447  0.00  0.00    -0.014 A 
ATOM     40  C4  9LJ d   1      11.010  26.658   2.475  0.00  0.00    -0.013 A 
ATOM     41  N11 9LJ d   1      13.421  25.894   2.375  0.00  0.00    -0.228 NA
ATOM     42  C1  9LJ d   1       9.803  26.412   3.105  0.00  0.00     0.157 A 
ATOM     43  H1  9LJ d   1      11.104  27.435   1.725  0.00  0.00     0.092 H 
ATOM     44  C2  9LJ d   1       9.667  25.421   4.071  0.00  0.00     0.157 A 
ATOM     45  F5  9LJ d   1       8.727  27.151   2.776  0.00  0.00    -0.203 F 
ATOM     46  F6  9LJ d   1       8.460  25.233   4.652  0.00  0.00    -0.203 F 
ATOM     47  C10 9LJ d   1      14.043  24.945   3.050  0.00  0.00     0.142 A 
ATOM     48  H11 9LJ d   1      10.626  23.852   5.197  0.00  0.00     0.092 H 
BRANCH  47  49
ATOM     49  C12 9LJ d   1      15.469  24.615   2.867  0.00  0.00     0.010 A 
ATOM     50  C13 9LJ d   1      15.799  23.478   2.131  0.00  0.00    -0.068 A 
ATOM     51  C14 9LJ d   1      17.121  23.114   1.934  0.00  0.00    -0.061 A 
ATOM     52  H2  9LJ d   1      15.009  22.869   1.706  0.00  0.00     0.085 H 
ATOM     53  C15 9LJ d   1      18.120  23.890   2.474  0.00  0.00     0.034 A 
ATOM     54  H22 9LJ d   1      17.366  22.227   1.361  0.00  0.00     0.086 H 
ATOM     55  C16 9LJ d   1      17.829  25.025   3.210  0.00  0.00    -0.061 A 
ATOM     56 CL18 9LJ d   1      19.784  23.427   2.224  0.00  0.00    -0.084 Cl
ATOM     57  C17 9LJ d   1      16.499  25.384   3.407  0.00  0.00    -0.068 A 
ATOM     58  H23 9LJ d   1      18.627  25.627   3.628  0.00  0.00     0.086 H 
ATOM     59  H3  9LJ d   1      16.262  26.270   3.986  0.00  0.00     0.085 H 
ENDBRANCH  47  49
ENDBRANCH  17  36
ENDBRANCH  14  17
ENDBRANCH   1  13
TORSDOF 5
