REMARK  6 active torsions:
REMARK  status: ('A' for Active; 'I' for Inactive)
REMARK    1  A    between atoms: C4_1  and  C10_4 
REMARK       I    between atoms: C24_10  and  N26_14 
REMARK       I    between atoms: N5_16  and  C24_10 
REMARK    2  A    between atoms: C27_12  and  C28_11 
REMARK    3  A    between atoms: C27_12  and  C29_13 
REMARK    4  A    between atoms: N26_14  and  C27_12 
REMARK    5  A    between atoms: S16_25  and  N6_19 
REMARK    6  A    between atoms: S16_25  and  C19_28 
ROOT
ATOM      1  C4  9LM d   1      42.676  11.739   0.883  0.00  0.00     0.055 A 
ATOM      2  C7  9LM d   1      42.262   9.484   4.688  0.00  0.00     0.009 C 
ATOM      3  C8  9LM d   1      43.516   9.637   3.842  0.00  0.00    -0.023 C 
ATOM      4  C24 9LM d   1      40.945  13.430   1.881  0.00  0.00     0.327 C 
ATOM      5  N26 9LM d   1      39.992  13.366   0.929  0.00  0.00    -0.339 N 
ATOM      6  O25 9LM d   1      41.080  14.346   2.682  0.00  0.00    -0.246 OA
ATOM      7  N5  9LM d   1      41.858  12.316   1.942  0.00  0.00    -0.265 N 
ATOM      8  C1  9LM d   1      42.114  11.587   3.101  0.00  0.00     0.046 A 
ATOM      9  C9  9LM d   1      41.492  11.832   4.435  0.00  0.00     0.044 C 
ATOM     10  N6  9LM d   1      41.952  10.767   5.350  0.00  0.00    -0.300 N 
ATOM     11  C2  9LM d   1      43.027  10.607   2.803  0.00  0.00    -0.029 A 
ATOM     12  C3  9LM d   1      43.366  10.710   1.427  0.00  0.00    -0.048 A 
ATOM     13  H1  9LM d   1      42.427   8.709   5.451  0.00  0.00     0.065 H 
ATOM     14  H2  9LM d   1      41.419   9.191   4.044  0.00  0.00     0.065 H 
ATOM     15  H3  9LM d   1      43.822   8.681   3.393  0.00  0.00     0.042 H 
ATOM     16  H4  9LM d   1      44.351  10.053   4.425  0.00  0.00     0.042 H 
ATOM     17  H17 9LM d   1      39.965  12.569   0.326  0.00  0.00     0.164 HD
ATOM     18  H18 9LM d   1      40.396  11.803   4.348  0.00  0.00     0.074 H 
ATOM     19  H19 9LM d   1      41.803  12.815   4.818  0.00  0.00     0.074 H 
ATOM     20  H20 9LM d   1      44.066  10.066   0.897  0.00  0.00     0.087 H 
ENDROOT
BRANCH   1  21
ATOM     21  C10 9LM d   1      42.692  12.232  -0.514  0.00  0.00    -0.009 A 
ATOM     22  C15 9LM d   1      42.765  11.317  -1.562  0.00  0.00    -0.071 A 
ATOM     23  C14 9LM d   1      42.784  11.754  -2.877  0.00  0.00    -0.082 A 
ATOM     24  H6  9LM d   1      42.807  10.255  -1.347  0.00  0.00     0.084 H 
ATOM     25  C13 9LM d   1      42.731  13.104  -3.163  0.00  0.00    -0.083 A 
ATOM     26  H23 9LM d   1      42.841  11.033  -3.684  0.00  0.00     0.083 H 
ATOM     27  C12 9LM d   1      42.657  14.019  -2.134  0.00  0.00    -0.082 A 
ATOM     28  H5  9LM d   1      42.748  13.443  -4.192  0.00  0.00     0.083 H 
ATOM     29  C11 9LM d   1      42.640  13.591  -0.816  0.00  0.00    -0.071 A 
ATOM     30  H22 9LM d   1      42.612  15.079  -2.357  0.00  0.00     0.083 H 
ATOM     31  H21 9LM d   1      42.586  14.319  -0.014  0.00  0.00     0.084 H 
ENDBRANCH   1  21
BRANCH   5  32
ATOM     32  C27 9LM d   1      38.992  14.427   0.748  0.00  0.00     0.007 C 
ATOM     33  H13 9LM d   1      38.602  14.717   1.735  0.00  0.00     0.071 H 
BRANCH  32  34
ATOM     34  C28 9LM d   1      39.635  15.642   0.113  0.00  0.00    -0.058 C 
ATOM     35  H10 9LM d   1      38.879  16.430  -0.018  0.00  0.00     0.030 H 
ATOM     36  H11 9LM d   1      40.051  15.366  -0.867  0.00  0.00     0.030 H 
ATOM     37  H12 9LM d   1      40.441  16.012   0.763  0.00  0.00     0.030 H 
ENDBRANCH  32  34
BRANCH  32  38
ATOM     38  C29 9LM d   1      37.844  13.907  -0.085  0.00  0.00    -0.058 C 
ATOM     39  H14 9LM d   1      37.403  13.027   0.407  0.00  0.00     0.030 H 
ATOM     40  H15 9LM d   1      38.213  13.624  -1.082  0.00  0.00     0.030 H 
ATOM     41  H16 9LM d   1      37.080  14.691  -0.186  0.00  0.00     0.030 H 
ENDBRANCH  32  38
ENDBRANCH   5  32
BRANCH  10  42
ATOM     42  S16 9LM d   1      41.269  10.719   6.815  0.00  0.00     0.267 S 
ATOM     43  O17 9LM d   1      39.969  11.295   6.694  0.00  0.00    -0.200 OA
ATOM     44  O18 9LM d   1      41.406   9.385   7.307  0.00  0.00    -0.200 OA
BRANCH  42  45
ATOM     45  C19 9LM d   1      42.227  11.774   7.796  0.00  0.00     0.120 A 
ATOM     46  C20 9LM d   1      41.816  13.000   8.239  0.00  0.00    -0.053 A 
ATOM     47  C21 9LM d   1      42.837  13.601   9.009  0.00  0.00    -0.075 A 
ATOM     48  H7  9LM d   1      40.846  13.447   8.030  0.00  0.00     0.086 H 
ATOM     49  C22 9LM d   1      43.946  12.862   9.126  0.00  0.00    -0.044 A 
ATOM     50  H8  9LM d   1      42.730  14.583   9.468  0.00  0.00     0.084 H 
ATOM     51  S23 9LM d   1      43.816  11.376   8.303  0.00  0.00    -0.088 SA
ATOM     52  H9  9LM d   1      44.829  13.174   9.682  0.00  0.00     0.095 H 
ENDBRANCH  42  45
ENDBRANCH  10  42
TORSDOF 6
