REMARK  7 active torsions:
REMARK  status: ('A' for Active; 'I' for Inactive)
REMARK    1  A    between atoms: C7_4  and  C5_2 
REMARK    2  A    between atoms: C7_4  and  C8_5 
REMARK    3  A    between atoms: N9_29  and  C7_4 
REMARK       I    between atoms: C8_5  and  N28_17 
REMARK    4  A    between atoms: C13_6  and  C19_33 
REMARK    5  A    between atoms: N28_17  and  C29_18 
REMARK    6  A    between atoms: C32_21  and  O35_24 
REMARK    7  A    between atoms: O35_24  and  S36_25 
ROOT
ATOM      1  C7  9LP d   1      13.285  22.939   4.487  0.00  0.00     0.099 C 
ATOM      2  H6  9LP d   1      14.339  22.720   4.261  0.00  0.00     0.089 H 
ENDROOT
BRANCH   1   3
ATOM      3  C5  9LP d   1      13.238  23.366   5.973  0.00  0.00    -0.025 C 
ATOM      4  C4  9LP d   1      13.973  22.380   6.881  0.00  0.00    -0.059 C 
ATOM      5  C3  9LP d   1      13.871  22.800   8.375  0.00  0.00    -0.065 C 
ATOM      6  H1  9LP d   1      15.033  22.348   6.590  0.00  0.00     0.033 H 
ATOM      7  H2  9LP d   1      13.528  21.381   6.759  0.00  0.00     0.033 H 
ATOM      8  C2  9LP d   1      14.447  24.195   8.596  0.00  0.00    -0.065 C 
ATOM      9  H15 9LP d   1      14.431  22.079   8.989  0.00  0.00     0.033 H 
ATOM     10  H16 9LP d   1      12.813  22.796   8.677  0.00  0.00     0.033 H 
ATOM     11  C1  9LP d   1      13.768  25.235   7.660  0.00  0.00    -0.065 C 
ATOM     12  H13 9LP d   1      14.281  24.491   9.642  0.00  0.00     0.033 H 
ATOM     13  H14 9LP d   1      15.527  24.175   8.388  0.00  0.00     0.033 H 
ATOM     14  C6  9LP d   1      13.831  24.783   6.179  0.00  0.00    -0.059 C 
ATOM     15  H11 9LP d   1      12.715  25.349   7.955  0.00  0.00     0.033 H 
ATOM     16  H12 9LP d   1      14.285  26.201   7.763  0.00  0.00     0.033 H 
ATOM     17  H4  9LP d   1      13.262  25.498   5.566  0.00  0.00     0.033 H 
ATOM     18  H5  9LP d   1      14.882  24.778   5.855  0.00  0.00     0.033 H 
ATOM     19  H3  9LP d   1      12.181  23.388   6.279  0.00  0.00     0.043 H 
ENDBRANCH   1   3
BRANCH   1  20
ATOM     20  C8  9LP d   1      12.509  21.643   4.157  0.00  0.00     0.241 C 
ATOM     21  O10 9LP d   1      12.338  20.800   5.018  0.00  0.00    -0.271 OA
ATOM     22  N28 9LP d   1      12.050  21.493   2.899  0.00  0.00    -0.355 N 
ATOM     23  H17 9LP d   1      12.212  22.215   2.226  0.00  0.00     0.162 HD
BRANCH  22  24
ATOM     24  C29 9LP d   1      11.317  20.289   2.503  0.00  0.00     0.012 C 
ATOM     25  C30 9LP d   1      11.409  20.012   1.010  0.00  0.00    -0.044 C 
ATOM     26  C31 9LP d   1      10.737  18.670   0.661  0.00  0.00    -0.038 C 
ATOM     27  H19 9LP d   1      12.468  19.973   0.715  0.00  0.00     0.036 H 
ATOM     28  H20 9LP d   1      10.905  20.821   0.461  0.00  0.00     0.036 H 
ATOM     29  C32 9LP d   1       9.279  18.624   1.171  0.00  0.00     0.060 C 
ATOM     30  H21 9LP d   1      11.306  17.852   1.127  0.00  0.00     0.036 H 
ATOM     31  H22 9LP d   1      10.739  18.541  -0.431  0.00  0.00     0.036 H 
ATOM     32  C33 9LP d   1       9.188  18.956   2.675  0.00  0.00    -0.038 C 
ATOM     33  H23 9LP d   1       8.656  19.322   0.593  0.00  0.00     0.085 H 
ATOM     34  C34 9LP d   1       9.866  20.295   2.971  0.00  0.00    -0.044 C 
ATOM     35  H24 9LP d   1       9.687  18.163   3.252  0.00  0.00     0.036 H 
ATOM     36  H25 9LP d   1       8.130  19.013   2.970  0.00  0.00     0.036 H 
ATOM     37  H26 9LP d   1       9.323  21.096   2.448  0.00  0.00     0.036 H 
ATOM     38  H27 9LP d   1       9.839  20.480   4.055  0.00  0.00     0.036 H 
ATOM     39  H18 9LP d   1      11.808  19.447   3.012  0.00  0.00     0.072 H 
BRANCH  29  40
ATOM     40  O35 9LP d   1       8.808  17.238   1.009  0.00  0.00    -0.252 OA
BRANCH  40  41
ATOM     41  S36 9LP d   1       7.361  16.772   0.295  0.00  0.00     0.251 S 
ATOM     42  O37 9LP d   1       6.930  15.701   1.110  0.00  0.00    -0.572 OA
ATOM     43  O38 9LP d   1       6.453  17.959   0.392  0.00  0.00    -0.572 OA
ATOM     44  O39 9LP d   1       7.759  16.520  -1.044  0.00  0.00    -0.572 OA
ENDBRANCH  40  41
ENDBRANCH  29  40
ENDBRANCH  22  24
ENDBRANCH   1  20
BRANCH   1  45
ATOM     45  N9  9LP d   1      12.893  24.088   3.629  0.00  0.00    -0.315 N 
ATOM     46  C13 9LP d   1      13.755  24.784   2.804  0.00  0.00     0.142 A 
ATOM     47  N14 9LP d   1      13.171  25.801   2.203  0.00  0.00    -0.228 NA
ATOM     48  C11 9LP d   1      11.848  25.783   2.668  0.00  0.00     0.089 A 
ATOM     49  C12 9LP d   1      11.665  24.733   3.560  0.00  0.00     0.069 A 
ATOM     50  C18 9LP d   1      10.769  26.624   2.362  0.00  0.00    -0.013 A 
ATOM     51  C17 9LP d   1      10.455  24.478   4.191  0.00  0.00    -0.014 A 
ATOM     52  C16 9LP d   1       9.419  25.319   3.874  0.00  0.00     0.157 A 
ATOM     53  H7  9LP d   1      10.336  23.661   4.894  0.00  0.00     0.092 H 
ATOM     54  C15 9LP d   1       9.570  26.361   2.987  0.00  0.00     0.157 A 
ATOM     55  F26 9LP d   1       8.217  25.124   4.444  0.00  0.00    -0.203 F 
ATOM     56  F27 9LP d   1       8.498  27.139   2.728  0.00  0.00    -0.203 F 
ATOM     57  H29 9LP d   1      10.874  27.446   1.663  0.00  0.00     0.092 H 
BRANCH  46  58
ATOM     58  C19 9LP d   1      15.170  24.416   2.619  0.00  0.00     0.010 A 
ATOM     59  C20 9LP d   1      16.186  25.262   3.059  0.00  0.00    -0.068 A 
ATOM     60  C21 9LP d   1      17.520  24.913   2.897  0.00  0.00    -0.061 A 
ATOM     61  H8  9LP d   1      15.932  26.203   3.533  0.00  0.00     0.085 H 
ATOM     62  C22 9LP d   1      17.834  23.713   2.294  0.00  0.00     0.034 A 
ATOM     63  H9  9LP d   1      18.306  25.576   3.240  0.00  0.00     0.086 H 
ATOM     64  C23 9LP d   1      16.852  22.851   1.850  0.00  0.00    -0.061 A 
ATOM     65 CL25 9LP d   1      19.511  23.272   2.092  0.00  0.00    -0.084 Cl
ATOM     66  C24 9LP d   1      15.521  23.200   2.014  0.00  0.00    -0.068 A 
ATOM     67  H28 9LP d   1      17.119  21.912   1.379  0.00  0.00     0.086 H 
ATOM     68  H10 9LP d   1      14.743  22.527   1.671  0.00  0.00     0.085 H 
ENDBRANCH  46  58
ENDBRANCH   1  45
TORSDOF 7
