REMARK  5 active torsions:
REMARK  status: ('A' for Active; 'I' for Inactive)
REMARK    1  A    between atoms: N1_1  and  C7_6 
REMARK    2  A    between atoms: C7_6  and  C6_5 
REMARK       I    between atoms: C6_5  and  N9_20 
REMARK    3  A    between atoms: C7_6  and  C17_10 
REMARK    4  A    between atoms: N9_20  and  C14_19 
REMARK    5  A    between atoms: C12_31  and  C2_27 
ROOT
ATOM      1  C7  9LS d   1      22.585  19.140   4.627  0.00  0.00     0.099 C 
ATOM      2  H1  9LS d   1      21.513  19.321   4.463  0.00  0.00     0.089 H 
ENDROOT
BRANCH   1   3
ATOM      3  N1  9LS d   1      22.976  18.013   3.714  0.00  0.00    -0.315 N 
ATOM      4  C4  9LS d   1      24.223  17.426   3.571  0.00  0.00     0.069 A 
ATOM      5  C5  9LS d   1      24.061  16.435   2.604  0.00  0.00     0.089 A 
ATOM      6  C8  9LS d   1      25.431  17.679   4.207  0.00  0.00    -0.014 A 
ATOM      7  N3  9LS d   1      22.732  16.415   2.153  0.00  0.00    -0.228 NA
ATOM      8  C10 9LS d   1      25.165  15.650   2.239  0.00  0.00    -0.013 A 
ATOM      9  C2  9LS d   1      22.126  17.370   2.844  0.00  0.00     0.142 A 
ATOM     10  C13 9LS d   1      26.367  15.912   2.877  0.00  0.00     0.157 A 
ATOM     11  H3  9LS d   1      25.081  14.871   1.490  0.00  0.00     0.092 H 
ATOM     12  F21 9LS d   1      27.449  15.191   2.561  0.00  0.00    -0.203 F 
ATOM     13  C11 9LS d   1      26.490  16.904   3.836  0.00  0.00     0.157 A 
ATOM     14  F20 9LS d   1      27.691  17.114   4.418  0.00  0.00    -0.203 F 
ATOM     15  H2  9LS d   1      25.527  18.453   4.960  0.00  0.00     0.092 H 
BRANCH   9  16
ATOM     16  C12 9LS d   1      20.702  17.734   2.698  0.00  0.00     0.010 A 
ATOM     17  C18 9LS d   1      20.357  18.754   1.808  0.00  0.00    -0.068 A 
ATOM     18  C25 9LS d   1      19.033  19.143   1.643  0.00  0.00    -0.061 A 
ATOM     19  H21 9LS d   1      21.134  19.250   1.237  0.00  0.00     0.085 H 
ATOM     20  C22 9LS d   1      18.053  18.512   2.377  0.00  0.00     0.034 A 
ATOM     21  H22 9LS d   1      18.775  19.932   0.946  0.00  0.00     0.086 H 
ATOM     22  C24 9LS d   1      18.363  17.502   3.274  0.00  0.00    -0.061 A 
ATOM     23 CL26 9LS d   1      16.391  18.997   2.175  0.00  0.00    -0.084 Cl
ATOM     24  C19 9LS d   1      19.690  17.119   3.434  0.00  0.00    -0.068 A 
ATOM     25  H5  9LS d   1      17.580  17.016   3.844  0.00  0.00     0.086 H 
ATOM     26  H23 9LS d   1      19.940  16.334   4.138  0.00  0.00     0.085 H 
ENDBRANCH   9  16
ENDBRANCH   1   3
BRANCH   1  27
ATOM     27  C6  9LS d   1      23.314  20.431   4.197  0.00  0.00     0.246 C 
ATOM     28  N9  9LS d   1      23.461  20.545   2.859  0.00  0.00    -0.323 N 
ATOM     29  H10 9LS d   1      23.095  19.796   2.307  0.00  0.00     0.169 HD
ATOM     30  O15 9LS d   1      23.714  21.257   5.013  0.00  0.00    -0.271 OA
BRANCH  28  31
ATOM     31  C14 9LS d   1      24.072  21.601   2.153  0.00  0.00     0.073 A 
ATOM     32  C16 9LS d   1      25.387  21.505   1.722  0.00  0.00     0.143 A 
ATOM     33  C28 9LS d   1      26.027  22.510   1.028  0.00  0.00    -0.043 A 
ATOM     34  F23 9LS d   1      26.074  20.352   2.006  0.00  0.00    -0.204 F 
ATOM     35  C32 9LS d   1      25.316  23.670   0.750  0.00  0.00    -0.080 A 
ATOM     36  H6  9LS d   1      27.057  22.398   0.708  0.00  0.00     0.088 H 
ATOM     37  C31 9LS d   1      24.001  23.803   1.162  0.00  0.00    -0.081 A 
ATOM     38  H7  9LS d   1      25.794  24.477   0.207  0.00  0.00     0.083 H 
ATOM     39  C27 9LS d   1      23.373  22.779   1.863  0.00  0.00    -0.054 A 
ATOM     40  H8  9LS d   1      23.456  24.713   0.936  0.00  0.00     0.083 H 
ATOM     41  H9  9LS d   1      22.344  22.893   2.184  0.00  0.00     0.087 H 
ENDBRANCH  28  31
ENDBRANCH   1  27
BRANCH   1  42
ATOM     42  C17 9LS d   1      22.722  18.784   6.125  0.00  0.00    -0.025 C 
ATOM     43  C29 9LS d   1      21.933  19.763   7.013  0.00  0.00    -0.059 C 
ATOM     44  C33 9LS d   1      22.016  19.392   8.506  0.00  0.00    -0.065 C 
ATOM     45  H11 9LS d   1      20.878  19.750   6.703  0.00  0.00     0.033 H 
ATOM     46  H12 9LS d   1      22.343  20.774   6.876  0.00  0.00     0.033 H 
ATOM     47  C35 9LS d   1      21.538  17.963   8.751  0.00  0.00    -0.065 C 
ATOM     48  H13 9LS d   1      21.385  20.084   9.083  0.00  0.00     0.033 H 
ATOM     49  H14 9LS d   1      23.060  19.483   8.840  0.00  0.00     0.033 H 
ATOM     50  C34 9LS d   1      22.325  16.964   7.886  0.00  0.00    -0.065 C 
ATOM     51  H15 9LS d   1      20.469  17.893   8.500  0.00  0.00     0.033 H 
ATOM     52  H16 9LS d   1      21.683  17.712   9.812  0.00  0.00     0.033 H 
ATOM     53  C30 9LS d   1      22.245  17.341   6.395  0.00  0.00    -0.059 C 
ATOM     54  H17 9LS d   1      21.904  15.958   8.025  0.00  0.00     0.033 H 
ATOM     55  H18 9LS d   1      23.379  16.967   8.202  0.00  0.00     0.033 H 
ATOM     56  H19 9LS d   1      22.877  16.647   5.821  0.00  0.00     0.033 H 
ATOM     57  H20 9LS d   1      21.201  17.246   6.063  0.00  0.00     0.033 H 
ATOM     58  H4  9LS d   1      23.786  18.854   6.395  0.00  0.00     0.043 H 
ENDBRANCH   1  42
TORSDOF 5
