REMARK  5 active torsions:
REMARK  status: ('A' for Active; 'I' for Inactive)
REMARK    1  A    between atoms: S1_24  and  C7_4 
REMARK    2  A    between atoms: C21_9  and  C11_13 
REMARK    3  A    between atoms: C14_17  and  C26_11 
REMARK    4  A    between atoms: N2_18  and  C14_17 
REMARK    5  A    between atoms: N8_21  and  S1_24 
ROOT
ATOM      1  C4  9LV d   1     -14.590  51.944   1.449  0.00  0.00     0.073 A 
ATOM      2  C5  9LV d   1     -14.450  51.731  -0.029  0.00  0.00    -0.012 A 
ATOM      3  C6  9LV d   1     -14.487  52.963  -0.674  0.00  0.00     0.045 A 
ATOM      4  C10 9LV d   1     -15.992  51.377   1.871  0.00  0.00    -0.030 C 
ATOM      5  C15 9LV d   1     -14.394  53.048  -2.062  0.00  0.00    -0.055 A 
ATOM      6  C17 9LV d   1     -14.331  50.558  -0.768  0.00  0.00    -0.057 A 
ATOM      7  C20 9LV d   1     -16.129  51.055   3.336  0.00  0.00     0.007 C 
ATOM      8  N2  9LV d   1     -14.598  53.988   0.280  0.00  0.00    -0.312 N 
ATOM      9  C3  9LV d   1     -14.676  53.470   1.550  0.00  0.00     0.238 A 
ATOM     10  O16 9LV d   1     -14.795  54.114   2.577  0.00  0.00    -0.272 OA
ATOM     11  N8  9LV d   1     -14.990  50.218   3.735  0.00  0.00    -0.307 N 
ATOM     12  C19 9LV d   1     -13.722  50.969   3.745  0.00  0.00     0.007 C 
ATOM     13  C9  9LV d   1     -13.372  51.367   2.312  0.00  0.00    -0.030 C 
ATOM     14  C25 9LV d   1     -14.242  50.655  -2.144  0.00  0.00     0.011 A 
ATOM     15 BR33 9LV d   1     -14.080  49.064  -3.158  0.00  0.00    -0.051 Br
ATOM     16  C27 9LV d   1     -14.274  51.874  -2.802  0.00  0.00    -0.064 A 
ATOM     17  H1  9LV d   1     -16.174  50.455   1.300  0.00  0.00     0.037 H 
ATOM     18  H2  9LV d   1     -16.756  52.125   1.613  0.00  0.00     0.037 H 
ATOM     19  H3  9LV d   1     -14.415  54.012  -2.558  0.00  0.00     0.087 H 
ATOM     20  H4  9LV d   1     -14.309  49.592  -0.277  0.00  0.00     0.086 H 
ATOM     21  H5  9LV d   1     -17.069  50.511   3.510  0.00  0.00     0.065 H 
ATOM     22  H6  9LV d   1     -16.130  51.986   3.922  0.00  0.00     0.065 H 
ATOM     23  H12 9LV d   1     -12.922  50.338   4.159  0.00  0.00     0.065 H 
ATOM     24  H13 9LV d   1     -13.833  51.872   4.363  0.00  0.00     0.065 H 
ATOM     25  H14 9LV d   1     -12.589  52.139   2.355  0.00  0.00     0.037 H 
ATOM     26  H15 9LV d   1     -12.982  50.477   1.797  0.00  0.00     0.037 H 
ATOM     27  H20 9LV d   1     -14.206  51.914  -3.883  0.00  0.00     0.085 H 
ENDROOT
BRANCH   8  28
ATOM     28  C14 9LV d   1     -14.735  55.422  -0.029  0.00  0.00     0.026 C 
ATOM     29  H10 9LV d   1     -15.240  55.475  -1.005  0.00  0.00     0.072 H 
ATOM     30  H11 9LV d   1     -15.393  55.839   0.748  0.00  0.00     0.072 H 
BRANCH  28  31
ATOM     31  C26 9LV d   1     -13.564  56.349  -0.119  0.00  0.00    -0.040 A 
ATOM     32  C32 9LV d   1     -12.341  56.125   0.498  0.00  0.00    -0.074 A 
ATOM     33  C23 9LV d   1     -11.306  57.055   0.370  0.00  0.00    -0.066 A 
ATOM     34  H9  9LV d   1     -12.188  55.224   1.082  0.00  0.00     0.084 H 
ATOM     35  C21 9LV d   1     -11.495  58.231  -0.382  0.00  0.00     0.040 A 
ATOM     36  H8  9LV d   1     -10.353  56.870   0.852  0.00  0.00     0.085 H 
ATOM     37  C24 9LV d   1     -12.726  58.441  -0.984  0.00  0.00    -0.066 A 
ATOM     38  C31 9LV d   1     -13.737  57.517  -0.850  0.00  0.00    -0.074 A 
ATOM     39  H7  9LV d   1     -12.894  59.341  -1.565  0.00  0.00     0.085 H 
ATOM     40  H21 9LV d   1     -14.692  57.706  -1.327  0.00  0.00     0.084 H 
BRANCH  35  41
ATOM     41  C11 9LV d   1     -10.423  59.248  -0.543  0.00  0.00     0.209 C 
ATOM     42  O28 9LV d   1      -9.535  59.370   0.267  0.00  0.00    -0.644 OA
ATOM     43  O22 9LV d   1     -10.529  59.997  -1.628  0.00  0.00    -0.644 OA
ENDBRANCH  35  41
ENDBRANCH  28  31
ENDBRANCH   8  28
BRANCH  11  44
ATOM     44  S1  9LV d   1     -15.223  48.968   4.760  0.00  0.00     0.262 S 
ATOM     45  O12 9LV d   1     -13.948  48.358   4.969  0.00  0.00    -0.200 OA
ATOM     46  O13 9LV d   1     -16.296  48.191   4.226  0.00  0.00    -0.200 OA
BRANCH  44  47
ATOM     47  C7  9LV d   1     -15.742  49.670   6.306  0.00  0.00     0.101 A 
ATOM     48  C30 9LV d   1     -14.734  50.058   7.189  0.00  0.00    -0.059 A 
ATOM     49  C35 9LV d   1     -15.063  50.614   8.416  0.00  0.00    -0.081 A 
ATOM     50  H16 9LV d   1     -13.694  49.925   6.916  0.00  0.00     0.086 H 
ATOM     51  C36 9LV d   1     -16.385  50.787   8.773  0.00  0.00    -0.081 A 
ATOM     52  H17 9LV d   1     -14.277  50.915   9.099  0.00  0.00     0.083 H 
ATOM     53  C34 9LV d   1     -17.403  50.407   7.908  0.00  0.00    -0.060 A 
ATOM     54  H18 9LV d   1     -16.630  51.222   9.735  0.00  0.00     0.083 H 
ATOM     55  C18 9LV d   1     -17.085  49.851   6.678  0.00  0.00     0.057 A 
ATOM     56  H19 9LV d   1     -18.440  50.544   8.193  0.00  0.00     0.086 H 
ATOM     57 CL29 9LV d   1     -18.388  49.393   5.634  0.00  0.00    -0.083 Cl
ENDBRANCH  44  47
ENDBRANCH  11  44
TORSDOF 5
