REMARK  11 active torsions:
REMARK  status: ('A' for Active; 'I' for Inactive)
REMARK    1  A    between atoms: C5_2  and  C11_17 
REMARK    2  A    between atoms: N8_15  and  C10_5 
REMARK    3  A    between atoms: C17_7  and  C38_38 
REMARK    4  A    between atoms: C27_28  and  C21_8 
REMARK    5  A    between atoms: C36_36  and  C28_11 
REMARK    6  A    between atoms: C16_21  and  C2_13 
REMARK    7  A    between atoms: O20_24  and  C19_23 
REMARK    8  A    between atoms: O20_24  and  C36_36 
REMARK    9  A    between atoms: C29_29  and  C33_33 
REMARK   10  A    between atoms: C33_33  and  C34_34 
REMARK   11  A    between atoms: C33_33  and  C35_35 
ROOT
ATOM      1  C15 643 d   1     -14.286  54.708   1.571  0.00  0.00    -0.069 A 
ATOM      2  C17 643 d   1     -14.403  52.755   0.130  0.00  0.00    -0.048 A 
ATOM      3  C14 643 d   1     -14.692  53.945   2.651  0.00  0.00    -0.050 A 
ATOM      4  C16 643 d   1     -14.141  54.144   0.301  0.00  0.00    -0.020 A 
ATOM      5  C18 643 d   1     -14.813  52.003   1.232  0.00  0.00    -0.044 A 
ATOM      6  C19 643 d   1     -14.955  52.590   2.480  0.00  0.00     0.069 A 
ATOM      7  H5  643 d   1     -14.077  55.762   1.712  0.00  0.00     0.085 H 
ATOM      8  H9  643 d   1     -14.805  54.402   3.628  0.00  0.00     0.087 H 
ATOM      9  H10 643 d   1     -15.023  50.947   1.111  0.00  0.00     0.088 H 
ENDROOT
BRANCH   6  10
ATOM     10  O20 643 d   1     -15.362  51.749   3.482  0.00  0.00    -0.346 OA
BRANCH  10  11
ATOM     11  C36 643 d   1     -15.558  52.248   4.796  0.00  0.00     0.054 C 
ATOM     12  H20 643 d   1     -14.585  52.385   5.290  0.00  0.00     0.082 H 
ATOM     13  H21 643 d   1     -16.085  53.212   4.752  0.00  0.00     0.082 H 
BRANCH  11  14
ATOM     14  C28 643 d   1     -16.373  51.264   5.555  0.00  0.00     0.030 A 
ATOM     15  C27 643 d   1     -17.544  50.574   5.113  0.00  0.00     0.109 A 
ATOM     16  N31 643 d   1     -18.024  49.775   6.033  0.00  0.00    -0.127 NA
ATOM     17  O30 643 d   1     -17.146  49.923   7.140  0.00  0.00    -0.216 OA
ATOM     18  C29 643 d   1     -16.192  50.810   6.804  0.00  0.00     0.093 A 
BRANCH  15  19
ATOM     19  C21 643 d   1     -18.215  50.694   3.797  0.00  0.00     0.042 C 
ATOM     20  C22 643 d   1     -17.878  49.859   2.732  0.00  0.00     0.066 C 
ATOM     21  C23 643 d   1     -18.112  50.270   1.430  0.00  0.00     0.024 C 
ATOM     22 CL32 643 d   1     -16.761  48.557   2.968  0.00  0.00    -0.082 Cl
ATOM     23  N24 643 d   1     -18.981  51.270   1.188  0.00  0.00    -0.270 NA
ATOM     24  H11 643 d   1     -17.597  49.788   0.607  0.00  0.00     0.117 H 
ATOM     25  C25 643 d   1     -19.210  52.177   2.155  0.00  0.00     0.024 C 
ATOM     26  C26 643 d   1     -18.927  51.848   3.471  0.00  0.00     0.066 C 
ATOM     27  H12 643 d   1     -19.611  53.153   1.908  0.00  0.00     0.117 H 
ATOM     28 CL37 643 d   1     -19.672  52.778   4.730  0.00  0.00    -0.082 Cl
ENDBRANCH  15  19
BRANCH  18  29
ATOM     29  C33 643 d   1     -15.139  51.112   7.877  0.00  0.00    -0.011 C 
ATOM     30  H13 643 d   1     -14.282  51.576   7.368  0.00  0.00     0.049 H 
BRANCH  29  31
ATOM     31  C34 643 d   1     -15.659  52.130   8.876  0.00  0.00    -0.067 C 
ATOM     32  H14 643 d   1     -14.886  52.328   9.633  0.00  0.00     0.028 H 
ATOM     33  H15 643 d   1     -16.560  51.734   9.367  0.00  0.00     0.028 H 
ATOM     34  H16 643 d   1     -15.907  53.065   8.352  0.00  0.00     0.028 H 
ENDBRANCH  29  31
BRANCH  29  35
ATOM     35  C35 643 d   1     -14.619  49.833   8.533  0.00  0.00    -0.067 C 
ATOM     36  H17 643 d   1     -14.259  49.142   7.756  0.00  0.00     0.028 H 
ATOM     37  H18 643 d   1     -15.431  49.355   9.100  0.00  0.00     0.028 H 
ATOM     38  H19 643 d   1     -13.792  50.081   9.215  0.00  0.00     0.028 H 
ENDBRANCH  29  35
ENDBRANCH  18  29
ENDBRANCH  11  14
ENDBRANCH  10  11
ENDBRANCH   6  10
BRANCH   2  39
ATOM     39  C38 643 d   1     -14.273  52.045  -1.199  0.00  0.00    -0.050 C 
ATOM     40  H22 643 d   1     -13.944  52.761  -1.967  0.00  0.00     0.033 H 
ATOM     41  H23 643 d   1     -15.247  51.622  -1.486  0.00  0.00     0.033 H 
ATOM     42  H24 643 d   1     -13.533  51.236  -1.112  0.00  0.00     0.033 H 
ENDBRANCH   2  39
BRANCH   4  43
ATOM     43  C2  643 d   1     -13.676  55.052  -0.807  0.00  0.00    -0.023 A 
ATOM     44  C1  643 d   1     -14.245  56.321  -1.029  0.00  0.00    -0.071 A 
ATOM     45  C4  643 d   1     -13.780  57.156  -2.047  0.00  0.00    -0.069 A 
ATOM     46  H6  643 d   1     -15.060  56.656  -0.397  0.00  0.00     0.084 H 
ATOM     47  C6  643 d   1     -12.717  56.742  -2.866  0.00  0.00     0.009 A 
ATOM     48  H1  643 d   1     -14.240  58.125  -2.205  0.00  0.00     0.085 H 
ATOM     49  C5  643 d   1     -11.988  57.313  -3.983  0.00  0.00     0.068 A 
ATOM     50  C7  643 d   1     -12.149  55.480  -2.630  0.00  0.00     0.046 A 
ATOM     51  C9  643 d   1     -11.048  56.385  -4.344  0.00  0.00    -0.003 A 
ATOM     52  N8  643 d   1     -11.133  55.285  -3.541  0.00  0.00    -0.359 N 
ATOM     53  H8  643 d   1     -10.334  56.508  -5.157  0.00  0.00     0.113 H 
ATOM     54  C3  643 d   1     -12.609  54.652  -1.617  0.00  0.00    -0.045 A 
ATOM     55  H7  643 d   1     -12.139  53.689  -1.452  0.00  0.00     0.088 H 
BRANCH  49  56
ATOM     56  C11 643 d   1     -12.174  58.629  -4.641  0.00  0.00     0.211 C 
ATOM     57  O12 643 d   1     -13.042  59.407  -4.276  0.00  0.00    -0.644 OA
ATOM     58  O13 643 d   1     -11.350  58.893  -5.622  0.00  0.00    -0.644 OA
ENDBRANCH  49  56
BRANCH  52  59
ATOM     59  C10 643 d   1     -10.291  54.098  -3.637  0.00  0.00    -0.014 C 
ATOM     60  H2  643 d   1      -9.569  54.226  -4.456  0.00  0.00     0.057 H 
ATOM     61  H3  643 d   1     -10.920  53.218  -3.837  0.00  0.00     0.057 H 
ATOM     62  H4  643 d   1      -9.750  53.955  -2.690  0.00  0.00     0.057 H 
ENDBRANCH  52  59
ENDBRANCH   4  43
TORSDOF 11
