REMARK  6 active torsions:
REMARK  status: ('A' for Active; 'I' for Inactive)
REMARK    1  A    between atoms: C11_27  and  C13_4 
REMARK    2  A    between atoms: C38_15  and  C28_11 
REMARK    3  A    between atoms: C31_18  and  N33_21 
REMARK    4  A    between atoms: C11_27  and  N9_26 
REMARK    5  A    between atoms: C12_30  and  C11_27 
REMARK       I    between atoms: N15_32  and  C12_30 
REMARK    6  A    between atoms: N15_32  and  C16_33 
ROOT
ATOM      1  C11 9LY d   1      13.582  23.341   5.067  0.00  0.00     0.099 C 
ATOM      2  H21 9LY d   1      14.649  23.170   4.861  0.00  0.00     0.089 H 
ENDROOT
BRANCH   1   3
ATOM      3  C13 9LY d   1      13.505  23.741   6.560  0.00  0.00    -0.025 C 
ATOM      4  C17 9LY d   1      14.345  22.810   7.445  0.00  0.00    -0.059 C 
ATOM      5  C18 9LY d   1      14.176  23.154   8.936  0.00  0.00    -0.065 C 
ATOM      6  H3  9LY d   1      15.405  22.915   7.171  0.00  0.00     0.033 H 
ATOM      7  H4  9LY d   1      14.024  21.771   7.278  0.00  0.00     0.033 H 
ATOM      8  C19 9LY d   1      14.589  24.602   9.223  0.00  0.00    -0.065 C 
ATOM      9  H22 9LY d   1      14.804  22.477   9.534  0.00  0.00     0.033 H 
ATOM     10  H23 9LY d   1      13.121  23.020   9.218  0.00  0.00     0.033 H 
ATOM     11  C20 9LY d   1      13.848  25.602   8.299  0.00  0.00    -0.065 C 
ATOM     12  H24 9LY d   1      14.351  24.840  10.270  0.00  0.00     0.033 H 
ATOM     13  H25 9LY d   1      15.672  24.703   9.062  0.00  0.00     0.033 H 
ATOM     14  C21 9LY d   1      13.954  25.188   6.791  0.00  0.00    -0.059 C 
ATOM     15  H5  9LY d   1      12.787  25.633   8.586  0.00  0.00     0.033 H 
ATOM     16  H6  9LY d   1      14.292  26.601   8.426  0.00  0.00     0.033 H 
ATOM     17  H7  9LY d   1      13.317  25.857   6.194  0.00  0.00     0.033 H 
ATOM     18  H8  9LY d   1      15.000  25.291   6.467  0.00  0.00     0.033 H 
ATOM     19  H2  9LY d   1      12.454  23.655   6.873  0.00  0.00     0.043 H 
ENDBRANCH   1   3
BRANCH   1  20
ATOM     20  N9  9LY d   1      13.134  24.405   4.126  0.00  0.00    -0.315 N 
ATOM     21  C8  9LY d   1      11.848  24.928   3.971  0.00  0.00     0.069 A 
ATOM     22  C7  9LY d   1      11.958  25.872   2.958  0.00  0.00     0.089 A 
ATOM     23  C3  9LY d   1      10.659  24.655   4.628  0.00  0.00    -0.014 A 
ATOM     24  C4  9LY d   1      10.830  26.596   2.564  0.00  0.00    -0.013 A 
ATOM     25  N10 9LY d   1      13.277  25.927   2.488  0.00  0.00    -0.228 NA
ATOM     26  C1  9LY d   1       9.643  26.326   3.215  0.00  0.00     0.157 A 
ATOM     27  H1  9LY d   1      10.885  27.340   1.778  0.00  0.00     0.092 H 
ATOM     28  F5  9LY d   1       8.537  26.999   2.868  0.00  0.00    -0.203 F 
ATOM     29  C2  9LY d   1       9.561  25.376   4.224  0.00  0.00     0.157 A 
ATOM     30  F6  9LY d   1       8.367  25.151   4.821  0.00  0.00    -0.203 F 
ATOM     31  C38 9LY d   1      13.935  25.043   3.209  0.00  0.00     0.143 A 
ATOM     32  H32 9LY d   1      10.598  23.914   5.417  0.00  0.00     0.092 H 
BRANCH  31  33
ATOM     33  C28 9LY d   1      15.367  24.745   3.049  0.00  0.00     0.028 A 
ATOM     34  C29 9LY d   1      16.367  25.389   3.773  0.00  0.00    -0.064 A 
ATOM     35  C30 9LY d   1      17.699  25.047   3.583  0.00  0.00    -0.036 A 
ATOM     36  H15 9LY d   1      16.104  26.160   4.488  0.00  0.00     0.085 H 
ATOM     37  C31 9LY d   1      17.981  24.046   2.652  0.00  0.00     0.149 A 
ATOM     38  H16 9LY d   1      18.490  25.539   4.137  0.00  0.00     0.089 H 
ATOM     39  N32 9LY d   1      17.046  23.395   1.941  0.00  0.00    -0.240 NA
ATOM     40  C27 9LY d   1      15.756  23.752   2.150  0.00  0.00     0.018 A 
ATOM     41  H17 9LY d   1      14.984  23.238   1.588  0.00  0.00     0.116 H 
BRANCH  37  42
ATOM     42  N33 9LY d   1      19.318  23.628   2.403  0.00  0.00    -0.227 N 
ATOM     43  C34 9LY d   1      19.750  22.706   1.508  0.00  0.00     0.007 A 
ATOM     44  C35 9LY d   1      21.104  22.636   1.638  0.00  0.00    -0.047 A 
ATOM     45  H18 9LY d   1      19.133  22.132   0.818  0.00  0.00     0.115 H 
ATOM     46  C36 9LY d   1      21.421  23.544   2.643  0.00  0.00     0.024 A 
ATOM     47  H19 9LY d   1      21.791  22.005   1.076  0.00  0.00     0.087 H 
ATOM     48  N37 9LY d   1      20.352  24.156   3.124  0.00  0.00    -0.179 NA
ATOM     49  H20 9LY d   1      22.435  23.730   2.994  0.00  0.00     0.117 H 
ENDBRANCH  37  42
ENDBRANCH  31  33
ENDBRANCH   1  20
BRANCH   1  50
ATOM     50  C12 9LY d   1      12.847  22.015   4.730  0.00  0.00     0.241 C 
ATOM     51  O14 9LY d   1      12.427  21.267   5.605  0.00  0.00    -0.271 OA
ATOM     52  N15 9LY d   1      12.711  21.767   3.430  0.00  0.00    -0.355 N 
ATOM     53  H26 9LY d   1      13.079  22.438   2.786  0.00  0.00     0.162 HD
BRANCH  52  54
ATOM     54  C16 9LY d   1      12.063  20.584   2.881  0.00  0.00     0.012 C 
ATOM     55  C22 9LY d   1      13.106  19.751   2.120  0.00  0.00    -0.046 C 
ATOM     56  C23 9LY d   1      12.474  18.539   1.431  0.00  0.00    -0.063 C 
ATOM     57  H9  9LY d   1      13.868  19.399   2.831  0.00  0.00     0.035 H 
ATOM     58  H10 9LY d   1      13.581  20.386   1.358  0.00  0.00     0.035 H 
ATOM     59  C24 9LY d   1      11.350  18.951   0.500  0.00  0.00    -0.065 C 
ATOM     60  H28 9LY d   1      12.072  17.861   2.198  0.00  0.00     0.033 H 
ATOM     61  H29 9LY d   1      13.247  18.016   0.849  0.00  0.00     0.033 H 
ATOM     62  C25 9LY d   1      10.276  19.756   1.258  0.00  0.00    -0.063 C 
ATOM     63  H11 9LY d   1      10.889  18.049   0.071  0.00  0.00     0.033 H 
ATOM     64  H12 9LY d   1      11.762  19.572  -0.309  0.00  0.00     0.033 H 
ATOM     65  C26 9LY d   1      10.903  20.993   1.967  0.00  0.00    -0.046 C 
ATOM     66  H30 9LY d   1       9.807  19.108   2.013  0.00  0.00     0.033 H 
ATOM     67  H31 9LY d   1       9.513  20.099   0.544  0.00  0.00     0.033 H 
ATOM     68  H13 9LY d   1      11.277  21.691   1.204  0.00  0.00     0.035 H 
ATOM     69  H14 9LY d   1      10.129  21.490   2.571  0.00  0.00     0.035 H 
ATOM     70  H27 9LY d   1      11.661  19.980   3.707  0.00  0.00     0.072 H 
ENDBRANCH  52  54
ENDBRANCH   1  50
TORSDOF 6
