REMARK  7 active torsions:
REMARK  status: ('A' for Active; 'I' for Inactive)
REMARK       I    between atoms: N3_1  and  C8_5 
REMARK    1  A    between atoms: C7_4  and  C24_11 
REMARK    2  A    between atoms: C7_4  and  C25_20 
REMARK    3  A    between atoms: C8_5  and  C13_7 
REMARK    4  A    between atoms: C28_13  and  C31_14 
REMARK    5  A    between atoms: O22_15  and  C28_13 
REMARK    6  A    between atoms: C11_16  and  O22_15 
REMARK    7  A    between atoms: C11_16  and  C2_18 
ROOT
ATOM      1  N3  9M1 d   1      13.541  24.055   1.937  0.00  0.00    -0.346 N 
ATOM      2  C4  9M1 d   1      16.040  22.473   3.038  0.00  0.00    -0.013 A 
ATOM      3  C6  9M1 d   1      12.998  22.746   2.064  0.00  0.00     0.015 C 
ATOM      4  C7  9M1 d   1      16.025  23.965   2.520  0.00  0.00    -0.001 C 
ATOM      5  C8  9M1 d   1      12.795  25.242   2.253  0.00  0.00     0.254 C 
ATOM      6  C10 9M1 d   1      16.659  20.441   4.038  0.00  0.00     0.043 A 
ATOM      7  C26 9M1 d   1      18.355  22.142   4.326  0.00  0.00    -0.070 A 
ATOM      8  C2  9M1 d   1      13.677  21.573   2.147  0.00  0.00     0.086 C 
ATOM      9  C12 9M1 d   1      14.932  24.215   1.458  0.00  0.00     0.008 C 
ATOM     10  C1  9M1 d   1      14.959  21.437   2.840  0.00  0.00     0.033 A 
ATOM     11  N5  9M1 d   1      15.400  20.247   3.467  0.00  0.00    -0.358 N 
ATOM     12  C27 9M1 d   1      17.446  19.526   4.748  0.00  0.00    -0.056 A 
ATOM     13  C30 9M1 d   1      18.681  19.932   5.239  0.00  0.00    -0.081 A 
ATOM     14  C29 9M1 d   1      19.132  21.227   5.032  0.00  0.00    -0.082 A 
ATOM     15  C9  9M1 d   1      17.113  21.764   3.823  0.00  0.00    -0.000 A 
ATOM     16  O16 9M1 d   1      13.325  26.331   2.121  0.00  0.00    -0.267 OA
ATOM     17  H1  9M1 d   1      12.341  22.629   1.190  0.00  0.00     0.066 H 
ATOM     18  H2  9M1 d   1      12.388  22.783   2.979  0.00  0.00     0.066 H 
ATOM     19  H7  9M1 d   1      18.718  23.151   4.168  0.00  0.00     0.084 H 
ATOM     20  H13 9M1 d   1      14.080  21.574   1.124  0.00  0.00     0.067 H 
ATOM     21  H14 9M1 d   1      15.048  25.244   1.086  0.00  0.00     0.066 H 
ATOM     22  H15 9M1 d   1      15.091  23.506   0.632  0.00  0.00     0.066 H 
ATOM     23  H19 9M1 d   1      14.869  19.365   3.498  0.00  0.00     0.166 HD
ATOM     24  H20 9M1 d   1      17.096  18.513   4.913  0.00  0.00     0.086 H 
ATOM     25  H21 9M1 d   1      19.297  19.230   5.789  0.00  0.00     0.083 H 
ATOM     26  H22 9M1 d   1      20.097  21.529   5.423  0.00  0.00     0.083 H 
ENDROOT
BRANCH   5  27
ATOM     27  C13 9M1 d   1      11.393  25.191   2.748  0.00  0.00     0.035 A 
ATOM     28  C19 9M1 d   1      11.009  24.315   3.767  0.00  0.00    -0.065 A 
ATOM     29  C20 9M1 d   1       9.701  24.289   4.221  0.00  0.00    -0.042 A 
ATOM     30  H23 9M1 d   1      11.743  23.649   4.207  0.00  0.00     0.085 H 
ATOM     31  C17 9M1 d   1       8.787  25.148   3.656  0.00  0.00     0.154 A 
ATOM     32  H3  9M1 d   1       9.403  23.605   5.007  0.00  0.00     0.088 H 
ATOM     33  C15 9M1 d   1       9.157  26.016   2.658  0.00  0.00     0.155 A 
ATOM     34  F23 9M1 d   1       7.505  25.141   4.087  0.00  0.00    -0.203 F 
ATOM     35  F21 9M1 d   1       8.231  26.844   2.127  0.00  0.00    -0.203 F 
ATOM     36  C14 9M1 d   1      10.448  26.057   2.192  0.00  0.00    -0.027 A 
ATOM     37  H24 9M1 d   1      10.729  26.749   1.407  0.00  0.00     0.089 H 
ENDBRANCH   5  27
BRANCH   8  38
ATOM     38  C11 9M1 d   1      12.829  20.342   2.048  0.00  0.00     0.270 C 
ATOM     39  O18 9M1 d   1      13.011  19.326   2.672  0.00  0.00    -0.264 OA
BRANCH  38  40
ATOM     40  O22 9M1 d   1      11.818  20.501   1.168  0.00  0.00    -0.321 OA
BRANCH  40  41
ATOM     41  C28 9M1 d   1      10.958  19.266   0.837  0.00  0.00     0.025 C 
ATOM     42  H8  9M1 d   1      11.543  18.553   0.237  0.00  0.00     0.074 H 
ATOM     43  H9  9M1 d   1      10.630  18.779   1.767  0.00  0.00     0.074 H 
BRANCH  41  44
ATOM     44  C31 9M1 d   1       9.787  19.723   0.071  0.00  0.00    -0.056 C 
ATOM     45  H10 9M1 d   1       9.153  18.860  -0.180  0.00  0.00     0.030 H 
ATOM     46  H11 9M1 d   1      10.123  20.213  -0.855  0.00  0.00     0.030 H 
ATOM     47  H12 9M1 d   1       9.210  20.438   0.675  0.00  0.00     0.030 H 
ENDBRANCH  41  44
ENDBRANCH  40  41
ENDBRANCH  38  40
ENDBRANCH   8  38
BRANCH   4  48
ATOM     48  C24 9M1 d   1      15.896  24.935   3.703  0.00  0.00    -0.064 C 
ATOM     49  H4  9M1 d   1      15.887  25.970   3.329  0.00  0.00     0.028 H 
ATOM     50  H5  9M1 d   1      16.749  24.799   4.384  0.00  0.00     0.028 H 
ATOM     51  H6  9M1 d   1      14.960  24.732   4.243  0.00  0.00     0.028 H 
ENDBRANCH   4  48
BRANCH   4  52
ATOM     52  C25 9M1 d   1      17.341  24.289   1.801  0.00  0.00    -0.064 C 
ATOM     53  H16 9M1 d   1      18.183  24.136   2.492  0.00  0.00     0.028 H 
ATOM     54  H17 9M1 d   1      17.327  25.337   1.465  0.00  0.00     0.028 H 
ATOM     55  H18 9M1 d   1      17.456  23.627   0.930  0.00  0.00     0.028 H 
ENDBRANCH   4  52
TORSDOF 7
