REMARK  8 active torsions:
REMARK  status: ('A' for Active; 'I' for Inactive)
REMARK    1  A    between atoms: C10_5  and  N9_19 
REMARK    2  A    between atoms: C10_5  and  C11_20 
REMARK    3  A    between atoms: C12_23  and  C10_5 
REMARK    4  A    between atoms: N14_25  and  C15_6 
REMARK    5  A    between atoms: N9_19  and  C26_12 
REMARK    6  A    between atoms: C28_13  and  N33_33 
REMARK    7  A    between atoms: C1_14  and  C2_16 
REMARK       I    between atoms: N9_19  and  C1_14 
REMARK       I    between atoms: C12_23  and  N14_25 
REMARK       I    between atoms: N33_33  and  C34_34 
REMARK    8  A    between atoms: C34_34  and  C35_36 
ROOT
ATOM      1  C10 9M4 d   1      31.129  30.255  -8.105  0.00  0.00     0.100 C 
ATOM      2  H4  9M4 d   1      30.715  31.150  -8.592  0.00  0.00     0.089 H 
ENDROOT
BRANCH   1   3
ATOM      3  N9  9M4 d   1      31.290  30.626  -6.662  0.00  0.00    -0.300 N 
ATOM      4  C1  9M4 d   1      31.873  29.705  -5.771  0.00  0.00     0.259 C 
ATOM      5  O32 9M4 d   1      32.253  28.607  -6.152  0.00  0.00    -0.267 OA
BRANCH   3   6
ATOM      6  C26 9M4 d   1      30.827  31.926  -6.270  0.00  0.00     0.040 A 
ATOM      7  C27 9M4 d   1      29.477  32.256  -6.456  0.00  0.00    -0.031 A 
ATOM      8  C28 9M4 d   1      29.002  33.513  -6.090  0.00  0.00     0.036 A 
ATOM      9  H29 9M4 d   1      28.799  31.528  -6.887  0.00  0.00     0.090 H 
ATOM     10  C29 9M4 d   1      29.880  34.445  -5.539  0.00  0.00    -0.057 A 
ATOM     11  C30 9M4 d   1      31.220  34.119  -5.358  0.00  0.00    -0.079 A 
ATOM     12  H30 9M4 d   1      29.518  35.425  -5.251  0.00  0.00     0.086 H 
ATOM     13  C31 9M4 d   1      31.700  32.868  -5.723  0.00  0.00    -0.057 A 
ATOM     14  H31 9M4 d   1      31.896  34.849  -4.928  0.00  0.00     0.083 H 
ATOM     15  H32 9M4 d   1      32.747  32.624  -5.584  0.00  0.00     0.086 H 
BRANCH   8  16
ATOM     16  N33 9M4 d   1      27.637  33.874  -6.263  0.00  0.00    -0.327 N 
ATOM     17  C34 9M4 d   1      26.608  33.131  -6.768  0.00  0.00     0.218 C 
ATOM     18  O36 9M4 d   1      26.742  31.976  -7.163  0.00  0.00    -0.274 OA
ATOM     19  H33 9M4 d   1      27.397  34.801  -5.975  0.00  0.00     0.169 HD
BRANCH  17  20
ATOM     20  C35 9M4 d   1      25.283  33.831  -6.807  0.00  0.00    -0.003 C 
ATOM     21  H34 9M4 d   1      24.523  33.155  -7.227  0.00  0.00     0.040 H 
ATOM     22  H35 9M4 d   1      25.362  34.730  -7.436  0.00  0.00     0.040 H 
ATOM     23  H36 9M4 d   1      24.992  34.121  -5.787  0.00  0.00     0.040 H 
ENDBRANCH  17  20
ENDBRANCH   8  16
ENDBRANCH   3   6
BRANCH   4  24
ATOM     24  C2  9M4 d   1      32.052  30.048  -4.315  0.00  0.00     0.032 A 
ATOM     25  C7  9M4 d   1      33.340  30.016  -3.764  0.00  0.00    -0.066 A 
ATOM     26  C6  9M4 d   1      33.548  30.322  -2.427  0.00  0.00    -0.061 A 
ATOM     27  H3  9M4 d   1      34.184  29.749  -4.390  0.00  0.00     0.085 H 
ATOM     28  C5  9M4 d   1      32.465  30.660  -1.637  0.00  0.00     0.034 A 
ATOM     29  H2  9M4 d   1      34.547  30.296  -2.007  0.00  0.00     0.086 H 
ATOM     30  C4  9M4 d   1      31.185  30.699  -2.148  0.00  0.00    -0.061 A 
ATOM     31 CL8  9M4 d   1      32.720  31.045   0.039  0.00  0.00    -0.084 Cl
ATOM     32  C3  9M4 d   1      30.980  30.391  -3.486  0.00  0.00    -0.066 A 
ATOM     33  H1  9M4 d   1      30.349  30.967  -1.512  0.00  0.00     0.086 H 
ATOM     34  H16 9M4 d   1      29.976  30.417  -3.893  0.00  0.00     0.085 H 
ENDBRANCH   4  24
ENDBRANCH   1   3
BRANCH   1  35
ATOM     35  C11 9M4 d   1      32.434  29.976  -8.854  0.00  0.00    -0.025 C 
ATOM     36  C21 9M4 d   1      32.173  29.658 -10.327  0.00  0.00    -0.059 C 
ATOM     37  C22 9M4 d   1      33.461  29.316 -11.054  0.00  0.00    -0.065 C 
ATOM     38  H10 9M4 d   1      31.486  28.801 -10.392  0.00  0.00     0.033 H 
ATOM     39  H11 9M4 d   1      31.713  30.534 -10.807  0.00  0.00     0.033 H 
ATOM     40  C23 9M4 d   1      34.455  30.467 -10.986  0.00  0.00    -0.065 C 
ATOM     41  H12 9M4 d   1      33.232  29.102 -12.108  0.00  0.00     0.033 H 
ATOM     42  H13 9M4 d   1      33.910  28.426 -10.588  0.00  0.00     0.033 H 
ATOM     43  C24 9M4 d   1      34.712  30.918  -9.522  0.00  0.00    -0.065 C 
ATOM     44  H18 9M4 d   1      34.054  31.318 -11.556  0.00  0.00     0.033 H 
ATOM     45  H19 9M4 d   1      35.407  30.143 -11.431  0.00  0.00     0.033 H 
ATOM     46  C25 9M4 d   1      33.394  31.173  -8.762  0.00  0.00    -0.059 C 
ATOM     47  H14 9M4 d   1      35.302  31.846  -9.534  0.00  0.00     0.033 H 
ATOM     48  H15 9M4 d   1      35.277  30.131  -9.001  0.00  0.00     0.033 H 
ATOM     49  H20 9M4 d   1      32.901  32.057  -9.193  0.00  0.00     0.033 H 
ATOM     50  H21 9M4 d   1      33.626  31.362  -7.703  0.00  0.00     0.033 H 
ATOM     51  H17 9M4 d   1      32.916  29.104  -8.388  0.00  0.00     0.043 H 
ENDBRANCH   1  35
BRANCH   1  52
ATOM     52  C12 9M4 d   1      30.040  29.149  -8.269  0.00  0.00     0.241 C 
ATOM     53  O13 9M4 d   1      28.861  29.464  -8.373  0.00  0.00    -0.271 OA
ATOM     54  N14 9M4 d   1      30.467  27.870  -8.290  0.00  0.00    -0.355 N 
ATOM     55  H22 9M4 d   1      31.447  27.693  -8.197  0.00  0.00     0.162 HD
BRANCH  54  56
ATOM     56  C15 9M4 d   1      29.560  26.725  -8.443  0.00  0.00     0.012 C 
ATOM     57  C20 9M4 d   1      29.994  25.542  -7.583  0.00  0.00    -0.046 C 
ATOM     58  C19 9M4 d   1      29.005  24.350  -7.738  0.00  0.00    -0.063 C 
ATOM     59  H8  9M4 d   1      30.020  25.854  -6.528  0.00  0.00     0.035 H 
ATOM     60  H9  9M4 d   1      30.998  25.219  -7.895  0.00  0.00     0.035 H 
ATOM     61  C18 9M4 d   1      28.821  23.953  -9.234  0.00  0.00    -0.065 C 
ATOM     62  H27 9M4 d   1      28.029  24.639  -7.322  0.00  0.00     0.033 H 
ATOM     63  H28 9M4 d   1      29.398  23.485  -7.184  0.00  0.00     0.033 H 
ATOM     64  C17 9M4 d   1      28.448  25.165 -10.090  0.00  0.00    -0.063 C 
ATOM     65  H25 9M4 d   1      29.762  23.526  -9.609  0.00  0.00     0.033 H 
ATOM     66  H26 9M4 d   1      28.021  23.202  -9.309  0.00  0.00     0.033 H 
ATOM     67  C16 9M4 d   1      29.453  26.313  -9.909  0.00  0.00    -0.046 C 
ATOM     68  H6  9M4 d   1      28.435  24.865 -11.148  0.00  0.00     0.033 H 
ATOM     69  H7  9M4 d   1      27.448  25.516  -9.796  0.00  0.00     0.033 H 
ATOM     70  H23 9M4 d   1      30.441  25.984 -10.263  0.00  0.00     0.035 H 
ATOM     71  H24 9M4 d   1      29.121  27.178 -10.502  0.00  0.00     0.035 H 
ATOM     72  H5  9M4 d   1      28.562  27.039  -8.104  0.00  0.00     0.072 H 
ENDBRANCH  54  56
ENDBRANCH   1  52
TORSDOF 8
