REMARK  5 active torsions:
REMARK  status: ('A' for Active; 'I' for Inactive)
REMARK    1  A    between atoms: N1_1  and  C4_2 
REMARK       I    between atoms: C2_24  and  N1_1 
REMARK    2  A    between atoms: N1_1  and  C3_26 
REMARK    3  A    between atoms: C5_3  and  C2_24 
REMARK    4  A    between atoms: C17_9  and  C11_18 
REMARK    5  A    between atoms: C12_15  and  C20_10 
ROOT
ATOM      1  N1  9M7 d   1     -11.906  40.852  -6.045  0.00  0.00    -0.338 N 
ATOM      2  C2  9M7 d   1     -10.888  39.945  -5.852  0.00  0.00     0.259 C 
ATOM      3  O6  9M7 d   1      -9.958  39.792  -6.666  0.00  0.00    -0.267 OA
ENDROOT
BRANCH   1   4
ATOM      4  C4  9M7 d   1     -11.870  41.676  -7.284  0.00  0.00     0.015 C 
ATOM      5  C10 9M7 d   1     -12.128  40.834  -8.548  0.00  0.00    -0.046 C 
ATOM      6  C16 9M7 d   1     -12.103  41.694  -9.826  0.00  0.00    -0.063 C 
ATOM      7  H6  9M7 d   1     -13.114  40.355  -8.461  0.00  0.00     0.036 H 
ATOM      8  H7  9M7 d   1     -11.350  40.060  -8.625  0.00  0.00     0.036 H 
ATOM      9  C22 9M7 d   1     -10.809  42.502  -9.926  0.00  0.00    -0.065 C 
ATOM     10  H27 9M7 d   1     -12.957  42.386  -9.809  0.00  0.00     0.033 H 
ATOM     11  H28 9M7 d   1     -12.183  41.035 -10.703  0.00  0.00     0.033 H 
ATOM     12  C15 9M7 d   1     -10.631  43.387  -8.704  0.00  0.00    -0.063 C 
ATOM     13  H17 9M7 d   1      -9.957  41.810  -9.998  0.00  0.00     0.033 H 
ATOM     14  H18 9M7 d   1     -10.846  43.133 -10.826  0.00  0.00     0.033 H 
ATOM     15  C9  9M7 d   1     -10.605  42.556  -7.414  0.00  0.00    -0.046 C 
ATOM     16  H10 9M7 d   1     -11.466  44.101  -8.654  0.00  0.00     0.033 H 
ATOM     17  H11 9M7 d   1      -9.683  43.937  -8.795  0.00  0.00     0.033 H 
ATOM     18  H25 9M7 d   1      -9.717  41.907  -7.424  0.00  0.00     0.036 H 
ATOM     19  H26 9M7 d   1     -10.552  43.236  -6.551  0.00  0.00     0.036 H 
ATOM     20  H1  9M7 d   1     -12.715  42.376  -7.204  0.00  0.00     0.072 H 
ENDBRANCH   1   4
BRANCH   1  21
ATOM     21  C3  9M7 d   1     -13.042  41.074  -5.117  0.00  0.00     0.015 C 
ATOM     22  C7  9M7 d   1     -14.397  40.574  -5.659  0.00  0.00    -0.046 C 
ATOM     23  C13 9M7 d   1     -15.502  40.699  -4.594  0.00  0.00    -0.063 C 
ATOM     24  H2  9M7 d   1     -14.676  41.174  -6.538  0.00  0.00     0.036 H 
ATOM     25  H3  9M7 d   1     -14.299  39.518  -5.952  0.00  0.00     0.036 H 
ATOM     26  C21 9M7 d   1     -15.610  42.128  -4.072  0.00  0.00    -0.065 C 
ATOM     27  H8  9M7 d   1     -15.268  40.028  -3.755  0.00  0.00     0.033 H 
ATOM     28  H9  9M7 d   1     -16.464  40.407  -5.040  0.00  0.00     0.033 H 
ATOM     29  C14 9M7 d   1     -14.245  42.624  -3.512  0.00  0.00    -0.063 C 
ATOM     30  H15 9M7 d   1     -16.361  42.162  -3.269  0.00  0.00     0.033 H 
ATOM     31  H16 9M7 d   1     -15.922  42.788  -4.894  0.00  0.00     0.033 H 
ATOM     32  C8  9M7 d   1     -13.121  42.500  -4.564  0.00  0.00    -0.046 C 
ATOM     33  H23 9M7 d   1     -14.342  43.679  -3.216  0.00  0.00     0.033 H 
ATOM     34  H24 9M7 d   1     -13.979  42.020  -2.632  0.00  0.00     0.033 H 
ATOM     35  H4  9M7 d   1     -13.324  43.196  -5.391  0.00  0.00     0.036 H 
ATOM     36  H5  9M7 d   1     -12.160  42.758  -4.096  0.00  0.00     0.036 H 
ATOM     37  H22 9M7 d   1     -12.826  40.438  -4.246  0.00  0.00     0.072 H 
ENDBRANCH   1  21
BRANCH   2  38
ATOM     38  C5  9M7 d   1     -10.789  39.032  -4.653  0.00  0.00     0.095 A 
ATOM     39  C12 9M7 d   1     -10.806  37.665  -4.625  0.00  0.00     0.093 A 
ATOM     40  O19 9M7 d   1     -10.690  37.238  -3.353  0.00  0.00    -0.217 OA
ATOM     41  N18 9M7 d   1     -10.590  38.361  -2.493  0.00  0.00    -0.127 NA
ATOM     42  C11 9M7 d   1     -10.646  39.415  -3.271  0.00  0.00     0.114 A 
BRANCH  39  43
ATOM     43  C20 9M7 d   1     -10.920  36.616  -5.668  0.00  0.00    -0.028 C 
ATOM     44  H12 9M7 d   1     -10.889  35.623  -5.195  0.00  0.00     0.036 H 
ATOM     45  H13 9M7 d   1     -10.084  36.711  -6.376  0.00  0.00     0.036 H 
ATOM     46  H14 9M7 d   1     -11.872  36.736  -6.207  0.00  0.00     0.036 H 
ENDBRANCH  39  43
BRANCH  42  47
ATOM     47  C17 9M7 d   1     -10.570  40.742  -2.622  0.00  0.00     0.018 A 
ATOM     48  C24 9M7 d   1     -11.478  41.047  -1.601  0.00  0.00    -0.067 A 
ATOM     49  C27 9M7 d   1     -11.445  42.274  -0.961  0.00  0.00    -0.061 A 
ATOM     50  H19 9M7 d   1     -12.218  40.311  -1.307  0.00  0.00     0.085 H 
ATOM     51  C28 9M7 d   1     -10.499  43.202  -1.340  0.00  0.00     0.035 A 
ATOM     52  H20 9M7 d   1     -12.153  42.502  -0.173  0.00  0.00     0.086 H 
ATOM     53 CL29 9M7 d   1     -10.453  44.733  -0.545  0.00  0.00    -0.084 Cl
ATOM     54  C25 9M7 d   1      -9.584  42.946  -2.337  0.00  0.00    -0.040 A 
ATOM     55  C23 9M7 d   1      -9.621  41.722  -2.972  0.00  0.00     0.048 A 
ATOM     56  H21 9M7 d   1      -8.849  43.692  -2.617  0.00  0.00     0.088 H 
ATOM     57 CL26 9M7 d   1      -8.460  41.452  -4.208  0.00  0.00    -0.083 Cl
ENDBRANCH  42  47
ENDBRANCH   2  38
TORSDOF 5
