REMARK  6 active torsions:
REMARK  status: ('A' for Active; 'I' for Inactive)
REMARK    1  A    between atoms: N3_1  and  C12_17 
REMARK    2  A    between atoms: C2_18  and  N3_1 
REMARK    3  A    between atoms: C7_4  and  C11_22 
REMARK    4  A    between atoms: C13_6  and  C18_16 
REMARK    5  A    between atoms: C1_19  and  C20_9 
REMARK    6  A    between atoms: C14_14  and  C19_13 
ROOT
ATOM      1  C4  9MA d   1     -15.923  52.401  10.363  0.00  0.00    -0.038 A 
ATOM      2  C5  9MA d   1     -15.807  52.167   8.965  0.00  0.00     0.136 A 
ATOM      3  C7  9MA d   1     -13.542  51.230   9.371  0.00  0.00     0.016 A 
ATOM      4  C8  9MA d   1     -13.701  51.472  10.704  0.00  0.00    -0.061 A 
ATOM      5  C2  9MA d   1     -14.761  51.471   7.109  0.00  0.00     0.144 A 
ATOM      6  C1  9MA d   1     -16.015  51.982   6.831  0.00  0.00     0.120 A 
ATOM      7  N10 9MA d   1     -16.656  52.407   7.968  0.00  0.00    -0.226 NA
ATOM      8  C9  9MA d   1     -14.896  52.062  11.206  0.00  0.00    -0.077 A 
ATOM      9  N6  9MA d   1     -14.610  51.583   8.505  0.00  0.00    -0.284 N 
ATOM     10  H2  9MA d   1     -16.830  52.851  10.765  0.00  0.00     0.089 H 
ATOM     11  H3  9MA d   1     -12.901  51.210  11.395  0.00  0.00     0.086 H 
ATOM     12  H14 9MA d   1     -14.996  52.247  12.275  0.00  0.00     0.083 H 
ENDROOT
BRANCH   5  13
ATOM     13  N3  9MA d   1     -13.823  50.942   6.255  0.00  0.00    -0.339 N 
ATOM     14  H1  9MA d   1     -12.839  51.240   6.314  0.00  0.00     0.167 HD
BRANCH  13  15
ATOM     15  C12 9MA d   1     -14.232  49.962   5.273  0.00  0.00     0.045 A 
ATOM     16  C13 9MA d   1     -14.929  48.802   5.689  0.00  0.00    -0.035 A 
ATOM     17  C17 9MA d   1     -15.310  47.884   4.710  0.00  0.00    -0.075 A 
ATOM     18  C15 9MA d   1     -15.018  48.090   3.370  0.00  0.00    -0.082 A 
ATOM     19  H5  9MA d   1     -15.847  46.989   5.003  0.00  0.00     0.084 H 
ATOM     20  C16 9MA d   1     -14.336  49.229   2.971  0.00  0.00    -0.075 A 
ATOM     21  H4  9MA d   1     -15.324  47.358   2.632  0.00  0.00     0.083 H 
ATOM     22  C14 9MA d   1     -13.926  50.189   3.899  0.00  0.00    -0.035 A 
ATOM     23  H10 9MA d   1     -14.117  49.377   1.920  0.00  0.00     0.084 H 
BRANCH  16  24
ATOM     24  C18 9MA d   1     -15.267  48.532   7.144  0.00  0.00    -0.049 C 
ATOM     25  H11 9MA d   1     -15.807  47.577   7.224  0.00  0.00     0.033 H 
ATOM     26  H12 9MA d   1     -15.900  49.344   7.530  0.00  0.00     0.033 H 
ATOM     27  H13 9MA d   1     -14.339  48.479   7.732  0.00  0.00     0.033 H 
ENDBRANCH  16  24
BRANCH  22  28
ATOM     28  C19 9MA d   1     -13.185  51.420   3.434  0.00  0.00    -0.049 C 
ATOM     29  H7  9MA d   1     -13.062  51.383   2.341  0.00  0.00     0.033 H 
ATOM     30  H8  9MA d   1     -12.196  51.456   3.913  0.00  0.00     0.033 H 
ATOM     31  H9  9MA d   1     -13.758  52.318   3.708  0.00  0.00     0.033 H 
ENDBRANCH  22  28
ENDBRANCH  13  15
ENDBRANCH   5  13
BRANCH   6  32
ATOM     32  C20 9MA d   1     -16.621  52.062   5.488  0.00  0.00     0.074 A 
ATOM     33  C21 9MA d   1     -16.207  52.986   4.537  0.00  0.00     0.132 A 
ATOM     34  F24 9MA d   1     -15.221  53.845   4.878  0.00  0.00    -0.205 F 
ATOM     35  C27 9MA d   1     -16.750  53.073   3.272  0.00  0.00    -0.045 A 
ATOM     36  C25 9MA d   1     -17.764  52.190   2.926  0.00  0.00    -0.077 A 
ATOM     37  H18 9MA d   1     -16.393  53.813   2.565  0.00  0.00     0.088 H 
ATOM     38  C26 9MA d   1     -18.214  51.242   3.833  0.00  0.00    -0.045 A 
ATOM     39  H19 9MA d   1     -18.208  52.242   1.938  0.00  0.00     0.083 H 
ATOM     40  C22 9MA d   1     -17.637  51.200   5.080  0.00  0.00     0.132 A 
ATOM     41  H6  9MA d   1     -19.003  50.549   3.564  0.00  0.00     0.088 H 
ATOM     42  F23 9MA d   1     -18.076  50.277   5.966  0.00  0.00    -0.205 F 
ENDBRANCH   6  32
BRANCH   3  43
ATOM     43  C11 9MA d   1     -12.306  50.618   8.813  0.00  0.00    -0.037 C 
ATOM     44  H15 9MA d   1     -11.597  50.415   9.629  0.00  0.00     0.035 H 
ATOM     45  H16 9MA d   1     -11.847  51.311   8.092  0.00  0.00     0.035 H 
ATOM     46  H17 9MA d   1     -12.560  49.676   8.305  0.00  0.00     0.035 H 
ENDBRANCH   3  43
TORSDOF 6
