REMARK  5 active torsions:
REMARK  status: ('A' for Active; 'I' for Inactive)
REMARK    1  A    between atoms: C8_4  and  C10_5 
REMARK    2  A    between atoms: C11_16  and  C13_6 
REMARK    3  A    between atoms: C12_17  and  C11_16 
REMARK    4  A    between atoms: C11_16  and  N7_23 
REMARK       I    between atoms: N15_19  and  C12_17 
REMARK    5  A    between atoms: N15_19  and  C16_20 
ROOT
ATOM      1  C11 9MD d   1       1.855  23.027  67.359  0.00  0.00     0.120 C 
ATOM      2  H18 9MD d   1       2.123  24.061  67.096  0.00  0.00     0.092 H 
ENDROOT
BRANCH   1   3
ATOM      3  C13 9MD d   1       1.049  23.184  68.650  0.00  0.00     0.067 C 
ATOM      4  C21 9MD d   1       0.285  21.969  69.147  0.00  0.00    -0.038 C 
ATOM      5  C20 9MD d   1      -0.409  22.312  70.502  0.00  0.00    -0.061 C 
ATOM      6  H5  9MD d   1       0.983  21.131  69.294  0.00  0.00     0.036 H 
ATOM      7  H6  9MD d   1      -0.477  21.686  68.406  0.00  0.00     0.036 H 
ATOM      8  C19 9MD d   1      -1.254  23.577  70.398  0.00  0.00    -0.045 C 
ATOM      9  H3  9MD d   1       0.364  22.462  71.270  0.00  0.00     0.033 H 
ATOM     10  H4  9MD d   1      -1.058  21.473  70.793  0.00  0.00     0.033 H 
ATOM     11  C18 9MD d   1      -0.441  24.726  69.766  0.00  0.00     0.020 C 
ATOM     12  H14 9MD d   1      -1.580  23.877  71.405  0.00  0.00     0.036 H 
ATOM     13  H15 9MD d   1      -2.135  23.372  69.773  0.00  0.00     0.036 H 
ATOM     14  O17 9MD d   1       0.181  24.311  68.489  0.00  0.00    -0.383 OA
ATOM     15  H16 9MD d   1       0.350  25.032  70.466  0.00  0.00     0.074 H 
ATOM     16  H17 9MD d   1      -1.112  25.577  69.577  0.00  0.00     0.074 H 
ATOM     17  H2  9MD d   1       1.772  23.429  69.442  0.00  0.00     0.087 H 
ENDBRANCH   1   3
BRANCH   1  18
ATOM     18  C12 9MD d   1       3.181  22.299  67.494  0.00  0.00     0.243 C 
ATOM     19  O14 9MD d   1       3.667  22.037  68.590  0.00  0.00    -0.271 OA
ATOM     20  N15 9MD d   1       3.756  21.983  66.339  0.00  0.00    -0.355 N 
ATOM     21  H19 9MD d   1       3.281  22.234  65.496  0.00  0.00     0.162 HD
BRANCH  20  22
ATOM     22  C16 9MD d   1       5.023  21.300  66.223  0.00  0.00     0.012 C 
ATOM     23  C22 9MD d   1       6.035  22.293  65.631  0.00  0.00    -0.046 C 
ATOM     24  C23 9MD d   1       7.374  21.634  65.339  0.00  0.00    -0.063 C 
ATOM     25  H7  9MD d   1       6.191  23.112  66.349  0.00  0.00     0.035 H 
ATOM     26  H8  9MD d   1       5.627  22.700  64.694  0.00  0.00     0.035 H 
ATOM     27  C24 9MD d   1       7.212  20.437  64.429  0.00  0.00    -0.065 C 
ATOM     28  H21 9MD d   1       7.825  21.305  66.287  0.00  0.00     0.033 H 
ATOM     29  H22 9MD d   1       8.035  22.366  64.853  0.00  0.00     0.033 H 
ATOM     30  C25 9MD d   1       6.245  19.416  65.050  0.00  0.00    -0.063 C 
ATOM     31  H9  9MD d   1       8.192  19.962  64.278  0.00  0.00     0.033 H 
ATOM     32  H10 9MD d   1       6.813  20.770  63.460  0.00  0.00     0.033 H 
ATOM     33  C26 9MD d   1       4.877  20.057  65.345  0.00  0.00    -0.046 C 
ATOM     34  H23 9MD d   1       6.675  19.039  65.990  0.00  0.00     0.033 H 
ATOM     35  H24 9MD d   1       6.106  18.580  64.349  0.00  0.00     0.033 H 
ATOM     36  H11 9MD d   1       4.403  20.343  64.394  0.00  0.00     0.035 H 
ATOM     37  H12 9MD d   1       4.243  19.324  65.865  0.00  0.00     0.035 H 
ATOM     38  H20 9MD d   1       5.364  20.988  67.221  0.00  0.00     0.072 H 
ENDBRANCH  20  22
ENDBRANCH   1  18
BRANCH   1  39
ATOM     39  N7  9MD d   1       1.123  22.506  66.159  0.00  0.00    -0.312 N 
ATOM     40  C6  9MD d   1       0.749  21.195  65.858  0.00  0.00     0.068 A 
ATOM     41  C5  9MD d   1       0.139  21.267  64.611  0.00  0.00     0.089 A 
ATOM     42  C3  9MD d   1       0.895  20.017  66.557  0.00  0.00    -0.031 A 
ATOM     43  C4  9MD d   1      -0.362  20.103  64.023  0.00  0.00    -0.014 A 
ATOM     44  N9  9MD d   1       0.144  22.590  64.147  0.00  0.00    -0.228 NA
ATOM     45  C1  9MD d   1      -0.219  18.929  64.730  0.00  0.00     0.140 A 
ATOM     46  H1  9MD d   1      -0.843  20.123  63.052  0.00  0.00     0.092 H 
ATOM     47  C2  9MD d   1       0.399  18.880  65.973  0.00  0.00     0.074 A 
ATOM     48  F32 9MD d   1      -0.693  17.782  64.199  0.00  0.00    -0.204 F 
ATOM     49 CL33 9MD d   1       0.552  17.381  66.812  0.00  0.00    -0.081 Cl
ATOM     50  C8  9MD d   1       0.725  23.282  65.106  0.00  0.00     0.142 A 
ATOM     51  H25 9MD d   1       1.381  19.990  67.526  0.00  0.00     0.089 H 
BRANCH  50  52
ATOM     52  C10 9MD d   1       1.026  24.720  65.036  0.00  0.00     0.010 A 
ATOM     53  C27 9MD d   1       2.028  24.963  64.092  0.00  0.00    -0.068 A 
ATOM     54  C28 9MD d   1       2.502  26.235  63.860  0.00  0.00    -0.061 A 
ATOM     55  H26 9MD d   1       2.441  24.133  63.531  0.00  0.00     0.085 H 
ATOM     56  C29 9MD d   1       1.992  27.281  64.588  0.00  0.00     0.034 A 
ATOM     57  H13 9MD d   1       3.268  26.408  63.112  0.00  0.00     0.086 H 
ATOM     58  C31 9MD d   1       1.008  27.087  65.547  0.00  0.00    -0.061 A 
ATOM     59 CL34 9MD d   1       2.610  28.880  64.286  0.00  0.00    -0.084 Cl
ATOM     60  C30 9MD d   1       0.528  25.795  65.778  0.00  0.00    -0.068 A 
ATOM     61  H27 9MD d   1       0.617  27.927  66.110  0.00  0.00     0.086 H 
ATOM     62  H28 9MD d   1      -0.231  25.626  66.533  0.00  0.00     0.085 H 
ENDBRANCH  50  52
ENDBRANCH   1  39
TORSDOF 5
