REMARK  7 active torsions:
REMARK  status: ('A' for Active; 'I' for Inactive)
REMARK    1  A    between atoms: N1_1  and  C7_6 
REMARK    2  A    between atoms: C7_6  and  C22_14 
REMARK    3  A    between atoms: C7_6  and  C14_16 
REMARK    4  A    between atoms: C13_9  and  C10_8 
REMARK    5  A    between atoms: O18_17  and  C17_11 
REMARK    6  A    between atoms: C14_16  and  O18_17 
REMARK    7  A    between atoms: C2_29  and  C11_30 
ROOT
ATOM      1  C7  9MM d   1      13.647  23.070   4.789  0.00  0.00     0.043 C 
ATOM      2  H2  9MM d   1      14.704  22.823   4.613  0.00  0.00     0.077 H 
ENDROOT
BRANCH   1   3
ATOM      3  N1  9MM d   1      13.264  24.169   3.823  0.00  0.00    -0.322 N 
ATOM      4  C4  9MM d   1      12.026  24.804   3.673  0.00  0.00     0.068 A 
ATOM      5  C5  9MM d   1      12.204  25.730   2.647  0.00  0.00     0.089 A 
ATOM      6  C6  9MM d   1      10.819  24.638   4.337  0.00  0.00    -0.014 A 
ATOM      7  N3  9MM d   1      13.518  25.680   2.172  0.00  0.00    -0.228 NA
ATOM      8  C8  9MM d   1      11.133  26.537   2.258  0.00  0.00    -0.013 A 
ATOM      9  C2  9MM d   1      14.106  24.738   2.895  0.00  0.00     0.141 A 
ATOM     10  C12 9MM d   1       9.930  26.365   2.921  0.00  0.00     0.157 A 
ATOM     11  H3  9MM d   1      11.239  27.270   1.467  0.00  0.00     0.092 H 
ATOM     12  C9  9MM d   1       9.781  25.435   3.935  0.00  0.00     0.157 A 
ATOM     13  F26 9MM d   1       8.873  27.119   2.578  0.00  0.00    -0.203 F 
ATOM     14  F25 9MM d   1       8.574  25.313   4.547  0.00  0.00    -0.203 F 
ATOM     15  H1  9MM d   1      10.704  23.913   5.135  0.00  0.00     0.092 H 
BRANCH   9  16
ATOM     16  C11 9MM d   1      15.514  24.337   2.737  0.00  0.00     0.010 A 
ATOM     17  C24 9MM d   1      15.838  23.197   2.001  0.00  0.00    -0.068 A 
ATOM     18  C30 9MM d   1      17.155  22.799   1.852  0.00  0.00    -0.061 A 
ATOM     19  H7  9MM d   1      15.048  22.615   1.540  0.00  0.00     0.085 H 
ATOM     20  C29 9MM d   1      18.155  23.541   2.445  0.00  0.00     0.034 A 
ATOM     21  H23 9MM d   1      17.398  21.914   1.276  0.00  0.00     0.086 H 
ATOM     22  C31 9MM d   1      17.869  24.670   3.186  0.00  0.00    -0.061 A 
ATOM     23 CL32 9MM d   1      19.811  23.037   2.257  0.00  0.00    -0.084 Cl
ATOM     24  C23 9MM d   1      16.544  25.065   3.333  0.00  0.00    -0.068 A 
ATOM     25  H22 9MM d   1      18.667  25.241   3.647  0.00  0.00     0.086 H 
ATOM     26  H21 9MM d   1      16.309  25.948   3.917  0.00  0.00     0.085 H 
ENDBRANCH   9  16
ENDBRANCH   1   3
BRANCH   1  27
ATOM     27  C22 9MM d   1      13.538  23.532   6.253  0.00  0.00    -0.032 C 
ATOM     28  C33 9MM d   1      14.089  22.466   7.221  0.00  0.00    -0.060 C 
ATOM     29  C35 9MM d   1      13.969  22.897   8.691  0.00  0.00    -0.065 C 
ATOM     30  H11 9MM d   1      15.150  22.292   6.989  0.00  0.00     0.033 H 
ATOM     31  H12 9MM d   1      13.524  21.533   7.079  0.00  0.00     0.033 H 
ATOM     32  C37 9MM d   1      14.680  24.217   8.939  0.00  0.00    -0.065 C 
ATOM     33  H13 9MM d   1      14.419  22.122   9.329  0.00  0.00     0.033 H 
ATOM     34  H14 9MM d   1      12.905  23.010   8.946  0.00  0.00     0.033 H 
ATOM     35  C36 9MM d   1      14.160  25.322   7.973  0.00  0.00    -0.065 C 
ATOM     36  H15 9MM d   1      15.760  24.079   8.780  0.00  0.00     0.033 H 
ATOM     37  H16 9MM d   1      14.500  24.533   9.977  0.00  0.00     0.033 H 
ATOM     38  C34 9MM d   1      14.257  24.864   6.486  0.00  0.00    -0.060 C 
ATOM     39  H17 9MM d   1      14.765  26.230   8.108  0.00  0.00     0.033 H 
ATOM     40  H18 9MM d   1      13.109  25.542   8.213  0.00  0.00     0.033 H 
ATOM     41  H19 9MM d   1      13.799  25.633   5.846  0.00  0.00     0.033 H 
ATOM     42  H20 9MM d   1      15.317  24.748   6.218  0.00  0.00     0.033 H 
ATOM     43  H6  9MM d   1      12.471  23.678   6.478  0.00  0.00     0.043 H 
ENDBRANCH   1  27
BRANCH   1  44
ATOM     44  C14 9MM d   1      12.829  21.819   4.466  0.00  0.00     0.046 C 
ATOM     45  H8  9MM d   1      11.770  21.979   4.716  0.00  0.00     0.078 H 
ATOM     46  H9  9MM d   1      13.212  20.955   5.029  0.00  0.00     0.078 H 
BRANCH  44  47
ATOM     47  O18 9MM d   1      12.984  21.599   3.031  0.00  0.00    -0.346 OA
BRANCH  47  48
ATOM     48  C17 9MM d   1      12.138  20.673   2.481  0.00  0.00     0.107 A 
ATOM     49  C15 9MM d   1      10.934  21.147   2.012  0.00  0.00     0.150 A 
ATOM     50  C16 9MM d   1       9.985  20.334   1.444  0.00  0.00    -0.026 A 
ATOM     51  F27 9MM d   1      10.677  22.471   2.114  0.00  0.00    -0.203 F 
ATOM     52  C13 9MM d   1      10.241  18.972   1.334  0.00  0.00     0.043 A 
ATOM     53  H10 9MM d   1       9.049  20.748   1.086  0.00  0.00     0.090 H 
ATOM     54  C20 9MM d   1      11.453  18.463   1.806  0.00  0.00    -0.064 A 
ATOM     55  C21 9MM d   1      12.408  19.304   2.382  0.00  0.00    -0.047 A 
ATOM     56  H4  9MM d   1      11.655  17.401   1.724  0.00  0.00     0.085 H 
ATOM     57  H5  9MM d   1      13.346  18.901   2.747  0.00  0.00     0.087 H 
BRANCH  52  58
ATOM     58  C10 9MM d   1       9.208  18.085   0.723  0.00  0.00     0.209 C 
ATOM     59  O19 9MM d   1       9.488  16.829   0.718  0.00  0.00    -0.644 OA
ATOM     60  O28 9MM d   1       8.174  18.531   0.272  0.00  0.00    -0.644 OA
ENDBRANCH  52  58
ENDBRANCH  47  48
ENDBRANCH  44  47
ENDBRANCH   1  44
TORSDOF 7
