REMARK  8 active torsions:
REMARK  status: ('A' for Active; 'I' for Inactive)
REMARK    1  A    between atoms: C10_4  and  N8_17 
REMARK    2  A    between atoms: C11_18  and  C10_4 
REMARK    3  A    between atoms: C10_4  and  C27_24 
REMARK    4  A    between atoms: N13_20  and  C22_8 
REMARK    5  A    between atoms: C9_16  and  C14_26 
REMARK       I    between atoms: C11_18  and  N13_20 
REMARK    6  A    between atoms: C14_26  and  C29_27 
REMARK    7  A    between atoms: C14_26  and  O35_33 
REMARK    8  A    between atoms: O35_33  and  C36_34 
ROOT
ATOM      1  C10 9MP d   1      22.411  18.535 100.716  0.00  0.00     0.099 C 
ATOM      2  H2  9MP d   1      21.355  18.744 100.490  0.00  0.00     0.089 H 
ENDROOT
BRANCH   1   3
ATOM      3  N8  9MP d   1      22.856  17.476  99.766  0.00  0.00    -0.316 N 
ATOM      4  C4  9MP d   1      24.153  16.931  99.663  0.00  0.00     0.069 A 
ATOM      5  C5  9MP d   1      24.092  16.002  98.627  0.00  0.00     0.089 A 
ATOM      6  C3  9MP d   1      25.307  17.168 100.384  0.00  0.00    -0.014 A 
ATOM      7  C6  9MP d   1      25.231  15.274  98.279  0.00  0.00    -0.013 A 
ATOM      8  N7  9MP d   1      22.820  15.962  98.077  0.00  0.00    -0.230 NA
ATOM      9  C1  9MP d   1      26.380  15.517  99.001  0.00  0.00     0.157 A 
ATOM     10  H1  9MP d   1      25.213  14.548  97.475  0.00  0.00     0.092 H 
ATOM     11  C2  9MP d   1      26.414  16.442 100.028  0.00  0.00     0.157 A 
ATOM     12  F19 9MP d   1      27.507  14.835  98.701  0.00  0.00    -0.203 F 
ATOM     13  F20 9MP d   1      27.571  16.635 100.697  0.00  0.00    -0.203 F 
ATOM     14  C9  9MP d   1      22.117  16.836  98.760  0.00  0.00     0.142 A 
ATOM     15  H16 9MP d   1      25.336  17.892 101.191  0.00  0.00     0.092 H 
BRANCH  14  16
ATOM     16  C14 9MP d   1      20.674  17.095  98.448  0.00  0.00     0.120 C 
ATOM     17  H27 9MP d   1      20.438  16.508  97.548  0.00  0.00     0.103 H 
BRANCH  16  18
ATOM     18  C29 9MP d   1      19.683  16.672  99.495  0.00  0.00    -0.022 A 
ATOM     19  C30 9MP d   1      19.761  15.414 100.083  0.00  0.00    -0.074 A 
ATOM     20  C31 9MP d   1      18.844  15.027 101.048  0.00  0.00    -0.082 A 
ATOM     21  H28 9MP d   1      20.547  14.729  99.784  0.00  0.00     0.084 H 
ATOM     22  C32 9MP d   1      17.838  15.891 101.435  0.00  0.00    -0.083 A 
ATOM     23  H29 9MP d   1      18.916  14.044 101.500  0.00  0.00     0.083 H 
ATOM     24  C33 9MP d   1      17.749  17.144 100.855  0.00  0.00    -0.082 A 
ATOM     25  H30 9MP d   1      17.121  15.589 102.190  0.00  0.00     0.083 H 
ATOM     26  C34 9MP d   1      18.665  17.534  99.892  0.00  0.00    -0.074 A 
ATOM     27  H31 9MP d   1      16.959  17.823 101.155  0.00  0.00     0.083 H 
ATOM     28  H32 9MP d   1      18.588  18.518  99.444  0.00  0.00     0.084 H 
ENDBRANCH  16  18
BRANCH  16  29
ATOM     29  O35 9MP d   1      20.513  18.473  98.118  0.00  0.00    -0.378 OA
BRANCH  29  30
ATOM     30  C36 9MP d   1      20.510  18.721  96.718  0.00  0.00     0.005 C 
ATOM     31  H33 9MP d   1      20.383  19.799  96.537  0.00  0.00     0.066 H 
ATOM     32  H34 9MP d   1      19.681  18.170  96.250  0.00  0.00     0.066 H 
ATOM     33  H35 9MP d   1      21.464  18.387  96.284  0.00  0.00     0.066 H 
ENDBRANCH  29  30
ENDBRANCH  16  29
ENDBRANCH  14  16
ENDBRANCH   1   3
BRANCH   1  34
ATOM     34  C11 9MP d   1      23.210  19.816 100.426  0.00  0.00     0.241 C 
ATOM     35  O12 9MP d   1      23.934  20.329 101.275  0.00  0.00    -0.271 OA
ATOM     36  N13 9MP d   1      23.058  20.300  99.193  0.00  0.00    -0.355 N 
ATOM     37  H17 9MP d   1      22.449  19.806  98.573  0.00  0.00     0.162 HD
BRANCH  36  38
ATOM     38  C22 9MP d   1      23.713  21.493  98.684  0.00  0.00     0.012 C 
ATOM     39  C21 9MP d   1      22.741  22.274  97.804  0.00  0.00    -0.046 C 
ATOM     40  C18 9MP d   1      23.423  23.467  97.128  0.00  0.00    -0.063 C 
ATOM     41  H7  9MP d   1      21.913  22.643  98.427  0.00  0.00     0.035 H 
ATOM     42  H8  9MP d   1      22.345  21.603  97.028  0.00  0.00     0.035 H 
ATOM     43  C17 9MP d   1      24.625  23.031  96.308  0.00  0.00    -0.065 C 
ATOM     44  H18 9MP d   1      22.699  23.964  96.465  0.00  0.00     0.033 H 
ATOM     45  H19 9MP d   1      23.756  24.174  97.902  0.00  0.00     0.033 H 
ATOM     46  C16 9MP d   1      25.635  22.298  97.180  0.00  0.00    -0.063 C 
ATOM     47  H5  9MP d   1      25.104  23.919  95.869  0.00  0.00     0.033 H 
ATOM     48  H6  9MP d   1      24.289  22.360  95.503  0.00  0.00     0.033 H 
ATOM     49  C23 9MP d   1      24.983  21.083  97.892  0.00  0.00    -0.046 C 
ATOM     50  H20 9MP d   1      26.025  22.992  97.939  0.00  0.00     0.033 H 
ATOM     51  H21 9MP d   1      26.463  21.942  96.549  0.00  0.00     0.033 H 
ATOM     52  H22 9MP d   1      24.705  20.334  97.136  0.00  0.00     0.035 H 
ATOM     53  H23 9MP d   1      25.712  20.646  98.590  0.00  0.00     0.035 H 
ATOM     54  H9  9MP d   1      24.013  22.129  99.530  0.00  0.00     0.072 H 
ENDBRANCH  36  38
ENDBRANCH   1  34
BRANCH   1  55
ATOM     55  C27 9MP d   1      22.465  18.150 102.209  0.00  0.00    -0.025 C 
ATOM     56  C26 9MP d   1      22.048  16.666 102.453  0.00  0.00    -0.059 C 
ATOM     57  C25 9MP d   1      22.070  16.298 103.947  0.00  0.00    -0.065 C 
ATOM     58  H12 9MP d   1      22.746  16.008 101.915  0.00  0.00     0.033 H 
ATOM     59  H13 9MP d   1      21.030  16.515 102.065  0.00  0.00     0.033 H 
ATOM     60  C24 9MP d   1      21.198  17.241 104.771  0.00  0.00    -0.065 C 
ATOM     61  H25 9MP d   1      21.697  15.270 104.067  0.00  0.00     0.033 H 
ATOM     62  H26 9MP d   1      23.105  16.357 104.314  0.00  0.00     0.033 H 
ATOM     63  C15 9MP d   1      21.615  18.708 104.560  0.00  0.00    -0.065 C 
ATOM     64  H10 9MP d   1      20.148  17.118 104.466  0.00  0.00     0.033 H 
ATOM     65  H11 9MP d   1      21.302  16.988 105.836  0.00  0.00     0.033 H 
ATOM     66  C28 9MP d   1      21.581  19.086 103.064  0.00  0.00    -0.059 C 
ATOM     67  H3  9MP d   1      22.636  18.850 104.943  0.00  0.00     0.033 H 
ATOM     68  H4  9MP d   1      20.923  19.361 105.111  0.00  0.00     0.033 H 
ATOM     69  H14 9MP d   1      21.944  20.118 102.950  0.00  0.00     0.033 H 
ATOM     70  H15 9MP d   1      20.543  19.020 102.705  0.00  0.00     0.033 H 
ATOM     71  H24 9MP d   1      23.506  18.267 102.543  0.00  0.00     0.043 H 
ENDBRANCH   1  55
TORSDOF 8
