REMARK  8 active torsions:
REMARK  status: ('A' for Active; 'I' for Inactive)
REMARK    1  A    between atoms: N8_18  and  C10_4 
REMARK    2  A    between atoms: C10_4  and  C11_19 
REMARK    3  A    between atoms: C10_4  and  C27_24 
REMARK    4  A    between atoms: N13_21  and  C22_9 
REMARK    5  A    between atoms: C33_27  and  C9_17 
REMARK       I    between atoms: C11_19  and  N13_21 
REMARK    6  A    between atoms: O30_28  and  C33_27 
REMARK    7  A    between atoms: O30_28  and  C14_29 
REMARK    8  A    between atoms: C29_33  and  C36_34 
ROOT
ATOM      1  C10 9MS d   1      22.178  18.755 100.400  0.00  0.00     0.099 C 
ATOM      2  H2  9MS d   1      21.105  18.921 100.222  0.00  0.00     0.089 H 
ENDROOT
BRANCH   1   3
ATOM      3  N8  9MS d   1      22.611  17.682  99.454  0.00  0.00    -0.317 N 
ATOM      4  C4  9MS d   1      23.936  17.267  99.210  0.00  0.00     0.068 A 
ATOM      5  C5  9MS d   1      23.834  16.262  98.250  0.00  0.00     0.086 A 
ATOM      6  C3  9MS d   1      25.155  17.674  99.739  0.00  0.00    -0.017 A 
ATOM      7  C6  9MS d   1      24.992  15.627  97.788  0.00  0.00    -0.050 A 
ATOM      8  N7  9MS d   1      22.499  16.056  97.901  0.00  0.00    -0.231 NA
ATOM      9  C1  9MS d   1      26.235  16.012  98.298  0.00  0.00    -0.043 A 
ATOM     10  H1  9MS d   1      24.926  14.844  97.041  0.00  0.00     0.087 H 
ATOM     11  C2  9MS d   1      26.275  17.032  99.265  0.00  0.00     0.118 A 
ATOM     12  H17 9MS d   1      27.147  15.536  97.956  0.00  0.00     0.088 H 
ATOM     13  F18 9MS d   1      27.481  17.408  99.765  0.00  0.00    -0.206 F 
ATOM     14  C9  9MS d   1      21.824  16.914  98.631  0.00  0.00     0.132 A 
ATOM     15  H18 9MS d   1      25.220  18.457 100.486  0.00  0.00     0.091 H 
BRANCH  14  16
ATOM     16  C33 9MS d   1      20.345  17.048  98.584  0.00  0.00     0.081 C 
ATOM     17  H29 9MS d   1      19.927  16.930  99.595  0.00  0.00     0.087 H 
ATOM     18  H30 9MS d   1      19.921  16.280  97.920  0.00  0.00     0.087 H 
BRANCH  16  19
ATOM     19  O30 9MS d   1      20.037  18.344  98.082  0.00  0.00    -0.343 OA
BRANCH  19  20
ATOM     20  C14 9MS d   1      18.712  18.637  97.792  0.00  0.00     0.075 A 
ATOM     21  C28 9MS d   1      17.633  18.259  98.595  0.00  0.00    -0.049 A 
ATOM     22  C31 9MS d   1      16.340  18.602  98.216  0.00  0.00    -0.059 A 
ATOM     23  H16 9MS d   1      17.803  17.701  99.509  0.00  0.00     0.087 H 
ATOM     24  C34 9MS d   1      16.148  19.313  97.050  0.00  0.00     0.034 A 
ATOM     25  H31 9MS d   1      15.494  18.314  98.829  0.00  0.00     0.086 H 
ATOM     26  C32 9MS d   1      17.207  19.693  96.250  0.00  0.00    -0.054 A 
ATOM     27 CL35 9MS d   1      14.533  19.744  96.572  0.00  0.00    -0.084 Cl
ATOM     28  C29 9MS d   1      18.512  19.361  96.607  0.00  0.00    -0.027 A 
ATOM     29  H32 9MS d   1      17.022  20.252  95.340  0.00  0.00     0.087 H 
BRANCH  28  30
ATOM     30  C36 9MS d   1      19.670  19.773  95.733  0.00  0.00    -0.049 C 
ATOM     31  H33 9MS d   1      20.611  19.421  96.181  0.00  0.00     0.033 H 
ATOM     32  H34 9MS d   1      19.693  20.869  95.647  0.00  0.00     0.033 H 
ATOM     33  H35 9MS d   1      19.551  19.329  94.734  0.00  0.00     0.033 H 
ENDBRANCH  28  30
ENDBRANCH  19  20
ENDBRANCH  16  19
ENDBRANCH  14  16
ENDBRANCH   1   3
BRANCH   1  34
ATOM     34  C11 9MS d   1      22.907  20.075 100.047  0.00  0.00     0.241 C 
ATOM     35  O12 9MS d   1      23.517  20.714 100.900  0.00  0.00    -0.271 OA
ATOM     36  N13 9MS d   1      22.824  20.452  98.760  0.00  0.00    -0.355 N 
ATOM     37  H19 9MS d   1      22.306  19.869  98.134  0.00  0.00     0.162 HD
BRANCH  36  38
ATOM     38  C22 9MS d   1      23.444  21.663  98.216  0.00  0.00     0.012 C 
ATOM     39  C21 9MS d   1      24.693  21.289  97.373  0.00  0.00    -0.046 C 
ATOM     40  C20 9MS d   1      25.324  22.544  96.693  0.00  0.00    -0.063 C 
ATOM     41  H9  9MS d   1      25.442  20.825  98.031  0.00  0.00     0.035 H 
ATOM     42  H10 9MS d   1      24.396  20.572  96.593  0.00  0.00     0.035 H 
ATOM     43  C19 9MS d   1      24.272  23.329  95.878  0.00  0.00    -0.065 C 
ATOM     44  H7  9MS d   1      26.130  22.219  96.019  0.00  0.00     0.033 H 
ATOM     45  H8  9MS d   1      25.739  23.202  97.470  0.00  0.00     0.033 H 
ATOM     46  C17 9MS d   1      23.075  23.697  96.749  0.00  0.00    -0.063 C 
ATOM     47  H22 9MS d   1      24.731  24.250  95.489  0.00  0.00     0.033 H 
ATOM     48  H23 9MS d   1      23.929  22.707  95.038  0.00  0.00     0.033 H 
ATOM     49  C16 9MS d   1      22.434  22.449  97.384  0.00  0.00    -0.046 C 
ATOM     50  H5  9MS d   1      23.410  24.373  97.549  0.00  0.00     0.033 H 
ATOM     51  H6  9MS d   1      22.324  24.207  96.128  0.00  0.00     0.033 H 
ATOM     52  H20 9MS d   1      22.047  21.800  96.585  0.00  0.00     0.035 H 
ATOM     53  H21 9MS d   1      21.604  22.765  98.034  0.00  0.00     0.035 H 
ATOM     54  H11 9MS d   1      23.769  22.297  99.055  0.00  0.00     0.072 H 
ENDBRANCH  36  38
ENDBRANCH   1  34
BRANCH   1  55
ATOM     55  C27 9MS d   1      22.312  18.382 101.893  0.00  0.00    -0.025 C 
ATOM     56  C15 9MS d   1      21.444  19.309 102.794  0.00  0.00    -0.059 C 
ATOM     57  C23 9MS d   1      21.608  18.977 104.282  0.00  0.00    -0.065 C 
ATOM     58  H3  9MS d   1      20.387  19.186 102.517  0.00  0.00     0.033 H 
ATOM     59  H4  9MS d   1      21.748  20.353 102.627  0.00  0.00     0.033 H 
ATOM     60  C24 9MS d   1      21.263  17.516 104.571  0.00  0.00    -0.065 C 
ATOM     61  H25 9MS d   1      20.940  19.625 104.869  0.00  0.00     0.033 H 
ATOM     62  H26 9MS d   1      22.651  19.163 104.577  0.00  0.00     0.033 H 
ATOM     63  C25 9MS d   1      22.074  16.553 103.669  0.00  0.00    -0.065 C 
ATOM     64  H12 9MS d   1      20.190  17.359 104.388  0.00  0.00     0.033 H 
ATOM     65  H13 9MS d   1      21.491  17.296 105.624  0.00  0.00     0.033 H 
ATOM     66  C26 9MS d   1      21.926  16.920 102.163  0.00  0.00    -0.059 C 
ATOM     67  H27 9MS d   1      21.710  15.527 103.824  0.00  0.00     0.033 H 
ATOM     68  H28 9MS d   1      23.136  16.611 103.948  0.00  0.00     0.033 H 
ATOM     69  H14 9MS d   1      22.580  16.264 101.570  0.00  0.00     0.033 H 
ATOM     70  H15 9MS d   1      20.880  16.766 101.860  0.00  0.00     0.033 H 
ATOM     71  H24 9MS d   1      23.366  18.515 102.176  0.00  0.00     0.043 H 
ENDBRANCH   1  55
TORSDOF 8
