REMARK  5 active torsions:
REMARK  status: ('A' for Active; 'I' for Inactive)
REMARK    1  A    between atoms: S1_23  and  C7_4 
REMARK    2  A    between atoms: C13_6  and  C29_16 
REMARK    3  A    between atoms: N2_17  and  C13_6 
REMARK    4  A    between atoms: C21_8  and  C12_13 
REMARK    5  A    between atoms: N8_20  and  S1_23 
ROOT
ATOM      1  C4  9MV d   1     -14.656  52.109   0.811  0.00  0.00     0.073 A 
ATOM      2  C5  9MV d   1     -14.333  52.135  -0.659  0.00  0.00    -0.012 A 
ATOM      3  C6  9MV d   1     -14.343  53.458  -1.103  0.00  0.00     0.045 A 
ATOM      4  C10 9MV d   1     -16.038  51.431   1.006  0.00  0.00    -0.030 C 
ATOM      5  C20 9MV d   1     -16.386  51.129   2.452  0.00  0.00     0.007 C 
ATOM      6  C28 9MV d   1     -13.826  51.434  -2.881  0.00  0.00     0.011 A 
ATOM      7  N2  9MV d   1     -14.620  54.308  -0.031  0.00  0.00    -0.312 N 
ATOM      8  C3  9MV d   1     -14.814  53.604   1.123  0.00  0.00     0.238 A 
ATOM      9  O17 9MV d   1     -15.078  54.087   2.210  0.00  0.00    -0.272 OA
ATOM     10  N8  9MV d   1     -15.292  50.340   3.044  0.00  0.00    -0.306 N 
ATOM     11  C19 9MV d   1     -14.024  51.096   3.112  0.00  0.00     0.007 C 
ATOM     12  C9  9MV d   1     -13.566  51.455   1.703  0.00  0.00    -0.030 C 
ATOM     13  C18 9MV d   1     -14.076  51.105  -1.560  0.00  0.00    -0.057 A 
ATOM     14 BR34 9MV d   1     -13.470  50.039  -4.120  0.00  0.00    -0.051 Br
ATOM     15  C30 9MV d   1     -13.830  52.743  -3.328  0.00  0.00    -0.064 A 
ATOM     16  C16 9MV d   1     -14.089  53.771  -2.435  0.00  0.00    -0.055 A 
ATOM     17  H1  9MV d   1     -16.040  50.484   0.446  0.00  0.00     0.037 H 
ATOM     18  H2  9MV d   1     -16.811  52.099   0.598  0.00  0.00     0.037 H 
ATOM     19  H5  9MV d   1     -17.323  50.554   2.495  0.00  0.00     0.065 H 
ATOM     20  H6  9MV d   1     -16.507  52.070   3.008  0.00  0.00     0.065 H 
ATOM     21  H10 9MV d   1     -13.256  50.479   3.600  0.00  0.00     0.065 H 
ATOM     22  H11 9MV d   1     -14.178  52.017   3.693  0.00  0.00     0.065 H 
ATOM     23  H12 9MV d   1     -12.724  52.158   1.786  0.00  0.00     0.037 H 
ATOM     24  H13 9MV d   1     -13.227  50.533   1.208  0.00  0.00     0.037 H 
ATOM     25  H16 9MV d   1     -14.072  50.071  -1.235  0.00  0.00     0.086 H 
ATOM     26  H17 9MV d   1     -13.632  52.964  -4.371  0.00  0.00     0.085 H 
ATOM     27  H18 9MV d   1     -14.094  54.802  -2.769  0.00  0.00     0.087 H 
ENDROOT
BRANCH   7  28
ATOM     28  C13 9MV d   1     -14.740  55.767  -0.108  0.00  0.00     0.026 C 
ATOM     29  H3  9MV d   1     -15.413  55.997  -0.947  0.00  0.00     0.072 H 
ATOM     30  H4  9MV d   1     -15.196  56.109   0.833  0.00  0.00     0.072 H 
BRANCH  28  31
ATOM     31  C29 9MV d   1     -13.477  56.565  -0.312  0.00  0.00    -0.040 A 
ATOM     32  C32 9MV d   1     -13.544  57.802  -0.940  0.00  0.00    -0.074 A 
ATOM     33  C26 9MV d   1     -12.408  58.566  -1.139  0.00  0.00    -0.066 A 
ATOM     34  H9  9MV d   1     -14.503  58.175  -1.280  0.00  0.00     0.084 H 
ATOM     35  C21 9MV d   1     -11.166  58.109  -0.707  0.00  0.00     0.040 A 
ATOM     36  H8  9MV d   1     -12.486  59.527  -1.635  0.00  0.00     0.085 H 
ATOM     37  C27 9MV d   1     -11.098  56.869  -0.073  0.00  0.00    -0.066 A 
ATOM     38  C33 9MV d   1     -12.241  56.110   0.120  0.00  0.00    -0.074 A 
ATOM     39  H20 9MV d   1     -10.141  56.495   0.273  0.00  0.00     0.085 H 
ATOM     40  H19 9MV d   1     -12.168  55.148   0.615  0.00  0.00     0.084 H 
BRANCH  35  41
ATOM     41  C12 9MV d   1      -9.943  58.931  -0.920  0.00  0.00     0.209 C 
ATOM     42  O31 9MV d   1      -9.944  59.923  -1.638  0.00  0.00    -0.644 OA
ATOM     43  O24 9MV d   1      -8.886  58.511  -0.281  0.00  0.00    -0.644 OA
ENDBRANCH  35  41
ENDBRANCH  28  31
ENDBRANCH   7  28
BRANCH  10  44
ATOM     44  S1  9MV d   1     -15.658  49.346   4.276  0.00  0.00     0.267 S 
ATOM     45  O14 9MV d   1     -14.808  48.205   4.146  0.00  0.00    -0.200 OA
ATOM     46  O15 9MV d   1     -17.075  49.154   4.252  0.00  0.00    -0.200 OA
BRANCH  44  47
ATOM     47  C7  9MV d   1     -15.294  50.067   5.811  0.00  0.00     0.120 A 
ATOM     48  C22 9MV d   1     -14.126  49.876   6.501  0.00  0.00    -0.053 A 
ATOM     49  C25 9MV d   1     -14.137  50.601   7.723  0.00  0.00    -0.075 A 
ATOM     50  H7  9MV d   1     -13.301  49.253   6.159  0.00  0.00     0.086 H 
ATOM     51  C23 9MV d   1     -15.276  51.295   7.914  0.00  0.00    -0.044 A 
ATOM     52  H14 9MV d   1     -13.310  50.596   8.432  0.00  0.00     0.084 H 
ATOM     53  S11 9MV d   1     -16.385  51.104   6.630  0.00  0.00    -0.088 SA
ATOM     54  H15 9MV d   1     -15.468  51.910   8.791  0.00  0.00     0.095 H 
ENDBRANCH  44  47
ENDBRANCH  10  44
TORSDOF 5
