REMARK  9 active torsions:
REMARK  status: ('A' for Active; 'I' for Inactive)
REMARK    1  A    between atoms: N1_1  and  C7_6 
REMARK    2  A    between atoms: C7_6  and  C6_5 
REMARK       I    between atoms: C6_5  and  N11_30 
REMARK    3  A    between atoms: C7_6  and  C16_23 
REMARK    4  A    between atoms: C9_18  and  C15_10 
REMARK    5  A    between atoms: N11_30  and  C17_11 
REMARK    6  A    between atoms: C21_12  and  O26_31 
REMARK    7  A    between atoms: O20_17  and  C31_16 
REMARK    8  A    between atoms: C9_18  and  O20_17 
REMARK    9  A    between atoms: C9_18  and  C2_19 
ROOT
ATOM      1  C7  9MY d   1      13.412  23.316   4.757  0.00  0.00     0.099 C 
ATOM      2  H1  9MY d   1      14.354  23.011   4.277  0.00  0.00     0.089 H 
ENDROOT
BRANCH   1   3
ATOM      3  N1  9MY d   1      12.880  24.401   3.878  0.00  0.00    -0.316 N 
ATOM      4  C4  9MY d   1      11.562  24.906   3.834  0.00  0.00     0.069 A 
ATOM      5  C5  9MY d   1      11.566  25.871   2.829  0.00  0.00     0.089 A 
ATOM      6  C8  9MY d   1      10.427  24.614   4.582  0.00  0.00    -0.014 A 
ATOM      7  N3  9MY d   1      12.822  25.968   2.242  0.00  0.00    -0.230 NA
ATOM      8  C10 9MY d   1      10.399  26.576   2.541  0.00  0.00    -0.013 A 
ATOM      9  C2  9MY d   1      13.567  25.089   2.877  0.00  0.00     0.142 A 
ATOM     10  C13 9MY d   1       9.277  26.285   3.279  0.00  0.00     0.157 A 
ATOM     11  H3  9MY d   1      10.377  27.329   1.761  0.00  0.00     0.092 H 
ATOM     12  F19 9MY d   1       8.126  26.951   3.029  0.00  0.00    -0.203 F 
ATOM     13  C12 9MY d   1       9.288  25.331   4.275  0.00  0.00     0.157 A 
ATOM     14  F18 9MY d   1       8.150  25.095   4.960  0.00  0.00    -0.203 F 
ATOM     15  H2  9MY d   1      10.436  23.864   5.364  0.00  0.00     0.092 H 
BRANCH   9  16
ATOM     16  C9  9MY d   1      15.013  24.840   2.539  0.00  0.00     0.120 C 
ATOM     17  H14 9MY d   1      15.262  25.397   1.624  0.00  0.00     0.103 H 
BRANCH  16  18
ATOM     18  C15 9MY d   1      16.024  25.212   3.590  0.00  0.00    -0.022 A 
ATOM     19  C28 9MY d   1      17.048  24.322   3.936  0.00  0.00    -0.074 A 
ATOM     20  C32 9MY d   1      17.985  24.664   4.905  0.00  0.00    -0.082 A 
ATOM     21  H10 9MY d   1      17.111  23.358   3.444  0.00  0.00     0.084 H 
ATOM     22  C36 9MY d   1      17.913  25.892   5.536  0.00  0.00    -0.083 A 
ATOM     23  H35 9MY d   1      18.773  23.967   5.166  0.00  0.00     0.083 H 
ATOM     24  C33 9MY d   1      16.907  26.780   5.199  0.00  0.00    -0.082 A 
ATOM     25  H34 9MY d   1      18.642  26.158   6.292  0.00  0.00     0.083 H 
ATOM     26  C27 9MY d   1      15.968  26.445   4.233  0.00  0.00    -0.074 A 
ATOM     27  H33 9MY d   1      16.852  27.744   5.692  0.00  0.00     0.083 H 
ATOM     28  H32 9MY d   1      15.185  27.149   3.977  0.00  0.00     0.084 H 
ENDBRANCH  16  18
BRANCH  16  29
ATOM     29  O20 9MY d   1      15.079  23.385   2.284  0.00  0.00    -0.378 OA
BRANCH  29  30
ATOM     30  C31 9MY d   1      15.109  23.051   0.899  0.00  0.00     0.005 C 
ATOM     31  H11 9MY d   1      15.158  21.958   0.786  0.00  0.00     0.066 H 
ATOM     32  H12 9MY d   1      15.993  23.508   0.431  0.00  0.00     0.066 H 
ATOM     33  H13 9MY d   1      14.199  23.430   0.411  0.00  0.00     0.066 H 
ENDBRANCH  29  30
ENDBRANCH  16  29
ENDBRANCH   9  16
ENDBRANCH   1   3
BRANCH   1  34
ATOM     34  C6  9MY d   1      12.475  22.072   4.592  0.00  0.00     0.241 C 
ATOM     35  O14 9MY d   1      11.798  21.631   5.515  0.00  0.00    -0.271 OA
ATOM     36  N11 9MY d   1      12.476  21.553   3.351  0.00  0.00    -0.355 N 
ATOM     37  H26 9MY d   1      13.059  21.991   2.667  0.00  0.00     0.162 HD
BRANCH  36  38
ATOM     38  C17 9MY d   1      11.692  20.403   2.930  0.00  0.00     0.012 C 
ATOM     39  C22 9MY d   1      12.384  19.663   1.793  0.00  0.00    -0.044 C 
ATOM     40  C24 9MY d   1      11.558  18.458   1.291  0.00  0.00    -0.039 C 
ATOM     41  H6  9MY d   1      13.359  19.300   2.149  0.00  0.00     0.036 H 
ATOM     42  H7  9MY d   1      12.536  20.361   0.957  0.00  0.00     0.036 H 
ATOM     43  C21 9MY d   1      10.115  18.846   0.944  0.00  0.00     0.035 C 
ATOM     44  H8  9MY d   1      12.040  18.049   0.391  0.00  0.00     0.036 H 
ATOM     45  H9  9MY d   1      11.538  17.690   2.078  0.00  0.00     0.036 H 
ATOM     46  C25 9MY d   1       9.457  19.642   2.085  0.00  0.00    -0.039 C 
ATOM     47  H5  9MY d   1      10.127  19.469   0.038  0.00  0.00     0.082 H 
ATOM     48  C23 9MY d   1      10.311  20.840   2.500  0.00  0.00    -0.044 C 
ATOM     49  H28 9MY d   1       9.326  18.979   2.953  0.00  0.00     0.036 H 
ATOM     50  H29 9MY d   1       8.475  20.004   1.748  0.00  0.00     0.036 H 
ATOM     51  H30 9MY d   1      10.402  21.529   1.647  0.00  0.00     0.036 H 
ATOM     52  H31 9MY d   1       9.821  21.357   3.338  0.00  0.00     0.036 H 
ATOM     53  H4  9MY d   1      11.593  19.717   3.784  0.00  0.00     0.072 H 
BRANCH  43  54
ATOM     54  O26 9MY d   1       9.334  17.656   0.690  0.00  0.00    -0.396 OA
ATOM     55  H27 9MY d   1       9.334  17.107   1.465  0.00  0.00     0.210 HD
ENDBRANCH  43  54
ENDBRANCH  36  38
ENDBRANCH   1  34
BRANCH   1  56
ATOM     56  C16 9MY d   1      13.884  23.718   6.197  0.00  0.00    -0.025 C 
ATOM     57  C29 9MY d   1      13.290  25.029   6.705  0.00  0.00    -0.059 C 
ATOM     58  C35 9MY d   1      13.964  25.479   8.013  0.00  0.00    -0.065 C 
ATOM     59  H16 9MY d   1      12.214  24.888   6.886  0.00  0.00     0.033 H 
ATOM     60  H17 9MY d   1      13.434  25.807   5.941  0.00  0.00     0.033 H 
ATOM     61  C37 9MY d   1      13.843  24.415   9.110  0.00  0.00    -0.065 C 
ATOM     62  H18 9MY d   1      13.484  26.405   8.361  0.00  0.00     0.033 H 
ATOM     63  H19 9MY d   1      15.030  25.669   7.817  0.00  0.00     0.033 H 
ATOM     64  C34 9MY d   1      14.347  23.005   8.622  0.00  0.00    -0.065 C 
ATOM     65  H20 9MY d   1      12.788  24.331   9.409  0.00  0.00     0.033 H 
ATOM     66  H21 9MY d   1      14.445  24.727   9.976  0.00  0.00     0.033 H 
ATOM     67  C30 9MY d   1      13.726  22.606   7.239  0.00  0.00    -0.059 C 
ATOM     68  H22 9MY d   1      14.065  22.249   9.369  0.00  0.00     0.033 H 
ATOM     69  H23 9MY d   1      15.442  23.034   8.524  0.00  0.00     0.033 H 
ATOM     70  H24 9MY d   1      14.230  21.700   6.871  0.00  0.00     0.033 H 
ATOM     71  H25 9MY d   1      12.655  22.398   7.377  0.00  0.00     0.033 H 
ATOM     72  H15 9MY d   1      14.966  23.894   6.107  0.00  0.00     0.043 H 
ENDBRANCH   1  56
TORSDOF 9
