REMARK  9 active torsions:
REMARK  status: ('A' for Active; 'I' for Inactive)
REMARK    1  A    between atoms: C4_2  and  C1_28 
REMARK    2  A    between atoms: C6_4  and  C5_3 
REMARK       I    between atoms: C5_3  and  N10_14 
REMARK    3  A    between atoms: C6_4  and  C14_20 
REMARK    4  A    between atoms: N2_25  and  C6_4 
REMARK    5  A    between atoms: C15_7  and  O20_31 
REMARK    6  A    between atoms: O17_35  and  C24_10 
REMARK    7  A    between atoms: N10_14  and  C18_15 
REMARK    8  A    between atoms: O20_31  and  C25_32 
REMARK    9  A    between atoms: C9_34  and  O17_35 
ROOT
ATOM      1  C6  9N1 d   1      13.744  23.278   5.020  0.00  0.00     0.099 C 
ATOM      2  H1  9N1 d   1      14.811  23.058   4.867  0.00  0.00     0.089 H 
ENDROOT
BRANCH   1   3
ATOM      3  C5  9N1 d   1      12.957  22.009   4.662  0.00  0.00     0.241 C 
ATOM      4  O13 9N1 d   1      12.240  21.443   5.485  0.00  0.00    -0.271 OA
ATOM      5  N10 9N1 d   1      13.111  21.587   3.404  0.00  0.00    -0.355 N 
ATOM      6  H11 9N1 d   1      13.716  22.113   2.806  0.00  0.00     0.162 HD
BRANCH   5   7
ATOM      7  C18 9N1 d   1      12.453  20.407   2.844  0.00  0.00     0.012 C 
ATOM      8  C26 9N1 d   1      13.422  19.650   1.918  0.00  0.00    -0.046 C 
ATOM      9  C32 9N1 d   1      12.723  18.452   1.231  0.00  0.00    -0.063 C 
ATOM     10  H8  9N1 d   1      14.269  19.277   2.513  0.00  0.00     0.035 H 
ATOM     11  H9  9N1 d   1      13.792  20.340   1.145  0.00  0.00     0.035 H 
ATOM     12  C34 9N1 d   1      11.469  18.904   0.462  0.00  0.00    -0.065 C 
ATOM     13  H19 9N1 d   1      12.429  17.720   1.998  0.00  0.00     0.033 H 
ATOM     14  H20 9N1 d   1      13.426  17.983   0.527  0.00  0.00     0.033 H 
ATOM     15  C33 9N1 d   1      10.504  19.634   1.389  0.00  0.00    -0.063 C 
ATOM     16  H17 9N1 d   1      11.769  19.580  -0.352  0.00  0.00     0.033 H 
ATOM     17  H18 9N1 d   1      10.966  18.021   0.040  0.00  0.00     0.033 H 
ATOM     18  C27 9N1 d   1      11.191  20.835   2.085  0.00  0.00    -0.046 C 
ATOM     19  H15 9N1 d   1       9.651  20.001   0.800  0.00  0.00     0.033 H 
ATOM     20  H16 9N1 d   1      10.145  18.933   2.157  0.00  0.00     0.033 H 
ATOM     21  H13 9N1 d   1      11.469  21.577   1.322  0.00  0.00     0.035 H 
ATOM     22  H14 9N1 d   1      10.484  21.287   2.796  0.00  0.00     0.035 H 
ATOM     23  H12 9N1 d   1      12.160  19.739   3.667  0.00  0.00     0.072 H 
ENDBRANCH   5   7
ENDBRANCH   1   3
BRANCH   1  24
ATOM     24  C14 9N1 d   1      13.587  23.679   6.508  0.00  0.00    -0.025 C 
ATOM     25  C22 9N1 d   1      14.050  25.130   6.768  0.00  0.00    -0.059 C 
ATOM     26  C31 9N1 d   1      13.901  25.527   8.261  0.00  0.00    -0.065 C 
ATOM     27  H3  9N1 d   1      13.441  25.812   6.156  0.00  0.00     0.033 H 
ATOM     28  H4  9N1 d   1      15.107  25.223   6.479  0.00  0.00     0.033 H 
ATOM     29  C35 9N1 d   1      14.619  24.518   9.191  0.00  0.00    -0.065 C 
ATOM     30  H28 9N1 d   1      12.832  25.553   8.519  0.00  0.00     0.033 H 
ATOM     31  H29 9N1 d   1      14.338  26.525   8.411  0.00  0.00     0.033 H 
ATOM     32  C30 9N1 d   1      14.173  23.085   8.908  0.00  0.00    -0.065 C 
ATOM     33  H26 9N1 d   1      15.705  24.593   9.031  0.00  0.00     0.033 H 
ATOM     34  H27 9N1 d   1      14.385  24.766  10.237  0.00  0.00     0.033 H 
ATOM     35  C23 9N1 d   1      14.360  22.726   7.430  0.00  0.00    -0.059 C 
ATOM     36  H24 9N1 d   1      14.771  22.396   9.523  0.00  0.00     0.033 H 
ATOM     37  H25 9N1 d   1      13.110  22.982   9.170  0.00  0.00     0.033 H 
ATOM     38  H22 9N1 d   1      15.430  22.782   7.183  0.00  0.00     0.033 H 
ATOM     39  H23 9N1 d   1      13.999  21.700   7.265  0.00  0.00     0.033 H 
ATOM     40  H21 9N1 d   1      12.519  23.611   6.761  0.00  0.00     0.043 H 
ENDBRANCH   1  24
BRANCH   1  41
ATOM     41  N2  9N1 d   1      13.371  24.377   4.050  0.00  0.00    -0.315 N 
ATOM     42  C7  9N1 d   1      12.090  24.879   3.758  0.00  0.00     0.066 A 
ATOM     43  C8  9N1 d   1      12.300  25.863   2.798  0.00  0.00     0.086 A 
ATOM     44  C19 9N1 d   1      10.817  24.571   4.239  0.00  0.00    -0.055 A 
ATOM     45  N3  9N1 d   1      13.658  25.973   2.495  0.00  0.00    -0.228 NA
ATOM     46  C21 9N1 d   1      11.211  26.571   2.290  0.00  0.00    -0.053 A 
ATOM     47  C1  9N1 d   1      14.258  25.075   3.256  0.00  0.00     0.145 A 
ATOM     48  C29 9N1 d   1       9.933  26.271   2.764  0.00  0.00    -0.081 A 
ATOM     49  H2  9N1 d   1      11.355  27.341   1.540  0.00  0.00     0.087 H 
ATOM     50  C28 9N1 d   1       9.741  25.285   3.723  0.00  0.00    -0.081 A 
ATOM     51  H31 9N1 d   1       9.079  26.815   2.378  0.00  0.00     0.083 H 
ATOM     52  H10 9N1 d   1       8.739  25.069   4.074  0.00  0.00     0.083 H 
ATOM     53  H30 9N1 d   1      10.672  23.802   4.989  0.00  0.00     0.087 H 
BRANCH  47  54
ATOM     54  C4  9N1 d   1      15.717  24.860   3.230  0.00  0.00     0.044 A 
ATOM     55  C11 9N1 d   1      16.588  25.692   3.951  0.00  0.00    -0.064 A 
ATOM     56  C16 9N1 d   1      17.960  25.484   3.918  0.00  0.00    -0.050 A 
ATOM     57  H32 9N1 d   1      16.184  26.507   4.541  0.00  0.00     0.085 H 
ATOM     58  C15 9N1 d   1      18.481  24.442   3.161  0.00  0.00     0.070 A 
ATOM     59  H33 9N1 d   1      18.622  26.132   4.481  0.00  0.00     0.087 H 
ATOM     60  C12 9N1 d   1      17.638  23.605   2.438  0.00  0.00    -0.018 A 
ATOM     61  C9  9N1 d   1      16.268  23.815   2.471  0.00  0.00     0.085 A 
ATOM     62  H37 9N1 d   1      18.050  22.792   1.851  0.00  0.00     0.092 H 
BRANCH  58  63
ATOM     63  O20 9N1 d   1      19.852  24.284   3.167  0.00  0.00    -0.356 OA
BRANCH  63  64
ATOM     64  C25 9N1 d   1      20.438  23.378   2.217  0.00  0.00     0.010 C 
ATOM     65  H34 9N1 d   1      21.530  23.364   2.349  0.00  0.00     0.066 H 
ATOM     66  H35 9N1 d   1      20.196  23.710   1.196  0.00  0.00     0.066 H 
ATOM     67  H36 9N1 d   1      20.036  22.367   2.379  0.00  0.00     0.066 H 
ENDBRANCH  63  64
ENDBRANCH  58  63
BRANCH  61  68
ATOM     68  O17 9N1 d   1      15.368  23.030   1.785  0.00  0.00    -0.355 OA
BRANCH  68  69
ATOM     69  C24 9N1 d   1      15.645  22.734   0.416  0.00  0.00     0.010 C 
ATOM     70  H5  9N1 d   1      14.842  22.103   0.008  0.00  0.00     0.066 H 
ATOM     71  H6  9N1 d   1      16.604  22.200   0.343  0.00  0.00     0.066 H 
ATOM     72  H7  9N1 d   1      15.702  23.671  -0.157  0.00  0.00     0.066 H 
ENDBRANCH  68  69
ENDBRANCH  61  68
ENDBRANCH  47  54
ENDBRANCH   1  41
TORSDOF 9
