REMARK  11 active torsions:
REMARK  status: ('A' for Active; 'I' for Inactive)
REMARK    1  A    between atoms: C4_2  and  C1_22 
REMARK    2  A    between atoms: C7_4  and  C5_3 
REMARK       I    between atoms: C5_3  and  N6_34 
REMARK    3  A    between atoms: C7_4  and  C17_9 
REMARK    4  A    between atoms: N2_27  and  C7_4 
REMARK    5  A    between atoms: N6_34  and  C10_6 
REMARK    6  A    between atoms: C15_8  and  C28_13 
REMARK    7  A    between atoms: O22_15  and  C32_14 
REMARK    8  A    between atoms: O22_15  and  C18_16 
REMARK    9  A    between atoms: C11_19  and  O20_20 
REMARK   10  A    between atoms: O20_20  and  C31_21 
REMARK   11  A    between atoms: C16_36  and  C27_37 
ROOT
ATOM      1  C7  9N4 d   1      13.537  23.422   4.993  0.00  0.00     0.099 C 
ATOM      2  H1  9N4 d   1      14.609  23.245   4.821  0.00  0.00     0.089 H 
ENDROOT
BRANCH   1   3
ATOM      3  C5  9N4 d   1      12.805  22.128   4.520  0.00  0.00     0.245 C 
ATOM      4  O14 9N4 d   1      12.145  21.428   5.281  0.00  0.00    -0.271 OA
ATOM      5  N6  9N4 d   1      12.975  21.890   3.202  0.00  0.00    -0.324 N 
ATOM      6  H31 9N4 d   1      13.533  22.549   2.697  0.00  0.00     0.169 HD
BRANCH   5   7
ATOM      7  C10 9N4 d   1      12.441  20.794   2.452  0.00  0.00     0.046 A 
ATOM      8  C15 9N4 d   1      13.278  19.680   2.173  0.00  0.00    -0.035 A 
ATOM      9  C26 9N4 d   1      12.739  18.629   1.431  0.00  0.00    -0.075 A 
ATOM     10  C24 9N4 d   1      11.429  18.669   0.972  0.00  0.00    -0.082 A 
ATOM     11  H6  9N4 d   1      13.354  17.765   1.208  0.00  0.00     0.084 H 
ATOM     12  C25 9N4 d   1      10.626  19.768   1.246  0.00  0.00    -0.075 A 
ATOM     13  H5  9N4 d   1      11.032  17.840   0.398  0.00  0.00     0.083 H 
ATOM     14  C16 9N4 d   1      11.105  20.852   1.986  0.00  0.00    -0.035 A 
ATOM     15  H32 9N4 d   1       9.606  19.785   0.878  0.00  0.00     0.084 H 
BRANCH   8  16
ATOM     16  C28 9N4 d   1      14.704  19.611   2.664  0.00  0.00    -0.049 C 
ATOM     17  H7  9N4 d   1      14.943  20.526   3.225  0.00  0.00     0.033 H 
ATOM     18  H8  9N4 d   1      15.384  19.520   1.804  0.00  0.00     0.033 H 
ATOM     19  H9  9N4 d   1      14.824  18.737   3.321  0.00  0.00     0.033 H 
ENDBRANCH   8  16
BRANCH  14  20
ATOM     20  C27 9N4 d   1      10.207  22.031   2.269  0.00  0.00    -0.049 C 
ATOM     21  H33 9N4 d   1      10.758  22.778   2.860  0.00  0.00     0.033 H 
ATOM     22  H34 9N4 d   1       9.326  21.693   2.834  0.00  0.00     0.033 H 
ATOM     23  H35 9N4 d   1       9.883  22.482   1.319  0.00  0.00     0.033 H 
ENDBRANCH  14  20
ENDBRANCH   5   7
ENDBRANCH   1   3
BRANCH   1  24
ATOM     24  C17 9N4 d   1      13.432  23.700   6.510  0.00  0.00    -0.025 C 
ATOM     25  C29 9N4 d   1      14.284  22.695   7.309  0.00  0.00    -0.059 C 
ATOM     26  C36 9N4 d   1      14.224  22.947   8.825  0.00  0.00    -0.065 C 
ATOM     27  H21 9N4 d   1      15.330  22.778   6.979  0.00  0.00     0.033 H 
ATOM     28  H22 9N4 d   1      13.915  21.679   7.105  0.00  0.00     0.033 H 
ATOM     29  C37 9N4 d   1      14.664  24.365   9.168  0.00  0.00    -0.065 C 
ATOM     30  H23 9N4 d   1      14.888  22.233   9.334  0.00  0.00     0.033 H 
ATOM     31  H24 9N4 d   1      13.191  22.798   9.172  0.00  0.00     0.033 H 
ATOM     32  C35 9N4 d   1      13.831  25.405   8.388  0.00  0.00    -0.065 C 
ATOM     33  H25 9N4 d   1      15.726  24.485   8.907  0.00  0.00     0.033 H 
ATOM     34  H26 9N4 d   1      14.530  24.532  10.247  0.00  0.00     0.033 H 
ATOM     35  C30 9N4 d   1      13.873  25.132   6.855  0.00  0.00    -0.059 C 
ATOM     36  H27 9N4 d   1      14.237  26.409   8.584  0.00  0.00     0.033 H 
ATOM     37  H28 9N4 d   1      12.787  25.358   8.732  0.00  0.00     0.033 H 
ATOM     38  H29 9N4 d   1      13.201  25.841   6.350  0.00  0.00     0.033 H 
ATOM     39  H30 9N4 d   1      14.902  25.282   6.496  0.00  0.00     0.033 H 
ATOM     40  H3  9N4 d   1      12.380  23.581   6.807  0.00  0.00     0.043 H 
ENDBRANCH   1  24
BRANCH   1  41
ATOM     41  N2  9N4 d   1      13.165  24.534   4.078  0.00  0.00    -0.315 N 
ATOM     42  C8  9N4 d   1      11.881  25.060   3.825  0.00  0.00     0.066 A 
ATOM     43  C21 9N4 d   1      10.621  24.772   4.340  0.00  0.00    -0.055 A 
ATOM     44  C9  9N4 d   1      12.082  26.053   2.872  0.00  0.00     0.086 A 
ATOM     45  C33 9N4 d   1       9.542  25.513   3.862  0.00  0.00    -0.081 A 
ATOM     46  H4  9N4 d   1      10.483  23.998   5.087  0.00  0.00     0.087 H 
ATOM     47  C34 9N4 d   1       9.725  26.507   2.910  0.00  0.00    -0.081 A 
ATOM     48  H20 9N4 d   1       8.546  25.311   4.239  0.00  0.00     0.083 H 
ATOM     49  C23 9N4 d   1      10.991  26.790   2.403  0.00  0.00    -0.053 A 
ATOM     50  H19 9N4 d   1       8.870  27.071   2.556  0.00  0.00     0.083 H 
ATOM     51  H18 9N4 d   1      11.127  27.567   1.659  0.00  0.00     0.087 H 
ATOM     52  N3  9N4 d   1      13.435  26.141   2.529  0.00  0.00    -0.228 NA
ATOM     53  C1  9N4 d   1      14.042  25.221   3.261  0.00  0.00     0.145 A 
BRANCH  53  54
ATOM     54  C4  9N4 d   1      15.498  24.983   3.186  0.00  0.00     0.044 A 
ATOM     55  C12 9N4 d   1      16.390  25.680   4.008  0.00  0.00    -0.064 A 
ATOM     56  C19 9N4 d   1      17.762  25.451   3.928  0.00  0.00    -0.050 A 
ATOM     57  H14 9N4 d   1      16.009  26.407   4.716  0.00  0.00     0.085 H 
ATOM     58  C18 9N4 d   1      18.256  24.520   3.018  0.00  0.00     0.070 A 
ATOM     59  H13 9N4 d   1      18.443  25.996   4.572  0.00  0.00     0.087 H 
ATOM     60  C13 9N4 d   1      17.389  23.816   2.188  0.00  0.00    -0.018 A 
ATOM     61  C11 9N4 d   1      16.024  24.047   2.269  0.00  0.00     0.085 A 
ATOM     62  H2  9N4 d   1      17.778  23.091   1.482  0.00  0.00     0.092 H 
BRANCH  58  63
ATOM     63  O22 9N4 d   1      19.629  24.320   2.965  0.00  0.00    -0.356 OA
BRANCH  63  64
ATOM     64  C32 9N4 d   1      20.133  23.181   2.212  0.00  0.00     0.010 C 
ATOM     65  H10 9N4 d   1      21.232  23.162   2.267  0.00  0.00     0.066 H 
ATOM     66  H11 9N4 d   1      19.820  23.269   1.161  0.00  0.00     0.066 H 
ATOM     67  H12 9N4 d   1      19.729  22.251   2.639  0.00  0.00     0.066 H 
ENDBRANCH  63  64
ENDBRANCH  58  63
BRANCH  61  68
ATOM     68  O20 9N4 d   1      15.098  23.388   1.483  0.00  0.00    -0.355 OA
BRANCH  68  69
ATOM     69  C31 9N4 d   1      15.513  22.937   0.196  0.00  0.00     0.010 C 
ATOM     70  H15 9N4 d   1      14.672  22.435  -0.305  0.00  0.00     0.066 H 
ATOM     71  H16 9N4 d   1      16.348  22.230   0.307  0.00  0.00     0.066 H 
ATOM     72  H17 9N4 d   1      15.839  23.798  -0.407  0.00  0.00     0.066 H 
ENDBRANCH  68  69
ENDBRANCH  61  68
ENDBRANCH  53  54
ENDBRANCH   1  41
TORSDOF 11
