REMARK  7 active torsions:
REMARK  status: ('A' for Active; 'I' for Inactive)
REMARK    1  A    between atoms: C7_6  and  N1_1 
REMARK    2  A    between atoms: C6_5  and  C7_6 
REMARK       I    between atoms: N12_9  and  C6_5 
REMARK    3  A    between atoms: C7_6  and  C28_17 
REMARK    4  A    between atoms: C29_29  and  N12_9 
REMARK    5  A    between atoms: C20_12  and  C16_32 
REMARK    6  A    between atoms: C2_18  and  C14_21 
REMARK    7  A    between atoms: C18_22  and  C9_23 
ROOT
ATOM      1  C7  9N7 d   1      13.306  22.973   4.662  0.00  0.00     0.099 C 
ATOM      2  H1  9N7 d   1      14.305  22.646   4.339  0.00  0.00     0.089 H 
ENDROOT
BRANCH   1   3
ATOM      3  N1  9N7 d   1      12.949  24.154   3.835  0.00  0.00    -0.315 N 
ATOM      4  C4  9N7 d   1      11.758  24.874   3.850  0.00  0.00     0.069 A 
ATOM      5  C5  9N7 d   1      11.936  25.898   2.938  0.00  0.00     0.089 A 
ATOM      6  C8  9N7 d   1      10.589  24.699   4.574  0.00  0.00    -0.014 A 
ATOM      7  N3  9N7 d   1      13.227  25.823   2.366  0.00  0.00    -0.228 NA
ATOM      8  C10 9N7 d   1      10.898  26.803   2.713  0.00  0.00    -0.013 A 
ATOM      9  C2  9N7 d   1      13.790  24.786   2.938  0.00  0.00     0.142 A 
ATOM     10  C15 9N7 d   1       9.734  26.626   3.430  0.00  0.00     0.157 A 
ATOM     11  H3  9N7 d   1      11.003  27.614   2.002  0.00  0.00     0.092 H 
ATOM     12  C13 9N7 d   1       9.586  25.596   4.342  0.00  0.00     0.157 A 
ATOM     13  F33 9N7 d   1       8.709  27.482   3.245  0.00  0.00    -0.203 F 
ATOM     14  F32 9N7 d   1       8.422  25.471   5.017  0.00  0.00    -0.203 F 
ATOM     15  H2  9N7 d   1      10.477  23.891   5.288  0.00  0.00     0.092 H 
BRANCH   9  16
ATOM     16  C14 9N7 d   1      15.150  24.323   2.609  0.00  0.00     0.010 A 
ATOM     17  C24 9N7 d   1      15.234  23.143   1.858  0.00  0.00    -0.068 A 
ATOM     18  C26 9N7 d   1      16.460  22.619   1.494  0.00  0.00    -0.069 A 
ATOM     19  H7  9N7 d   1      14.325  22.634   1.558  0.00  0.00     0.085 H 
ATOM     20  C18 9N7 d   1      17.646  23.257   1.855  0.00  0.00    -0.000 A 
ATOM     21  H8  9N7 d   1      16.500  21.700   0.920  0.00  0.00     0.085 H 
ATOM     22  C27 9N7 d   1      17.572  24.439   2.603  0.00  0.00    -0.069 A 
ATOM     23  C25 9N7 d   1      16.337  24.968   2.977  0.00  0.00    -0.068 A 
ATOM     24  H10 9N7 d   1      18.484  24.948   2.894  0.00  0.00     0.085 H 
ATOM     25  H11 9N7 d   1      16.296  25.884   3.556  0.00  0.00     0.085 H 
BRANCH  20  26
ATOM     26  C9  9N7 d   1      18.964  22.663   1.451  0.00  0.00     0.107 A 
ATOM     27  N11 9N7 d   1      20.120  23.227   1.678  0.00  0.00    -0.252 NA
ATOM     28  C21 9N7 d   1      21.139  22.434   1.193  0.00  0.00     0.010 A 
ATOM     29  C22 9N7 d   1      20.768  21.285   0.608  0.00  0.00    -0.026 A 
ATOM     30  H5  9N7 d   1      22.185  22.724   1.280  0.00  0.00     0.115 H 
ATOM     31  S17 9N7 d   1      19.062  21.136   0.640  0.00  0.00    -0.080 SA
ATOM     32  H6  9N7 d   1      21.451  20.555   0.176  0.00  0.00     0.097 H 
ENDBRANCH  20  26
ENDBRANCH   9  16
ENDBRANCH   1   3
BRANCH   1  33
ATOM     33  C6  9N7 d   1      12.354  21.796   4.416  0.00  0.00     0.245 C 
ATOM     34  N12 9N7 d   1      11.989  21.618   3.125  0.00  0.00    -0.325 N 
ATOM     35  H4  9N7 d   1      12.355  22.265   2.456  0.00  0.00     0.169 HD
ATOM     36  O19 9N7 d   1      11.973  21.085   5.345  0.00  0.00    -0.271 OA
BRANCH  34  37
ATOM     37  C29 9N7 d   1      11.129  20.590   2.630  0.00  0.00     0.034 A 
ATOM     38  C35 9N7 d   1      10.955  20.417   1.256  0.00  0.00    -0.056 A 
ATOM     39  C30 9N7 d   1      10.133  19.411   0.781  0.00  0.00    -0.064 A 
ATOM     40  H12 9N7 d   1      11.465  21.073   0.559  0.00  0.00     0.086 H 
ATOM     41  C20 9N7 d   1       9.472  18.550   1.659  0.00  0.00     0.041 A 
ATOM     42  H13 9N7 d   1      10.000  19.289  -0.288  0.00  0.00     0.085 H 
ATOM     43  C31 9N7 d   1       9.656  18.724   3.032  0.00  0.00    -0.064 A 
ATOM     44  C36 9N7 d   1      10.476  19.729   3.511  0.00  0.00    -0.056 A 
ATOM     45  H14 9N7 d   1       9.151  18.065   3.729  0.00  0.00     0.085 H 
ATOM     46  H15 9N7 d   1      10.612  19.848   4.580  0.00  0.00     0.086 H 
BRANCH  41  47
ATOM     47  C16 9N7 d   1       8.576  17.448   1.142  0.00  0.00     0.209 C 
ATOM     48  O23 9N7 d   1       8.293  16.477   1.829  0.00  0.00    -0.644 OA
ATOM     49  O34 9N7 d   1       8.137  17.607  -0.076  0.00  0.00    -0.644 OA
ENDBRANCH  41  47
ENDBRANCH  34  37
ENDBRANCH   1  33
BRANCH   1  50
ATOM     50  C28 9N7 d   1      13.418  23.338   6.154  0.00  0.00    -0.025 C 
ATOM     51  C37 9N7 d   1      13.934  24.795   6.353  0.00  0.00    -0.059 C 
ATOM     52  C40 9N7 d   1      14.040  25.166   7.843  0.00  0.00    -0.065 C 
ATOM     53  H16 9N7 d   1      13.237  25.490   5.862  0.00  0.00     0.033 H 
ATOM     54  H17 9N7 d   1      14.928  24.887   5.892  0.00  0.00     0.033 H 
ATOM     55  C41 9N7 d   1      14.930  24.185   8.597  0.00  0.00    -0.065 C 
ATOM     56  H18 9N7 d   1      13.034  25.152   8.288  0.00  0.00     0.033 H 
ATOM     57  H19 9N7 d   1      14.466  26.176   7.931  0.00  0.00     0.033 H 
ATOM     58  C39 9N7 d   1      14.440  22.739   8.405  0.00  0.00    -0.065 C 
ATOM     59  H20 9N7 d   1      14.911  24.432   9.669  0.00  0.00     0.033 H 
ATOM     60  H21 9N7 d   1      15.960  24.269   8.219  0.00  0.00     0.033 H 
ATOM     61  C38 9N7 d   1      14.338  22.377   6.905  0.00  0.00    -0.059 C 
ATOM     62  H22 9N7 d   1      13.448  22.632   8.868  0.00  0.00     0.033 H 
ATOM     63  H23 9N7 d   1      15.148  22.053   8.892  0.00  0.00     0.033 H 
ATOM     64  H24 9N7 d   1      15.342  22.422   6.458  0.00  0.00     0.033 H 
ATOM     65  H25 9N7 d   1      13.940  21.356   6.811  0.00  0.00     0.033 H 
ATOM     66  H9  9N7 d   1      12.412  23.265   6.593  0.00  0.00     0.043 H 
ENDBRANCH   1  50
TORSDOF 7
