REMARK  10 active torsions:
REMARK  status: ('A' for Active; 'I' for Inactive)
REMARK    1  A    between atoms: C1_14  and  C5_3 
REMARK    2  A    between atoms: C7_5  and  C10_7 
REMARK       I    between atoms: N13_22  and  C7_5 
REMARK    3  A    between atoms: C8_6  and  O21_37 
REMARK    4  A    between atoms: C10_7  and  N2_15 
REMARK    5  A    between atoms: C10_7  and  C19_27 
REMARK    6  A    between atoms: C17_9  and  O25_35 
REMARK    7  A    between atoms: C22_11  and  N13_22 
REMARK    8  A    between atoms: C26_12  and  O31_26 
REMARK    9  A    between atoms: O25_35  and  C35_36 
REMARK   10  A    between atoms: O21_37  and  C34_38 
ROOT
ATOM      1  C10 9NA d   1      13.583  23.247   4.842  0.00  0.00     0.099 C 
ATOM      2  H1  9NA d   1      14.559  22.948   4.433  0.00  0.00     0.089 H 
ENDROOT
BRANCH   1   3
ATOM      3  C7  9NA d   1      12.710  21.978   4.596  0.00  0.00     0.241 C 
ATOM      4  O18 9NA d   1      12.252  21.315   5.523  0.00  0.00    -0.271 OA
ATOM      5  N13 9NA d   1      12.510  21.670   3.300  0.00  0.00    -0.355 N 
ATOM      6  H9  9NA d   1      12.921  22.266   2.610  0.00  0.00     0.162 HD
BRANCH   5   7
ATOM      7  C22 9NA d   1      11.728  20.516   2.833  0.00  0.00     0.012 C 
ATOM      8  C28 9NA d   1      12.252  19.997   1.500  0.00  0.00    -0.044 C 
ATOM      9  C30 9NA d   1      11.506  18.733   1.042  0.00  0.00    -0.039 C 
ATOM     10  H5  9NA d   1      13.321  19.760   1.606  0.00  0.00     0.036 H 
ATOM     11  H6  9NA d   1      12.124  20.780   0.739  0.00  0.00     0.036 H 
ATOM     12  C26 9NA d   1       9.956  18.924   1.061  0.00  0.00     0.035 C 
ATOM     13  H14 9NA d   1      11.820  18.488   0.017  0.00  0.00     0.036 H 
ATOM     14  H15 9NA d   1      11.769  17.903   1.714  0.00  0.00     0.036 H 
ATOM     15  C29 9NA d   1       9.449  19.581   2.367  0.00  0.00    -0.039 C 
ATOM     16  H4  9NA d   1       9.677  19.570   0.216  0.00  0.00     0.082 H 
ATOM     17  C27 9NA d   1      10.251  20.834   2.728  0.00  0.00    -0.044 C 
ATOM     18  H12 9NA d   1       9.538  18.854   3.188  0.00  0.00     0.036 H 
ATOM     19  H13 9NA d   1       8.393  19.860   2.237  0.00  0.00     0.036 H 
ATOM     20  H10 9NA d   1      10.101  21.595   1.948  0.00  0.00     0.036 H 
ATOM     21  H11 9NA d   1       9.896  21.223   3.694  0.00  0.00     0.036 H 
ATOM     22  H3  9NA d   1      11.845  19.714   3.577  0.00  0.00     0.072 H 
BRANCH  12  23
ATOM     23  O31 9NA d   1       9.317  17.647   0.908  0.00  0.00    -0.396 OA
ATOM     24  H16 9NA d   1       9.576  17.077   1.622  0.00  0.00     0.210 HD
ENDBRANCH  12  23
ENDBRANCH   5   7
ENDBRANCH   1   3
BRANCH   1  25
ATOM     25  N2  9NA d   1      13.119  24.376   3.948  0.00  0.00    -0.314 N 
ATOM     26  C4  9NA d   1      11.816  24.884   3.753  0.00  0.00     0.069 A 
ATOM     27  C6  9NA d   1      11.964  25.903   2.826  0.00  0.00     0.089 A 
ATOM     28  C11 9NA d   1      10.582  24.543   4.300  0.00  0.00    -0.014 A 
ATOM     29  N3  9NA d   1      13.301  26.033   2.450  0.00  0.00    -0.228 NA
ATOM     30  C12 9NA d   1      10.849  26.631   2.411  0.00  0.00    -0.013 A 
ATOM     31  C1  9NA d   1      13.950  25.109   3.133  0.00  0.00     0.146 A 
ATOM     32  C15 9NA d   1       9.629  26.294   2.949  0.00  0.00     0.157 A 
ATOM     33  H7  9NA d   1      10.941  27.435   1.689  0.00  0.00     0.092 H 
ATOM     34  C14 9NA d   1       9.499  25.275   3.872  0.00  0.00     0.157 A 
ATOM     35  F24 9NA d   1       8.525  26.977   2.565  0.00  0.00    -0.203 F 
ATOM     36  F23 9NA d   1       8.272  24.993   4.366  0.00  0.00    -0.203 F 
ATOM     37  H8  9NA d   1      10.480  23.743   5.025  0.00  0.00     0.092 H 
BRANCH  31  38
ATOM     38  C5  9NA d   1      15.417  24.905   3.032  0.00  0.00     0.063 A 
ATOM     39  C8  9NA d   1      16.007  23.880   2.254  0.00  0.00     0.180 A 
ATOM     40  N9  9NA d   1      17.324  23.679   2.152  0.00  0.00    -0.200 NA
ATOM     41  C17 9NA d   1      18.128  24.499   2.830  0.00  0.00     0.166 A 
ATOM     42  C20 9NA d   1      17.668  25.550   3.635  0.00  0.00    -0.031 A 
ATOM     43  C16 9NA d   1      16.295  25.744   3.729  0.00  0.00    -0.061 A 
ATOM     44  H2  9NA d   1      18.361  26.191   4.167  0.00  0.00     0.090 H 
ATOM     45  H28 9NA d   1      15.903  26.547   4.343  0.00  0.00     0.085 H 
BRANCH  39  46
ATOM     46  O21 9NA d   1      15.168  23.075   1.594  0.00  0.00    -0.339 OA
BRANCH  46  47
ATOM     47  C34 9NA d   1      15.356  22.939   0.189  0.00  0.00     0.012 C 
ATOM     48  H32 9NA d   1      14.599  22.252  -0.217  0.00  0.00     0.067 H 
ATOM     49  H33 9NA d   1      16.361  22.537  -0.009  0.00  0.00     0.067 H 
ATOM     50  H34 9NA d   1      15.253  23.923  -0.292  0.00  0.00     0.067 H 
ENDBRANCH  46  47
ENDBRANCH  39  46
BRANCH  41  51
ATOM     51  O25 9NA d   1      19.485  24.333   2.754  0.00  0.00    -0.339 OA
BRANCH  51  52
ATOM     52  C35 9NA d   1      19.983  23.056   2.360  0.00  0.00     0.012 C 
ATOM     53  H29 9NA d   1      21.083  23.080   2.346  0.00  0.00     0.067 H 
ATOM     54  H30 9NA d   1      19.609  22.811   1.355  0.00  0.00     0.067 H 
ATOM     55  H31 9NA d   1      19.642  22.293   3.075  0.00  0.00     0.067 H 
ENDBRANCH  51  52
ENDBRANCH  41  51
ENDBRANCH  31  38
ENDBRANCH   1  25
BRANCH   1  56
ATOM     56  C19 9NA d   1      13.961  23.755   6.252  0.00  0.00    -0.025 C 
ATOM     57  C32 9NA d   1      13.108  24.926   6.738  0.00  0.00    -0.059 C 
ATOM     58  C36 9NA d   1      13.704  25.551   8.002  0.00  0.00    -0.065 C 
ATOM     59  H18 9NA d   1      12.093  24.564   6.960  0.00  0.00     0.033 H 
ATOM     60  H19 9NA d   1      13.061  25.689   5.947  0.00  0.00     0.033 H 
ATOM     61  C38 9NA d   1      13.855  24.518   9.126  0.00  0.00    -0.065 C 
ATOM     62  H20 9NA d   1      13.042  26.359   8.347  0.00  0.00     0.033 H 
ATOM     63  H21 9NA d   1      14.694  25.965   7.763  0.00  0.00     0.033 H 
ATOM     64  C37 9NA d   1      14.601  23.213   8.638  0.00  0.00    -0.065 C 
ATOM     65  H22 9NA d   1      12.854  24.240   9.489  0.00  0.00     0.033 H 
ATOM     66  H23 9NA d   1      14.431  24.969   9.947  0.00  0.00     0.033 H 
ATOM     67  C33 9NA d   1      14.004  22.668   7.311  0.00  0.00    -0.059 C 
ATOM     68  H24 9NA d   1      14.509  22.439   9.414  0.00  0.00     0.033 H 
ATOM     69  H25 9NA d   1      15.664  23.449   8.480  0.00  0.00     0.033 H 
ATOM     70  H26 9NA d   1      14.628  21.837   6.950  0.00  0.00     0.033 H 
ATOM     71  H27 9NA d   1      12.982  22.306   7.497  0.00  0.00     0.033 H 
ATOM     72  H17 9NA d   1      14.988  24.138   6.161  0.00  0.00     0.043 H 
ENDBRANCH   1  56
TORSDOF 10
