REMARK  5 active torsions:
REMARK  status: ('A' for Active; 'I' for Inactive)
REMARK    1  A    between atoms: N1_1  and  C7_6 
REMARK    2  A    between atoms: C7_6  and  C6_5 
REMARK       I    between atoms: C6_5  and  N10_28 
REMARK    3  A    between atoms: C7_6  and  C15_9 
REMARK    4  A    between atoms: N10_28  and  C20_11 
REMARK    5  A    between atoms: C2_18  and  C12_19 
ROOT
ATOM      1  C7  9ND d   1      13.361  23.290   4.611  0.00  0.00     0.099 C 
ATOM      2  H1  9ND d   1      14.423  23.100   4.397  0.00  0.00     0.089 H 
ENDROOT
BRANCH   1   3
ATOM      3  N1  9ND d   1      12.946  24.414   3.727  0.00  0.00    -0.315 N 
ATOM      4  C4  9ND d   1      11.694  25.022   3.620  0.00  0.00     0.069 A 
ATOM      5  C5  9ND d   1      11.847  26.017   2.654  0.00  0.00     0.089 A 
ATOM      6  C8  9ND d   1      10.508  24.789   4.280  0.00  0.00    -0.014 A 
ATOM      7  N3  9ND d   1      13.157  26.017   2.167  0.00  0.00    -0.228 NA
ATOM      8  C9  9ND d   1      10.754  26.821   2.314  0.00  0.00    -0.013 A 
ATOM      9  C2  9ND d   1      13.773  25.054   2.837  0.00  0.00     0.142 A 
ATOM     10  C13 9ND d   1       9.565  26.577   2.983  0.00  0.00     0.157 A 
ATOM     11  H9  9ND d   1      10.833  27.598   1.563  0.00  0.00     0.092 H 
ATOM     12  F19 9ND d   1       8.482  27.324   2.698  0.00  0.00    -0.203 F 
ATOM     13  C11 9ND d   1       9.451  25.586   3.935  0.00  0.00     0.157 A 
ATOM     14  F18 9ND d   1       8.266  25.393   4.551  0.00  0.00    -0.203 F 
ATOM     15  H2  9ND d   1      10.417  24.015   5.033  0.00  0.00     0.092 H 
BRANCH   9  16
ATOM     16  C12 9ND d   1      15.184  24.671   2.651  0.00  0.00     0.010 A 
ATOM     17  C17 9ND d   1      16.236  25.304   3.313  0.00  0.00    -0.068 A 
ATOM     18  C22 9ND d   1      17.545  24.891   3.115  0.00  0.00    -0.061 A 
ATOM     19  H4  9ND d   1      16.029  26.126   3.988  0.00  0.00     0.085 H 
ATOM     20  C21 9ND d   1      17.796  23.837   2.257  0.00  0.00     0.034 A 
ATOM     21  H5  9ND d   1      18.361  25.389   3.627  0.00  0.00     0.086 H 
ATOM     22  C23 9ND d   1      16.776  23.191   1.599  0.00  0.00    -0.061 A 
ATOM     23 CL24 9ND d   1      19.432  23.313   2.004  0.00  0.00    -0.084 Cl
ATOM     24  C16 9ND d   1      15.473  23.606   1.799  0.00  0.00    -0.068 A 
ATOM     25  H11 9ND d   1      16.991  22.365   0.931  0.00  0.00     0.086 H 
ATOM     26  H10 9ND d   1      14.665  23.097   1.287  0.00  0.00     0.085 H 
ENDBRANCH   9  16
ENDBRANCH   1   3
BRANCH   1  27
ATOM     27  C6  9ND d   1      12.609  22.009   4.206  0.00  0.00     0.245 C 
ATOM     28  O14 9ND d   1      12.046  21.293   5.028  0.00  0.00    -0.271 OA
ATOM     29  N10 9ND d   1      12.639  21.776   2.882  0.00  0.00    -0.325 N 
ATOM     30  H20 9ND d   1      13.136  22.451   2.336  0.00  0.00     0.169 HD
BRANCH  29  31
ATOM     31  C20 9ND d   1      12.071  20.720   2.165  0.00  0.00     0.034 A 
ATOM     32  C28 9ND d   1      10.736  20.759   1.779  0.00  0.00    -0.057 A 
ATOM     33  C32 9ND d   1      10.192  19.699   1.063  0.00  0.00    -0.081 A 
ATOM     34  H8  9ND d   1      10.121  21.614   2.036  0.00  0.00     0.086 H 
ATOM     35  C34 9ND d   1      10.974  18.607   0.733  0.00  0.00    -0.083 A 
ATOM     36  H24 9ND d   1       9.151  19.728   0.762  0.00  0.00     0.083 H 
ATOM     37  C31 9ND d   1      12.303  18.568   1.114  0.00  0.00    -0.081 A 
ATOM     38  H23 9ND d   1      10.545  17.782   0.176  0.00  0.00     0.083 H 
ATOM     39  C27 9ND d   1      12.857  19.617   1.830  0.00  0.00    -0.057 A 
ATOM     40  H22 9ND d   1      12.914  17.712   0.851  0.00  0.00     0.083 H 
ATOM     41  H21 9ND d   1      13.898  19.581   2.129  0.00  0.00     0.086 H 
ENDBRANCH  29  31
ENDBRANCH   1  27
BRANCH   1  42
ATOM     42  C15 9ND d   1      13.303  23.644   6.111  0.00  0.00    -0.025 C 
ATOM     43  C26 9ND d   1      13.928  25.024   6.381  0.00  0.00    -0.059 C 
ATOM     44  C30 9ND d   1      13.869  25.401   7.872  0.00  0.00    -0.065 C 
ATOM     45  H6  9ND d   1      13.380  25.782   5.801  0.00  0.00     0.033 H 
ATOM     46  H7  9ND d   1      14.980  25.006   6.060  0.00  0.00     0.033 H 
ATOM     47  C33 9ND d   1      14.545  24.319   8.745  0.00  0.00    -0.065 C 
ATOM     48  H18 9ND d   1      12.817  25.502   8.176  0.00  0.00     0.033 H 
ATOM     49  H19 9ND d   1      14.388  26.359   8.021  0.00  0.00     0.033 H 
ATOM     50  C29 9ND d   1      13.953  22.933   8.462  0.00  0.00    -0.065 C 
ATOM     51  H16 9ND d   1      15.623  24.301   8.525  0.00  0.00     0.033 H 
ATOM     52  H17 9ND d   1      14.391  24.566   9.806  0.00  0.00     0.033 H 
ATOM     53  C25 9ND d   1      14.019  22.593   6.970  0.00  0.00    -0.059 C 
ATOM     54  H14 9ND d   1      14.521  22.179   9.027  0.00  0.00     0.033 H 
ATOM     55  H15 9ND d   1      12.902  22.919   8.786  0.00  0.00     0.033 H 
ATOM     56  H12 9ND d   1      15.074  22.542   6.663  0.00  0.00     0.033 H 
ATOM     57  H13 9ND d   1      13.542  21.615   6.807  0.00  0.00     0.033 H 
ATOM     58  H3  9ND d   1      12.245  23.675   6.412  0.00  0.00     0.043 H 
ENDBRANCH   1  42
TORSDOF 5
