REMARK  5 active torsions:
REMARK  status: ('A' for Active; 'I' for Inactive)
REMARK    1  A    between atoms: S1_31  and  C7_4 
REMARK    2  A    between atoms: N2_15  and  C17_6 
REMARK    3  A    between atoms: C17_6  and  C32_16 
REMARK    4  A    between atoms: C21_8  and  C12_21 
REMARK    5  A    between atoms: N9_28  and  S1_31 
ROOT
ATOM      1  C4  9NG d   1      41.265  13.421   2.083  0.00  0.00     0.073 A 
ATOM      2  C5  9NG d   1      41.602  13.499   0.621  0.00  0.00    -0.012 A 
ATOM      3  C6  9NG d   1      40.547  14.103  -0.061  0.00  0.00     0.045 A 
ATOM      4  C15 9NG d   1      40.999  11.781   2.452  0.00  0.00    -0.030 C 
ATOM      5  C20 9NG d   1      40.594  14.280  -1.444  0.00  0.00    -0.055 A 
ATOM      6  C24 9NG d   1      41.035  11.486   3.929  0.00  0.00     0.007 C 
ATOM      7 BR36 9NG d   1      44.265  12.623  -2.409  0.00  0.00    -0.051 Br
ATOM      8  C31 9NG d   1      42.751  13.229  -1.452  0.00  0.00     0.011 A 
ATOM      9  C33 9NG d   1      41.712  13.830  -2.143  0.00  0.00    -0.064 A 
ATOM     10  N2  9NG d   1      39.552  14.480   0.852  0.00  0.00    -0.312 N 
ATOM     11  C3  9NG d   1      39.890  14.105   2.132  0.00  0.00     0.238 A 
ATOM     12  O22 9NG d   1      39.213  14.282   3.128  0.00  0.00    -0.272 OA
ATOM     13  N9  9NG d   1      42.268  12.058   4.476  0.00  0.00    -0.306 N 
ATOM     14  C25 9NG d   1      42.244  13.544   4.498  0.00  0.00     0.007 C 
ATOM     15  C14 9NG d   1      42.295  14.080   3.059  0.00  0.00    -0.030 C 
ATOM     16  C23 9NG d   1      42.718  13.049  -0.079  0.00  0.00    -0.057 A 
ATOM     17  H1  9NG d   1      41.778  11.182   1.958  0.00  0.00     0.037 H 
ATOM     18  H2  9NG d   1      40.012  11.492   2.063  0.00  0.00     0.037 H 
ATOM     19  H5  9NG d   1      39.774  14.760  -1.966  0.00  0.00     0.087 H 
ATOM     20  H6  9NG d   1      41.024  10.398   4.093  0.00  0.00     0.065 H 
ATOM     21  H7  9NG d   1      40.163  11.940   4.422  0.00  0.00     0.065 H 
ATOM     22  H10 9NG d   1      41.768  13.949  -3.219  0.00  0.00     0.085 H 
ATOM     23  H16 9NG d   1      43.114  13.916   5.059  0.00  0.00     0.065 H 
ATOM     24  H17 9NG d   1      41.320  13.888   4.985  0.00  0.00     0.065 H 
ATOM     25  H18 9NG d   1      42.097  15.162   3.088  0.00  0.00     0.037 H 
ATOM     26  H19 9NG d   1      43.306  13.903   2.662  0.00  0.00     0.037 H 
ATOM     27  H21 9NG d   1      43.541  12.569   0.438  0.00  0.00     0.086 H 
ENDROOT
BRANCH  10  28
ATOM     28  C17 9NG d   1      38.255  15.081   0.486  0.00  0.00     0.026 C 
ATOM     29  H3  9NG d   1      37.517  14.636   1.169  0.00  0.00     0.072 H 
ATOM     30  H4  9NG d   1      38.051  14.747  -0.542  0.00  0.00     0.072 H 
BRANCH  28  31
ATOM     31  C32 9NG d   1      37.983  16.544   0.496  0.00  0.00    -0.040 A 
ATOM     32  C34 9NG d   1      38.688  17.477   1.243  0.00  0.00    -0.074 A 
ATOM     33  C30 9NG d   1      38.340  18.829   1.190  0.00  0.00    -0.069 A 
ATOM     34  H11 9NG d   1      39.512  17.156   1.870  0.00  0.00     0.084 H 
ATOM     35  C21 9NG d   1      37.275  19.257   0.387  0.00  0.00     0.013 A 
ATOM     36  H12 9NG d   1      38.898  19.552   1.774  0.00  0.00     0.085 H 
ATOM     37  C29 9NG d   1      36.576  18.310  -0.345  0.00  0.00    -0.069 A 
ATOM     38  C35 9NG d   1      36.924  16.985  -0.285  0.00  0.00    -0.074 A 
ATOM     39  H13 9NG d   1      35.747  18.620  -0.971  0.00  0.00     0.085 H 
ATOM     40  H14 9NG d   1      36.357  16.264  -0.862  0.00  0.00     0.084 H 
BRANCH  35  41
ATOM     41  C12 9NG d   1      36.865  20.669   0.300  0.00  0.00     0.179 A 
ATOM     42  N11 9NG d   1      37.037  21.593   1.226  0.00  0.00    -0.239 N 
ATOM     43  N8  9NG d   1      36.501  22.733   0.725  0.00  0.00    -0.046 NA
ATOM     44  H15 9NG d   1      37.488  21.473   2.144  0.00  0.00     0.192 HD
ATOM     45  N10 9NG d   1      36.014  22.530  -0.457  0.00  0.00    -0.023 NA
ATOM     46  N13 9NG d   1      36.233  21.232  -0.736  0.00  0.00    -0.108 NA
ENDBRANCH  35  41
ENDBRANCH  28  31
ENDBRANCH  10  28
BRANCH  13  47
ATOM     47  S1  9NG d   1      42.990  11.275   5.707  0.00  0.00     0.267 S 
ATOM     48  O18 9NG d   1      44.398  11.449   5.529  0.00  0.00    -0.200 OA
ATOM     49  O19 9NG d   1      42.464   9.945   5.722  0.00  0.00    -0.200 OA
BRANCH  47  50
ATOM     50  C7  9NG d   1      42.591  11.959   7.246  0.00  0.00     0.120 A 
ATOM     51  C26 9NG d   1      43.373  12.850   7.928  0.00  0.00    -0.053 A 
ATOM     52  C28 9NG d   1      42.755  13.213   9.157  0.00  0.00    -0.075 A 
ATOM     53  H8  9NG d   1      44.333  13.228   7.580  0.00  0.00     0.086 H 
ATOM     54  C27 9NG d   1      41.582  12.613   9.358  0.00  0.00    -0.044 A 
ATOM     55  H9  9NG d   1      43.197  13.913   9.864  0.00  0.00     0.084 H 
ATOM     56  S16 9NG d   1      41.147  11.574   8.079  0.00  0.00    -0.088 SA
ATOM     57  H20 9NG d   1      40.968  12.770  10.244  0.00  0.00     0.095 H 
ENDBRANCH  47  50
ENDBRANCH  13  47
TORSDOF 5
