REMARK  10 active torsions:
REMARK  status: ('A' for Active; 'I' for Inactive)
REMARK    1  A    between atoms: C1_20  and  C4_2 
REMARK    2  A    between atoms: C6_4  and  C10_7 
REMARK       I    between atoms: N11_32  and  C6_4 
REMARK    3  A    between atoms: C8_6  and  O25_17 
REMARK    4  A    between atoms: C10_7  and  C20_10 
REMARK    5  A    between atoms: C10_7  and  N2_25 
REMARK    6  A    between atoms: C15_9  and  O32_16 
REMARK    7  A    between atoms: C26_14  and  N11_32 
REMARK    8  A    between atoms: O32_16  and  C36_15 
REMARK    9  A    between atoms: O25_17  and  C35_18 
REMARK   10  A    between atoms: C18_35  and  C12_37 
ROOT
ATOM      1  C10 9NJ d   1      13.310  23.259   4.742  0.00  0.00     0.099 C 
ATOM      2  H1  9NJ d   1      14.380  23.080   4.558  0.00  0.00     0.089 H 
ENDROOT
BRANCH   1   3
ATOM      3  C6  9NJ d   1      12.550  21.899   4.370  0.00  0.00     0.241 C 
ATOM      4  O17 9NJ d   1      12.481  20.981   5.184  0.00  0.00    -0.271 OA
ATOM      5  N11 9NJ d   1      12.008  21.825   3.137  0.00  0.00    -0.355 N 
ATOM      6  H27 9NJ d   1      12.105  22.611   2.527  0.00  0.00     0.162 HD
BRANCH   5   7
ATOM      7  C26 9NJ d   1      11.278  20.640   2.645  0.00  0.00     0.012 C 
ATOM      8  C30 9NJ d   1       9.849  20.601   3.169  0.00  0.00    -0.045 C 
ATOM      9  C23 9NJ d   1       9.121  19.312   2.727  0.00  0.00    -0.051 C 
ATOM     10  H28 9NJ d   1       9.302  21.472   2.780  0.00  0.00     0.036 H 
ATOM     11  H29 9NJ d   1       9.870  20.641   4.268  0.00  0.00     0.036 H 
ATOM     12  C18 9NJ d   1       9.130  19.152   1.175  0.00  0.00     0.031 C 
ATOM     13  H30 9NJ d   1       8.079  19.353   3.076  0.00  0.00     0.034 H 
ATOM     14  H31 9NJ d   1       9.625  18.445   3.178  0.00  0.00     0.034 H 
ATOM     15  C22 9NJ d   1      10.596  19.262   0.630  0.00  0.00    -0.051 C 
ATOM     16  H32 9NJ d   1       8.552  19.985   0.748  0.00  0.00     0.056 H 
ATOM     17  C31 9NJ d   1      11.284  20.556   1.128  0.00  0.00    -0.045 C 
ATOM     18  H4  9NJ d   1      10.570  19.270  -0.470  0.00  0.00     0.034 H 
ATOM     19  H5  9NJ d   1      11.174  18.392   0.977  0.00  0.00     0.034 H 
ATOM     20  H33 9NJ d   1      10.748  21.426   0.720  0.00  0.00     0.036 H 
ATOM     21  H34 9NJ d   1      12.325  20.567   0.773  0.00  0.00     0.036 H 
ATOM     22  H7  9NJ d   1      11.799  19.751   3.030  0.00  0.00     0.072 H 
BRANCH  12  23
ATOM     23  C12 9NJ d   1       8.451  17.857   0.742  0.00  0.00     0.177 C 
ATOM     24  O19 9NJ d   1       7.211  18.013   0.353  0.00  0.00    -0.648 OA
ATOM     25  O28 9NJ d   1       9.019  16.786   0.761  0.00  0.00    -0.648 OA
ENDBRANCH  12  23
ENDBRANCH   5   7
ENDBRANCH   1   3
BRANCH   1  26
ATOM     26  C20 9NJ d   1      13.180  23.640   6.240  0.00  0.00    -0.025 C 
ATOM     27  C33 9NJ d   1      14.099  22.787   7.125  0.00  0.00    -0.059 C 
ATOM     28  C38 9NJ d   1      13.941  23.136   8.610  0.00  0.00    -0.065 C 
ATOM     29  H17 9NJ d   1      15.143  22.962   6.827  0.00  0.00     0.033 H 
ATOM     30  H18 9NJ d   1      13.849  21.726   6.980  0.00  0.00     0.033 H 
ATOM     31  C39 9NJ d   1      14.212  24.619   8.870  0.00  0.00    -0.065 C 
ATOM     32  H19 9NJ d   1      14.652  22.535   9.196  0.00  0.00     0.033 H 
ATOM     33  H20 9NJ d   1      12.914  22.900   8.925  0.00  0.00     0.033 H 
ATOM     34  C37 9NJ d   1      13.343  25.522   7.964  0.00  0.00    -0.065 C 
ATOM     35  H21 9NJ d   1      15.273  24.829   8.671  0.00  0.00     0.033 H 
ATOM     36  H22 9NJ d   1      13.985  24.845   9.922  0.00  0.00     0.033 H 
ATOM     37  C34 9NJ d   1      13.489  25.133   6.481  0.00  0.00    -0.059 C 
ATOM     38  H23 9NJ d   1      13.658  26.568   8.093  0.00  0.00     0.033 H 
ATOM     39  H24 9NJ d   1      12.289  25.418   8.260  0.00  0.00     0.033 H 
ATOM     40  H25 9NJ d   1      12.792  25.740   5.885  0.00  0.00     0.033 H 
ATOM     41  H26 9NJ d   1      14.521  25.338   6.160  0.00  0.00     0.033 H 
ATOM     42  H3  9NJ d   1      12.140  23.452   6.543  0.00  0.00     0.043 H 
ENDBRANCH   1  26
BRANCH   1  43
ATOM     43  N2  9NJ d   1      12.898  24.390   3.837  0.00  0.00    -0.315 N 
ATOM     44  C7  9NJ d   1      11.620  24.937   3.650  0.00  0.00     0.066 A 
ATOM     45  C5  9NJ d   1      11.797  25.965   2.728  0.00  0.00     0.089 A 
ATOM     46  C16 9NJ d   1      10.373  24.622   4.185  0.00  0.00    -0.052 A 
ATOM     47  N3  9NJ d   1      13.137  26.066   2.355  0.00  0.00    -0.228 NA
ATOM     48  C14 9NJ d   1      10.694  26.708   2.323  0.00  0.00    -0.016 A 
ATOM     49  C1  9NJ d   1      13.760  25.116   3.036  0.00  0.00     0.146 A 
ATOM     50  C21 9NJ d   1       9.468  26.387   2.862  0.00  0.00     0.118 A 
ATOM     51  H14 9NJ d   1      10.796  27.514   1.606  0.00  0.00     0.091 H 
ATOM     52  F29 9NJ d   1       8.390  27.111   2.471  0.00  0.00    -0.206 F 
ATOM     53  C27 9NJ d   1       9.275  25.370   3.776  0.00  0.00    -0.043 A 
ATOM     54  H15 9NJ d   1       8.286  25.159   4.167  0.00  0.00     0.088 H 
ATOM     55  H16 9NJ d   1      10.262  23.816   4.901  0.00  0.00     0.087 H 
BRANCH  49  56
ATOM     56  C4  9NJ d   1      15.219  24.873   2.945  0.00  0.00     0.063 A 
ATOM     57  C8  9NJ d   1      15.760  23.895   2.085  0.00  0.00     0.180 A 
ATOM     58  N9  9NJ d   1      17.069  23.638   1.972  0.00  0.00    -0.200 NA
ATOM     59  C15 9NJ d   1      17.910  24.357   2.731  0.00  0.00     0.166 A 
ATOM     60  C24 9NJ d   1      17.489  25.351   3.623  0.00  0.00    -0.031 A 
ATOM     61  C13 9NJ d   1      16.122  25.601   3.722  0.00  0.00    -0.061 A 
ATOM     62  H6  9NJ d   1      18.204  25.908   4.218  0.00  0.00     0.090 H 
ATOM     63  H2  9NJ d   1      15.759  26.362   4.403  0.00  0.00     0.085 H 
BRANCH  57  64
ATOM     64  O25 9NJ d   1      14.876  23.195   1.342  0.00  0.00    -0.339 OA
BRANCH  64  65
ATOM     65  C35 9NJ d   1      15.399  22.229   0.424  0.00  0.00     0.012 C 
ATOM     66  H11 9NJ d   1      14.569  21.741  -0.107  0.00  0.00     0.067 H 
ATOM     67  H12 9NJ d   1      15.976  21.473   0.977  0.00  0.00     0.067 H 
ATOM     68  H13 9NJ d   1      16.055  22.731  -0.303  0.00  0.00     0.067 H 
ENDBRANCH  64  65
ENDBRANCH  57  64
BRANCH  59  69
ATOM     69  O32 9NJ d   1      19.267  24.136   2.655  0.00  0.00    -0.339 OA
BRANCH  69  70
ATOM     70  C36 9NJ d   1      19.717  22.875   2.184  0.00  0.00     0.012 C 
ATOM     71  H8  9NJ d   1      20.817  22.855   2.182  0.00  0.00     0.067 H 
ATOM     72  H9  9NJ d   1      19.346  22.712   1.161  0.00  0.00     0.067 H 
ATOM     73  H10 9NJ d   1      19.337  22.081   2.843  0.00  0.00     0.067 H 
ENDBRANCH  69  70
ENDBRANCH  59  69
ENDBRANCH  49  56
ENDBRANCH   1  43
TORSDOF 10
