REMARK  4 active torsions:
REMARK  status: ('A' for Active; 'I' for Inactive)
REMARK       I    between atoms: C5_2  and  N2_18 
REMARK       I    between atoms: N9_22  and  C5_2 
REMARK    1  A    between atoms: C6_3  and  C11_16 
REMARK       I    between atoms: N2_18  and  C6_3 
REMARK    2  A    between atoms: C15_7  and  C18_15 
REMARK    3  A    between atoms: N2_18  and  C1_19 
REMARK    4  A    between atoms: N9_22  and  C14_23 
ROOT
ATOM      1  C5  9NM d   1      11.877  63.982  15.109  0.00  0.00     0.326 C 
ATOM      2  C6  9NM d   1       9.743  62.624  15.668  0.00  0.00     0.251 C 
ATOM      3  O12 9NM d   1       9.256  61.650  16.240  0.00  0.00    -0.268 OA
ATOM      4  N2  9NM d   1      11.165  62.832  15.751  0.00  0.00    -0.262 N 
ATOM      5  O10 9NM d   1      13.084  64.100  15.211  0.00  0.00    -0.247 OA
ATOM      6  N9  9NM d   1      11.105  64.836  14.430  0.00  0.00    -0.338 N 
ATOM      7  H21 9NM d   1      10.121  64.663  14.389  0.00  0.00     0.164 HD
ENDROOT
BRANCH   4   8
ATOM      8  C1  9NM d   1      11.994  61.850  16.509  0.00  0.00     0.024 C 
ATOM      9  C4  9NM d   1      11.914  62.063  18.033  0.00  0.00    -0.045 C 
ATOM     10  C8  9NM d   1      12.758  61.008  18.766  0.00  0.00    -0.063 C 
ATOM     11  H1  9NM d   1      12.293  63.066  18.279  0.00  0.00     0.036 H 
ATOM     12  H2  9NM d   1      10.866  61.978  18.356  0.00  0.00     0.036 H 
ATOM     13  C13 9NM d   1      14.214  61.063  18.310  0.00  0.00    -0.065 C 
ATOM     14  H5  9NM d   1      12.351  60.009  18.552  0.00  0.00     0.033 H 
ATOM     15  H6  9NM d   1      12.712  61.198  19.848  0.00  0.00     0.033 H 
ATOM     16  C7  9NM d   1      14.323  60.804  16.816  0.00  0.00    -0.063 C 
ATOM     17  H7  9NM d   1      14.624  62.059  18.534  0.00  0.00     0.033 H 
ATOM     18  H8  9NM d   1      14.790  60.298  18.851  0.00  0.00     0.033 H 
ATOM     19  C3  9NM d   1      13.455  61.778  15.999  0.00  0.00    -0.045 C 
ATOM     20  H3  9NM d   1      13.994  59.775  16.609  0.00  0.00     0.033 H 
ATOM     21  H4  9NM d   1      15.373  60.922  16.511  0.00  0.00     0.033 H 
ATOM     22  H19 9NM d   1      13.445  61.446  14.950  0.00  0.00     0.036 H 
ATOM     23  H20 9NM d   1      13.899  62.782  16.062  0.00  0.00     0.036 H 
ATOM     24  H18 9NM d   1      11.553  60.862  16.313  0.00  0.00     0.073 H 
ENDBRANCH   4   8
BRANCH   2  25
ATOM     25  C11 9NM d   1       8.899  63.589  14.936  0.00  0.00    -0.016 C 
ATOM     26  C15 9NM d   1       7.653  63.725  15.366  0.00  0.00    -0.068 C 
ATOM     27  H9  9NM d   1       7.395  63.090  16.212  0.00  0.00     0.085 H 
ATOM     28  H17 9NM d   1       9.280  64.158  14.089  0.00  0.00     0.092 H 
BRANCH  26  29
ATOM     29  C18 9NM d   1       6.568  64.581  14.898  0.00  0.00    -0.036 A 
ATOM     30  C21 9NM d   1       5.258  64.211  15.197  0.00  0.00    -0.070 A 
ATOM     31  C24 9NM d   1       4.183  64.984  14.798  0.00  0.00    -0.045 A 
ATOM     32  H14 9NM d   1       5.078  63.298  15.754  0.00  0.00     0.084 H 
ATOM     33  C26 9NM d   1       4.432  66.140  14.108  0.00  0.00     0.116 A 
ATOM     34  H16 9NM d   1       3.167  64.682  15.026  0.00  0.00     0.088 H 
ATOM     35  F27 9NM d   1       3.389  66.890  13.723  0.00  0.00    -0.206 F 
ATOM     36  C25 9NM d   1       5.692  66.565  13.795  0.00  0.00    -0.045 A 
ATOM     37  C22 9NM d   1       6.768  65.778  14.197  0.00  0.00    -0.070 A 
ATOM     38  H29 9NM d   1       5.850  67.488  13.249  0.00  0.00     0.088 H 
ATOM     39  H15 9NM d   1       7.778  66.097  13.964  0.00  0.00     0.084 H 
ENDBRANCH  26  29
ENDBRANCH   2  25
BRANCH   6  40
ATOM     40  C14 9NM d   1      11.651  66.043  13.726  0.00  0.00     0.014 C 
ATOM     41  C17 9NM d   1      10.542  66.790  12.961  0.00  0.00    -0.046 C 
ATOM     42  C20 9NM d   1      10.134  66.053  11.681  0.00  0.00    -0.063 C 
ATOM     43  H10 9NM d   1       9.661  66.884  13.613  0.00  0.00     0.035 H 
ATOM     44  H11 9NM d   1      10.908  67.792  12.693  0.00  0.00     0.035 H 
ATOM     45  C23 9NM d   1      11.347  65.770  10.774  0.00  0.00    -0.065 C 
ATOM     46  H12 9NM d   1       9.412  66.672  11.128  0.00  0.00     0.033 H 
ATOM     47  H13 9NM d   1       9.663  65.097  11.955  0.00  0.00     0.033 H 
ATOM     48  C19 9NM d   1      12.392  64.969  11.521  0.00  0.00    -0.063 C 
ATOM     49  H27 9NM d   1      11.787  66.725  10.449  0.00  0.00     0.033 H 
ATOM     50  H28 9NM d   1      11.015  65.200   9.893  0.00  0.00     0.033 H 
ATOM     51  C16 9NM d   1      12.841  65.695  12.805  0.00  0.00    -0.046 C 
ATOM     52  H25 9NM d   1      11.968  63.991  11.792  0.00  0.00     0.033 H 
ATOM     53  H26 9NM d   1      13.265  64.822  10.868  0.00  0.00     0.033 H 
ATOM     54  H23 9NM d   1      13.536  65.044  13.355  0.00  0.00     0.035 H 
ATOM     55  H24 9NM d   1      13.355  66.626  12.524  0.00  0.00     0.035 H 
ATOM     56  H22 9NM d   1      12.031  66.726  14.500  0.00  0.00     0.072 H 
ENDBRANCH   6  40
TORSDOF 4
