REMARK  6 active torsions:
REMARK  status: ('A' for Active; 'I' for Inactive)
REMARK       I    between atoms: C4_2  and  N13_14 
REMARK    1  A    between atoms: C9_19  and  C4_2 
REMARK    2  A    between atoms: C15_5  and  C8_3 
REMARK    3  A    between atoms: C9_19  and  C21_8 
REMARK    4  A    between atoms: N13_14  and  C22_9 
REMARK    5  A    between atoms: N2_24  and  C9_19 
REMARK    6  A    between atoms: C1_29  and  C14_30 
ROOT
ATOM      1  C9  9NP d   1      30.315  19.548   4.518  0.00  0.00     0.099 C 
ATOM      2  H19 9NP d   1      29.759  19.323   3.596  0.00  0.00     0.089 H 
ENDROOT
BRANCH   1   3
ATOM      3  C4  9NP d   1      31.779  19.221   4.220  0.00  0.00     0.241 C 
ATOM      4  O16 9NP d   1      32.624  20.103   4.086  0.00  0.00    -0.271 OA
ATOM      5  N13 9NP d   1      32.049  17.918   4.123  0.00  0.00    -0.355 N 
ATOM      6  H10 9NP d   1      31.292  17.277   4.251  0.00  0.00     0.162 HD
BRANCH   5   7
ATOM      7  C22 9NP d   1      33.364  17.361   3.845  0.00  0.00     0.012 C 
ATOM      8  C28 9NP d   1      33.911  16.649   5.087  0.00  0.00    -0.046 C 
ATOM      9  C34 9NP d   1      35.277  15.978   4.800  0.00  0.00    -0.063 C 
ATOM     10  H8  9NP d   1      33.193  15.878   5.402  0.00  0.00     0.035 H 
ATOM     11  H9  9NP d   1      34.037  17.385   5.895  0.00  0.00     0.035 H 
ATOM     12  C35 9NP d   1      35.193  15.006   3.605  0.00  0.00    -0.065 C 
ATOM     13  H11 9NP d   1      35.595  15.419   5.693  0.00  0.00     0.033 H 
ATOM     14  H12 9NP d   1      36.018  16.759   4.573  0.00  0.00     0.033 H 
ATOM     15  C33 9NP d   1      34.656  15.713   2.368  0.00  0.00    -0.063 C 
ATOM     16  H13 9NP d   1      34.522  14.174   3.864  0.00  0.00     0.033 H 
ATOM     17  H14 9NP d   1      36.197  14.614   3.388  0.00  0.00     0.033 H 
ATOM     18  C27 9NP d   1      33.271  16.402   2.659  0.00  0.00    -0.046 C 
ATOM     19  H15 9NP d   1      34.527  14.976   1.562  0.00  0.00     0.033 H 
ATOM     20  H16 9NP d   1      35.378  16.480   2.052  0.00  0.00     0.033 H 
ATOM     21  H17 9NP d   1      32.957  16.965   1.768  0.00  0.00     0.035 H 
ATOM     22  H18 9NP d   1      32.525  15.625   2.884  0.00  0.00     0.035 H 
ATOM     23  H4  9NP d   1      34.049  18.181   3.582  0.00  0.00     0.072 H 
ENDBRANCH   5   7
ENDBRANCH   1   3
BRANCH   1  24
ATOM     24  C21 9NP d   1      30.024  21.034   4.815  0.00  0.00    -0.025 C 
ATOM     25  C26 9NP d   1      30.181  21.882   3.562  0.00  0.00    -0.059 C 
ATOM     26  C31 9NP d   1      29.946  23.380   3.849  0.00  0.00    -0.065 C 
ATOM     27  H6  9NP d   1      29.452  21.545   2.811  0.00  0.00     0.033 H 
ATOM     28  H7  9NP d   1      31.200  21.751   3.169  0.00  0.00     0.033 H 
ATOM     29  C36 9NP d   1      28.550  23.626   4.429  0.00  0.00    -0.065 C 
ATOM     30  H20 9NP d   1      30.048  23.945   2.910  0.00  0.00     0.033 H 
ATOM     31  H21 9NP d   1      30.700  23.729   4.570  0.00  0.00     0.033 H 
ATOM     32  C32 9NP d   1      28.278  22.716   5.661  0.00  0.00    -0.065 C 
ATOM     33  H22 9NP d   1      27.798  23.414   3.655  0.00  0.00     0.033 H 
ATOM     34  H23 9NP d   1      28.471  24.679   4.738  0.00  0.00     0.033 H 
ATOM     35  C25 9NP d   1      28.594  21.226   5.359  0.00  0.00    -0.059 C 
ATOM     36  H24 9NP d   1      27.218  22.805   5.942  0.00  0.00     0.033 H 
ATOM     37  H25 9NP d   1      28.909  23.051   6.497  0.00  0.00     0.033 H 
ATOM     38  H26 9NP d   1      28.487  20.646   6.287  0.00  0.00     0.033 H 
ATOM     39  H27 9NP d   1      27.877  20.856   4.611  0.00  0.00     0.033 H 
ATOM     40  H3  9NP d   1      30.742  21.382   5.572  0.00  0.00     0.043 H 
ENDBRANCH   1  24
BRANCH   1  41
ATOM     41  N2  9NP d   1      29.794  18.612   5.563  0.00  0.00    -0.315 N 
ATOM     42  C10 9NP d   1      30.190  18.482   6.903  0.00  0.00     0.066 A 
ATOM     43  C23 9NP d   1      31.144  19.139   7.676  0.00  0.00    -0.055 A 
ATOM     44  C12 9NP d   1      29.392  17.466   7.411  0.00  0.00     0.086 A 
ATOM     45  C29 9NP d   1      31.274  18.751   9.004  0.00  0.00    -0.081 A 
ATOM     46  H28 9NP d   1      31.763  19.924   7.257  0.00  0.00     0.087 H 
ATOM     47  C30 9NP d   1      30.482  17.736   9.530  0.00  0.00    -0.081 A 
ATOM     48  H29 9NP d   1      32.002  19.245   9.638  0.00  0.00     0.083 H 
ATOM     49  C24 9NP d   1      29.537  17.083   8.745  0.00  0.00    -0.053 A 
ATOM     50  H30 9NP d   1      30.603  17.449  10.568  0.00  0.00     0.083 H 
ATOM     51  H5  9NP d   1      28.925  16.291   9.162  0.00  0.00     0.087 H 
ATOM     52  N3  9NP d   1      28.524  16.979   6.418  0.00  0.00    -0.228 NA
ATOM     53  C1  9NP d   1      28.805  17.690   5.347  0.00  0.00     0.142 A 
BRANCH  53  54
ATOM     54  C14 9NP d   1      28.162  17.523   4.038  0.00  0.00     0.010 A 
ATOM     55  C17 9NP d   1      28.662  16.534   3.197  0.00  0.00    -0.068 A 
ATOM     56  C20 9NP d   1      28.117  16.332   1.942  0.00  0.00    -0.068 A 
ATOM     57  H1  9NP d   1      29.488  15.915   3.529  0.00  0.00     0.085 H 
ATOM     58  C15 9NP d   1      27.065  17.126   1.491  0.00  0.00     0.013 A 
ATOM     59  H2  9NP d   1      28.512  15.549   1.304  0.00  0.00     0.085 H 
ATOM     60  C19 9NP d   1      26.577  18.129   2.325  0.00  0.00    -0.068 A 
ATOM     61  C18 9NP d   1      27.124  18.328   3.583  0.00  0.00    -0.068 A 
ATOM     62  H32 9NP d   1      25.762  18.759   1.987  0.00  0.00     0.085 H 
ATOM     63  H31 9NP d   1      26.739  19.118   4.218  0.00  0.00     0.085 H 
BRANCH  58  64
ATOM     64  C8  9NP d   1      26.495  16.921   0.148  0.00  0.00     0.179 A 
ATOM     65  N7  9NP d   1      26.892  16.001  -0.734  0.00  0.00    -0.108 NA
ATOM     66  N5  9NP d   1      26.154  16.119  -1.851  0.00  0.00    -0.023 NA
ATOM     67  N6  9NP d   1      25.332  17.098  -1.642  0.00  0.00    -0.046 NA
ATOM     68  N11 9NP d   1      25.519  17.627  -0.405  0.00  0.00    -0.239 N 
ATOM     69  H33 9NP d   1      25.007  18.415   0.017  0.00  0.00     0.192 HD
ENDBRANCH  58  64
ENDBRANCH  53  54
ENDBRANCH   1  41
TORSDOF 6
