REMARK  8 active torsions:
REMARK  status: ('A' for Active; 'I' for Inactive)
REMARK    1  A    between atoms: C7_4  and  C3_18 
REMARK    2  A    between atoms: C10_5  and  C12_14 
REMARK    3  A    between atoms: C12_14  and  C13_6 
REMARK    4  A    between atoms: C15_7  and  C11_22 
REMARK       I    between atoms: N16_24  and  C15_7 
REMARK    5  A    between atoms: C19_25  and  C20_8 
REMARK    6  A    between atoms: C19_25  and  C21_9 
REMARK    7  A    between atoms: C12_14  and  C14_15 
REMARK    8  A    between atoms: N16_24  and  C19_25 
ROOT
ATOM      1  C15 9O1 d   1      42.478  11.510   0.167  0.00  0.00     0.257 C 
ATOM      2  O17 9O1 d   1      43.424  10.734   0.055  0.00  0.00    -0.267 OA
ATOM      3  N16 9O1 d   1      41.535  11.374   1.129  0.00  0.00    -0.348 N 
ATOM      4  H18 9O1 d   1      40.792  12.042   1.167  0.00  0.00     0.163 HD
ENDROOT
BRANCH   1   5
ATOM      5  C11 9O1 d   1      42.324  12.666  -0.783  0.00  0.00     0.096 A 
ATOM      6  C7  9O1 d   1      41.534  13.868  -0.665  0.00  0.00     0.114 A 
ATOM      7  N8  9O1 d   1      41.668  14.632  -1.726  0.00  0.00    -0.127 NA
ATOM      8  O9  9O1 d   1      42.565  13.944  -2.586  0.00  0.00    -0.216 OA
ATOM      9  C10 9O1 d   1      42.937  12.786  -2.003  0.00  0.00     0.100 A 
BRANCH   6  10
ATOM     10  C3  9O1 d   1      40.636  14.336   0.416  0.00  0.00     0.018 A 
ATOM     11  C4  9O1 d   1      39.259  14.490   0.147  0.00  0.00    -0.069 A 
ATOM     12  C5  9O1 d   1      38.393  14.925   1.138  0.00  0.00    -0.082 A 
ATOM     13  H1  9O1 d   1      38.876  14.266  -0.842  0.00  0.00     0.085 H 
ATOM     14  C6  9O1 d   1      38.870  15.213   2.403  0.00  0.00    -0.081 A 
ATOM     15  H2  9O1 d   1      37.337  15.040   0.920  0.00  0.00     0.083 H 
ATOM     16  C1  9O1 d   1      40.220  15.069   2.693  0.00  0.00    -0.061 A 
ATOM     17  H3  9O1 d   1      38.187  15.553   3.172  0.00  0.00     0.083 H 
ATOM     18  C2  9O1 d   1      41.089  14.635   1.702  0.00  0.00     0.046 A 
ATOM     19  H17 9O1 d   1      40.592  15.294   3.686  0.00  0.00     0.086 H 
ATOM     20 CL18 9O1 d   1      42.753  14.476   2.113  0.00  0.00    -0.083 Cl
ENDBRANCH   6  10
BRANCH   9  21
ATOM     21  C12 9O1 d   1      43.931  11.888  -2.821  0.00  0.00    -0.011 C 
ATOM     22  H13 9O1 d   1      44.505  11.267  -2.117  0.00  0.00     0.049 H 
BRANCH  21  23
ATOM     23  C13 9O1 d   1      43.190  11.017  -3.773  0.00  0.00    -0.067 C 
ATOM     24  H4  9O1 d   1      43.904  10.397  -4.335  0.00  0.00     0.028 H 
ATOM     25  H5  9O1 d   1      42.618  11.643  -4.473  0.00  0.00     0.028 H 
ATOM     26  H6  9O1 d   1      42.501  10.367  -3.215  0.00  0.00     0.028 H 
ENDBRANCH  21  23
BRANCH  21  27
ATOM     27  C14 9O1 d   1      44.891  12.722  -3.666  0.00  0.00    -0.067 C 
ATOM     28  H14 9O1 d   1      45.470  13.390  -3.011  0.00  0.00     0.028 H 
ATOM     29  H15 9O1 d   1      44.318  13.322  -4.388  0.00  0.00     0.028 H 
ATOM     30  H16 9O1 d   1      45.577  12.055  -4.208  0.00  0.00     0.028 H 
ENDBRANCH  21  27
ENDBRANCH   9  21
ENDBRANCH   1   5
BRANCH   3  31
ATOM     31  C19 9O1 d   1      41.554  10.280   2.128  0.00  0.00     0.034 C 
ATOM     32  H19 9O1 d   1      42.262   9.523   1.760  0.00  0.00     0.079 H 
BRANCH  31  33
ATOM     33  C20 9O1 d   1      42.046  10.686   3.513  0.00  0.00    -0.035 A 
ATOM     34  C22 9O1 d   1      42.810   9.774   4.253  0.00  0.00    -0.074 A 
ATOM     35  C23 9O1 d   1      43.277  10.075   5.501  0.00  0.00    -0.072 A 
ATOM     36  H10 9O1 d   1      43.036   8.805   3.824  0.00  0.00     0.084 H 
ATOM     37  C26 9O1 d   1      43.001  11.330   6.098  0.00  0.00    -0.026 A 
ATOM     38  H20 9O1 d   1      43.867   9.344   6.042  0.00  0.00     0.084 H 
ATOM     39  C27 9O1 d   1      43.466  11.688   7.394  0.00  0.00    -0.072 A 
ATOM     40  C25 9O1 d   1      42.225  12.269   5.366  0.00  0.00    -0.025 A 
ATOM     41  C28 9O1 d   1      43.172  12.915   7.930  0.00  0.00    -0.082 A 
ATOM     42  H21 9O1 d   1      44.059  10.982   7.964  0.00  0.00     0.084 H 
ATOM     43  C29 9O1 d   1      42.412  13.837   7.214  0.00  0.00    -0.082 A 
ATOM     44  H12 9O1 d   1      43.534  13.170   8.919  0.00  0.00     0.083 H 
ATOM     45  C30 9O1 d   1      41.943  13.531   5.959  0.00  0.00    -0.072 A 
ATOM     46  H22 9O1 d   1      42.189  14.804   7.650  0.00  0.00     0.083 H 
ATOM     47  H23 9O1 d   1      41.352  14.259   5.415  0.00  0.00     0.084 H 
ATOM     48  C24 9O1 d   1      41.760  11.912   4.071  0.00  0.00    -0.064 A 
ATOM     49  H11 9O1 d   1      41.165  12.623   3.509  0.00  0.00     0.085 H 
ENDBRANCH  31  33
BRANCH  31  50
ATOM     50  C21 9O1 d   1      40.177   9.633   2.173  0.00  0.00    -0.053 C 
ATOM     51  H7  9O1 d   1      39.867   9.359   1.154  0.00  0.00     0.030 H 
ATOM     52  H8  9O1 d   1      39.452  10.343   2.598  0.00  0.00     0.030 H 
ATOM     53  H9  9O1 d   1      40.217   8.730   2.800  0.00  0.00     0.030 H 
ENDBRANCH  31  50
ENDBRANCH   3  31
TORSDOF 8
