REMARK  3 active torsions:
REMARK  status: ('A' for Active; 'I' for Inactive)
REMARK    1  A    between atoms: C1_3  and  C_1 
REMARK    2  A    between atoms: C9_15  and  C10_4 
REMARK    3  A    between atoms: C4_10  and  C3_9 
ROOT
ATOM      1  C4  TI7 d   1      96.887 249.716   5.969  0.00  0.00    -0.020 A 
ATOM      2  C5  TI7 d   1      98.273 249.550   5.945  0.00  0.00    -0.072 A 
ATOM      3  C6  TI7 d   1      98.847 248.521   5.222  0.00  0.00    -0.082 A 
ATOM      4  C7  TI7 d   1      98.057 247.655   4.516  0.00  0.00    -0.082 A 
ATOM      5  C8  TI7 d   1      96.683 247.813   4.518  0.00  0.00    -0.076 A 
ATOM      6  C9  TI7 d   1      96.068 248.840   5.228  0.00  0.00    -0.051 A 
ATOM      7  H8  TI7 d   1      98.905 250.235   6.499  0.00  0.00     0.084 H 
ATOM      8  H9  TI7 d   1      99.924 248.400   5.214  0.00  0.00     0.083 H 
ATOM      9  H10 TI7 d   1      98.508 246.845   3.955  0.00  0.00     0.083 H 
ATOM     10  H11 TI7 d   1      96.070 247.120   3.953  0.00  0.00     0.084 H 
ENDROOT
BRANCH   1  11
ATOM     11  C3  TI7 d   1      96.339 250.807   6.822  0.00  0.00    -0.024 A 
ATOM     12  C11 TI7 d   1      95.485 250.528   7.890  0.00  0.00    -0.072 A 
ATOM     13  C12 TI7 d   1      95.047 251.541   8.726  0.00  0.00    -0.081 A 
ATOM     14  H4  TI7 d   1      95.162 249.509   8.067  0.00  0.00     0.084 H 
ATOM     15  C13 TI7 d   1      95.455 252.845   8.512  0.00  0.00    -0.066 A 
ATOM     16  H5  TI7 d   1      94.382 251.311   9.551  0.00  0.00     0.083 H 
ATOM     17  C1  TI7 d   1      96.297 253.148   7.449  0.00  0.00     0.041 A 
ATOM     18  H6  TI7 d   1      95.117 253.633   9.175  0.00  0.00     0.085 H 
ATOM     19  C2  TI7 d   1      96.727 252.126   6.610  0.00  0.00    -0.056 A 
ATOM     20  H7  TI7 d   1      97.377 252.362   5.775  0.00  0.00     0.086 H 
BRANCH  17  21
ATOM     21  C   TI7 d   1      96.741 254.567   7.194  0.00  0.00     0.209 C 
ATOM     22  O   TI7 d   1      96.450 255.438   8.051  0.00  0.00    -0.644 OA
ATOM     23  O1  TI7 d   1      97.372 254.790   6.135  0.00  0.00    -0.644 OA
ENDBRANCH  17  21
ENDBRANCH   1  11
BRANCH   6  24
ATOM     24  C10 TI7 d   1      94.568 248.993   5.155  0.00  0.00    -0.050 C 
ATOM     25  H1  TI7 d   1      94.149 248.197   4.522  0.00  0.00     0.033 H 
ATOM     26  H2  TI7 d   1      94.320 249.974   4.723  0.00  0.00     0.033 H 
ATOM     27  H3  TI7 d   1      94.142 248.919   6.167  0.00  0.00     0.033 H 
ENDBRANCH   6  24
TORSDOF 3
