REMARK  3 active torsions:
REMARK  status: ('A' for Active; 'I' for Inactive)
REMARK    1  A    between atoms: C1_3  and  C_1 
REMARK    2  A    between atoms: C3_9  and  C4_10 
REMARK    3  A    between atoms: C8_14  and  C9_15 
ROOT
ATOM      1  C10 L5D d   1      97.761 249.724   5.800  0.00  0.00    -0.067 A 
ATOM      2  C4  L5D d   1      96.464 250.176   6.056  0.00  0.00    -0.025 A 
ATOM      3  C5  L5D d   1      95.397 249.457   5.525  0.00  0.00    -0.072 A 
ATOM      4  C6  L5D d   1      95.620 248.312   4.784  0.00  0.00    -0.082 A 
ATOM      5  C7  L5D d   1      96.911 247.870   4.562  0.00  0.00    -0.077 A 
ATOM      6  C8  L5D d   1      97.997 248.568   5.062  0.00  0.00    -0.061 A 
ATOM      7  H1  L5D d   1      98.603 250.287   6.185  0.00  0.00     0.085 H 
ATOM      8  H6  L5D d   1      94.382 249.798   5.694  0.00  0.00     0.084 H 
ATOM      9  H7  L5D d   1      94.781 247.760   4.376  0.00  0.00     0.083 H 
ATOM     10  H8  L5D d   1      97.075 246.965   3.989  0.00  0.00     0.084 H 
ENDROOT
BRANCH   2  11
ATOM     11  C3  L5D d   1      96.234 251.345   6.944  0.00  0.00    -0.025 A 
ATOM     12  C11 L5D d   1      95.503 251.215   8.127  0.00  0.00    -0.072 A 
ATOM     13  C12 L5D d   1      95.322 252.295   8.974  0.00  0.00    -0.081 A 
ATOM     14  H2  L5D d   1      95.071 250.255   8.386  0.00  0.00     0.084 H 
ATOM     15  C13 L5D d   1      95.846 253.530   8.646  0.00  0.00    -0.066 A 
ATOM     16  H3  L5D d   1      94.767 252.171   9.897  0.00  0.00     0.083 H 
ATOM     17  C1  L5D d   1      96.560 253.694   7.468  0.00  0.00     0.041 A 
ATOM     18  H4  L5D d   1      95.699 254.374   9.311  0.00  0.00     0.085 H 
ATOM     19  C2  L5D d   1      96.756 252.599   6.628  0.00  0.00    -0.056 A 
ATOM     20  H5  L5D d   1      97.324 252.724   5.713  0.00  0.00     0.086 H 
BRANCH  17  21
ATOM     21  C   L5D d   1      97.079 255.056   7.079  0.00  0.00     0.209 C 
ATOM     22  O   L5D d   1      96.774 256.034   7.814  0.00  0.00    -0.644 OA
ATOM     23  O1  L5D d   1      97.759 255.132   6.035  0.00  0.00    -0.644 OA
ENDBRANCH  17  21
ENDBRANCH   2  11
BRANCH   6  24
ATOM     24  C9  L5D d   1      99.405 248.086   4.811  0.00  0.00    -0.051 C 
ATOM     25  H9  L5D d   1     100.118 248.774   5.288  0.00  0.00     0.033 H 
ATOM     26  H10 L5D d   1      99.594 248.055   3.728  0.00  0.00     0.033 H 
ATOM     27  H11 L5D d   1      99.528 247.078   5.234  0.00  0.00     0.033 H 
ENDBRANCH   6  24
TORSDOF 3
