REMARK  3 active torsions:
REMARK  status: ('A' for Active; 'I' for Inactive)
REMARK    1  A    between atoms: C1_3  and  C_1 
REMARK    2  A    between atoms: C9_16  and  O1_4 
REMARK    3  A    between atoms: C4_8  and  C3_7 
ROOT
ATOM      1  C1  AUV d   1      96.510 253.286   7.331  0.00  0.00     0.041 A 
ATOM      2  C2  AUV d   1      96.851 252.201   6.534  0.00  0.00    -0.056 A 
ATOM      3  C3  AUV d   1      96.354 250.928   6.795  0.00  0.00    -0.022 A 
ATOM      4  C10 AUV d   1      95.495 250.759   7.880  0.00  0.00    -0.072 A 
ATOM      5  C11 AUV d   1      95.150 251.834   8.681  0.00  0.00    -0.081 A 
ATOM      6  C12 AUV d   1      95.654 253.094   8.408  0.00  0.00    -0.066 A 
ATOM      7  H2  AUV d   1      97.517 252.349   5.692  0.00  0.00     0.086 H 
ATOM      8  H3  AUV d   1      95.093 249.776   8.098  0.00  0.00     0.084 H 
ATOM      9  H4  AUV d   1      94.484 251.689   9.524  0.00  0.00     0.083 H 
ATOM     10  H5  AUV d   1      95.380 253.934   9.037  0.00  0.00     0.085 H 
ENDROOT
BRANCH   3  11
ATOM     11  C4  AUV d   1      96.759 249.776   5.943  0.00  0.00     0.007 A 
ATOM     12  C5  AUV d   1      98.107 249.602   5.630  0.00  0.00    -0.070 A 
ATOM     13  C6  AUV d   1      98.526 248.526   4.866  0.00  0.00    -0.082 A 
ATOM     14  H6  AUV d   1      98.836 250.319   5.990  0.00  0.00     0.085 H 
ATOM     15  C7  AUV d   1      97.614 247.612   4.400  0.00  0.00    -0.080 A 
ATOM     16  H7  AUV d   1      99.578 248.405   4.635  0.00  0.00     0.083 H 
ATOM     17  C8  AUV d   1      96.270 247.763   4.689  0.00  0.00    -0.050 A 
ATOM     18  H8  AUV d   1      97.948 246.770   3.804  0.00  0.00     0.083 H 
ATOM     19  C9  AUV d   1      95.840 248.841   5.453  0.00  0.00     0.076 A 
ATOM     20  H9  AUV d   1      95.552 247.040   4.319  0.00  0.00     0.087 H 
BRANCH  19  21
ATOM     21  O1  AUV d   1      94.515 248.996   5.721  0.00  0.00    -0.360 OA
ATOM     22  H1  AUV d   1      94.027 248.285   5.322  0.00  0.00     0.217 HD
ENDBRANCH  19  21
ENDBRANCH   3  11
BRANCH   1  23
ATOM     23  C   AUV d   1      97.071 254.652   7.023  0.00  0.00     0.209 C 
ATOM     24  O   AUV d   1      96.975 255.063   5.845  0.00  0.00    -0.644 OA
ATOM     25  O2  AUV d   1      97.604 255.291   7.959  0.00  0.00    -0.644 OA
ENDBRANCH   1  23
TORSDOF 3
