REMARK  3 active torsions:
REMARK  status: ('A' for Active; 'I' for Inactive)
REMARK    1  A    between atoms: C1_3  and  C_1 
REMARK    2  A    between atoms: C3_8  and  C4_9 
REMARK    3  A    between atoms: C6_11  and  O1_15 
ROOT
ATOM      1  C1  IQQ d   1      96.253 252.336   7.279  0.00  0.00     0.041 A 
ATOM      2  C10 IQQ d   1      95.296 249.792   7.844  0.00  0.00    -0.072 A 
ATOM      3  C11 IQQ d   1      94.976 250.854   8.671  0.00  0.00    -0.081 A 
ATOM      4  C12 IQQ d   1      95.452 252.122   8.391  0.00  0.00    -0.066 A 
ATOM      5  C2  IQQ d   1      96.576 251.260   6.459  0.00  0.00    -0.056 A 
ATOM      6  C3  IQQ d   1      96.107 249.976   6.727  0.00  0.00    -0.025 A 
ATOM      7  H1  IQQ d   1      94.910 248.804   8.068  0.00  0.00     0.084 H 
ATOM      8  H2  IQQ d   1      94.350 250.692   9.541  0.00  0.00     0.083 H 
ATOM      9  H3  IQQ d   1      95.198 252.951   9.042  0.00  0.00     0.085 H 
ATOM     10  H4  IQQ d   1      97.206 251.424   5.593  0.00  0.00     0.086 H 
ENDROOT
BRANCH   6  11
ATOM     11  C4  IQQ d   1      96.483 248.836   5.854  0.00  0.00    -0.023 A 
ATOM     12  C5  IQQ d   1      97.827 248.537   5.629  0.00  0.00    -0.040 A 
ATOM     13  C6  IQQ d   1      98.175 247.445   4.846  0.00  0.00     0.066 A 
ATOM     14  H5  IQQ d   1      98.600 249.158   6.066  0.00  0.00     0.089 H 
ATOM     15  C7  IQQ d   1      97.195 246.649   4.272  0.00  0.00    -0.051 A 
ATOM     16  C8  IQQ d   1      95.864 246.947   4.487  0.00  0.00    -0.080 A 
ATOM     17  H6  IQQ d   1      97.472 245.799   3.659  0.00  0.00     0.087 H 
ATOM     18  C9  IQQ d   1      95.510 248.030   5.268  0.00  0.00    -0.072 A 
ATOM     19  H7  IQQ d   1      95.094 246.328   4.041  0.00  0.00     0.083 H 
ATOM     20  H8  IQQ d   1      94.462 248.255   5.427  0.00  0.00     0.084 H 
BRANCH  13  21
ATOM     21  O1  IQQ d   1      99.493 247.154   4.651  0.00  0.00    -0.361 OA
ATOM     22  H9  IQQ d   1     100.028 247.792   5.109  0.00  0.00     0.217 HD
ENDBRANCH  13  21
ENDBRANCH   6  11
BRANCH   1  23
ATOM     23  C   IQQ d   1      96.748 253.720   6.940  0.00  0.00     0.209 C 
ATOM     24  O   IQQ d   1      97.476 253.840   5.930  0.00  0.00    -0.644 OA
ATOM     25  O2  IQQ d   1      96.402 254.667   7.690  0.00  0.00    -0.644 OA
ENDBRANCH   1  23
TORSDOF 3
