REMARK  4 active torsions:
REMARK  status: ('A' for Active; 'I' for Inactive)
REMARK    1  A    between atoms: C1_3  and  C_1 
REMARK    2  A    between atoms: O1_16  and  C10_4 
REMARK    3  A    between atoms: C4_10  and  C3_9 
REMARK    4  A    between atoms: C9_15  and  O1_16 
ROOT
ATOM      1  C4  EAJ d   1      97.882 249.576   5.906  0.00  0.00     0.007 A 
ATOM      2  C5  EAJ d   1      99.168 249.036   5.877  0.00  0.00    -0.070 A 
ATOM      3  C6  EAJ d   1      99.466 247.969   5.046  0.00  0.00    -0.082 A 
ATOM      4  C7  EAJ d   1      98.489 247.414   4.252  0.00  0.00    -0.080 A 
ATOM      5  C8  EAJ d   1      97.205 247.927   4.266  0.00  0.00    -0.050 A 
ATOM      6  C9  EAJ d   1      96.912 249.007   5.081  0.00  0.00     0.079 A 
ATOM      7  H8  EAJ d   1      99.941 249.455   6.511  0.00  0.00     0.085 H 
ATOM      8  H9  EAJ d   1     100.473 247.569   5.021  0.00  0.00     0.083 H 
ATOM      9  H10 EAJ d   1      98.727 246.571   3.613  0.00  0.00     0.083 H 
ATOM     10  H11 EAJ d   1      96.434 247.487   3.644  0.00  0.00     0.087 H 
ENDROOT
BRANCH   1  11
ATOM     11  C3  EAJ d   1      97.597 250.783   6.729  0.00  0.00    -0.022 A 
ATOM     12  C11 EAJ d   1      96.946 250.688   7.959  0.00  0.00    -0.072 A 
ATOM     13  C12 EAJ d   1      96.551 251.826   8.640  0.00  0.00    -0.081 A 
ATOM     14  H4  EAJ d   1      96.747 249.712   8.386  0.00  0.00     0.084 H 
ATOM     15  C13 EAJ d   1      96.807 253.076   8.109  0.00  0.00    -0.066 A 
ATOM     16  H5  EAJ d   1      96.040 251.737   9.592  0.00  0.00     0.083 H 
ATOM     17  C1  EAJ d   1      97.472 253.196   6.894  0.00  0.00     0.041 A 
ATOM     18  H6  EAJ d   1      96.489 253.965   8.641  0.00  0.00     0.085 H 
ATOM     19  C2  EAJ d   1      97.870 252.048   6.218  0.00  0.00    -0.056 A 
ATOM     20  H7  EAJ d   1      98.401 252.140   5.278  0.00  0.00     0.086 H 
BRANCH  17  21
ATOM     21  C   EAJ d   1      97.758 254.549   6.299  0.00  0.00     0.209 C 
ATOM     22  O   EAJ d   1      98.810 255.126   6.657  0.00  0.00    -0.644 OA
ATOM     23  O2  EAJ d   1      96.946 255.001   5.454  0.00  0.00    -0.644 OA
ENDBRANCH  17  21
ENDBRANCH   1  11
BRANCH   6  24
ATOM     24  O1  EAJ d   1      95.693 249.624   5.100  0.00  0.00    -0.355 OA
BRANCH  24  25
ATOM     25  C10 EAJ d   1      94.769 249.292   4.069  0.00  0.00     0.010 C 
ATOM     26  H1  EAJ d   1      93.839 249.862   4.213  0.00  0.00     0.066 H 
ATOM     27  H2  EAJ d   1      94.549 248.215   4.107  0.00  0.00     0.066 H 
ATOM     28  H3  EAJ d   1      95.205 249.543   3.091  0.00  0.00     0.066 H 
ENDBRANCH  24  25
ENDBRANCH   6  24
TORSDOF 4
