REMARK  4 active torsions:
REMARK  status: ('A' for Active; 'I' for Inactive)
REMARK    1  A    between atoms: C1_3  and  C_1 
REMARK    2  A    between atoms: C3_9  and  C4_10 
REMARK    3  A    between atoms: C7_13  and  O1_16 
REMARK    4  A    between atoms: O1_16  and  C8_14 
ROOT
ATOM      1  C10 U4J d   1     -12.391 -23.905  27.554  0.00  0.00    -0.070 A 
ATOM      2  C4  U4J d   1     -13.079 -22.806  27.045  0.00  0.00    -0.026 A 
ATOM      3  C5  U4J d   1     -14.410 -22.645  27.420  0.00  0.00    -0.070 A 
ATOM      4  C6  U4J d   1     -15.031 -23.536  28.274  0.00  0.00    -0.050 A 
ATOM      5  C7  U4J d   1     -14.324 -24.616  28.774  0.00  0.00     0.068 A 
ATOM      6  C9  U4J d   1     -13.001 -24.804  28.408  0.00  0.00    -0.050 A 
ATOM      7  H1  U4J d   1     -11.355 -24.058  27.274  0.00  0.00     0.085 H 
ATOM      8  H6  U4J d   1     -14.971 -21.802  27.034  0.00  0.00     0.085 H 
ATOM      9  H7  U4J d   1     -16.069 -23.390  28.552  0.00  0.00     0.087 H 
ATOM     10  H11 U4J d   1     -12.446 -25.653  28.790  0.00  0.00     0.087 H 
ENDROOT
BRANCH   2  11
ATOM     11  C3  U4J d   1     -12.414 -21.829  26.147  0.00  0.00    -0.025 A 
ATOM     12  C11 U4J d   1     -11.552 -22.247  25.134  0.00  0.00    -0.072 A 
ATOM     13  C12 U4J d   1     -10.961 -21.328  24.284  0.00  0.00    -0.081 A 
ATOM     14  H2  U4J d   1     -11.342 -23.303  25.011  0.00  0.00     0.084 H 
ATOM     15  C13 U4J d   1     -11.215 -19.977  24.434  0.00  0.00    -0.066 A 
ATOM     16  H3  U4J d   1     -10.297 -21.669  23.498  0.00  0.00     0.083 H 
ATOM     17  C1  U4J d   1     -12.059 -19.533  25.443  0.00  0.00     0.041 A 
ATOM     18  H4  U4J d   1     -10.754 -19.262  23.762  0.00  0.00     0.085 H 
ATOM     19  C2  U4J d   1     -12.653 -20.464  26.287  0.00  0.00    -0.056 A 
ATOM     20  H5  U4J d   1     -13.317 -20.120  27.072  0.00  0.00     0.086 H 
BRANCH  17  21
ATOM     21  C   U4J d   1     -12.316 -18.059  25.642  0.00  0.00     0.209 C 
ATOM     22  O   U4J d   1     -11.908 -17.533  26.705  0.00  0.00    -0.644 OA
ATOM     23  O2  U4J d   1     -12.918 -17.444  24.731  0.00  0.00    -0.644 OA
ENDBRANCH  17  21
ENDBRANCH   2  11
BRANCH   5  24
ATOM     24  O1  U4J d   1     -14.861 -25.506  29.668  0.00  0.00    -0.356 OA
BRANCH  24  25
ATOM     25  C8  U4J d   1     -16.196 -25.291  30.122  0.00  0.00     0.010 C 
ATOM     26  H8  U4J d   1     -16.475 -26.086  30.829  0.00  0.00     0.066 H 
ATOM     27  H9  U4J d   1     -16.883 -25.307  29.263  0.00  0.00     0.066 H 
ATOM     28  H10 U4J d   1     -16.260 -24.315  30.625  0.00  0.00     0.066 H 
ENDBRANCH  24  25
ENDBRANCH   5  24
TORSDOF 4
