REMARK  2 active torsions:
REMARK  status: ('A' for Active; 'I' for Inactive)
REMARK    1  A    between atoms: C1_3  and  C_1 
REMARK    2  A    between atoms: C3_8  and  C4_9 
ROOT
ATOM      1  C1  WVV d   1      96.282 253.086   7.456  0.00  0.00     0.041 A 
ATOM      2  C10 WVV d   1      95.384 250.477   7.792  0.00  0.00    -0.072 A 
ATOM      3  C11 WVV d   1      94.914 251.485   8.616  0.00  0.00    -0.081 A 
ATOM      4  C12 WVV d   1      95.362 252.784   8.453  0.00  0.00    -0.066 A 
ATOM      5  C2  WVV d   1      96.748 252.066   6.634  0.00  0.00    -0.056 A 
ATOM      6  C3  WVV d   1      96.316 250.752   6.794  0.00  0.00    -0.022 A 
ATOM      7  H1  WVV d   1      95.023 249.464   7.925  0.00  0.00     0.084 H 
ATOM      8  H2  WVV d   1      94.192 251.256   9.392  0.00  0.00     0.083 H 
ATOM      9  H3  WVV d   1      94.994 253.568   9.105  0.00  0.00     0.085 H 
ATOM     10  H4  WVV d   1      97.462 252.298   5.853  0.00  0.00     0.086 H 
ENDROOT
BRANCH   6  11
ATOM     11  C4  WVV d   1      96.887 249.662   5.954  0.00  0.00     0.013 A 
ATOM     12  C5  WVV d   1      96.107 248.691   5.340  0.00  0.00     0.127 A 
ATOM     13  C6  WVV d   1      96.635 247.647   4.621  0.00  0.00    -0.045 A 
ATOM     14  F   WVV d   1      94.761 248.775   5.445  0.00  0.00    -0.205 F 
ATOM     15  C7  WVV d   1      98.009 247.562   4.493  0.00  0.00    -0.080 A 
ATOM     16  H5  WVV d   1      95.989 246.906   4.164  0.00  0.00     0.088 H 
ATOM     17  C8  WVV d   1      98.820 248.510   5.071  0.00  0.00    -0.082 A 
ATOM     18  H6  WVV d   1      98.449 246.744   3.934  0.00  0.00     0.083 H 
ATOM     19  C9  WVV d   1      98.269 249.552   5.793  0.00  0.00    -0.069 A 
ATOM     20  H7  WVV d   1      99.896 248.440   4.960  0.00  0.00     0.083 H 
ATOM     21  H8  WVV d   1      98.920 250.294   6.241  0.00  0.00     0.085 H 
ENDBRANCH   6  11
BRANCH   1  22
ATOM     22  C   WVV d   1      96.772 254.498   7.259  0.00  0.00     0.209 C 
ATOM     23  O   WVV d   1      97.550 254.712   6.299  0.00  0.00    -0.644 OA
ATOM     24  O1  WVV d   1      96.375 255.375   8.063  0.00  0.00    -0.644 OA
ENDBRANCH   1  22
TORSDOF 2
