REMARK  2 active torsions:
REMARK  status: ('A' for Active; 'I' for Inactive)
REMARK    1  A    between atoms: C1_3  and  C_1 
REMARK    2  A    between atoms: C3_8  and  C4_9 
ROOT
ATOM      1  C1  Q4G d   1      97.519 254.284   7.414  0.00  0.00     0.041 A 
ATOM      2  C10 Q4G d   1      96.776 251.672   8.006  0.00  0.00    -0.072 A 
ATOM      3  C11 Q4G d   1      96.367 252.713   8.822  0.00  0.00    -0.081 A 
ATOM      4  C12 Q4G d   1      96.737 254.014   8.530  0.00  0.00    -0.066 A 
ATOM      5  C2  Q4G d   1      97.924 253.232   6.600  0.00  0.00    -0.056 A 
ATOM      6  C3  Q4G d   1      97.566 251.915   6.883  0.00  0.00    -0.025 A 
ATOM      7  H1  Q4G d   1      96.479 250.657   8.243  0.00  0.00     0.084 H 
ATOM      8  H2  Q4G d   1      95.755 252.508   9.693  0.00  0.00     0.083 H 
ATOM      9  H3  Q4G d   1      96.416 254.825   9.174  0.00  0.00     0.085 H 
ATOM     10  H4  Q4G d   1      98.531 253.441   5.727  0.00  0.00     0.086 H 
ENDROOT
BRANCH   6  11
ATOM     11  C4  Q4G d   1      98.046 250.802   6.028  0.00  0.00    -0.023 A 
ATOM     12  C5  Q4G d   1      99.406 250.597   5.810  0.00  0.00    -0.072 A 
ATOM     13  C6  Q4G d   1      99.849 249.532   5.045  0.00  0.00    -0.079 A 
ATOM     14  H5  Q4G d   1     100.127 251.280   6.245  0.00  0.00     0.084 H 
ATOM     15  C7  Q4G d   1      98.947 248.650   4.478  0.00  0.00    -0.046 A 
ATOM     16  H6  Q4G d   1     100.912 249.388   4.889  0.00  0.00     0.083 H 
ATOM     17  C8  Q4G d   1      97.619 248.872   4.695  0.00  0.00     0.117 A 
ATOM     18  H7  Q4G d   1      99.284 247.810   3.881  0.00  0.00     0.088 H 
ATOM     19  C9  Q4G d   1      97.145 249.915   5.446  0.00  0.00    -0.035 A 
ATOM     20  F   Q4G d   1      96.718 248.024   4.132  0.00  0.00    -0.206 F 
ATOM     21  H8  Q4G d   1      96.078 250.048   5.586  0.00  0.00     0.089 H 
ENDBRANCH   6  11
BRANCH   1  22
ATOM     22  C   Q4G d   1      97.936 255.697   7.088  0.00  0.00     0.209 C 
ATOM     23  O   Q4G d   1      98.607 255.880   6.043  0.00  0.00    -0.644 OA
ATOM     24  O1  Q4G d   1      97.590 256.607   7.881  0.00  0.00    -0.644 OA
ENDBRANCH   1  22
TORSDOF 2
