REMARK  2 active torsions:
REMARK  status: ('A' for Active; 'I' for Inactive)
REMARK    1  A    between atoms: C1_3  and  C_1 
REMARK    2  A    between atoms: C3_8  and  C7_12 
ROOT
ATOM      1  C1  S1D d   1     -11.756 -18.972  25.796  0.00  0.00     0.041 A 
ATOM      2  C2  S1D d   1     -12.357 -20.025  26.476  0.00  0.00    -0.056 A 
ATOM      3  C3  S1D d   1     -12.600 -21.248  25.852  0.00  0.00    -0.025 A 
ATOM      4  C4  S1D d   1     -12.224 -21.393  24.515  0.00  0.00    -0.072 A 
ATOM      5  C5  S1D d   1     -11.629 -20.349  23.830  0.00  0.00    -0.081 A 
ATOM      6  C6  S1D d   1     -11.395 -19.144  24.464  0.00  0.00    -0.066 A 
ATOM      7  H3  S1D d   1     -12.643 -19.892  27.513  0.00  0.00     0.086 H 
ATOM      8  H4  S1D d   1     -12.400 -22.335  24.008  0.00  0.00     0.084 H 
ATOM      9  H5  S1D d   1     -11.345 -20.477  22.792  0.00  0.00     0.083 H 
ATOM     10  H6  S1D d   1     -10.928 -18.330  23.921  0.00  0.00     0.085 H 
ENDROOT
BRANCH   3  11
ATOM     11  C7  S1D d   1     -13.243 -22.363  26.591  0.00  0.00    -0.026 A 
ATOM     12  C12 S1D d   1     -14.632 -22.454  26.689  0.00  0.00    -0.069 A 
ATOM     13  C11 S1D d   1     -15.235 -23.485  27.383  0.00  0.00    -0.045 A 
ATOM     14  H2  S1D d   1     -15.249 -21.702  26.212  0.00  0.00     0.085 H 
ATOM     15  C10 S1D d   1     -14.438 -24.423  27.977  0.00  0.00     0.116 A 
ATOM     16  H1  S1D d   1     -16.315 -23.549  27.455  0.00  0.00     0.088 H 
ATOM     17  C9  S1D d   1     -13.073 -24.382  27.914  0.00  0.00    -0.045 A 
ATOM     18  F   S1D d   1     -15.027 -25.441  28.660  0.00  0.00    -0.206 F 
ATOM     19  C8  S1D d   1     -12.480 -23.346  27.216  0.00  0.00    -0.069 A 
ATOM     20  H8  S1D d   1     -12.471 -25.142  28.399  0.00  0.00     0.088 H 
ATOM     21  H7  S1D d   1     -11.399 -23.298  27.154  0.00  0.00     0.085 H 
ENDBRANCH   3  11
BRANCH   1  22
ATOM     22  C   S1D d   1     -11.493 -17.664  26.496  0.00  0.00     0.209 C 
ATOM     23  O   S1D d   1     -10.841 -17.694  27.570  0.00  0.00    -0.644 OA
ATOM     24  O1  S1D d   1     -11.938 -16.618  25.963  0.00  0.00    -0.644 OA
ENDBRANCH   1  22
TORSDOF 2
