REMARK  5 active torsions:
REMARK  status: ('A' for Active; 'I' for Inactive)
REMARK    1  A    between atoms: C2_9  and  C_1 
REMARK    2  A    between atoms: C_1  and  O1_17 
REMARK    3  A    between atoms: O1_17  and  C1_3 
REMARK    4  A    between atoms: C10_4  and  C11_5 
REMARK    5  A    between atoms: C7_14  and  C8_15 
ROOT
ATOM      1  C2  Q2R d   1      97.913 248.695   4.818  0.00  0.00     0.050 A 
ATOM      2  C3  Q2R d   1      98.494 247.574   4.225  0.00  0.00    -0.066 A 
ATOM      3  C4  Q2R d   1      99.774 247.187   4.580  0.00  0.00    -0.082 A 
ATOM      4  C5  Q2R d   1     100.479 247.903   5.519  0.00  0.00    -0.082 A 
ATOM      5  C6  Q2R d   1      99.913 249.014   6.118  0.00  0.00    -0.071 A 
ATOM      6  C7  Q2R d   1      98.624 249.432   5.783  0.00  0.00    -0.010 A 
ATOM      7  H7  Q2R d   1      97.942 247.006   3.485  0.00  0.00     0.085 H 
ATOM      8  H8  Q2R d   1     100.223 246.316   4.116  0.00  0.00     0.083 H 
ATOM      9  H9  Q2R d   1     101.482 247.595   5.791  0.00  0.00     0.083 H 
ATOM     10  H10 Q2R d   1     100.479 249.568   6.858  0.00  0.00     0.084 H 
ENDROOT
BRANCH   6  11
ATOM     11  C8  Q2R d   1      98.068 250.638   6.458  0.00  0.00    -0.024 A 
ATOM     12  C14 Q2R d   1      97.539 250.560   7.745  0.00  0.00    -0.072 A 
ATOM     13  C13 Q2R d   1      97.020 251.684   8.365  0.00  0.00    -0.081 A 
ATOM     14  H6  Q2R d   1      97.534 249.609   8.266  0.00  0.00     0.084 H 
ATOM     15  C12 Q2R d   1      97.023 252.904   7.712  0.00  0.00    -0.066 A 
ATOM     16  H5  Q2R d   1      96.610 251.608   9.366  0.00  0.00     0.083 H 
ATOM     17  C10 Q2R d   1      97.549 253.009   6.430  0.00  0.00     0.041 A 
ATOM     18  H4  Q2R d   1      96.614 253.780   8.202  0.00  0.00     0.085 H 
ATOM     19  C9  Q2R d   1      98.064 251.874   5.813  0.00  0.00    -0.056 A 
ATOM     20  H11 Q2R d   1      98.470 251.952   4.811  0.00  0.00     0.086 H 
BRANCH  17  21
ATOM     21  C11 Q2R d   1      97.590 254.340   5.722  0.00  0.00     0.209 C 
ATOM     22  O2  Q2R d   1      98.646 255.011   5.812  0.00  0.00    -0.644 OA
ATOM     23  O3  Q2R d   1      96.571 254.698   5.084  0.00  0.00    -0.644 OA
ENDBRANCH  17  21
ENDBRANCH   6  11
BRANCH   1  24
ATOM     24  C   Q2R d   1      96.543 249.084   4.381  0.00  0.00     0.293 C 
ATOM     25  O   Q2R d   1      95.829 249.858   4.970  0.00  0.00    -0.259 OA
BRANCH  24  26
ATOM     26  O1  Q2R d   1      96.192 248.479   3.247  0.00  0.00    -0.322 OA
BRANCH  26  27
ATOM     27  C1  Q2R d   1      94.898 248.838   2.704  0.00  0.00     0.013 C 
ATOM     28  H1  Q2R d   1      94.722 248.277   1.774  0.00  0.00     0.067 H 
ATOM     29  H2  Q2R d   1      94.876 249.917   2.491  0.00  0.00     0.067 H 
ATOM     30  H3  Q2R d   1      94.113 248.592   3.434  0.00  0.00     0.067 H 
ENDBRANCH  26  27
ENDBRANCH  24  26
ENDBRANCH   1  24
TORSDOF 5
