REMARK  4 active torsions:
REMARK  status: ('A' for Active; 'I' for Inactive)
REMARK    1  A    between atoms: C1_3  and  C_1 
REMARK    2  A    between atoms: C3_9  and  C4_10 
REMARK    3  A    between atoms: C6_12  and  S_19 
REMARK    4  A    between atoms: S_19  and  C7_13 
ROOT
ATOM      1  C10 VM7 d   1      97.797 249.118   5.647  0.00  0.00    -0.072 A 
ATOM      2  C4  VM7 d   1      96.500 249.492   5.995  0.00  0.00    -0.025 A 
ATOM      3  C5  VM7 d   1      95.441 248.675   5.598  0.00  0.00    -0.051 A 
ATOM      4  C6  VM7 d   1      95.696 247.497   4.912  0.00  0.00     0.059 A 
ATOM      5  C8  VM7 d   1      96.988 247.129   4.576  0.00  0.00    -0.062 A 
ATOM      6  C9  VM7 d   1      98.036 247.951   4.946  0.00  0.00    -0.081 A 
ATOM      7  H1  VM7 d   1      98.630 249.751   5.930  0.00  0.00     0.084 H 
ATOM      8  H6  VM7 d   1      94.420 248.961   5.825  0.00  0.00     0.087 H 
ATOM      9  H10 VM7 d   1      97.175 246.211   4.031  0.00  0.00     0.085 H 
ATOM     10  H11 VM7 d   1      99.052 247.679   4.685  0.00  0.00     0.083 H 
ENDROOT
BRANCH   2  11
ATOM     11  C3  VM7 d   1      96.253 250.680   6.852  0.00  0.00    -0.025 A 
ATOM     12  C11 VM7 d   1      95.607 250.559   8.081  0.00  0.00    -0.072 A 
ATOM     13  C12 VM7 d   1      95.460 251.652   8.917  0.00  0.00    -0.081 A 
ATOM     14  H2  VM7 d   1      95.214 249.596   8.386  0.00  0.00     0.084 H 
ATOM     15  C13 VM7 d   1      95.947 252.888   8.536  0.00  0.00    -0.066 A 
ATOM     16  H3  VM7 d   1      94.962 251.538   9.873  0.00  0.00     0.083 H 
ATOM     17  C1  VM7 d   1      96.580 253.042   7.309  0.00  0.00     0.041 A 
ATOM     18  H4  VM7 d   1      95.835 253.740   9.197  0.00  0.00     0.085 H 
ATOM     19  C2  VM7 d   1      96.725 251.937   6.478  0.00  0.00    -0.056 A 
ATOM     20  H5  VM7 d   1      97.216 252.055   5.519  0.00  0.00     0.086 H 
BRANCH  17  21
ATOM     21  C   VM7 d   1      97.112 254.386   6.879  0.00  0.00     0.209 C 
ATOM     22  O   VM7 d   1      97.642 254.459   5.747  0.00  0.00    -0.644 OA
ATOM     23  O3  VM7 d   1      96.977 255.356   7.669  0.00  0.00    -0.644 OA
ENDBRANCH  17  21
ENDBRANCH   2  11
BRANCH   4  24
ATOM     24  S   VM7 d   1      94.350 246.424   4.511  0.00  0.00     0.171 S 
ATOM     25  O1  VM7 d   1      94.331 245.351   5.464  0.00  0.00    -0.223 OA
ATOM     26  O2  VM7 d   1      93.166 247.223   4.371  0.00  0.00    -0.223 OA
BRANCH  24  27
ATOM     27  C7  VM7 d   1      94.769 245.770   2.940  0.00  0.00     0.020 C 
ATOM     28  H7  VM7 d   1      93.978 245.082   2.606  0.00  0.00     0.049 H 
ATOM     29  H8  VM7 d   1      95.722 245.225   3.012  0.00  0.00     0.049 H 
ATOM     30  H9  VM7 d   1      94.870 246.592   2.216  0.00  0.00     0.049 H 
ENDBRANCH  24  27
ENDBRANCH   4  24
TORSDOF 4
