REMARK  3 active torsions:
REMARK  status: ('A' for Active; 'I' for Inactive)
REMARK    1  A    between atoms: C_2  and  N_1 
REMARK    2  A    between atoms: C4_10  and  C3_9 
REMARK    3  A    between atoms: C6_12  and  C7_13 
ROOT
ATOM      1  C   VBC d   1       8.851 -24.585   4.450  0.00  0.00     0.025 A 
ATOM      2  C1  VBC d   1       9.697 -23.582   4.926  0.00  0.00    -0.057 A 
ATOM      3  C11 VBC d   1       6.970 -23.303   5.257  0.00  0.00    -0.070 A 
ATOM      4  C12 VBC d   1       7.475 -24.427   4.630  0.00  0.00    -0.057 A 
ATOM      5  C2  VBC d   1       9.183 -22.462   5.551  0.00  0.00    -0.070 A 
ATOM      6  C3  VBC d   1       7.811 -22.297   5.726  0.00  0.00    -0.026 A 
ATOM      7  H3  VBC d   1      10.769 -23.683   4.804  0.00  0.00     0.086 H 
ATOM      8  H5  VBC d   1       5.898 -23.203   5.386  0.00  0.00     0.084 H 
ATOM      9  H6  VBC d   1       6.796 -25.194   4.274  0.00  0.00     0.086 H 
ATOM     10  H7  VBC d   1       9.861 -21.697   5.912  0.00  0.00     0.084 H 
ENDROOT
BRANCH   6  11
ATOM     11  C4  VBC d   1       7.263 -21.079   6.371  0.00  0.00    -0.025 A 
ATOM     12  C10 VBC d   1       6.718 -21.126   7.654  0.00  0.00    -0.072 A 
ATOM     13  C9  VBC d   1       6.212 -19.984   8.250  0.00  0.00    -0.081 A 
ATOM     14  H4  VBC d   1       6.690 -22.068   8.190  0.00  0.00     0.084 H 
ATOM     15  C8  VBC d   1       6.240 -18.777   7.576  0.00  0.00    -0.066 A 
ATOM     16  H10 VBC d   1       5.793 -20.036   9.248  0.00  0.00     0.083 H 
ATOM     17  C6  VBC d   1       6.778 -18.703   6.297  0.00  0.00     0.041 A 
ATOM     18  H9  VBC d   1       5.841 -17.886   8.047  0.00  0.00     0.085 H 
ATOM     19  C5  VBC d   1       7.286 -19.854   5.702  0.00  0.00    -0.056 A 
ATOM     20  H8  VBC d   1       7.706 -19.798   4.704  0.00  0.00     0.086 H 
BRANCH  17  21
ATOM     21  C7  VBC d   1       6.833 -17.388   5.560  0.00  0.00     0.209 C 
ATOM     22  O   VBC d   1       5.885 -17.109   4.779  0.00  0.00    -0.644 OA
ATOM     23  O1  VBC d   1       7.830 -16.654   5.765  0.00  0.00    -0.644 OA
ENDBRANCH  17  21
ENDBRANCH   6  11
BRANCH   1  24
ATOM     24  N   VBC d   1       9.358 -25.695   3.811  0.00  0.00    -0.399 N 
ATOM     25  H1  VBC d   1      10.375 -25.797   3.686  0.00  0.00     0.156 HD
ATOM     26  H2  VBC d   1       8.720 -26.423   3.458  0.00  0.00     0.156 HD
ENDBRANCH   1  24
TORSDOF 3
