REMARK  5 active torsions:
REMARK  status: ('A' for Active; 'I' for Inactive)
REMARK    1  A    between atoms: C9_15  and  C10_1 
REMARK    2  A    between atoms: C2_6  and  N_16 
REMARK    3  A    between atoms: C7_9  and  C6_10 
REMARK    4  A    between atoms: N_16  and  C_12 
REMARK    5  A    between atoms: N_16  and  C1_13 
ROOT
ATOM      1  C14 AV4 d   1      95.309 246.148   5.398  0.00  0.00    -0.047 A 
ATOM      2  C2  AV4 d   1      95.674 244.965   4.745  0.00  0.00     0.030 A 
ATOM      3  C4  AV4 d   1      97.952 245.737   4.679  0.00  0.00    -0.080 A 
ATOM      4  C5  AV4 d   1      97.588 246.897   5.329  0.00  0.00    -0.072 A 
ATOM      5  C6  AV4 d   1      96.266 247.119   5.698  0.00  0.00    -0.024 A 
ATOM      6  C3  AV4 d   1      97.007 244.773   4.386  0.00  0.00    -0.057 A 
ATOM      7  H4  AV4 d   1      94.273 246.312   5.673  0.00  0.00     0.088 H 
ATOM      8  H5  AV4 d   1      98.987 245.580   4.396  0.00  0.00     0.083 H 
ATOM      9  H6  AV4 d   1      98.341 247.644   5.555  0.00  0.00     0.084 H 
ATOM     10  H14 AV4 d   1      97.303 243.864   3.875  0.00  0.00     0.086 H 
ENDROOT
BRANCH   5  11
ATOM     11  C7  AV4 d   1      95.870 248.376   6.376  0.00  0.00    -0.025 A 
ATOM     12  C13 AV4 d   1      95.364 248.367   7.677  0.00  0.00    -0.072 A 
ATOM     13  C12 AV4 d   1      95.034 249.550   8.315  0.00  0.00    -0.081 A 
ATOM     14  H3  AV4 d   1      95.228 247.423   8.193  0.00  0.00     0.084 H 
ATOM     15  C11 AV4 d   1      95.201 250.759   7.666  0.00  0.00    -0.066 A 
ATOM     16  H2  AV4 d   1      94.644 249.528   9.326  0.00  0.00     0.083 H 
ATOM     17  C9  AV4 d   1      95.702 250.794   6.370  0.00  0.00     0.041 A 
ATOM     18  H1  AV4 d   1      94.940 251.683   8.169  0.00  0.00     0.085 H 
ATOM     19  C8  AV4 d   1      96.026 249.601   5.731  0.00  0.00    -0.056 A 
ATOM     20  H7  AV4 d   1      96.406 249.625   4.716  0.00  0.00     0.086 H 
BRANCH  17  21
ATOM     21  C10 AV4 d   1      95.969 252.108   5.683  0.00  0.00     0.209 C 
ATOM     22  O   AV4 d   1      97.065 252.657   5.923  0.00  0.00    -0.644 OA
ATOM     23  O1  AV4 d   1      95.090 252.562   4.902  0.00  0.00    -0.644 OA
ENDBRANCH  17  21
ENDBRANCH   5  11
BRANCH   2  24
ATOM     24  N   AV4 d   1      94.736 244.006   4.467  0.00  0.00    -0.390 N 
BRANCH  24  25
ATOM     25  C   AV4 d   1      93.345 244.219   4.826  0.00  0.00    -0.019 C 
ATOM     26  H8  AV4 d   1      92.750 243.344   4.524  0.00  0.00     0.056 H 
ATOM     27  H9  AV4 d   1      92.967 245.115   4.312  0.00  0.00     0.056 H 
ATOM     28  H10 AV4 d   1      93.264 244.359   5.914  0.00  0.00     0.056 H 
ENDBRANCH  24  25
BRANCH  24  29
ATOM     29  C1  AV4 d   1      95.112 242.603   4.433  0.00  0.00    -0.019 C 
ATOM     30  H11 AV4 d   1      96.173 242.514   4.156  0.00  0.00     0.056 H 
ATOM     31  H12 AV4 d   1      94.494 242.076   3.692  0.00  0.00     0.056 H 
ATOM     32  H13 AV4 d   1      94.954 242.157   5.426  0.00  0.00     0.056 H 
ENDBRANCH  24  29
ENDBRANCH   2  24
TORSDOF 5
