REMARK  5 active torsions:
REMARK  status: ('A' for Active; 'I' for Inactive)
REMARK    1  A    between atoms: C1_4  and  N_1 
REMARK    2  A    between atoms: N_1  and  S_20 
REMARK    3  A    between atoms: S_20  and  C_2 
REMARK    4  A    between atoms: C11_6  and  C12_7 
REMARK    5  A    between atoms: C6_13  and  C7_14 
ROOT
ATOM      1  C1  GA6 d   1      99.508 247.923   5.349  0.00  0.00     0.042 A 
ATOM      2  C2  GA6 d   1      98.318 247.817   4.645  0.00  0.00    -0.056 A 
ATOM      3  C3  GA6 d   1      97.361 248.809   4.743  0.00  0.00    -0.070 A 
ATOM      4  C4  GA6 d   1      99.724 249.038   6.150  0.00  0.00    -0.056 A 
ATOM      5  C5  GA6 d   1      98.764 250.030   6.238  0.00  0.00    -0.070 A 
ATOM      6  C6  GA6 d   1      97.565 249.938   5.535  0.00  0.00    -0.026 A 
ATOM      7  H7  GA6 d   1      98.138 246.953   4.016  0.00  0.00     0.087 H 
ATOM      8  H8  GA6 d   1      96.433 248.707   4.193  0.00  0.00     0.084 H 
ATOM      9  H9  GA6 d   1     100.649 249.131   6.708  0.00  0.00     0.087 H 
ATOM     10  H10 GA6 d   1      98.948 250.895   6.865  0.00  0.00     0.084 H 
ENDROOT
BRANCH   6  11
ATOM     11  C7  GA6 d   1      96.556 251.024   5.587  0.00  0.00    -0.025 A 
ATOM     12  C13 GA6 d   1      96.941 252.358   5.448  0.00  0.00    -0.056 A 
ATOM     13  C11 GA6 d   1      95.994 253.376   5.375  0.00  0.00     0.041 A 
ATOM     14  H6  GA6 d   1      97.995 252.606   5.396  0.00  0.00     0.086 H 
ATOM     15  C10 GA6 d   1      94.645 253.056   5.467  0.00  0.00    -0.066 A 
ATOM     16  C9  GA6 d   1      94.251 251.742   5.630  0.00  0.00    -0.081 A 
ATOM     17  H5  GA6 d   1      93.899 253.840   5.411  0.00  0.00     0.085 H 
ATOM     18  C8  GA6 d   1      95.195 250.734   5.690  0.00  0.00    -0.072 A 
ATOM     19  H12 GA6 d   1      93.197 251.500   5.711  0.00  0.00     0.083 H 
ATOM     20  H11 GA6 d   1      94.874 249.707   5.819  0.00  0.00     0.084 H 
BRANCH  13  21
ATOM     21  C12 GA6 d   1      96.425 254.780   5.142  0.00  0.00     0.209 C 
ATOM     22  O   GA6 d   1      95.451 255.631   4.993  0.00  0.00    -0.644 OA
ATOM     23  O1  GA6 d   1      97.606 255.097   5.116  0.00  0.00    -0.644 OA
ENDBRANCH  13  21
ENDBRANCH   6  11
BRANCH   1  24
ATOM     24  N   GA6 d   1     100.453 246.854   5.299  0.00  0.00    -0.285 N 
ATOM     25  H1  GA6 d   1     100.223 246.128   4.651  0.00  0.00     0.178 HD
BRANCH  24  26
ATOM     26  S   GA6 d   1     101.841 246.614   6.115  0.00  0.00     0.227 S 
ATOM     27  O2  GA6 d   1     101.474 246.327   7.468  0.00  0.00    -0.206 OA
ATOM     28  O3  GA6 d   1     102.595 245.644   5.384  0.00  0.00    -0.206 OA
BRANCH  26  29
ATOM     29  C   GA6 d   1     102.717 248.130   6.090  0.00  0.00     0.033 C 
ATOM     30  H2  GA6 d   1     103.667 248.014   6.633  0.00  0.00     0.051 H 
ATOM     31  H3  GA6 d   1     102.112 248.911   6.573  0.00  0.00     0.051 H 
ATOM     32  H4  GA6 d   1     102.923 248.417   5.048  0.00  0.00     0.051 H 
ENDBRANCH  26  29
ENDBRANCH  24  26
ENDBRANCH   1  24
TORSDOF 5
