REMARK  6 active torsions:
REMARK  status: ('A' for Active; 'I' for Inactive)
REMARK    1  A    between atoms: C1_4  and  N_1 
REMARK    2  A    between atoms: N_1  and  S_21 
REMARK    3  A    between atoms: S_21  and  C_2 
REMARK    4  A    between atoms: C2_10  and  C1_4 
REMARK    5  A    between atoms: C11_6  and  C12_7 
REMARK    6  A    between atoms: C6_14  and  C7_15 
ROOT
ATOM      1  C14 M8Q d   1       7.454  38.942 140.605  0.00  0.00    -0.065 A 
ATOM      2  C2  M8Q d   1       7.728  39.690 139.465  0.00  0.00    -0.039 A 
ATOM      3  C3  M8Q d   1       9.010  40.187 139.294  0.00  0.00    -0.075 A 
ATOM      4  C4  M8Q d   1       9.994  39.938 140.235  0.00  0.00    -0.082 A 
ATOM      5  C5  M8Q d   1       9.709  39.184 141.359  0.00  0.00    -0.072 A 
ATOM      6  C6  M8Q d   1       8.432  38.668 141.560  0.00  0.00    -0.025 A 
ATOM      7  H9  M8Q d   1       6.450  38.561 140.755  0.00  0.00     0.085 H 
ATOM      8  H10 M8Q d   1       9.245  40.776 138.415  0.00  0.00     0.084 H 
ATOM      9  H11 M8Q d   1      10.992  40.336 140.090  0.00  0.00     0.083 H 
ATOM     10  H12 M8Q d   1      10.487  38.993 142.090  0.00  0.00     0.084 H 
ENDROOT
BRANCH   6  11
ATOM     11  C7  M8Q d   1       8.121  37.810 142.733  0.00  0.00    -0.025 A 
ATOM     12  C13 M8Q d   1       8.235  38.313 144.029  0.00  0.00    -0.056 A 
ATOM     13  C11 M8Q d   1       7.955  37.522 145.138  0.00  0.00     0.041 A 
ATOM     14  H8  M8Q d   1       8.548  39.341 144.175  0.00  0.00     0.086 H 
ATOM     15  C10 M8Q d   1       7.555  36.206 144.949  0.00  0.00    -0.066 A 
ATOM     16  C9  M8Q d   1       7.437  35.692 143.670  0.00  0.00    -0.081 A 
ATOM     17  H7  M8Q d   1       7.335  35.580 145.806  0.00  0.00     0.085 H 
ATOM     18  C8  M8Q d   1       7.717  36.486 142.571  0.00  0.00    -0.072 A 
ATOM     19  H14 M8Q d   1       7.124  34.664 143.528  0.00  0.00     0.083 H 
ATOM     20  H13 M8Q d   1       7.621  36.073 141.573  0.00  0.00     0.084 H 
BRANCH  13  21
ATOM     21  C12 M8Q d   1       8.089  38.092 146.528  0.00  0.00     0.209 C 
ATOM     22  O   M8Q d   1       8.457  39.284 146.635  0.00  0.00    -0.644 OA
ATOM     23  O1  M8Q d   1       7.826  37.338 147.498  0.00  0.00    -0.644 OA
ENDBRANCH  13  21
ENDBRANCH   6  11
BRANCH   2  24
ATOM     24  C1  M8Q d   1       6.661  39.918 138.423  0.00  0.00     0.026 C 
ATOM     25  H5  M8Q d   1       7.015  39.513 137.464  0.00  0.00     0.072 H 
ATOM     26  H6  M8Q d   1       5.750  39.385 138.732  0.00  0.00     0.072 H 
BRANCH  24  27
ATOM     27  N   M8Q d   1       6.334  41.339 138.240  0.00  0.00    -0.316 N 
ATOM     28  H1  M8Q d   1       6.783  41.819 137.486  0.00  0.00     0.172 HD
BRANCH  27  29
ATOM     29  S   M8Q d   1       5.308  42.193 139.155  0.00  0.00     0.223 S 
ATOM     30  O2  M8Q d   1       5.473  41.735 140.500  0.00  0.00    -0.206 OA
ATOM     31  O3  M8Q d   1       5.544  43.573 138.865  0.00  0.00    -0.206 OA
BRANCH  29  32
ATOM     32  C   M8Q d   1       3.683  41.796 138.638  0.00  0.00     0.032 C 
ATOM     33  H2  M8Q d   1       2.958  42.361 139.242  0.00  0.00     0.051 H 
ATOM     34  H3  M8Q d   1       3.509  40.718 138.771  0.00  0.00     0.051 H 
ATOM     35  H4  M8Q d   1       3.561  42.059 137.577  0.00  0.00     0.051 H 
ENDBRANCH  29  32
ENDBRANCH  27  29
ENDBRANCH  24  27
ENDBRANCH   2  24
TORSDOF 6
