REMARK  6 active torsions:
REMARK  status: ('A' for Active; 'I' for Inactive)
REMARK    1  A    between atoms: C7_5  and  C3_15 
REMARK    2  A    between atoms: C1_9  and  C_8 
REMARK    3  A    between atoms: C13_13  and  C12_12 
REMARK    4  A    between atoms: N_17  and  C13_13 
REMARK    5  A    between atoms: S_21  and  C14_14 
REMARK    6  A    between atoms: N_17  and  S_21 
ROOT
ATOM      1  C7  Z8R d   1      95.571 245.530   5.537  0.00  0.00    -0.026 A 
ATOM      2  C8  Z8R d   1      96.773 245.083   4.992  0.00  0.00    -0.072 A 
ATOM      3  C10 Z8R d   1      94.425 244.788   5.262  0.00  0.00    -0.072 A 
ATOM      4  C11 Z8R d   1      94.479 243.655   4.473  0.00  0.00    -0.074 A 
ATOM      5  C12 Z8R d   1      95.676 243.219   3.932  0.00  0.00    -0.040 A 
ATOM      6  C9  Z8R d   1      96.823 243.946   4.206  0.00  0.00    -0.074 A 
ATOM      7  H5  Z8R d   1      97.685 245.636   5.187  0.00  0.00     0.084 H 
ATOM      8  H6  Z8R d   1      93.474 245.105   5.674  0.00  0.00     0.084 H 
ATOM      9  H7  Z8R d   1      93.570 243.099   4.275  0.00  0.00     0.084 H 
ATOM     10  H13 Z8R d   1      97.773 243.619   3.799  0.00  0.00     0.084 H 
ENDROOT
BRANCH   1  11
ATOM     11  C3  Z8R d   1      95.495 246.805   6.292  0.00  0.00    -0.025 A 
ATOM     12  C2  Z8R d   1      95.934 247.996   5.712  0.00  0.00    -0.056 A 
ATOM     13  C1  Z8R d   1      95.919 249.190   6.428  0.00  0.00     0.041 A 
ATOM     14  H1  Z8R d   1      96.292 247.991   4.689  0.00  0.00     0.086 H 
ATOM     15  C6  Z8R d   1      95.476 249.190   7.744  0.00  0.00    -0.066 A 
ATOM     16  C5  Z8R d   1      95.038 248.018   8.330  0.00  0.00    -0.081 A 
ATOM     17  H4  Z8R d   1      95.474 250.112   8.313  0.00  0.00     0.085 H 
ATOM     18  C4  Z8R d   1      95.041 246.836   7.610  0.00  0.00    -0.072 A 
ATOM     19  H3  Z8R d   1      94.691 248.024   9.357  0.00  0.00     0.083 H 
ATOM     20  H2  Z8R d   1      94.686 245.924   8.076  0.00  0.00     0.084 H 
BRANCH  13  21
ATOM     21  C   Z8R d   1      96.332 250.475   5.757  0.00  0.00     0.209 C 
ATOM     22  O   Z8R d   1      96.670 250.422   4.550  0.00  0.00    -0.644 OA
ATOM     23  O1  Z8R d   1      96.315 251.523   6.444  0.00  0.00    -0.644 OA
ENDBRANCH  13  21
ENDBRANCH   1  11
BRANCH   5  24
ATOM     24  C13 Z8R d   1      95.699 242.021   3.015  0.00  0.00     0.026 C 
ATOM     25  H8  Z8R d   1      94.678 241.619   2.934  0.00  0.00     0.072 H 
ATOM     26  H9  Z8R d   1      96.360 241.257   3.449  0.00  0.00     0.072 H 
BRANCH  24  27
ATOM     27  N   Z8R d   1      96.184 242.353   1.666  0.00  0.00    -0.316 N 
ATOM     28  H14 Z8R d   1      95.996 243.259   1.286  0.00  0.00     0.172 HD
BRANCH  27  29
ATOM     29  S   Z8R d   1      97.016 241.279   0.787  0.00  0.00     0.223 S 
ATOM     30  O2  Z8R d   1      97.347 240.192   1.656  0.00  0.00    -0.206 OA
ATOM     31  O3  Z8R d   1      98.074 241.995   0.147  0.00  0.00    -0.206 OA
BRANCH  29  32
ATOM     32  C14 Z8R d   1      95.937 240.675  -0.454  0.00  0.00     0.032 C 
ATOM     33  H10 Z8R d   1      95.668 241.495  -1.136  0.00  0.00     0.051 H 
ATOM     34  H11 Z8R d   1      95.026 240.274   0.015  0.00  0.00     0.051 H 
ATOM     35  H12 Z8R d   1      96.439 239.877  -1.020  0.00  0.00     0.051 H 
ENDBRANCH  29  32
ENDBRANCH  27  29
ENDBRANCH  24  27
ENDBRANCH   5  24
TORSDOF 6
