REMARK  4 active torsions:
REMARK  status: ('A' for Active; 'I' for Inactive)
REMARK    1  A    between atoms: C6_14  and  N_5 
REMARK       I    between atoms: N_5  and  C7_15 
REMARK    2  A    between atoms: C1_8  and  C_6 
REMARK    3  A    between atoms: C4_12  and  C3_11 
REMARK    4  A    between atoms: C7_15  and  C8_16 
ROOT
ATOM      1  C10 AV7 d   1      90.722 233.178  -4.130  0.00  0.00    -0.080 A 
ATOM      2  C11 AV7 d   1      91.877 232.843  -4.813  0.00  0.00    -0.072 A 
ATOM      3  C4  AV7 d   1      92.933 233.746  -4.909  0.00  0.00    -0.024 A 
ATOM      4  C5  AV7 d   1      92.774 235.010  -4.344  0.00  0.00    -0.046 A 
ATOM      5  C6  AV7 d   1      91.606 235.357  -3.678  0.00  0.00     0.035 A 
ATOM      6  C9  AV7 d   1      90.589 234.424  -3.546  0.00  0.00    -0.057 A 
ATOM      7  H1  AV7 d   1      89.915 232.458  -4.052  0.00  0.00     0.083 H 
ATOM      8  H3  AV7 d   1      91.961 231.868  -5.278  0.00  0.00     0.084 H 
ATOM      9  H8  AV7 d   1      93.576 235.735  -4.426  0.00  0.00     0.088 H 
ATOM     10  H12 AV7 d   1      89.693 234.671  -2.987  0.00  0.00     0.086 H 
ENDROOT
BRANCH   3  11
ATOM     11  C3  AV7 d   1      94.235 233.336  -5.488  0.00  0.00    -0.025 A 
ATOM     12  C12 AV7 d   1      95.128 234.271  -6.010  0.00  0.00    -0.072 A 
ATOM     13  C13 AV7 d   1      96.359 233.871  -6.505  0.00  0.00    -0.081 A 
ATOM     14  H4  AV7 d   1      94.857 235.320  -6.029  0.00  0.00     0.084 H 
ATOM     15  C14 AV7 d   1      96.719 232.534  -6.483  0.00  0.00    -0.066 A 
ATOM     16  H2  AV7 d   1      97.043 234.608  -6.911  0.00  0.00     0.083 H 
ATOM     17  C1  AV7 d   1      95.848 231.586  -5.959  0.00  0.00     0.041 A 
ATOM     18  H6  AV7 d   1      97.682 232.226  -6.875  0.00  0.00     0.085 H 
ATOM     19  C2  AV7 d   1      94.612 231.996  -5.477  0.00  0.00    -0.056 A 
ATOM     20  H7  AV7 d   1      93.925 231.256  -5.083  0.00  0.00     0.086 H 
BRANCH  17  21
ATOM     21  C   AV7 d   1      96.221 230.149  -5.877  0.00  0.00     0.209 C 
ATOM     22  O   AV7 d   1      97.395 229.853  -6.347  0.00  0.00    -0.644 OA
ATOM     23  O2  AV7 d   1      95.462 229.324  -5.377  0.00  0.00    -0.644 OA
ENDBRANCH  17  21
ENDBRANCH   3  11
BRANCH   5  24
ATOM     24  N   AV7 d   1      91.402 236.679  -3.219  0.00  0.00    -0.327 N 
ATOM     25  C7  AV7 d   1      90.320 237.178  -2.573  0.00  0.00     0.218 C 
ATOM     26  O1  AV7 d   1      89.605 236.502  -1.842  0.00  0.00    -0.274 OA
ATOM     27  H5  AV7 d   1      92.146 237.324  -3.392  0.00  0.00     0.169 HD
BRANCH  25  28
ATOM     28  C8  AV7 d   1      90.023 238.619  -2.861  0.00  0.00    -0.003 C 
ATOM     29  H9  AV7 d   1      89.133 238.930  -2.294  0.00  0.00     0.040 H 
ATOM     30  H10 AV7 d   1      89.835 238.747  -3.937  0.00  0.00     0.040 H 
ATOM     31  H11 AV7 d   1      90.882 239.237  -2.563  0.00  0.00     0.040 H 
ENDBRANCH  25  28
ENDBRANCH   5  24
TORSDOF 4
