REMARK  4 active torsions:
REMARK  status: ('A' for Active; 'I' for Inactive)
REMARK       I    between atoms: N_1  and  C1_4 
REMARK    1  A    between atoms: C2_10  and  N_1 
REMARK    2  A    between atoms: C1_4  and  C_2 
REMARK    3  A    between atoms: C12_7  and  C14_9 
REMARK    4  A    between atoms: C5_13  and  C8_16 
ROOT
ATOM      1  C2  S1C d   1      96.246 235.342  -5.116  0.00  0.00     0.034 A 
ATOM      2  C3  S1C d   1      97.341 234.495  -5.215  0.00  0.00    -0.056 A 
ATOM      3  C4  S1C d   1      97.293 233.388  -6.043  0.00  0.00    -0.070 A 
ATOM      4  C5  S1C d   1      96.158 233.096  -6.795  0.00  0.00    -0.026 A 
ATOM      5  C6  S1C d   1      95.074 233.967  -6.700  0.00  0.00    -0.070 A 
ATOM      6  C7  S1C d   1      95.114 235.075  -5.874  0.00  0.00    -0.056 A 
ATOM      7  H8  S1C d   1      98.237 234.702  -4.641  0.00  0.00     0.086 H 
ATOM      8  H9  S1C d   1      98.156 232.735  -6.108  0.00  0.00     0.084 H 
ATOM      9  H10 S1C d   1      94.183 233.772  -7.285  0.00  0.00     0.084 H 
ATOM     10  H11 S1C d   1      94.258 235.738  -5.818  0.00  0.00     0.086 H 
ENDROOT
BRANCH   4  11
ATOM     11  C8  S1C d   1      96.087 231.873  -7.632  0.00  0.00    -0.025 A 
ATOM     12  C13 S1C d   1      96.374 230.623  -7.083  0.00  0.00    -0.056 A 
ATOM     13  C12 S1C d   1      96.283 229.465  -7.851  0.00  0.00     0.041 A 
ATOM     14  H7  S1C d   1      96.672 230.552  -6.043  0.00  0.00     0.086 H 
ATOM     15  C11 S1C d   1      95.906 229.559  -9.184  0.00  0.00    -0.066 A 
ATOM     16  C10 S1C d   1      95.626 230.792  -9.742  0.00  0.00    -0.081 A 
ATOM     17  H6  S1C d   1      95.831 228.663  -9.789  0.00  0.00     0.085 H 
ATOM     18  C9  S1C d   1      95.714 231.940  -8.974  0.00  0.00    -0.072 A 
ATOM     19  H5  S1C d   1      95.337 230.860 -10.784  0.00  0.00     0.083 H 
ATOM     20  H12 S1C d   1      95.490 232.902  -9.421  0.00  0.00     0.084 H 
BRANCH  13  21
ATOM     21  C14 S1C d   1      96.571 228.140  -7.240  0.00  0.00     0.209 C 
ATOM     22  O1  S1C d   1      96.912 228.031  -6.069  0.00  0.00    -0.644 OA
ATOM     23  O2  S1C d   1      96.431 227.125  -8.047  0.00  0.00    -0.644 OA
ENDBRANCH  13  21
ENDBRANCH   4  11
BRANCH   1  24
ATOM     24  N   S1C d   1      96.257 236.438  -4.224  0.00  0.00    -0.328 N 
ATOM     25  C1  S1C d   1      97.327 237.119  -3.746  0.00  0.00     0.218 C 
ATOM     26  O   S1C d   1      98.479 236.889  -4.101  0.00  0.00    -0.274 OA
ATOM     27  H1  S1C d   1      95.362 236.751  -3.905  0.00  0.00     0.169 HD
BRANCH  25  28
ATOM     28  C   S1C d   1      97.003 238.179  -2.735  0.00  0.00    -0.003 C 
ATOM     29  H2  S1C d   1      97.931 238.672  -2.410  0.00  0.00     0.040 H 
ATOM     30  H3  S1C d   1      96.509 237.719  -1.867  0.00  0.00     0.040 H 
ATOM     31  H4  S1C d   1      96.332 238.924  -3.187  0.00  0.00     0.040 H 
ENDBRANCH  25  28
ENDBRANCH   1  24
TORSDOF 4
