REMARK  6 active torsions:
REMARK  status: ('A' for Active; 'I' for Inactive)
REMARK       I    between atoms: N_1  and  C1_4 
REMARK    1  A    between atoms: C2_12  and  N_1 
REMARK    2  A    between atoms: C1_4  and  C_2 
REMARK    3  A    between atoms: C13_8  and  C14_9 
REMARK    4  A    between atoms: C3_13  and  C2_12 
REMARK    5  A    between atoms: C4_14  and  C3_13 
REMARK    6  A    between atoms: C8_18  and  C9_19 
ROOT
ATOM      1  C16 QIU d   1      97.816 247.912   5.958  0.00  0.00    -0.066 A 
ATOM      2  C4  QIU d   1      98.870 247.005   5.967  0.00  0.00    -0.056 A 
ATOM      3  C5  QIU d   1      98.691 245.781   5.341  0.00  0.00    -0.077 A 
ATOM      4  C6  QIU d   1      97.488 245.468   4.736  0.00  0.00    -0.082 A 
ATOM      5  C7  QIU d   1      96.448 246.379   4.740  0.00  0.00    -0.072 A 
ATOM      6  C8  QIU d   1      96.598 247.621   5.346  0.00  0.00    -0.025 A 
ATOM      7  H9  QIU d   1      97.945 248.874   6.441  0.00  0.00     0.085 H 
ATOM      8  H14 QIU d   1      99.502 245.062   5.326  0.00  0.00     0.084 H 
ATOM      9  H15 QIU d   1      97.360 244.504   4.256  0.00  0.00     0.083 H 
ATOM     10  H16 QIU d   1      95.507 246.123   4.266  0.00  0.00     0.084 H 
ENDROOT
BRANCH   2  11
ATOM     11  C3  QIU d   1     100.163 247.344   6.674  0.00  0.00    -0.026 C 
ATOM     12  H12 QIU d   1     100.645 248.173   6.134  0.00  0.00     0.042 H 
ATOM     13  H13 QIU d   1      99.923 247.664   7.699  0.00  0.00     0.042 H 
BRANCH  11  14
ATOM     14  C2  QIU d   1     101.151 246.186   6.754  0.00  0.00    -0.001 C 
ATOM     15  H10 QIU d   1     101.374 245.841   5.734  0.00  0.00     0.064 H 
ATOM     16  H11 QIU d   1     102.076 246.543   7.231  0.00  0.00     0.064 H 
BRANCH  14  17
ATOM     17  N   QIU d   1     100.630 245.063   7.525  0.00  0.00    -0.361 N 
ATOM     18  C1  QIU d   1     100.435 245.108   8.844  0.00  0.00     0.213 C 
ATOM     19  O2  QIU d   1     100.626 246.132   9.496  0.00  0.00    -0.274 OA
ATOM     20  H1  QIU d   1     100.408 244.217   7.041  0.00  0.00     0.162 HD
BRANCH  18  21
ATOM     21  C   QIU d   1      99.972 243.833   9.487  0.00  0.00    -0.003 C 
ATOM     22  H2  QIU d   1      99.847 243.992  10.568  0.00  0.00     0.040 H 
ATOM     23  H3  QIU d   1     100.719 243.044   9.317  0.00  0.00     0.040 H 
ATOM     24  H4  QIU d   1      99.011 243.529   9.047  0.00  0.00     0.040 H 
ENDBRANCH  18  21
ENDBRANCH  14  17
ENDBRANCH  11  14
ENDBRANCH   2  11
BRANCH   6  25
ATOM     25  C9  QIU d   1      95.509 248.635   5.313  0.00  0.00    -0.025 A 
ATOM     26  C10 QIU d   1      94.167 248.260   5.365  0.00  0.00    -0.072 A 
ATOM     27  C11 QIU d   1      93.164 249.212   5.302  0.00  0.00    -0.081 A 
ATOM     28  H5  QIU d   1      93.906 247.212   5.456  0.00  0.00     0.084 H 
ATOM     29  C12 QIU d   1      93.481 250.554   5.185  0.00  0.00    -0.066 A 
ATOM     30  H6  QIU d   1      92.125 248.905   5.345  0.00  0.00     0.083 H 
ATOM     31  C13 QIU d   1      94.810 250.955   5.131  0.00  0.00     0.041 A 
ATOM     32  H7  QIU d   1      92.691 251.294   5.135  0.00  0.00     0.085 H 
ATOM     33  C15 QIU d   1      95.813 249.992   5.199  0.00  0.00    -0.056 A 
ATOM     34  H8  QIU d   1      96.851 250.303   5.163  0.00  0.00     0.086 H 
BRANCH  31  35
ATOM     35  C14 QIU d   1      95.169 252.413   4.979  0.00  0.00     0.209 C 
ATOM     36  O   QIU d   1      94.231 253.238   4.862  0.00  0.00    -0.644 OA
ATOM     37  O1  QIU d   1      96.384 252.720   4.979  0.00  0.00    -0.644 OA
ENDBRANCH  31  35
ENDBRANCH   6  25
TORSDOF 6
