REMARK  3 active torsions:
REMARK  status: ('A' for Active; 'I' for Inactive)
REMARK    1  A    between atoms: C1_4  and  C_2 
REMARK    2  A    between atoms: C4_11  and  C3_10 
REMARK    3  A    between atoms: C8_15  and  C9_16 
ROOT
ATOM      1  C10 V7V d   1      76.060 234.612  36.247  0.00  0.00    -0.059 A 
ATOM      2  C4  V7V d   1      77.093 235.055  35.418  0.00  0.00    -0.025 A 
ATOM      3  C5  V7V d   1      76.866 236.171  34.613  0.00  0.00    -0.072 A 
ATOM      4  C6  V7V d   1      75.640 236.813  34.621  0.00  0.00    -0.081 A 
ATOM      5  C7  V7V d   1      74.620 236.353  35.433  0.00  0.00    -0.069 A 
ATOM      6  C8  V7V d   1      74.822 235.251  36.254  0.00  0.00     0.014 A 
ATOM      7  H1  V7V d   1      76.224 233.758  36.895  0.00  0.00     0.086 H 
ATOM      8  H6  V7V d   1      77.659 236.540  33.973  0.00  0.00     0.084 H 
ATOM      9  H7  V7V d   1      75.479 237.679  33.989  0.00  0.00     0.083 H 
ATOM     10  H8  V7V d   1      73.659 236.854  35.429  0.00  0.00     0.085 H 
ENDROOT
BRANCH   2  11
ATOM     11  C3  V7V d   1      78.379 234.313  35.348  0.00  0.00    -0.025 A 
ATOM     12  C11 V7V d   1      79.599 234.988  35.346  0.00  0.00    -0.072 A 
ATOM     13  C12 V7V d   1      80.789 234.299  35.190  0.00  0.00    -0.081 A 
ATOM     14  H2  V7V d   1      79.616 236.065  35.468  0.00  0.00     0.084 H 
ATOM     15  C13 V7V d   1      80.782 232.924  35.038  0.00  0.00    -0.066 A 
ATOM     16  H3  V7V d   1      81.729 234.838  35.187  0.00  0.00     0.083 H 
ATOM     17  C1  V7V d   1      79.581 232.225  35.045  0.00  0.00     0.041 A 
ATOM     18  H4  V7V d   1      81.717 232.390  34.913  0.00  0.00     0.085 H 
ATOM     19  C2  V7V d   1      78.388 232.924  35.208  0.00  0.00    -0.056 A 
ATOM     20  H5  V7V d   1      77.450 232.381  35.227  0.00  0.00     0.086 H 
BRANCH  17  21
ATOM     21  C   V7V d   1      79.559 230.729  34.847  0.00  0.00     0.209 C 
ATOM     22  O   V7V d   1      80.658 230.127  34.784  0.00  0.00    -0.644 OA
ATOM     23  O1  V7V d   1      78.441 230.171  34.748  0.00  0.00    -0.644 OA
ENDBRANCH  17  21
ENDBRANCH   2  11
BRANCH   6  24
ATOM     24  C9  V7V d   1      73.745 234.768  37.136  0.00  0.00     0.179 A 
ATOM     25  N   V7V d   1      72.520 235.265  37.212  0.00  0.00    -0.108 NA
ATOM     26  N1  V7V d   1      71.868 234.519  38.142  0.00  0.00    -0.023 NA
ATOM     27  N2  V7V d   1      72.646 233.602  38.622  0.00  0.00    -0.046 NA
ATOM     28  N3  V7V d   1      73.830 233.749  37.994  0.00  0.00    -0.239 N 
ATOM     29  H9  V7V d   1      74.666 233.168  38.151  0.00  0.00     0.192 HD
ENDBRANCH   6  24
TORSDOF 3
