REMARK  3 active torsions:
REMARK  status: ('A' for Active; 'I' for Inactive)
REMARK    1  A    between atoms: C3_16  and  C4_5 
REMARK    2  A    between atoms: C7_7  and  C8_9 
REMARK    3  A    between atoms: C1_11  and  C_10 
ROOT
ATOM      1  C4  L43 d   1      80.105 234.678  35.650  0.00  0.00    -0.026 A 
ATOM      2  C5  L43 d   1      79.890 236.028  35.918  0.00  0.00    -0.071 A 
ATOM      3  C7  L43 d   1      81.257 236.681  34.044  0.00  0.00     0.013 A 
ATOM      4  C6  L43 d   1      80.457 237.014  35.130  0.00  0.00    -0.068 A 
ATOM      5  C10 L43 d   1      80.913 234.352  34.563  0.00  0.00    -0.071 A 
ATOM      6  C9  L43 d   1      81.476 235.335  33.769  0.00  0.00    -0.068 A 
ATOM      7  H3  L43 d   1      79.267 236.311  36.759  0.00  0.00     0.084 H 
ATOM      8  H4  L43 d   1      80.275 238.057  35.362  0.00  0.00     0.085 H 
ATOM      9  H5  L43 d   1      81.104 233.310  34.335  0.00  0.00     0.084 H 
ATOM     10  H9  L43 d   1      82.094 235.054  32.924  0.00  0.00     0.085 H 
ENDROOT
BRANCH   1  11
ATOM     11  C3  L43 d   1      79.476 233.622  36.481  0.00  0.00    -0.025 A 
ATOM     12  C2  L43 d   1      79.222 232.360  35.945  0.00  0.00    -0.056 A 
ATOM     13  C1  L43 d   1      78.590 231.375  36.699  0.00  0.00     0.041 A 
ATOM     14  H1  L43 d   1      79.521 232.143  34.926  0.00  0.00     0.086 H 
ATOM     15  C13 L43 d   1      78.221 231.652  38.009  0.00  0.00    -0.066 A 
ATOM     16  C12 L43 d   1      78.481 232.893  38.558  0.00  0.00    -0.081 A 
ATOM     17  H8  L43 d   1      77.727 230.892  38.603  0.00  0.00     0.085 H 
ATOM     18  C11 L43 d   1      79.100 233.873  37.801  0.00  0.00    -0.072 A 
ATOM     19  H7  L43 d   1      78.200 233.100  39.584  0.00  0.00     0.083 H 
ATOM     20  H6  L43 d   1      79.295 234.846  38.238  0.00  0.00     0.084 H 
BRANCH  13  21
ATOM     21  C   L43 d   1      78.245 230.049  36.068  0.00  0.00     0.209 C 
ATOM     22  O   L43 d   1      77.541 229.253  36.732  0.00  0.00    -0.644 OA
ATOM     23  O1  L43 d   1      78.635 229.841  34.893  0.00  0.00    -0.644 OA
ENDBRANCH  13  21
ENDBRANCH   1  11
BRANCH   3  24
ATOM     24  C8  L43 d   1      81.897 237.729  33.231  0.00  0.00     0.179 A 
ATOM     25  N3  L43 d   1      81.856 239.042  33.472  0.00  0.00    -0.239 N 
ATOM     26  N2  L43 d   1      82.499 239.691  32.481  0.00  0.00    -0.046 NA
ATOM     27  H2  L43 d   1      81.406 239.487  34.284  0.00  0.00     0.192 HD
ATOM     28  N1  L43 d   1      82.915 238.779  31.663  0.00  0.00    -0.023 NA
ATOM     29  N   L43 d   1      82.559 237.542  32.100  0.00  0.00    -0.108 NA
ENDBRANCH   3  24
TORSDOF 3
