REMARK  2 active torsions:
REMARK  status: ('A' for Active; 'I' for Inactive)
REMARK    1  A    between atoms: C1_3  and  C_1 
REMARK    2  A    between atoms: C5_14  and  C6_15 
ROOT
ATOM      1  C10 TVC d   1     101.361 248.785   5.521  0.00  0.00    -0.082 A 
ATOM      2  C11 TVC d   1     100.993 247.565   4.981  0.00  0.00    -0.082 A 
ATOM      3  C12 TVC d   1      99.678 247.271   4.763  0.00  0.00    -0.072 A 
ATOM      4  C13 TVC d   1      98.664 248.210   5.071  0.00  0.00    -0.026 A 
ATOM      5  C14 TVC d   1      97.292 247.970   4.827  0.00  0.00    -0.071 A 
ATOM      6  C15 TVC d   1      96.360 248.934   5.064  0.00  0.00    -0.071 A 
ATOM      7  C6  TVC d   1      96.717 250.196   5.541  0.00  0.00    -0.025 A 
ATOM      8  C7  TVC d   1      98.043 250.432   5.846  0.00  0.00    -0.061 A 
ATOM      9  C8  TVC d   1      99.043 249.462   5.608  0.00  0.00    -0.025 A 
ATOM     10  C9  TVC d   1     100.416 249.718   5.835  0.00  0.00    -0.072 A 
ATOM     11  H1  TVC d   1     102.409 249.001   5.696  0.00  0.00     0.083 H 
ATOM     12  H2  TVC d   1     101.755 246.837   4.729  0.00  0.00     0.083 H 
ATOM     13  H3  TVC d   1      99.407 246.307   4.349  0.00  0.00     0.084 H 
ATOM     14  H4  TVC d   1      96.978 247.005   4.446  0.00  0.00     0.084 H 
ATOM     15  H5  TVC d   1      95.315 248.716   4.878  0.00  0.00     0.084 H 
ATOM     16  H10 TVC d   1      98.324 251.385   6.279  0.00  0.00     0.086 H 
ATOM     17  H11 TVC d   1     100.721 250.666   6.263  0.00  0.00     0.084 H 
ENDROOT
BRANCH   7  18
ATOM     18  C5  TVC d   1      95.745 251.316   5.541  0.00  0.00    -0.025 A 
ATOM     19  C16 TVC d   1      96.198 252.635   5.489  0.00  0.00    -0.056 A 
ATOM     20  C1  TVC d   1      95.315 253.689   5.277  0.00  0.00     0.041 A 
ATOM     21  H6  TVC d   1      97.255 252.841   5.616  0.00  0.00     0.086 H 
ATOM     22  C2  TVC d   1      93.957 253.426   5.162  0.00  0.00    -0.066 A 
ATOM     23  C3  TVC d   1      93.489 252.128   5.254  0.00  0.00    -0.081 A 
ATOM     24  H7  TVC d   1      93.261 254.241   5.000  0.00  0.00     0.085 H 
ATOM     25  C4  TVC d   1      94.374 251.081   5.445  0.00  0.00    -0.072 A 
ATOM     26  H8  TVC d   1      92.426 251.930   5.176  0.00  0.00     0.083 H 
ATOM     27  H9  TVC d   1      93.997 250.067   5.521  0.00  0.00     0.084 H 
BRANCH  20  28
ATOM     28  C   TVC d   1      95.841 255.094   5.112  0.00  0.00     0.209 C 
ATOM     29  O   TVC d   1      97.065 255.287   5.307  0.00  0.00    -0.644 OA
ATOM     30  O1  TVC d   1      95.026 255.985   4.775  0.00  0.00    -0.644 OA
ENDBRANCH  20  28
ENDBRANCH   7  18
TORSDOF 2
