REMARK  2 active torsions:
REMARK  status: ('A' for Active; 'I' for Inactive)
REMARK    1  A    between atoms: C1_4  and  C_2 
REMARK    2  A    between atoms: C5_14  and  C6_15 
ROOT
ATOM      1  N   Q92 d   1     126.297-100.424  33.085  0.00  0.00    -0.260 NA
ATOM      2  C10 Q92 d   1     126.983-100.385  34.218  0.00  0.00     0.003 A 
ATOM      3  C11 Q92 d   1     128.345-100.634  34.320  0.00  0.00    -0.065 A 
ATOM      4  C12 Q92 d   1     129.039-100.938  33.191  0.00  0.00    -0.069 A 
ATOM      5  C13 Q92 d   1     128.374-100.997  31.951  0.00  0.00    -0.007 A 
ATOM      6  C14 Q92 d   1     129.016-101.312  30.731  0.00  0.00    -0.060 A 
ATOM      7  C6  Q92 d   1     128.317-101.369  29.537  0.00  0.00    -0.025 A 
ATOM      8  C7  Q92 d   1     126.948-101.091  29.554  0.00  0.00    -0.070 A 
ATOM      9  C8  Q92 d   1     126.294-100.782  30.708  0.00  0.00    -0.053 A 
ATOM     10  C9  Q92 d   1     126.987-100.730  31.937  0.00  0.00     0.066 A 
ATOM     11  H1  Q92 d   1     126.444-100.142  35.127  0.00  0.00     0.114 H 
ATOM     12  H2  Q92 d   1     128.845-100.587  35.281  0.00  0.00     0.085 H 
ATOM     13  H3  Q92 d   1     130.104-101.135  33.245  0.00  0.00     0.085 H 
ATOM     14  H4  Q92 d   1     130.081-101.514  30.730  0.00  0.00     0.086 H 
ATOM     15  H9  Q92 d   1     126.392-101.122  28.624  0.00  0.00     0.084 H 
ATOM     16  H10 Q92 d   1     125.231-100.574  30.683  0.00  0.00     0.087 H 
ENDROOT
BRANCH   7  17
ATOM     17  C5  Q92 d   1     128.999-101.760  28.276  0.00  0.00    -0.025 A 
ATOM     18  C15 Q92 d   1     130.139-102.565  28.305  0.00  0.00    -0.056 A 
ATOM     19  C1  Q92 d   1     130.737-103.003  27.126  0.00  0.00     0.041 A 
ATOM     20  H5  Q92 d   1     130.565-102.853  29.259  0.00  0.00     0.086 H 
ATOM     21  C2  Q92 d   1     130.194-102.624  25.905  0.00  0.00    -0.066 A 
ATOM     22  C3  Q92 d   1     129.075-101.816  25.863  0.00  0.00    -0.081 A 
ATOM     23  H6  Q92 d   1     130.650-102.964  24.982  0.00  0.00     0.085 H 
ATOM     24  C4  Q92 d   1     128.482-101.384  27.036  0.00  0.00    -0.072 A 
ATOM     25  H7  Q92 d   1     128.659-101.519  24.907  0.00  0.00     0.083 H 
ATOM     26  H8  Q92 d   1     127.606-100.747  26.991  0.00  0.00     0.084 H 
BRANCH  19  27
ATOM     27  C   Q92 d   1     131.953-103.896  27.178  0.00  0.00     0.209 C 
ATOM     28  O   Q92 d   1     132.505-104.189  26.093  0.00  0.00    -0.644 OA
ATOM     29  O1  Q92 d   1     132.338-104.295  28.303  0.00  0.00    -0.644 OA
ENDBRANCH  19  27
ENDBRANCH   7  17
TORSDOF 2
