REMARK  2 active torsions:
REMARK  status: ('A' for Active; 'I' for Inactive)
REMARK    1  A    between atoms: C1_4  and  C_2 
REMARK    2  A    between atoms: C5_13  and  C6_14 
ROOT
ATOM      1  N   Q2S d   1      99.262 245.216   4.489  0.00  0.00    -0.365 N 
ATOM      2  C10 Q2S d   1     100.551 245.511   4.850  0.00  0.00    -0.022 A 
ATOM      3  C11 Q2S d   1     100.595 246.723   5.459  0.00  0.00    -0.056 A 
ATOM      4  C12 Q2S d   1      99.250 247.226   5.486  0.00  0.00    -0.007 A 
ATOM      5  C13 Q2S d   1      98.643 248.383   5.973  0.00  0.00    -0.060 A 
ATOM      6  C6  Q2S d   1      97.264 248.575   5.865  0.00  0.00    -0.025 A 
ATOM      7  C7  Q2S d   1      96.497 247.585   5.233  0.00  0.00    -0.070 A 
ATOM      8  C8  Q2S d   1      97.071 246.424   4.736  0.00  0.00    -0.056 A 
ATOM      9  C9  Q2S d   1      98.444 246.254   4.870  0.00  0.00     0.042 A 
ATOM     10  H1  Q2S d   1      98.956 244.357   4.010  0.00  0.00     0.165 HD
ATOM     11  H2  Q2S d   1     101.412 244.868   4.674  0.00  0.00     0.111 H 
ATOM     12  H3  Q2S d   1     101.481 247.219   5.852  0.00  0.00     0.086 H 
ATOM     13  H4  Q2S d   1      99.252 249.147   6.444  0.00  0.00     0.086 H 
ATOM     14  H9  Q2S d   1      95.428 247.731   5.130  0.00  0.00     0.084 H 
ATOM     15  H10 Q2S d   1      96.463 245.667   4.254  0.00  0.00     0.087 H 
ENDROOT
BRANCH   6  16
ATOM     16  C5  Q2S d   1      96.625 249.778   6.472  0.00  0.00    -0.025 A 
ATOM     17  C14 Q2S d   1      96.515 250.967   5.750  0.00  0.00    -0.056 A 
ATOM     18  C1  Q2S d   1      95.966 252.113   6.319  0.00  0.00     0.041 A 
ATOM     19  H5  Q2S d   1      96.864 250.999   4.724  0.00  0.00     0.086 H 
ATOM     20  C2  Q2S d   1      95.515 252.066   7.634  0.00  0.00    -0.066 A 
ATOM     21  C3  Q2S d   1      95.608 250.891   8.360  0.00  0.00    -0.081 A 
ATOM     22  H6  Q2S d   1      95.090 252.952   8.091  0.00  0.00     0.085 H 
ATOM     23  C4  Q2S d   1      96.155 249.757   7.786  0.00  0.00    -0.072 A 
ATOM     24  H7  Q2S d   1      95.251 250.859   9.383  0.00  0.00     0.083 H 
ATOM     25  H8  Q2S d   1      96.219 248.842   8.364  0.00  0.00     0.084 H 
BRANCH  18  26
ATOM     26  C   Q2S d   1      95.897 253.396   5.528  0.00  0.00     0.209 C 
ATOM     27  O   Q2S d   1      96.846 254.210   5.666  0.00  0.00    -0.644 OA
ATOM     28  O1  Q2S d   1      94.896 253.587   4.781  0.00  0.00    -0.644 OA
ENDBRANCH  18  26
ENDBRANCH   6  16
TORSDOF 2
