REMARK  2 active torsions:
REMARK  status: ('A' for Active; 'I' for Inactive)
REMARK    1  A    between atoms: C1_1  and  C_9 
REMARK    2  A    between atoms: C3_3  and  C4_4 
ROOT
ATOM      1  C1  AVA d   1      96.310 250.977   6.167  0.00  0.00     0.041 A 
ATOM      2  C2  AVA d   1      96.596 250.916   7.526  0.00  0.00    -0.054 A 
ATOM      3  C3  AVA d   1      96.638 249.701   8.205  0.00  0.00    -0.006 A 
ATOM      4  C10 AVA d   1      96.103 248.581   6.135  0.00  0.00    -0.081 A 
ATOM      5  C11 AVA d   1      96.067 249.796   5.474  0.00  0.00    -0.066 A 
ATOM      6  C9  AVA d   1      96.382 248.532   7.490  0.00  0.00    -0.071 A 
ATOM      7  H1  AVA d   1      96.790 251.834   8.069  0.00  0.00     0.086 H 
ATOM      8  H4  AVA d   1      95.912 247.664   5.590  0.00  0.00     0.083 H 
ATOM      9  H5  AVA d   1      95.849 249.827   4.413  0.00  0.00     0.085 H 
ATOM     10  H8  AVA d   1      96.402 247.576   8.000  0.00  0.00     0.084 H 
ENDROOT
BRANCH   3  11
ATOM     11  C4  AVA d   1      96.971 249.663   9.650  0.00  0.00     0.066 A 
ATOM     12  C5  AVA d   1      98.225 249.270  10.105  0.00  0.00    -0.054 A 
ATOM     13  C6  AVA d   1      98.473 249.284  11.464  0.00  0.00    -0.079 A 
ATOM     14  H2  AVA d   1      98.993 248.959   9.407  0.00  0.00     0.087 H 
ATOM     15  C7  AVA d   1      97.484 249.677  12.332  0.00  0.00    -0.066 A 
ATOM     16  H3  AVA d   1      99.444 248.986  11.843  0.00  0.00     0.083 H 
ATOM     17  C8  AVA d   1      96.268 250.051  11.803  0.00  0.00     0.003 A 
ATOM     18  H6  AVA d   1      97.655 249.692  13.402  0.00  0.00     0.085 H 
ATOM     19  N   AVA d   1      95.996 250.053  10.489  0.00  0.00    -0.260 NA
ATOM     20  H7  AVA d   1      95.487 250.361  12.487  0.00  0.00     0.114 H 
ENDBRANCH   3  11
BRANCH   1  21
ATOM     21  C   AVA d   1      96.294 252.311   5.462  0.00  0.00     0.209 C 
ATOM     22  O1  AVA d   1      97.262 253.077   5.669  0.00  0.00    -0.644 OA
ATOM     23  O   AVA d   1      95.306 252.588   4.723  0.00  0.00    -0.644 OA
ENDBRANCH   1  21
TORSDOF 2
