REMARK  7 active torsions:
REMARK  status: ('A' for Active; 'I' for Inactive)
REMARK    1  A    between atoms: C18_19  and  N1_1 
REMARK       I    between atoms: N1_1  and  C19_20 
REMARK    2  A    between atoms: C4_4  and  C3_24 
REMARK    3  A    between atoms: N_26  and  C8_8 
REMARK    4  A    between atoms: C1_10  and  C_9 
REMARK    5  A    between atoms: C9_25  and  C10_11 
REMARK    6  A    between atoms: C13_14  and  C14_15 
REMARK    7  A    between atoms: C19_20  and  C20_21 
REMARK       I    between atoms: C9_25  and  N_26 
ROOT
ATOM      1  C2  F1C d   1      -7.244   7.992 122.376  0.00  0.00    -0.056 A 
ATOM      2  C1  F1C d   1      -6.031   8.480 121.907  0.00  0.00     0.042 A 
ATOM      3  C12 F1C d   1      -6.599   8.529 124.619  0.00  0.00    -0.061 A 
ATOM      4  C13 F1C d   1      -5.374   9.022 124.171  0.00  0.00    -0.024 A 
ATOM      5  C22 F1C d   1      -5.096   8.983 122.807  0.00  0.00    -0.056 A 
ATOM      6  C3  F1C d   1      -7.548   8.013 123.736  0.00  0.00    -0.024 A 
ATOM      7  H2  F1C d   1      -7.965   7.589 121.674  0.00  0.00     0.086 H 
ATOM      8  H10 F1C d   1      -6.820   8.547 125.680  0.00  0.00     0.086 H 
ATOM      9  H18 F1C d   1      -4.142   9.348 122.443  0.00  0.00     0.086 H 
ENDROOT
BRANCH   4  10
ATOM     10  C14 F1C d   1      -4.396   9.617 125.112  0.00  0.00    -0.024 A 
ATOM     11  C15 F1C d   1      -3.028   9.534 124.866  0.00  0.00    -0.072 A 
ATOM     12  C16 F1C d   1      -2.122  10.170 125.693  0.00  0.00    -0.080 A 
ATOM     13  H11 F1C d   1      -2.670   8.964 124.016  0.00  0.00     0.084 H 
ATOM     14  C17 F1C d   1      -2.560  10.896 126.787  0.00  0.00    -0.057 A 
ATOM     15  H12 F1C d   1      -1.061  10.100 125.484  0.00  0.00     0.083 H 
ATOM     16  C18 F1C d   1      -3.919  10.988 127.051  0.00  0.00     0.035 A 
ATOM     17  H13 F1C d   1      -1.845  11.390 127.434  0.00  0.00     0.086 H 
ATOM     18  C21 F1C d   1      -4.826  10.337 126.225  0.00  0.00    -0.046 A 
ATOM     19  H17 F1C d   1      -5.885  10.390 126.450  0.00  0.00     0.088 H 
BRANCH  16  20
ATOM     20  N1  F1C d   1      -4.388  11.816 128.095  0.00  0.00    -0.327 N 
ATOM     21  C19 F1C d   1      -3.682  12.338 129.125  0.00  0.00     0.218 C 
ATOM     22  O2  F1C d   1      -2.593  11.895 129.485  0.00  0.00    -0.274 OA
ATOM     23  H1  F1C d   1      -5.361  12.044 128.070  0.00  0.00     0.169 HD
BRANCH  21  24
ATOM     24  C20 F1C d   1      -4.309  13.533 129.772  0.00  0.00    -0.003 C 
ATOM     25  H14 F1C d   1      -3.667  13.885 130.593  0.00  0.00     0.040 H 
ATOM     26  H15 F1C d   1      -5.296  13.258 130.171  0.00  0.00     0.040 H 
ATOM     27  H16 F1C d   1      -4.425  14.335 129.028  0.00  0.00     0.040 H 
ENDBRANCH  21  24
ENDBRANCH  16  20
ENDBRANCH   4  10
BRANCH   6  28
ATOM     28  C4  F1C d   1      -8.854   7.509 124.225  0.00  0.00    -0.024 A 
ATOM     29  C5  F1C d   1      -9.359   6.287 123.784  0.00  0.00    -0.072 A 
ATOM     30  C6  F1C d   1     -10.618   5.860 124.173  0.00  0.00    -0.080 A 
ATOM     31  H3  F1C d   1      -8.760   5.664 123.130  0.00  0.00     0.084 H 
ATOM     32  C7  F1C d   1     -11.395   6.640 125.010  0.00  0.00    -0.057 A 
ATOM     33  H5  F1C d   1     -10.997   4.908 123.819  0.00  0.00     0.083 H 
ATOM     34  C8  F1C d   1     -10.906   7.854 125.473  0.00  0.00     0.035 A 
ATOM     35  H4  F1C d   1     -12.383   6.304 125.304  0.00  0.00     0.086 H 
ATOM     36  C11 F1C d   1      -9.641   8.277 125.082  0.00  0.00    -0.046 A 
ATOM     37  H9  F1C d   1      -9.259   9.222 125.451  0.00  0.00     0.088 H 
BRANCH  34  38
ATOM     38  N   F1C d   1     -11.726   8.637 126.319  0.00  0.00    -0.327 N 
ATOM     39  C9  F1C d   1     -11.457   9.844 126.876  0.00  0.00     0.218 C 
ATOM     40  O1  F1C d   1     -10.368  10.402 126.772  0.00  0.00    -0.274 OA
ATOM     41  H19 F1C d   1     -12.622   8.249 126.535  0.00  0.00     0.169 HD
BRANCH  39  42
ATOM     42  C10 F1C d   1     -12.598  10.460 127.630  0.00  0.00    -0.003 C 
ATOM     43  H6  F1C d   1     -12.284  11.430 128.042  0.00  0.00     0.040 H 
ATOM     44  H7  F1C d   1     -12.897   9.793 128.452  0.00  0.00     0.040 H 
ATOM     45  H8  F1C d   1     -13.449  10.609 126.950  0.00  0.00     0.040 H 
ENDBRANCH  39  42
ENDBRANCH  34  38
ENDBRANCH   6  28
BRANCH   2  46
ATOM     46  C   F1C d   1      -5.779   8.590 120.423  0.00  0.00     0.209 C 
ATOM     47  O   F1C d   1      -6.611   8.054 119.654  0.00  0.00    -0.644 OA
ATOM     48  O3  F1C d   1      -4.748   9.203 120.048  0.00  0.00    -0.644 OA
ENDBRANCH   2  46
TORSDOF 7
