REMARK  3 active torsions:
REMARK  status: ('A' for Active; 'I' for Inactive)
REMARK    1  A    between atoms: C11_6  and  C12_7 
REMARK    2  A    between atoms: C14_9  and  C16_11 
REMARK    3  A    between atoms: C7_25  and  C9_27 
ROOT
ATOM      1  C10 U3M d   1      95.783 251.786   5.145  0.00  0.00    -0.056 A 
ATOM      2  C11 U3M d   1      96.603 252.710   5.768  0.00  0.00     0.042 A 
ATOM      3  C13 U3M d   1      95.981 250.319   7.024  0.00  0.00    -0.061 A 
ATOM      4  C14 U3M d   1      96.850 251.215   7.655  0.00  0.00    -0.024 A 
ATOM      5  C15 U3M d   1      97.157 252.409   7.005  0.00  0.00    -0.056 A 
ATOM      6  C9  U3M d   1      95.408 250.610   5.784  0.00  0.00    -0.024 A 
ATOM      7  H3  U3M d   1      95.427 251.983   4.140  0.00  0.00     0.086 H 
ATOM      8  H4  U3M d   1      95.747 249.378   7.508  0.00  0.00     0.086 H 
ATOM      9  H5  U3M d   1      97.838 253.112   7.471  0.00  0.00     0.086 H 
ENDROOT
BRANCH   4  10
ATOM     10  C16 U3M d   1      97.296 251.005   9.054  0.00  0.00    -0.024 A 
ATOM     11  C17 U3M d   1      96.504 251.444  10.116  0.00  0.00    -0.071 A 
ATOM     12  C18 U3M d   1      96.920 251.345  11.408  0.00  0.00    -0.070 A 
ATOM     13  H6  U3M d   1      95.532 251.875   9.906  0.00  0.00     0.084 H 
ATOM     14  C21 U3M d   1      98.180 250.797  11.728  0.00  0.00    -0.007 A 
ATOM     15  H7  U3M d   1      96.272 251.693  12.205  0.00  0.00     0.084 H 
ATOM     16  C20 U3M d   1      98.990 250.333  10.670  0.00  0.00     0.067 A 
ATOM     17  C24 U3M d   1      98.702 250.721  13.032  0.00  0.00    -0.069 A 
ATOM     18  C19 U3M d   1      98.526 250.441   9.340  0.00  0.00    -0.044 A 
ATOM     19  N1  U3M d   1     100.242 249.814  10.889  0.00  0.00    -0.260 NA
ATOM     20  H8  U3M d   1      99.145 250.075   8.529  0.00  0.00     0.088 H 
ATOM     21  C22 U3M d   1     100.676 249.777  12.140  0.00  0.00     0.003 A 
ATOM     22  C23 U3M d   1      99.950 250.220  13.234  0.00  0.00    -0.065 A 
ATOM     23  H10 U3M d   1     101.666 249.373  12.320  0.00  0.00     0.114 H 
ATOM     24  H11 U3M d   1     100.369 250.168  14.232  0.00  0.00     0.085 H 
ATOM     25  H12 U3M d   1      98.111 251.061  13.874  0.00  0.00     0.085 H 
ENDBRANCH   4  10
BRANCH   6  26
ATOM     26  C7  U3M d   1      94.228 249.891   5.249  0.00  0.00    -0.025 A 
ATOM     27  C6  U3M d   1      93.189 250.612   4.652  0.00  0.00    -0.070 A 
ATOM     28  C5  U3M d   1      92.161 249.994   4.020  0.00  0.00    -0.053 A 
ATOM     29  H14 U3M d   1      93.206 251.695   4.696  0.00  0.00     0.084 H 
ATOM     30  C3  U3M d   1      92.095 248.586   3.963  0.00  0.00     0.066 A 
ATOM     31  H13 U3M d   1      91.382 250.587   3.554  0.00  0.00     0.087 H 
ATOM     32  N   U3M d   1      91.027 247.993   3.344  0.00  0.00    -0.260 NA
ATOM     33  C4  U3M d   1      93.106 247.829   4.593  0.00  0.00    -0.007 A 
ATOM     34  C2  U3M d   1      90.963 246.671   3.374  0.00  0.00     0.003 A 
ATOM     35  C1  U3M d   1      91.910 245.853   3.969  0.00  0.00    -0.065 A 
ATOM     36  H9  U3M d   1      90.111 246.196   2.901  0.00  0.00     0.114 H 
ATOM     37  C   U3M d   1      92.984 246.427   4.574  0.00  0.00    -0.069 A 
ATOM     38  H2  U3M d   1      91.797 244.775   3.953  0.00  0.00     0.085 H 
ATOM     39  H1  U3M d   1      93.742 245.808   5.039  0.00  0.00     0.085 H 
ATOM     40  C8  U3M d   1      94.165 248.511   5.234  0.00  0.00    -0.060 A 
ATOM     41  H15 U3M d   1      94.944 247.939   5.724  0.00  0.00     0.086 H 
ENDBRANCH   6  26
BRANCH   2  42
ATOM     42  C12 U3M d   1      96.673 254.109   5.226  0.00  0.00     0.209 C 
ATOM     43  O   U3M d   1      97.422 254.927   5.803  0.00  0.00    -0.644 OA
ATOM     44  O1  U3M d   1      95.931 254.370   4.240  0.00  0.00    -0.644 OA
ENDBRANCH   2  42
TORSDOF 3
