REMARK  5 active torsions:
REMARK  status: ('A' for Active; 'I' for Inactive)
REMARK    1  A    between atoms: C3_2  and  N_17 
REMARK    2  A    between atoms: C4_3  and  C5_4 
REMARK       I    between atoms: N_17  and  C4_3 
REMARK    3  A    between atoms: C13_6  and  C14_7 
REMARK    4  A    between atoms: C11_22  and  C15_8 
REMARK    5  A    between atoms: C7_26  and  C8_27 
ROOT
ATOM      1  C12 AVM d   1      97.207 250.619   5.547  0.00  0.00    -0.056 A 
ATOM      2  C13 AVM d   1      96.196 251.567   5.413  0.00  0.00     0.042 A 
ATOM      3  C10 AVM d   1      95.666 248.889   4.952  0.00  0.00    -0.061 A 
ATOM      4  C11 AVM d   1      96.958 249.269   5.304  0.00  0.00    -0.024 A 
ATOM      5  C8  AVM d   1      94.636 249.816   4.821  0.00  0.00    -0.024 A 
ATOM      6  C9  AVM d   1      94.916 251.160   5.058  0.00  0.00    -0.056 A 
ATOM      7  H4  AVM d   1      98.201 250.935   5.844  0.00  0.00     0.086 H 
ATOM      8  H13 AVM d   1      95.456 247.840   4.775  0.00  0.00     0.086 H 
ATOM      9  H17 AVM d   1      94.126 251.897   4.964  0.00  0.00     0.086 H 
ENDROOT
BRANCH   5  10
ATOM     10  C7  AVM d   1      93.301 249.366   4.381  0.00  0.00    -0.024 A 
ATOM     11  C   AVM d   1      92.165 250.145   4.571  0.00  0.00    -0.072 A 
ATOM     12  C1  AVM d   1      90.928 249.703   4.135  0.00  0.00    -0.080 A 
ATOM     13  H11 AVM d   1      92.249 251.106   5.065  0.00  0.00     0.084 H 
ATOM     14  C2  AVM d   1      90.799 248.469   3.525  0.00  0.00    -0.057 A 
ATOM     15  H12 AVM d   1      90.054 250.329   4.273  0.00  0.00     0.083 H 
ATOM     16  C3  AVM d   1      91.913 247.656   3.383  0.00  0.00     0.035 A 
ATOM     17  H15 AVM d   1      89.833 248.139   3.160  0.00  0.00     0.086 H 
ATOM     18  C6  AVM d   1      93.159 248.126   3.763  0.00  0.00    -0.046 A 
ATOM     19  H16 AVM d   1      94.038 247.519   3.576  0.00  0.00     0.088 H 
BRANCH  16  20
ATOM     20  N   AVM d   1      91.763 246.286   3.096  0.00  0.00    -0.327 N 
ATOM     21  C4  AVM d   1      90.614 245.621   2.859  0.00  0.00     0.218 C 
ATOM     22  O   AVM d   1      89.786 245.988   2.031  0.00  0.00    -0.274 OA
ATOM     23  H10 AVM d   1      92.603 245.745   3.064  0.00  0.00     0.169 HD
BRANCH  21  24
ATOM     24  C5  AVM d   1      90.368 244.461   3.774  0.00  0.00    -0.003 C 
ATOM     25  H1  AVM d   1      89.414 243.981   3.509  0.00  0.00     0.040 H 
ATOM     26  H2  AVM d   1      90.323 244.817   4.814  0.00  0.00     0.040 H 
ATOM     27  H3  AVM d   1      91.186 243.733   3.671  0.00  0.00     0.040 H 
ENDBRANCH  21  24
ENDBRANCH  16  20
ENDBRANCH   5  10
BRANCH   4  28
ATOM     28  C15 AVM d   1      98.041 248.258   5.325  0.00  0.00    -0.024 A 
ATOM     29  C17 AVM d   1      97.873 247.019   4.696  0.00  0.00    -0.071 A 
ATOM     30  C18 AVM d   1      98.860 246.079   4.692  0.00  0.00    -0.070 A 
ATOM     31  H5  AVM d   1      96.934 246.802   4.199  0.00  0.00     0.084 H 
ATOM     32  C19 AVM d   1     100.100 246.322   5.327  0.00  0.00    -0.007 A 
ATOM     33  H6  AVM d   1      98.692 245.131   4.194  0.00  0.00     0.084 H 
ATOM     34  C20 AVM d   1     100.287 247.569   5.963  0.00  0.00     0.067 A 
ATOM     35  C21 AVM d   1     101.171 245.405   5.360  0.00  0.00    -0.069 A 
ATOM     36  C16 AVM d   1      99.244 248.520   5.952  0.00  0.00    -0.044 A 
ATOM     37  N1  AVM d   1     101.464 247.895   6.591  0.00  0.00    -0.260 NA
ATOM     38  H14 AVM d   1      99.390 249.474   6.445  0.00  0.00     0.088 H 
ATOM     39  C23 AVM d   1     102.430 246.989   6.585  0.00  0.00     0.003 A 
ATOM     40  C22 AVM d   1     102.331 245.741   5.989  0.00  0.00    -0.065 A 
ATOM     41  H9  AVM d   1     103.361 247.240   7.080  0.00  0.00     0.114 H 
ATOM     42  H8  AVM d   1     103.162 245.046   6.023  0.00  0.00     0.085 H 
ATOM     43  H7  AVM d   1     101.071 244.435   4.886  0.00  0.00     0.085 H 
ENDBRANCH   4  28
BRANCH   2  44
ATOM     44  C14 AVM d   1      96.506 253.034   5.565  0.00  0.00     0.209 C 
ATOM     45  O2  AVM d   1      95.584 253.853   5.336  0.00  0.00    -0.644 OA
ATOM     46  O1  AVM d   1      97.669 253.349   5.916  0.00  0.00    -0.644 OA
ENDBRANCH   2  44
TORSDOF 5
