REMARK  10 active torsions:
REMARK  status: ('A' for Active; 'I' for Inactive)
REMARK    1  A    between atoms: N13_9  and  C22_12 
REMARK    2  A    between atoms: C26_14  and  N15_11 
REMARK    3  A    between atoms: C39_20  and  N30_17 
REMARK    4  A    between atoms: C41_21  and  C39_20 
REMARK    5  A    between atoms: C43_22  and  C41_21 
REMARK    6  A    between atoms: N45_23  and  C43_22 
REMARK    7  A    between atoms: C58_29  and  C48_25 
REMARK    8  A    between atoms: C63_33  and  C75_36 
REMARK    9  A    between atoms: C75_36  and  N77_37 
REMARK       I    between atoms: N77_37  and  C79_38 
REMARK   10  A    between atoms: C79_38  and  C81_39 
ROOT
ATOM      1  C41 N2D d   1      12.208 -14.694 -46.570  0.00  0.00    -0.025 C 
ATOM      2  H19 N2D d   1      12.072 -15.462 -47.346  0.00  0.00     0.037 H 
ATOM      3  H20 N2D d   1      13.108 -14.923 -45.981  0.00  0.00     0.037 H 
ENDROOT
BRANCH   1   4
ATOM      4  C39 N2D d   1      11.025 -14.730 -45.658  0.00  0.00     0.085 C 
ATOM      5  H17 N2D d   1      10.795 -13.703 -45.338  0.00  0.00     0.076 H 
ATOM      6  H18 N2D d   1      10.167 -15.143 -46.209  0.00  0.00     0.076 H 
BRANCH   4   7
ATOM      7  N30 N2D d   1      11.258 -15.551 -44.468  0.00  0.00    -0.071 N 
ATOM      8  C29 N2D d   1      11.176 -14.714 -43.251  0.00  0.00     0.085 C 
ATOM      9  C28 N2D d   1      11.395 -15.527 -41.993  0.00  0.00    -0.023 C 
ATOM     10  H10 N2D d   1      11.945 -13.929 -43.306  0.00  0.00     0.076 H 
ATOM     11  H11 N2D d   1      10.180 -14.249 -43.205  0.00  0.00     0.076 H 
ATOM     12  C26 N2D d   1      10.422 -16.685 -41.947  0.00  0.00     0.025 C 
ATOM     13  H8  N2D d   1      12.424 -15.916 -41.986  0.00  0.00     0.038 H 
ATOM     14  H9  N2D d   1      11.239 -14.885 -41.113  0.00  0.00     0.038 H 
ATOM     15  C32 N2D d   1      10.502 -17.526 -43.183  0.00  0.00    -0.023 C 
ATOM     16  H7  N2D d   1       9.419 -16.233 -41.962  0.00  0.00     0.073 H 
ATOM     17  C31 N2D d   1      10.274 -16.656 -44.408  0.00  0.00     0.085 C 
ATOM     18  H15 N2D d   1       9.732 -18.310 -43.143  0.00  0.00     0.038 H 
ATOM     19  H16 N2D d   1      11.497 -17.992 -43.245  0.00  0.00     0.038 H 
ATOM     20  H13 N2D d   1      10.373 -17.275 -45.312  0.00  0.00     0.076 H 
ATOM     21  H14 N2D d   1       9.260 -16.232 -44.364  0.00  0.00     0.076 H 
ATOM     22  H12 N2D d   1      12.183 -15.947 -44.525  0.00  0.00     0.279 HD
BRANCH  12  23
ATOM     23  N15 N2D d   1      10.483 -17.442 -40.700  0.00  0.00    -0.292 N 
ATOM     24  C3  N2D d   1      11.545 -18.132 -40.093  0.00  0.00     0.068 A 
ATOM     25  C2  N2D d   1      12.864 -18.320 -40.483  0.00  0.00    -0.034 A 
ATOM     26  C4  N2D d   1      11.062 -18.663 -38.925  0.00  0.00     0.065 A 
ATOM     27  C1  N2D d   1      13.667 -19.067 -39.638  0.00  0.00     0.036 A 
ATOM     28  H1  N2D d   1      13.248 -17.901 -41.406  0.00  0.00     0.089 H 
ATOM     29 CL2  N2D d   1      15.324 -19.332 -40.079  0.00  0.00    -0.084 Cl
ATOM     30  C6  N2D d   1      13.192 -19.615 -38.452  0.00  0.00    -0.060 A 
ATOM     31  C5  N2D d   1      11.874 -19.413 -38.085  0.00  0.00    -0.053 A 
ATOM     32  H3  N2D d   1      13.851 -20.197 -37.818  0.00  0.00     0.086 H 
ATOM     33  H2  N2D d   1      11.484 -19.830 -37.164  0.00  0.00     0.087 H 
ATOM     34  N13 N2D d   1       9.734 -18.301 -38.825  0.00  0.00    -0.302 N 
ATOM     35  C14 N2D d   1       9.364 -17.546 -39.914  0.00  0.00     0.330 A 
ATOM     36  O24 N2D d   1       8.269 -17.069 -40.143  0.00  0.00    -0.246 OA
BRANCH  34  37
ATOM     37  C22 N2D d   1       8.827 -18.663 -37.718  0.00  0.00    -0.009 C 
ATOM     38  H4  N2D d   1       9.373 -19.268 -36.980  0.00  0.00     0.057 H 
ATOM     39  H5  N2D d   1       7.980 -19.243 -38.113  0.00  0.00     0.057 H 
ATOM     40  H6  N2D d   1       8.452 -17.748 -37.237  0.00  0.00     0.057 H 
ENDBRANCH  34  37
ENDBRANCH  12  23
ENDBRANCH   4   7
ENDBRANCH   1   4
BRANCH   1  41
ATOM     41  C43 N2D d   1      12.408 -13.365 -47.247  0.00  0.00     0.022 C 
ATOM     42  H21 N2D d   1      11.796 -12.607 -46.736  0.00  0.00     0.067 H 
ATOM     43  H22 N2D d   1      12.089 -13.447 -48.297  0.00  0.00     0.067 H 
BRANCH  41  44
ATOM     44  N45 N2D d   1      13.773 -12.962 -47.207  0.00  0.00    -0.234 N 
ATOM     45  N47 N2D d   1      14.020 -11.911 -46.348  0.00  0.00    -0.169 NA
ATOM     46  C48 N2D d   1      15.240 -11.493 -46.260  0.00  0.00     0.087 A 
ATOM     47  C49 N2D d   1      16.298 -12.093 -47.012  0.00  0.00    -0.047 A 
ATOM     48  C50 N2D d   1      16.039 -13.119 -47.841  0.00  0.00    -0.013 A 
ATOM     49  H23 N2D d   1      17.316 -11.718 -46.913  0.00  0.00     0.087 H 
ATOM     50  C51 N2D d   1      14.726 -13.625 -47.986  0.00  0.00     0.263 A 
ATOM     51  H24 N2D d   1      16.852 -13.568 -48.410  0.00  0.00     0.092 H 
ATOM     52  O71 N2D d   1      14.403 -14.558 -48.720  0.00  0.00    -0.267 OA
BRANCH  46  53
ATOM     53  C58 N2D d   1      15.495 -10.378 -45.351  0.00  0.00    -0.005 A 
ATOM     54  C60 N2D d   1      14.592  -9.326 -45.211  0.00  0.00    -0.069 A 
ATOM     55  C61 N2D d   1      14.879  -8.277 -44.345  0.00  0.00    -0.060 A 
ATOM     56  H25 N2D d   1      13.667  -9.326 -45.776  0.00  0.00     0.085 H 
ATOM     57  C62 N2D d   1      16.067  -8.293 -43.627  0.00  0.00     0.042 A 
ATOM     58  H26 N2D d   1      14.182  -7.455 -44.231  0.00  0.00     0.086 H 
ATOM     59 CL3  N2D d   1      16.416  -6.977 -42.554  0.00  0.00    -0.084 Cl
ATOM     60  C63 N2D d   1      16.987  -9.327 -43.754  0.00  0.00    -0.018 A 
ATOM     61  C64 N2D d   1      16.674 -10.360 -44.625  0.00  0.00    -0.061 A 
ATOM     62  H27 N2D d   1      17.374 -11.179 -44.741  0.00  0.00     0.085 H 
BRANCH  60  63
ATOM     63  C75 N2D d   1      18.273  -9.342 -42.974  0.00  0.00     0.021 C 
ATOM     64  H28 N2D d   1      18.425  -8.351 -42.521  0.00  0.00     0.071 H 
ATOM     65  H29 N2D d   1      19.103  -9.561 -43.662  0.00  0.00     0.071 H 
BRANCH  63  66
ATOM     66  N77 N2D d   1      18.260 -10.350 -41.913  0.00  0.00    -0.353 N 
ATOM     67  C79 N2D d   1      19.189 -11.305 -41.818  0.00  0.00     0.251 C 
ATOM     68  O94 N2D d   1      20.114 -11.402 -42.622  0.00  0.00    -0.268 OA
ATOM     69  H30 N2D d   1      17.527 -10.323 -41.233  0.00  0.00     0.163 HD
BRANCH  67  70
ATOM     70  C81 N2D d   1      19.061 -12.263 -40.678  0.00  0.00     0.032 A 
ATOM     71  C83 N2D d   1      20.198 -12.578 -39.935  0.00  0.00    -0.068 A 
ATOM     72  C84 N2D d   1      20.122 -13.457 -38.870  0.00  0.00    -0.082 A 
ATOM     73  H31 N2D d   1      21.150 -12.130 -40.194  0.00  0.00     0.085 H 
ATOM     74  C85 N2D d   1      18.914 -14.036 -38.532  0.00  0.00    -0.083 A 
ATOM     75  H32 N2D d   1      21.013 -13.692 -38.299  0.00  0.00     0.083 H 
ATOM     76  C86 N2D d   1      17.779 -13.731 -39.260  0.00  0.00    -0.082 A 
ATOM     77  H33 N2D d   1      18.856 -14.727 -37.699  0.00  0.00     0.083 H 
ATOM     78  C87 N2D d   1      17.848 -12.848 -40.329  0.00  0.00    -0.068 A 
ATOM     79  H34 N2D d   1      16.830 -14.184 -38.995  0.00  0.00     0.083 H 
ATOM     80  H35 N2D d   1      16.953 -12.613 -40.894  0.00  0.00     0.085 H 
ENDBRANCH  67  70
ENDBRANCH  63  66
ENDBRANCH  60  63
ENDBRANCH  46  53
ENDBRANCH  41  44
ENDBRANCH   1  41
TORSDOF 10
