REMARK  10 active torsions:
REMARK  status: ('A' for Active; 'I' for Inactive)
REMARK    1  A    between atoms: N13_7  and  C22_11 
REMARK    2  A    between atoms: N15_9  and  C20_10 
REMARK    3  A    between atoms: N28_15  and  C37_18 
REMARK    4  A    between atoms: C37_18  and  C39_19 
REMARK    5  A    between atoms: C39_19  and  C41_20 
REMARK    6  A    between atoms: C41_20  and  N43_21 
REMARK    7  A    between atoms: C46_23  and  C60_29 
REMARK    8  A    between atoms: C65_33  and  C75_36 
REMARK    9  A    between atoms: C75_36  and  N77_37 
REMARK       I    between atoms: N77_37  and  C79_38 
REMARK   10  A    between atoms: C79_38  and  C83_40 
ROOT
ATOM      1  C39 N2A d   1      10.203 -13.393 -45.027  0.00  0.00    -0.027 C 
ATOM      2  H19 N2A d   1      10.780 -13.010 -44.173  0.00  0.00     0.037 H 
ATOM      3  H20 N2A d   1       9.135 -13.182 -44.872  0.00  0.00     0.037 H 
ENDROOT
BRANCH   1   4
ATOM      4  C37 N2A d   1      10.421 -14.885 -45.174  0.00  0.00     0.085 C 
ATOM      5  H17 N2A d   1       9.521 -15.303 -45.650  0.00  0.00     0.076 H 
ATOM      6  H18 N2A d   1      11.286 -15.026 -45.838  0.00  0.00     0.076 H 
BRANCH   4   7
ATOM      7  N28 N2A d   1      10.674 -15.665 -43.950  0.00  0.00    -0.071 N 
ATOM      8  C27 N2A d   1       9.626 -16.659 -43.749  0.00  0.00     0.085 C 
ATOM      9  C26 N2A d   1      10.033 -17.693 -42.740  0.00  0.00    -0.023 C 
ATOM     10  H10 N2A d   1       8.716 -16.152 -43.394  0.00  0.00     0.076 H 
ATOM     11  H11 N2A d   1       9.418 -17.157 -44.707  0.00  0.00     0.076 H 
ATOM     12  C20 N2A d   1      10.883 -17.096 -41.690  0.00  0.00     0.025 C 
ATOM     13  H8  N2A d   1       9.131 -18.118 -42.275  0.00  0.00     0.038 H 
ATOM     14  H9  N2A d   1      10.595 -18.491 -43.248  0.00  0.00     0.038 H 
ATOM     15  C30 N2A d   1      10.623 -15.627 -41.484  0.00  0.00    -0.023 C 
ATOM     16  H4  N2A d   1      11.922 -17.192 -42.038  0.00  0.00     0.073 H 
ATOM     17  C29 N2A d   1      10.862 -14.848 -42.736  0.00  0.00     0.085 C 
ATOM     18  H15 N2A d   1      11.293 -15.252 -40.697  0.00  0.00     0.038 H 
ATOM     19  H16 N2A d   1       9.577 -15.489 -41.172  0.00  0.00     0.038 H 
ATOM     20  H13 N2A d   1      10.159 -14.003 -42.766  0.00  0.00     0.076 H 
ATOM     21  H14 N2A d   1      11.893 -14.466 -42.723  0.00  0.00     0.076 H 
ATOM     22  H12 N2A d   1      11.537 -16.164 -44.098  0.00  0.00     0.279 HD
BRANCH  12  23
ATOM     23  N15 N2A d   1      10.792 -17.803 -40.418  0.00  0.00    -0.292 N 
ATOM     24  C3  N2A d   1      11.779 -18.514 -39.787  0.00  0.00     0.068 A 
ATOM     25  C2  N2A d   1      13.081 -18.768 -40.165  0.00  0.00    -0.034 A 
ATOM     26  C4  N2A d   1      11.252 -18.993 -38.610  0.00  0.00     0.065 A 
ATOM     27  C1  N2A d   1      13.851 -19.527 -39.317  0.00  0.00     0.036 A 
ATOM     28  H1  N2A d   1      13.482 -18.383 -41.096  0.00  0.00     0.089 H 
ATOM     29  C6  N2A d   1      13.350 -20.035 -38.110  0.00  0.00    -0.060 A 
ATOM     30 CL24 N2A d   1      15.497 -19.869 -39.781  0.00  0.00    -0.084 Cl
ATOM     31  C5  N2A d   1      12.027 -19.762 -37.743  0.00  0.00    -0.053 A 
ATOM     32  H3  N2A d   1      13.983 -20.635 -37.466  0.00  0.00     0.086 H 
ATOM     33  H2  N2A d   1      11.617 -20.137 -36.812  0.00  0.00     0.087 H 
ATOM     34  N13 N2A d   1       9.924 -18.547 -38.547  0.00  0.00    -0.302 N 
ATOM     35  C14 N2A d   1       9.624 -17.815 -39.648  0.00  0.00     0.330 A 
ATOM     36  O58 N2A d   1       8.555 -17.289 -39.896  0.00  0.00    -0.246 OA
BRANCH  34  37
ATOM     37  C22 N2A d   1       8.992 -18.806 -37.491  0.00  0.00    -0.009 C 
ATOM     38  H5  N2A d   1       9.476 -19.420 -36.717  0.00  0.00     0.057 H 
ATOM     39  H6  N2A d   1       8.121 -19.344 -37.894  0.00  0.00     0.057 H 
ATOM     40  H7  N2A d   1       8.663 -17.853 -37.051  0.00  0.00     0.057 H 
ENDBRANCH  34  37
ENDBRANCH  12  23
ENDBRANCH   4   7
ENDBRANCH   1   4
BRANCH   1  41
ATOM     41  C41 N2A d   1      10.668 -12.759 -46.277  0.00  0.00     0.005 C 
ATOM     42  H21 N2A d   1      10.151 -11.796 -46.399  0.00  0.00     0.065 H 
ATOM     43  H22 N2A d   1      10.420 -13.418 -47.122  0.00  0.00     0.065 H 
BRANCH  41  44
ATOM     44  N43 N2A d   1      12.157 -12.514 -46.272  0.00  0.00    -0.308 N 
ATOM     45  C45 N2A d   1      12.628 -11.474 -45.493  0.00  0.00     0.261 A 
ATOM     46  C46 N2A d   1      14.095 -11.285 -45.548  0.00  0.00     0.060 A 
ATOM     47  O56 N2A d   1      11.835 -10.799 -44.835  0.00  0.00    -0.267 OA
ATOM     48  C47 N2A d   1      14.848 -12.135 -46.329  0.00  0.00     0.019 A 
ATOM     49  N48 N2A d   1      14.269 -13.157 -47.076  0.00  0.00    -0.255 NA
ATOM     50  H23 N2A d   1      15.928 -12.003 -46.363  0.00  0.00     0.116 H 
ATOM     51  C49 N2A d   1      12.988 -13.293 -47.012  0.00  0.00     0.068 A 
ATOM     52  H24 N2A d   1      12.538 -14.094 -47.596  0.00  0.00     0.143 H 
BRANCH  46  53
ATOM     53  C60 N2A d   1      14.726 -10.234 -44.781  0.00  0.00    -0.018 A 
ATOM     54  C62 N2A d   1      14.058  -9.052 -44.524  0.00  0.00    -0.070 A 
ATOM     55  C63 N2A d   1      14.654  -8.058 -43.793  0.00  0.00    -0.060 A 
ATOM     56  H25 N2A d   1      13.053  -8.910 -44.904  0.00  0.00     0.084 H 
ATOM     57  C64 N2A d   1      15.925  -8.240 -43.307  0.00  0.00     0.042 A 
ATOM     58  H26 N2A d   1      14.124  -7.132 -43.599  0.00  0.00     0.086 H 
ATOM     59  C65 N2A d   1      16.641  -9.404 -43.537  0.00  0.00    -0.018 A 
ATOM     60 CL73 N2A d   1      16.636  -6.955 -42.387  0.00  0.00    -0.084 Cl
ATOM     61  C66 N2A d   1      16.019 -10.402 -44.279  0.00  0.00    -0.063 A 
ATOM     62  H27 N2A d   1      16.548 -11.329 -44.472  0.00  0.00     0.085 H 
BRANCH  59  63
ATOM     63  C75 N2A d   1      18.026  -9.593 -43.006  0.00  0.00     0.021 C 
ATOM     64  H28 N2A d   1      18.408  -8.623 -42.657  0.00  0.00     0.071 H 
ATOM     65  H29 N2A d   1      18.668  -9.970 -43.815  0.00  0.00     0.071 H 
BRANCH  63  66
ATOM     66  N77 N2A d   1      18.060 -10.525 -41.914  0.00  0.00    -0.353 N 
ATOM     67  C79 N2A d   1      19.032 -11.419 -41.758  0.00  0.00     0.251 C 
ATOM     68  O81 N2A d   1      19.973 -11.517 -42.533  0.00  0.00    -0.268 OA
ATOM     69  H30 N2A d   1      17.320 -10.501 -41.241  0.00  0.00     0.163 HD
BRANCH  67  70
ATOM     70  C83 N2A d   1      18.931 -12.307 -40.598  0.00  0.00     0.032 A 
ATOM     71  C85 N2A d   1      20.056 -12.586 -39.837  0.00  0.00    -0.065 A 
ATOM     72  C86 N2A d   1      19.969 -13.422 -38.743  0.00  0.00    -0.045 A 
ATOM     73  H31 N2A d   1      21.010 -12.145 -40.103  0.00  0.00     0.085 H 
ATOM     74  C87 N2A d   1      18.746 -13.963 -38.436  0.00  0.00     0.116 A 
ATOM     75  H32 N2A d   1      20.843 -13.645 -38.142  0.00  0.00     0.088 H 
ATOM     76  C88 N2A d   1      17.616 -13.717 -39.158  0.00  0.00    -0.045 A 
ATOM     77  F96 N2A d   1      18.659 -14.784 -37.365  0.00  0.00    -0.206 F 
ATOM     78  C89 N2A d   1      17.714 -12.884 -40.243  0.00  0.00    -0.065 A 
ATOM     79  H33 N2A d   1      16.669 -14.166 -38.883  0.00  0.00     0.088 H 
ATOM     80  H34 N2A d   1      16.830 -12.671 -40.834  0.00  0.00     0.085 H 
ENDBRANCH  67  70
ENDBRANCH  63  66
ENDBRANCH  59  63
ENDBRANCH  46  53
ENDBRANCH  41  44
ENDBRANCH   1  41
TORSDOF 10
