REMARK  15 active torsions:
REMARK  status: ('A' for Active; 'I' for Inactive)
REMARK    1  A    between atoms: C1_1  and  C43_29 
REMARK       I    between atoms: N3_39  and  C1_1 
REMARK    2  A    between atoms: C23_15  and  C9_6 
REMARK    3  A    between atoms: C12_7  and  C13_8 
REMARK    4  A    between atoms: N11_37  and  C12_7 
REMARK    5  A    between atoms: C13_8  and  C15_9 
REMARK    6  A    between atoms: C13_8  and  O14_41 
REMARK    7  A    between atoms: C15_9  and  N16_38 
REMARK    8  A    between atoms: C19_11  and  C22_14 
REMARK    9  A    between atoms: C22_14  and  C44_30 
REMARK   10  A    between atoms: C22_14  and  C45_31 
REMARK   11  A    between atoms: C22_14  and  O42_44 
REMARK   12  A    between atoms: C26_18  and  C38_28 
REMARK   13  A    between atoms: S29_45  and  C27_19 
REMARK   14  A    between atoms: C31_23  and  C30_22 
REMARK   15  A    between atoms: C30_22  and  S29_45 
REMARK       I    between atoms: N33_40  and  C31_23 
ROOT
ATOM      1  C1  BC7 d   1       8.656  -6.643  12.085  0.00  0.00     0.216 C 
ATOM      2  C4  BC7 d   1       7.867  -5.436  14.098  0.00  0.00     0.003 C 
ATOM      3  C5  BC7 d   1       6.408  -5.132  14.416  0.00  0.00    -0.009 C 
ATOM      4  C6  BC7 d   1       5.794  -4.317  13.321  0.00  0.00     0.042 A 
ATOM      5  C8  BC7 d   1       7.801  -4.344  11.876  0.00  0.00     0.025 C 
ATOM      6  C9  BC7 d   1       5.448  -3.197  11.459  0.00  0.00     0.097 A 
ATOM      7  C7  BC7 d   1       6.413  -3.955  12.181  0.00  0.00     0.015 A 
ATOM      8  N10 BC7 d   1       4.300  -3.099  12.133  0.00  0.00    -0.171 NA
ATOM      9  N11 BC7 d   1       4.538  -3.809  13.277  0.00  0.00    -0.270 N 
ATOM     10  N3  BC7 d   1       8.136  -5.523  12.647  0.00  0.00    -0.348 N 
ATOM     11  O2  BC7 d   1       8.873  -6.698  10.881  0.00  0.00    -0.274 OA
ATOM     12  H1  BC7 d   1       8.134  -6.397  14.562  0.00  0.00     0.065 H 
ATOM     13  H2  BC7 d   1       8.492  -4.637  14.523  0.00  0.00     0.065 H 
ATOM     14  H3  BC7 d   1       6.352  -4.571  15.360  0.00  0.00     0.044 H 
ATOM     15  H4  BC7 d   1       5.855  -6.077  14.518  0.00  0.00     0.044 H 
ATOM     16  H5  BC7 d   1       8.482  -3.522  12.142  0.00  0.00     0.071 H 
ATOM     17  H6  BC7 d   1       7.896  -4.565  10.803  0.00  0.00     0.071 H 
ENDROOT
BRANCH   9  18
ATOM     18  C12 BC7 d   1       3.499  -3.888  14.251  0.00  0.00     0.042 C 
ATOM     19  H7  BC7 d   1       2.541  -4.112  13.759  0.00  0.00     0.071 H 
ATOM     20  H8  BC7 d   1       3.730  -4.678  14.981  0.00  0.00     0.071 H 
BRANCH  18  21
ATOM     21  C13 BC7 d   1       3.416  -2.541  14.955  0.00  0.00     0.076 C 
ATOM     22  H9  BC7 d   1       3.639  -1.762  14.210  0.00  0.00     0.088 H 
BRANCH  21  23
ATOM     23  C15 BC7 d   1       2.028  -2.253  15.482  0.00  0.00     0.108 C 
ATOM     24  H10 BC7 d   1       1.772  -3.033  16.214  0.00  0.00     0.080 H 
ATOM     25  H11 BC7 d   1       1.325  -2.298  14.637  0.00  0.00     0.080 H 
BRANCH  23  26
ATOM     26  N16 BC7 d   1       1.873  -0.941  16.138  0.00  0.00    -0.069 N 
ATOM     27  C17 BC7 d   1       2.031  -1.035  17.589  0.00  0.00     0.084 C 
ATOM     28  C18 BC7 d   1       1.344   0.121  18.277  0.00  0.00    -0.036 C 
ATOM     29  H12 BC7 d   1       1.588  -1.979  17.940  0.00  0.00     0.076 H 
ATOM     30  H13 BC7 d   1       3.103  -1.018  17.837  0.00  0.00     0.076 H 
ATOM     31  C19 BC7 d   1       1.696   1.460  17.620  0.00  0.00    -0.022 C 
ATOM     32  H15 BC7 d   1       1.659   0.147  19.331  0.00  0.00     0.036 H 
ATOM     33  H16 BC7 d   1       0.255  -0.028  18.223  0.00  0.00     0.036 H 
ATOM     34  C20 BC7 d   1       2.910   1.269  16.697  0.00  0.00    -0.036 C 
ATOM     35  H14 BC7 d   1       0.847   1.739  16.978  0.00  0.00     0.044 H 
ATOM     36  C21 BC7 d   1       2.682   0.172  15.615  0.00  0.00     0.084 C 
ATOM     37  H17 BC7 d   1       3.776   0.982  17.311  0.00  0.00     0.036 H 
ATOM     38  H18 BC7 d   1       3.120   2.223  16.191  0.00  0.00     0.036 H 
ATOM     39  H22 BC7 d   1       3.658  -0.217  15.290  0.00  0.00     0.076 H 
ATOM     40  H23 BC7 d   1       2.161   0.620  14.756  0.00  0.00     0.076 H 
ATOM     41  H43 BC7 d   1       0.915  -0.677  15.972  0.00  0.00     0.280 HD
BRANCH  31  42
ATOM     42  C22 BC7 d   1       1.860   2.617  18.652  0.00  0.00     0.054 C 
BRANCH  42  43
ATOM     43  C44 BC7 d   1       2.989   2.345  19.626  0.00  0.00    -0.048 C 
ATOM     44  H37 BC7 d   1       3.071   3.182  20.335  0.00  0.00     0.031 H 
ATOM     45  H38 BC7 d   1       3.933   2.239  19.072  0.00  0.00     0.031 H 
ATOM     46  H39 BC7 d   1       2.781   1.416  20.178  0.00  0.00     0.031 H 
ENDBRANCH  42  43
BRANCH  42  47
ATOM     47  C45 BC7 d   1       0.565   2.869  19.409  0.00  0.00    -0.048 C 
ATOM     48  H40 BC7 d   1      -0.246   3.065  18.692  0.00  0.00     0.031 H 
ATOM     49  H41 BC7 d   1       0.690   3.740  20.069  0.00  0.00     0.031 H 
ATOM     50  H42 BC7 d   1       0.315   1.984  20.013  0.00  0.00     0.031 H 
ENDBRANCH  42  47
BRANCH  42  51
ATOM     51  O42 BC7 d   1       2.204   3.827  17.947  0.00  0.00    -0.390 OA
ATOM     52  H45 BC7 d   1       1.518   4.034  17.323  0.00  0.00     0.210 HD
ENDBRANCH  42  51
ENDBRANCH  31  42
ENDBRANCH  23  26
ENDBRANCH  21  23
BRANCH  21  53
ATOM     53  O14 BC7 d   1       4.440  -2.476  15.961  0.00  0.00    -0.392 OA
ATOM     54  H44 BC7 d   1       4.256  -3.115  16.640  0.00  0.00     0.210 HD
ENDBRANCH  21  53
ENDBRANCH  18  21
ENDBRANCH   9  18
BRANCH   6  55
ATOM     55  C23 BC7 d   1       5.580  -2.553  10.143  0.00  0.00    -0.004 A 
ATOM     56  C24 BC7 d   1       4.630  -2.705   9.141  0.00  0.00    -0.070 A 
ATOM     57  C25 BC7 d   1       4.800  -2.087   7.918  0.00  0.00    -0.066 A 
ATOM     58  H19 BC7 d   1       3.750  -3.312   9.320  0.00  0.00     0.084 H 
ATOM     59  C26 BC7 d   1       5.916  -1.302   7.657  0.00  0.00     0.064 A 
ATOM     60  H20 BC7 d   1       4.049  -2.217   7.147  0.00  0.00     0.084 H 
ATOM     61  C27 BC7 d   1       6.885  -1.152   8.679  0.00  0.00     0.017 A 
ATOM     62  C28 BC7 d   1       6.702  -1.779   9.906  0.00  0.00    -0.054 A 
ATOM     63  H21 BC7 d   1       7.446  -1.660  10.685  0.00  0.00     0.086 H 
BRANCH  59  64
ATOM     64  C38 BC7 d   1       6.072  -0.653   6.307  0.00  0.00     0.418 C 
ATOM     65  F39 BC7 d   1       7.206  -1.009   5.694  0.00  0.00    -0.166 F 
ATOM     66  F40 BC7 d   1       5.117  -0.960   5.498  0.00  0.00    -0.166 F 
ATOM     67  F41 BC7 d   1       6.089   0.654   6.355  0.00  0.00    -0.166 F 
ENDBRANCH  59  64
BRANCH  61  68
ATOM     68  S29 BC7 d   1       8.339  -0.180   8.455  0.00  0.00    -0.120 SA
BRANCH  68  69
ATOM     69  C30 BC7 d   1       8.289   0.848   9.940  0.00  0.00     0.055 C 
ATOM     70  H24 BC7 d   1       7.368   1.449   9.930  0.00  0.00     0.063 H 
ATOM     71  H25 BC7 d   1       8.293   0.198  10.828  0.00  0.00     0.063 H 
BRANCH  69  72
ATOM     72  C31 BC7 d   1       9.489   1.778   9.999  0.00  0.00     0.229 C 
ATOM     73  N33 BC7 d   1       9.583   2.628  11.051  0.00  0.00    -0.351 N 
ATOM     74  C34 BC7 d   1       8.618   2.733  12.153  0.00  0.00    -0.002 C 
ATOM     75  C37 BC7 d   1      10.691   3.575  11.222  0.00  0.00    -0.002 C 
ATOM     76  C35 BC7 d   1       8.843   4.192  12.706  0.00  0.00    -0.049 C 
ATOM     77  H26 BC7 d   1       7.588   2.606  11.787  0.00  0.00     0.064 H 
ATOM     78  H27 BC7 d   1       8.826   1.982  12.930  0.00  0.00     0.064 H 
ATOM     79  C36 BC7 d   1      10.039   4.758  11.927  0.00  0.00    -0.049 C 
ATOM     80  H28 BC7 d   1       9.067   4.163  13.783  0.00  0.00     0.035 H 
ATOM     81  H29 BC7 d   1       7.948   4.808  12.534  0.00  0.00     0.035 H 
ATOM     82  H30 BC7 d   1      10.753   5.231  12.617  0.00  0.00     0.035 H 
ATOM     83  H31 BC7 d   1       9.697   5.499  11.190  0.00  0.00     0.035 H 
ATOM     84  H32 BC7 d   1      11.489   3.139  11.841  0.00  0.00     0.064 H 
ATOM     85  H33 BC7 d   1      11.105   3.876  10.248  0.00  0.00     0.064 H 
ATOM     86  O32 BC7 d   1      10.334   1.743   9.113  0.00  0.00    -0.273 OA
ENDBRANCH  69  72
ENDBRANCH  68  69
ENDBRANCH  61  68
ENDBRANCH   6  55
BRANCH   1  87
ATOM     87  C43 BC7 d   1       8.958  -7.809  12.991  0.00  0.00    -0.003 C 
ATOM     88  H34 BC7 d   1       9.371  -8.637  12.397  0.00  0.00     0.040 H 
ATOM     89  H35 BC7 d   1       8.032  -8.139  13.486  0.00  0.00     0.040 H 
ATOM     90  H36 BC7 d   1       9.691  -7.502  13.752  0.00  0.00     0.040 H 
ENDBRANCH   1  87
TORSDOF 15
