REMARK  8 active torsions:
REMARK  status: ('A' for Active; 'I' for Inactive)
REMARK    1  A    between atoms: C22_7  and  C18_2 
REMARK    2  A    between atoms: C15_3  and  C10_23 
REMARK       I    between atoms: N17_27  and  C15_3 
REMARK    3  A    between atoms: C19_4  and  C23_8 
REMARK       I    between atoms: N30_32  and  C22_7 
REMARK    4  A    between atoms: C34_11  and  C37_37 
REMARK    5  A    between atoms: C9_22  and  C6_19 
REMARK    6  A    between atoms: C7_20  and  N8_21 
REMARK    7  A    between atoms: C10_23  and  C9_22 
REMARK    8  A    between atoms: C31_33  and  N30_32 
ROOT
ATOM      1  C18 BUV d   1      40.384 -21.422  29.182  0.00  0.00     0.099 C 
ATOM      2  C15 BUV d   1      39.214 -19.259  29.342  0.00  0.00     0.244 C 
ATOM      3  C19 BUV d   1      40.213 -22.647  28.232  0.00  0.00     0.001 C 
ATOM      4  C20 BUV d   1      38.940 -22.305  27.439  0.00  0.00    -0.041 C 
ATOM      5  C21 BUV d   1      38.925 -20.797  27.366  0.00  0.00    -0.000 C 
ATOM      6  O16 BUV d   1      39.817 -19.002  30.384  0.00  0.00    -0.268 OA
ATOM      7  N17 BUV d   1      39.480 -20.408  28.663  0.00  0.00    -0.335 N 
ATOM      8  H1  BUV d   1      40.107 -21.682  30.214  0.00  0.00     0.089 H 
ATOM      9  H2  BUV d   1      41.057 -22.616  27.527  0.00  0.00     0.051 H 
ATOM     10  H3  BUV d   1      38.046 -22.677  27.962  0.00  0.00     0.036 H 
ATOM     11  H4  BUV d   1      38.983 -22.741  26.430  0.00  0.00     0.036 H 
ATOM     12  H5  BUV d   1      37.901 -20.416  27.242  0.00  0.00     0.064 H 
ATOM     13  H6  BUV d   1      39.554 -20.433  26.540  0.00  0.00     0.064 H 
ENDROOT
BRANCH   1  14
ATOM     14  C22 BUV d   1      41.851 -20.987  29.142  0.00  0.00     0.245 C 
ATOM     15  O29 BUV d   1      42.310 -20.399  28.166  0.00  0.00    -0.271 OA
ATOM     16  N30 BUV d   1      42.572 -21.389  30.219  0.00  0.00    -0.325 N 
ATOM     17  H19 BUV d   1      42.029 -21.729  30.987  0.00  0.00     0.169 HD
BRANCH  16  18
ATOM     18  C31 BUV d   1      43.977 -21.402  30.425  0.00  0.00     0.034 A 
ATOM     19  C32 BUV d   1      44.933 -20.972  29.506  0.00  0.00    -0.056 A 
ATOM     20  C33 BUV d   1      46.283 -21.048  29.814  0.00  0.00    -0.064 A 
ATOM     21  H20 BUV d   1      44.620 -20.576  28.547  0.00  0.00     0.086 H 
ATOM     22  C34 BUV d   1      46.709 -21.563  31.041  0.00  0.00     0.041 A 
ATOM     23  H10 BUV d   1      47.017 -20.704  29.094  0.00  0.00     0.085 H 
ATOM     24  C35 BUV d   1      45.744 -21.978  31.956  0.00  0.00    -0.064 A 
ATOM     25  C36 BUV d   1      44.396 -21.901  31.654  0.00  0.00    -0.056 A 
ATOM     26  H21 BUV d   1      46.054 -22.367  32.919  0.00  0.00     0.085 H 
ATOM     27  H22 BUV d   1      43.662 -22.232  32.380  0.00  0.00     0.086 H 
BRANCH  22  28
ATOM     28  C37 BUV d   1      48.163 -21.683  31.380  0.00  0.00     0.209 C 
ATOM     29  O38 BUV d   1      48.545 -22.236  32.418  0.00  0.00    -0.644 OA
ATOM     30  O39 BUV d   1      48.989 -21.212  30.484  0.00  0.00    -0.644 OA
ENDBRANCH  22  28
ENDBRANCH  16  18
ENDBRANCH   1  14
BRANCH   2  31
ATOM     31  C10 BUV d   1      38.207 -18.341  28.770  0.00  0.00    -0.017 C 
ATOM     32  H15 BUV d   1      37.250 -18.732  28.428  0.00  0.00     0.092 H 
BRANCH  31  33
ATOM     33  C9  BUV d   1      38.458 -17.063  28.672  0.00  0.00    -0.066 C 
ATOM     34  H14 BUV d   1      39.471 -16.753  28.927  0.00  0.00     0.085 H 
BRANCH  33  35
ATOM     35  C6  BUV d   1      37.543 -15.996  28.261  0.00  0.00    -0.005 A 
ATOM     36  C5  BUV d   1      36.374 -15.831  29.014  0.00  0.00    -0.050 A 
ATOM     37  C4  BUV d   1      35.630 -14.675  28.878  0.00  0.00     0.035 A 
ATOM     38  H13 BUV d   1      36.054 -16.607  29.700  0.00  0.00     0.087 H 
ATOM     39 CL1  BUV d   1      34.206 -14.452  29.869  0.00  0.00    -0.084 Cl
ATOM     40  C3  BUV d   1      35.998 -13.681  27.994  0.00  0.00    -0.060 A 
ATOM     41  C2  BUV d   1      37.129 -13.852  27.212  0.00  0.00    -0.053 A 
ATOM     42  H12 BUV d   1      35.408 -12.775  27.912  0.00  0.00     0.086 H 
ATOM     43  C7  BUV d   1      37.887 -15.016  27.312  0.00  0.00     0.071 A 
ATOM     44  H11 BUV d   1      37.426 -13.074  26.518  0.00  0.00     0.087 H 
BRANCH  43  45
ATOM     45  N8  BUV d   1      38.929 -15.240  26.355  0.00  0.00    -0.205 N 
ATOM     46  N14 BUV d   1      40.156 -15.659  26.752  0.00  0.00    -0.040 NA
ATOM     47  N13 BUV d   1      40.837 -15.871  25.669  0.00  0.00    -0.023 NA
ATOM     48  N12 BUV d   1      40.093 -15.591  24.566  0.00  0.00    -0.122 NA
ATOM     49  C11 BUV d   1      38.933 -15.197  25.016  0.00  0.00     0.113 A 
ATOM     50  H8  BUV d   1      38.095 -14.881  24.397  0.00  0.00     0.149 H 
ENDBRANCH  43  45
ENDBRANCH  33  35
ENDBRANCH  31  33
ENDBRANCH   2  31
BRANCH   3  51
ATOM     51  C23 BUV d   1      40.258 -24.045  28.806  0.00  0.00    -0.051 A 
ATOM     52  C24 BUV d   1      40.507 -24.286  30.151  0.00  0.00    -0.076 A 
ATOM     53  C25 BUV d   1      40.638 -25.577  30.621  0.00  0.00    -0.082 A 
ATOM     54  H7  BUV d   1      40.599 -23.453  30.838  0.00  0.00     0.084 H 
ATOM     55  C26 BUV d   1      40.527 -26.648  29.756  0.00  0.00    -0.083 A 
ATOM     56  H16 BUV d   1      40.829 -25.751  31.674  0.00  0.00     0.083 H 
ATOM     57  C27 BUV d   1      40.266 -26.424  28.421  0.00  0.00    -0.082 A 
ATOM     58  H17 BUV d   1      40.645 -27.660  30.125  0.00  0.00     0.083 H 
ATOM     59  C28 BUV d   1      40.128 -25.132  27.948  0.00  0.00    -0.076 A 
ATOM     60  H9  BUV d   1      40.169 -27.262  27.741  0.00  0.00     0.083 H 
ATOM     61  H18 BUV d   1      39.916 -24.965  26.898  0.00  0.00     0.084 H 
ENDBRANCH   3  51
TORSDOF 8
