REMARK  6 active torsions:
REMARK  status: ('A' for Active; 'I' for Inactive)
REMARK    1  A    between atoms: C6_18  and  C13_1 
REMARK    2  A    between atoms: C14_25  and  C15_3 
REMARK       I    between atoms: C15_3  and  N18_27 
REMARK    3  A    between atoms: C19_4  and  C27_11 
REMARK    4  A    between atoms: N35_35  and  C34_10 
REMARK       I    between atoms: C27_11  and  N35_35 
REMARK    5  A    between atoms: C7_19  and  N8_20 
REMARK    6  A    between atoms: C31_33  and  C36_36 
ROOT
ATOM      1  C17 BUY d   1      38.810 -20.994  27.201  0.00  0.00     0.003 C 
ATOM      2  C15 BUY d   1      39.279 -19.159  28.960  0.00  0.00     0.244 C 
ATOM      3  C19 BUY d   1      40.200 -21.409  29.292  0.00  0.00     0.118 C 
ATOM      4  C20 BUY d   1      40.067 -22.896  29.017  0.00  0.00    -0.020 A 
ATOM      5  C21 BUY d   1      39.762 -23.254  27.704  0.00  0.00    -0.048 A 
ATOM      6  C22 BUY d   1      39.571 -22.188  26.653  0.00  0.00    -0.025 C 
ATOM      7  C23 BUY d   1      40.281 -23.889  29.970  0.00  0.00    -0.074 A 
ATOM      8  C24 BUY d   1      40.195 -25.223  29.629  0.00  0.00    -0.082 A 
ATOM      9  O16 BUY d   1      39.815 -18.893  30.039  0.00  0.00    -0.268 OA
ATOM     10  N18 BUY d   1      39.443 -20.474  28.430  0.00  0.00    -0.331 N 
ATOM     11  C25 BUY d   1      39.891 -25.582  28.336  0.00  0.00    -0.082 A 
ATOM     12  C26 BUY d   1      39.679 -24.604  27.377  0.00  0.00    -0.076 A 
ATOM     13  H2  BUY d   1      37.779 -21.301  27.431  0.00  0.00     0.065 H 
ATOM     14  H3  BUY d   1      38.795 -20.199  26.441  0.00  0.00     0.065 H 
ATOM     15  H4  BUY d   1      39.894 -21.226  30.333  0.00  0.00     0.095 H 
ATOM     16  H5  BUY d   1      40.558 -21.852  26.302  0.00  0.00     0.042 H 
ATOM     17  H6  BUY d   1      39.007 -22.614  25.810  0.00  0.00     0.042 H 
ATOM     18  H7  BUY d   1      40.518 -23.611  30.991  0.00  0.00     0.084 H 
ATOM     19  H8  BUY d   1      40.367 -25.987  30.378  0.00  0.00     0.083 H 
ATOM     20  H15 BUY d   1      39.817 -26.630  28.067  0.00  0.00     0.083 H 
ATOM     21  H16 BUY d   1      39.446 -24.895  26.359  0.00  0.00     0.084 H 
ENDROOT
BRANCH   2  22
ATOM     22  C14 BUY d   1      38.378 -18.210  28.248  0.00  0.00    -0.017 C 
ATOM     23  C13 BUY d   1      38.134 -16.991  28.730  0.00  0.00    -0.066 C 
ATOM     24  H1  BUY d   1      38.703 -16.708  29.614  0.00  0.00     0.085 H 
ATOM     25  H14 BUY d   1      37.909 -18.518  27.315  0.00  0.00     0.092 H 
BRANCH  23  26
ATOM     26  C6  BUY d   1      37.194 -15.978  28.221  0.00  0.00    -0.005 A 
ATOM     27  C5  BUY d   1      35.980 -15.848  28.905  0.00  0.00    -0.050 A 
ATOM     28  C4  BUY d   1      35.191 -14.730  28.707  0.00  0.00     0.035 A 
ATOM     29  H12 BUY d   1      35.658 -16.624  29.590  0.00  0.00     0.087 H 
ATOM     30 CL1  BUY d   1      33.695 -14.562  29.621  0.00  0.00    -0.084 Cl
ATOM     31  C3  BUY d   1      35.558 -13.739  27.815  0.00  0.00    -0.060 A 
ATOM     32  C2  BUY d   1      36.735 -13.880  27.088  0.00  0.00    -0.053 A 
ATOM     33  H11 BUY d   1      34.935 -12.862  27.684  0.00  0.00     0.086 H 
ATOM     34  C7  BUY d   1      37.542 -15.010  27.262  0.00  0.00     0.071 A 
ATOM     35  H10 BUY d   1      37.029 -13.111  26.383  0.00  0.00     0.087 H 
BRANCH  34  36
ATOM     36  N8  BUY d   1      38.653 -15.206  26.381  0.00  0.00    -0.205 N 
ATOM     37  C9  BUY d   1      38.757 -15.153  25.046  0.00  0.00     0.113 A 
ATOM     38  N10 BUY d   1      39.980 -15.438  24.689  0.00  0.00    -0.122 NA
ATOM     39  H13 BUY d   1      37.945 -14.909  24.363  0.00  0.00     0.149 H 
ATOM     40  N11 BUY d   1      40.653 -15.676  25.845  0.00  0.00    -0.023 NA
ATOM     41  N12 BUY d   1      39.872 -15.536  26.873  0.00  0.00    -0.040 NA
ENDBRANCH  34  36
ENDBRANCH  23  26
ENDBRANCH   2  22
BRANCH   3  42
ATOM     42  C27 BUY d   1      41.693 -21.096  29.114  0.00  0.00     0.249 C 
ATOM     43  O28 BUY d   1      42.111 -20.611  28.064  0.00  0.00    -0.270 OA
ATOM     44  N35 BUY d   1      42.473 -21.454  30.168  0.00  0.00    -0.325 N 
ATOM     45  H20 BUY d   1      41.992 -21.889  30.929  0.00  0.00     0.169 HD
BRANCH  44  46
ATOM     46  C34 BUY d   1      43.872 -21.298  30.342  0.00  0.00     0.034 A 
ATOM     47  C33 BUY d   1      44.692 -20.659  29.414  0.00  0.00    -0.056 A 
ATOM     48  C32 BUY d   1      46.054 -20.563  29.633  0.00  0.00    -0.064 A 
ATOM     49  H9  BUY d   1      44.260 -20.235  28.515  0.00  0.00     0.086 H 
ATOM     50  C31 BUY d   1      46.636 -21.109  30.775  0.00  0.00     0.041 A 
ATOM     51  H19 BUY d   1      46.678 -20.056  28.906  0.00  0.00     0.085 H 
ATOM     52  C30 BUY d   1      45.809 -21.725  31.714  0.00  0.00    -0.064 A 
ATOM     53  C29 BUY d   1      44.442 -21.813  31.506  0.00  0.00    -0.056 A 
ATOM     54  H18 BUY d   1      46.241 -22.140  32.617  0.00  0.00     0.085 H 
ATOM     55  H17 BUY d   1      43.812 -22.285  32.252  0.00  0.00     0.086 H 
BRANCH  50  56
ATOM     56  C36 BUY d   1      48.123 -21.169  30.902  0.00  0.00     0.209 C 
ATOM     57  O37 BUY d   1      48.575 -21.968  31.842  0.00  0.00    -0.644 OA
ATOM     58  O38 BUY d   1      48.853 -20.441  30.227  0.00  0.00    -0.644 OA
ENDBRANCH  50  56
ENDBRANCH  44  46
ENDBRANCH   3  42
TORSDOF 6
