REMARK  8 active torsions:
REMARK  status: ('A' for Active; 'I' for Inactive)
REMARK    1  A    between atoms: C13_1  and  C6_17 
REMARK    2  A    between atoms: C15_3  and  C14_24 
REMARK       I    between atoms: N19_27  and  C15_3 
REMARK    3  A    between atoms: C28_30  and  C20_4 
REMARK    4  A    between atoms: C7_18  and  N8_19 
REMARK       I    between atoms: N36_36  and  C28_30 
REMARK    5  A    between atoms: C32_34  and  N37_37 
REMARK    6  A    between atoms: C35_35  and  N36_36 
REMARK       I    between atoms: N37_37  and  C38_38 
REMARK    7  A    between atoms: C38_38  and  O39_39 
REMARK    8  A    between atoms: O39_39  and  C41_41 
ROOT
ATOM      1  C18 BVJ d   1      38.918 -20.960  27.320  0.00  0.00     0.003 C 
ATOM      2  C15 BVJ d   1      39.342 -19.230  29.157  0.00  0.00     0.244 C 
ATOM      3  C20 BVJ d   1      40.375 -21.434  29.341  0.00  0.00     0.118 C 
ATOM      4  C21 BVJ d   1      40.214 -22.913  29.036  0.00  0.00    -0.020 A 
ATOM      5  C22 BVJ d   1      39.900 -23.232  27.712  0.00  0.00    -0.048 A 
ATOM      6  C23 BVJ d   1      39.678 -22.125  26.709  0.00  0.00    -0.025 C 
ATOM      7  C24 BVJ d   1      40.408 -23.935  29.964  0.00  0.00    -0.074 A 
ATOM      8  C27 BVJ d   1      39.810 -24.573  27.346  0.00  0.00    -0.076 A 
ATOM      9  O16 BVJ d   1      40.029 -18.896  30.111  0.00  0.00    -0.268 OA
ATOM     10  N19 BVJ d   1      39.586 -20.473  28.537  0.00  0.00    -0.331 N 
ATOM     11  C25 BVJ d   1      40.317 -25.257  29.583  0.00  0.00    -0.082 A 
ATOM     12  C26 BVJ d   1      40.019 -25.579  28.277  0.00  0.00    -0.082 A 
ATOM     13  H2  BVJ d   1      37.900 -21.290  27.576  0.00  0.00     0.065 H 
ATOM     14  H3  BVJ d   1      38.865 -20.142  26.587  0.00  0.00     0.065 H 
ATOM     15  H4  BVJ d   1      40.079 -21.282  30.389  0.00  0.00     0.095 H 
ATOM     16  H5  BVJ d   1      40.654 -21.766  26.352  0.00  0.00     0.042 H 
ATOM     17  H6  BVJ d   1      39.101 -22.522  25.861  0.00  0.00     0.042 H 
ATOM     18  H7  BVJ d   1      40.633 -23.688  30.995  0.00  0.00     0.084 H 
ATOM     19  H9  BVJ d   1      39.574 -24.833  26.321  0.00  0.00     0.084 H 
ATOM     20  H15 BVJ d   1      40.480 -26.043  30.311  0.00  0.00     0.083 H 
ATOM     21  H16 BVJ d   1      39.948 -26.618  27.977  0.00  0.00     0.083 H 
ENDROOT
BRANCH   3  22
ATOM     22  C28 BVJ d   1      41.875 -21.132  29.200  0.00  0.00     0.249 C 
ATOM     23  O29 BVJ d   1      42.339 -20.700  28.145  0.00  0.00    -0.270 OA
ATOM     24  N36 BVJ d   1      42.601 -21.421  30.306  0.00  0.00    -0.325 N 
ATOM     25  H19 BVJ d   1      42.071 -21.772  31.078  0.00  0.00     0.169 HD
BRANCH  24  26
ATOM     26  C35 BVJ d   1      43.994 -21.304  30.541  0.00  0.00     0.034 A 
ATOM     27  C34 BVJ d   1      44.949 -20.880  29.619  0.00  0.00    -0.055 A 
ATOM     28  C33 BVJ d   1      46.298 -20.939  29.934  0.00  0.00    -0.055 A 
ATOM     29  H8  BVJ d   1      44.636 -20.503  28.652  0.00  0.00     0.087 H 
ATOM     30  C32 BVJ d   1      46.711 -21.423  31.173  0.00  0.00     0.036 A 
ATOM     31  H10 BVJ d   1      47.035 -20.607  29.212  0.00  0.00     0.087 H 
ATOM     32  C31 BVJ d   1      45.751 -21.782  32.113  0.00  0.00    -0.055 A 
ATOM     33  C30 BVJ d   1      44.407 -21.728  31.799  0.00  0.00    -0.055 A 
ATOM     34  H18 BVJ d   1      46.060 -22.107  33.100  0.00  0.00     0.087 H 
ATOM     35  H17 BVJ d   1      43.669 -22.018  32.538  0.00  0.00     0.087 H 
BRANCH  30  36
ATOM     36  N37 BVJ d   1      48.036 -21.739  31.569  0.00  0.00    -0.303 N 
ATOM     37  C38 BVJ d   1      49.195 -21.556  30.889  0.00  0.00     0.364 C 
ATOM     38  O40 BVJ d   1      49.357 -20.846  29.918  0.00  0.00    -0.238 OA
ATOM     39  H20 BVJ d   1      48.128 -22.154  32.474  0.00  0.00     0.171 HD
BRANCH  37  40
ATOM     40  O39 BVJ d   1      50.162 -22.300  31.465  0.00  0.00    -0.309 OA
BRANCH  40  41
ATOM     41  C41 BVJ d   1      51.191 -22.829  30.589  0.00  0.00     0.015 C 
ATOM     42  H21 BVJ d   1      51.912 -23.412  31.181  0.00  0.00     0.067 H 
ATOM     43  H22 BVJ d   1      51.712 -21.998  30.092  0.00  0.00     0.067 H 
ATOM     44  H23 BVJ d   1      50.729 -23.478  29.831  0.00  0.00     0.067 H 
ENDBRANCH  40  41
ENDBRANCH  37  40
ENDBRANCH  30  36
ENDBRANCH  24  26
ENDBRANCH   3  22
BRANCH   2  45
ATOM     45  C14 BVJ d   1      38.213 -18.399  28.666  0.00  0.00    -0.017 C 
ATOM     46  C13 BVJ d   1      38.417 -17.164  28.236  0.00  0.00    -0.062 C 
ATOM     47  H1  BVJ d   1      39.439 -16.971  27.913  0.00  0.00     0.085 H 
ATOM     48  H14 BVJ d   1      37.205 -18.811  28.660  0.00  0.00     0.092 H 
BRANCH  46  49
ATOM     49  C6  BVJ d   1      37.510 -15.987  28.111  0.00  0.00     0.033 A 
ATOM     50  C5  BVJ d   1      36.301 -15.850  28.803  0.00  0.00     0.150 A 
ATOM     51  C4  BVJ d   1      35.487 -14.735  28.671  0.00  0.00     0.073 A 
ATOM     52  F17 BVJ d   1      35.921 -16.819  29.648  0.00  0.00    -0.203 F 
ATOM     53 CL1  BVJ d   1      34.034 -14.585  29.631  0.00  0.00    -0.081 Cl
ATOM     54  C3  BVJ d   1      35.863 -13.707  27.826  0.00  0.00    -0.057 A 
ATOM     55  C2  BVJ d   1      37.044 -13.803  27.108  0.00  0.00    -0.052 A 
ATOM     56  H12 BVJ d   1      35.236 -12.829  27.726  0.00  0.00     0.086 H 
ATOM     57  C7  BVJ d   1      37.832 -14.951  27.220  0.00  0.00     0.074 A 
ATOM     58  H11 BVJ d   1      37.355 -12.990  26.462  0.00  0.00     0.087 H 
BRANCH  57  59
ATOM     59  N8  BVJ d   1      38.883 -15.163  26.275  0.00  0.00    -0.205 N 
ATOM     60  C9  BVJ d   1      38.868 -15.298  24.945  0.00  0.00     0.113 A 
ATOM     61  N10 BVJ d   1      40.056 -15.639  24.526  0.00  0.00    -0.122 NA
ATOM     62  H13 BVJ d   1      37.997 -15.147  24.308  0.00  0.00     0.149 H 
ATOM     63  N11 BVJ d   1      40.831 -15.706  25.638  0.00  0.00    -0.023 NA
ATOM     64  N12 BVJ d   1      40.146 -15.411  26.696  0.00  0.00    -0.040 NA
ENDBRANCH  57  59
ENDBRANCH  46  49
ENDBRANCH   2  45
TORSDOF 8
