REMARK  12 active torsions:
REMARK  status: ('A' for Active; 'I' for Inactive)
REMARK    1  A    between atoms: C13_1  and  C6_18 
REMARK    2  A    between atoms: C14_25  and  C13_1 
REMARK    3  A    between atoms: C27_11  and  C18_2 
REMARK    4  A    between atoms: C15_3  and  C14_25 
REMARK       I    between atoms: N17_27  and  C15_3 
REMARK       I    between atoms: N29_31  and  C27_11 
REMARK    5  A    between atoms: C33_12  and  C36_36 
REMARK    6  A    between atoms: C7_19  and  N8_20 
REMARK    7  A    between atoms: C26_29  and  C39_39 
REMARK    8  A    between atoms: C30_32  and  N29_31 
REMARK       I    between atoms: C39_39  and  N41_41 
REMARK    9  A    between atoms: C43_43  and  C47_47 
REMARK   10  A    between atoms: C47_47  and  O48_48 
REMARK   11  A    between atoms: O48_48  and  C50_50 
REMARK   12  A    between atoms: C50_50  and  C51_51 
ROOT
ATOM      1  C18 BVM d   1      39.980 -21.398  28.620  0.00  0.00     0.118 C 
ATOM      2  C15 BVM d   1      38.974 -19.125  28.593  0.00  0.00     0.244 C 
ATOM      3  C19 BVM d   1      39.900 -22.815  28.084  0.00  0.00    -0.019 A 
ATOM      4  C20 BVM d   1      39.606 -22.951  26.725  0.00  0.00    -0.032 A 
ATOM      5  C21 BVM d   1      39.225 -21.728  25.922  0.00  0.00    -0.024 C 
ATOM      6  C22 BVM d   1      38.369 -20.795  26.750  0.00  0.00     0.003 C 
ATOM      7  C23 BVM d   1      40.108 -23.948  28.867  0.00  0.00    -0.074 A 
ATOM      8  C24 BVM d   1      40.062 -25.210  28.298  0.00  0.00    -0.081 A 
ATOM      9  O16 BVM d   1      39.692 -18.862  29.558  0.00  0.00    -0.268 OA
ATOM     10  N17 BVM d   1      39.079 -20.405  27.977  0.00  0.00    -0.331 N 
ATOM     11  C25 BVM d   1      39.813 -25.358  26.940  0.00  0.00    -0.067 A 
ATOM     12  C26 BVM d   1      39.575 -24.231  26.150  0.00  0.00     0.039 A 
ATOM     13  H2  BVM d   1      39.713 -21.425  29.687  0.00  0.00     0.095 H 
ATOM     14  H3  BVM d   1      38.661 -22.041  25.031  0.00  0.00     0.042 H 
ATOM     15  H4  BVM d   1      40.139 -21.200  25.611  0.00  0.00     0.042 H 
ATOM     16  H5  BVM d   1      37.432 -21.305  27.019  0.00  0.00     0.065 H 
ATOM     17  H6  BVM d   1      38.140 -19.894  26.162  0.00  0.00     0.065 H 
ATOM     18  H7  BVM d   1      40.307 -23.842  29.927  0.00  0.00     0.084 H 
ATOM     19  H8  BVM d   1      40.221 -26.086  28.916  0.00  0.00     0.083 H 
ATOM     20  H15 BVM d   1      39.803 -26.346  26.494  0.00  0.00     0.085 H 
ENDROOT
BRANCH  12  21
ATOM     21  C39 BVM d   1      39.198 -24.405  24.704  0.00  0.00     0.254 C 
ATOM     22  O40 BVM d   1      38.045 -24.694  24.435  0.00  0.00    -0.267 OA
ATOM     23  N41 BVM d   1      40.107 -24.096  23.754  0.00  0.00    -0.347 N 
ATOM     24  C42 BVM d   1      39.761 -24.018  22.333  0.00  0.00     0.010 C 
ATOM     25  C46 BVM d   1      41.545 -23.872  23.986  0.00  0.00    -0.002 C 
ATOM     26  C43 BVM d   1      40.113 -22.634  21.777  0.00  0.00     0.046 C 
ATOM     27  H20 BVM d   1      38.682 -24.195  22.212  0.00  0.00     0.065 H 
ATOM     28  H21 BVM d   1      40.323 -24.785  21.780  0.00  0.00     0.065 H 
ATOM     29  C44 BVM d   1      41.585 -22.278  22.053  0.00  0.00    -0.050 C 
ATOM     30  H22 BVM d   1      40.009 -22.698  20.684  0.00  0.00     0.058 H 
ATOM     31  C45 BVM d   1      41.980 -22.501  23.510  0.00  0.00    -0.049 C 
ATOM     32  H23 BVM d   1      41.744 -21.219  21.803  0.00  0.00     0.034 H 
ATOM     33  H24 BVM d   1      42.225 -22.905  21.415  0.00  0.00     0.034 H 
ATOM     34  H25 BVM d   1      41.499 -21.734  24.135  0.00  0.00     0.035 H 
ATOM     35  H26 BVM d   1      43.073 -22.418  23.603  0.00  0.00     0.035 H 
ATOM     36  H27 BVM d   1      42.118 -24.637  23.442  0.00  0.00     0.064 H 
ATOM     37  H28 BVM d   1      41.750 -23.957  25.063  0.00  0.00     0.064 H 
BRANCH  26  38
ATOM     38  C47 BVM d   1      39.135 -21.568  22.233  0.00  0.00     0.264 C 
ATOM     39  O49 BVM d   1      37.937 -21.651  22.136  0.00  0.00    -0.265 OA
BRANCH  38  40
ATOM     40  O48 BVM d   1      39.769 -20.512  22.767  0.00  0.00    -0.322 OA
BRANCH  40  41
ATOM     41  C50 BVM d   1      38.979 -19.412  23.325  0.00  0.00     0.025 C 
ATOM     42  H29 BVM d   1      38.142 -19.814  23.915  0.00  0.00     0.074 H 
ATOM     43  H30 BVM d   1      38.586 -18.784  22.512  0.00  0.00     0.074 H 
BRANCH  41  44
ATOM     44  C51 BVM d   1      39.876 -18.601  24.204  0.00  0.00    -0.056 C 
ATOM     45  H31 BVM d   1      39.307 -17.765  24.638  0.00  0.00     0.030 H 
ATOM     46  H32 BVM d   1      40.712 -18.205  23.609  0.00  0.00     0.030 H 
ATOM     47  H33 BVM d   1      40.269 -19.235  25.012  0.00  0.00     0.030 H 
ENDBRANCH  41  44
ENDBRANCH  40  41
ENDBRANCH  38  40
ENDBRANCH  26  38
ENDBRANCH  12  21
BRANCH   1  48
ATOM     48  C27 BVM d   1      41.456 -20.988  28.488  0.00  0.00     0.249 C 
ATOM     49  O28 BVM d   1      41.904 -20.557  27.424  0.00  0.00    -0.270 OA
ATOM     50  N29 BVM d   1      42.198 -21.245  29.587  0.00  0.00    -0.325 N 
ATOM     51  H16 BVM d   1      41.699 -21.581  30.386  0.00  0.00     0.169 HD
BRANCH  50  52
ATOM     52  C30 BVM d   1      43.592 -21.096  29.743  0.00  0.00     0.034 A 
ATOM     53  C31 BVM d   1      44.421 -20.542  28.771  0.00  0.00    -0.056 A 
ATOM     54  C32 BVM d   1      45.791 -20.507  28.961  0.00  0.00    -0.064 A 
ATOM     55  H17 BVM d   1      43.991 -20.137  27.862  0.00  0.00     0.086 H 
ATOM     56  C33 BVM d   1      46.368 -21.046  30.108  0.00  0.00     0.041 A 
ATOM     57  H18 BVM d   1      46.424 -20.054  28.207  0.00  0.00     0.085 H 
ATOM     58  C34 BVM d   1      45.527 -21.568  31.092  0.00  0.00    -0.064 A 
ATOM     59  C35 BVM d   1      44.156 -21.597  30.910  0.00  0.00    -0.056 A 
ATOM     60  H9  BVM d   1      45.953 -21.956  32.010  0.00  0.00     0.085 H 
ATOM     61  H19 BVM d   1      43.518 -22.013  31.682  0.00  0.00     0.086 H 
BRANCH  56  62
ATOM     62  C36 BVM d   1      47.853 -20.969  30.303  0.00  0.00     0.209 C 
ATOM     63  O37 BVM d   1      48.365 -21.616  31.319  0.00  0.00    -0.644 OA
ATOM     64  O38 BVM d   1      48.535 -20.224  29.617  0.00  0.00    -0.644 OA
ENDBRANCH  56  62
ENDBRANCH  50  52
ENDBRANCH   1  48
BRANCH   2  65
ATOM     65  C14 BVM d   1      38.003 -18.154  28.030  0.00  0.00    -0.017 C 
ATOM     66  H14 BVM d   1      37.174 -18.518  27.424  0.00  0.00     0.092 H 
BRANCH  65  67
ATOM     67  C13 BVM d   1      38.124 -16.857  28.249  0.00  0.00    -0.066 C 
ATOM     68  H1  BVM d   1      39.016 -16.537  28.785  0.00  0.00     0.085 H 
BRANCH  67  69
ATOM     69  C6  BVM d   1      37.187 -15.800  27.849  0.00  0.00    -0.005 A 
ATOM     70  C5  BVM d   1      35.987 -15.679  28.562  0.00  0.00    -0.050 A 
ATOM     71  C4  BVM d   1      35.142 -14.619  28.310  0.00  0.00     0.035 A 
ATOM     72  H12 BVM d   1      35.723 -16.418  29.311  0.00  0.00     0.087 H 
ATOM     73 CL1  BVM d   1      33.706 -14.427  29.280  0.00  0.00    -0.084 Cl
ATOM     74  C3  BVM d   1      35.426 -13.688  27.333  0.00  0.00    -0.060 A 
ATOM     75  C2  BVM d   1      36.587 -13.824  26.585  0.00  0.00    -0.053 A 
ATOM     76  H11 BVM d   1      34.750 -12.860  27.151  0.00  0.00     0.086 H 
ATOM     77  C7  BVM d   1      37.473 -14.872  26.830  0.00  0.00     0.071 A 
ATOM     78  H10 BVM d   1      36.807 -13.108  25.802  0.00  0.00     0.087 H 
BRANCH  77  79
ATOM     79  N8  BVM d   1      38.506 -15.132  25.881  0.00  0.00    -0.205 N 
ATOM     80  C9  BVM d   1      38.578 -14.955  24.557  0.00  0.00     0.113 A 
ATOM     81  N10 BVM d   1      39.789 -15.209  24.144  0.00  0.00    -0.122 NA
ATOM     82  H13 BVM d   1      37.751 -14.646  23.920  0.00  0.00     0.149 H 
ATOM     83  N11 BVM d   1      40.499 -15.508  25.261  0.00  0.00    -0.023 NA
ATOM     84  N12 BVM d   1      39.746 -15.467  26.313  0.00  0.00    -0.040 NA
ENDBRANCH  77  79
ENDBRANCH  67  69
ENDBRANCH  65  67
ENDBRANCH   2  65
TORSDOF 12
