REMARK  4 active torsions:
REMARK  status: ('A' for Active; 'I' for Inactive)
REMARK    1  A    between atoms: C8_18  and  C16_3 
REMARK       I    between atoms: N17_22  and  C24_9 
REMARK    2  A    between atoms: C24_9  and  C25_25 
REMARK    3  A    between atoms: C2_12  and  N17_22 
REMARK    4  A    between atoms: C7_17  and  C4_14 
ROOT
ATOM      1  N14 J2M d   1       4.607   8.745   9.786  0.00  0.00    -0.356 N 
ATOM      2  C13 J2M d   1       3.764   7.568   9.921  0.00  0.00     0.000 C 
ATOM      3  C15 J2M d   1       5.024   9.278   8.633  0.00  0.00     0.254 C 
ATOM      4  C12 J2M d   1       2.740   7.436   8.808  0.00  0.00    -0.011 C 
ATOM      5  C7  J2M d   1       3.788   8.127   5.343  0.00  0.00     0.055 A 
ATOM      6  C8  J2M d   1       4.691   8.920   6.013  0.00  0.00     0.021 A 
ATOM      7  C9  J2M d   1       4.445   8.738   7.432  0.00  0.00     0.068 A 
ATOM      8  C10 J2M d   1       3.367   7.894   7.529  0.00  0.00     0.028 A 
ATOM      9  N11 J2M d   1       2.979   7.535   6.277  0.00  0.00    -0.357 N 
ATOM     10  O18 J2M d   1       5.858  10.170   8.670  0.00  0.00    -0.268 OA
ATOM     11  H1  J2M d   1       4.901   9.195  10.629  0.00  0.00     0.162 HD
ATOM     12  H2  J2M d   1       3.231   7.628  10.881  0.00  0.00     0.064 H 
ATOM     13  H3  J2M d   1       4.406   6.675   9.913  0.00  0.00     0.064 H 
ATOM     14  H7  J2M d   1       1.863   8.059   9.035  0.00  0.00     0.044 H 
ATOM     15  H8  J2M d   1       2.429   6.385   8.713  0.00  0.00     0.044 H 
ATOM     16  H12 J2M d   1       2.191   6.908   6.061  0.00  0.00     0.166 HD
ENDROOT
BRANCH   5  17
ATOM     17  C4  J2M d   1       3.610   7.781   3.917  0.00  0.00    -0.004 A 
ATOM     18  C3  J2M d   1       2.355   7.389   3.461  0.00  0.00    -0.026 A 
ATOM     19  C2  J2M d   1       2.250   6.805   2.187  0.00  0.00     0.130 A 
ATOM     20  H9  J2M d   1       1.475   7.532   4.077  0.00  0.00     0.090 H 
ATOM     21  N1  J2M d   1       3.318   6.668   1.362  0.00  0.00    -0.243 NA
ATOM     22  C6  J2M d   1       4.506   7.112   1.811  0.00  0.00     0.005 A 
ATOM     23  C5  J2M d   1       4.702   7.664   3.062  0.00  0.00    -0.054 A 
ATOM     24  H11 J2M d   1       5.362   7.032   1.151  0.00  0.00     0.114 H 
ATOM     25  H10 J2M d   1       5.686   7.999   3.371  0.00  0.00     0.087 H 
BRANCH  19  26
ATOM     26  N17 J2M d   1       1.045   6.315   1.647  0.00  0.00    -0.312 N 
ATOM     27  C24 J2M d   1      -0.186   6.254   2.232  0.00  0.00     0.219 C 
ATOM     28  O26 J2M d   1      -0.421   6.704   3.347  0.00  0.00    -0.274 OA
ATOM     29  H13 J2M d   1       1.099   5.966   0.712  0.00  0.00     0.170 HD
BRANCH  27  30
ATOM     30  C25 J2M d   1      -1.258   5.599   1.406  0.00  0.00    -0.002 C 
ATOM     31  H14 J2M d   1      -2.205   5.601   1.966  0.00  0.00     0.040 H 
ATOM     32  H15 J2M d   1      -0.967   4.562   1.183  0.00  0.00     0.040 H 
ATOM     33  H16 J2M d   1      -1.387   6.154   0.465  0.00  0.00     0.040 H 
ENDBRANCH  27  30
ENDBRANCH  19  26
ENDBRANCH   5  17
BRANCH   6  34
ATOM     34  C16 J2M d   1       5.744   9.783   5.440  0.00  0.00    -0.005 A 
ATOM     35  C19 J2M d   1       7.026   9.799   5.976  0.00  0.00     0.016 A 
ATOM     36  N20 J2M d   1       8.011  10.579   5.513  0.00  0.00    -0.232 NA
ATOM     37  H4  J2M d   1       7.240   9.145   6.814  0.00  0.00     0.116 H 
ATOM     38  C21 J2M d   1       7.713  11.347   4.489  0.00  0.00     0.209 A 
ATOM     39  C22 J2M d   1       6.497  11.424   3.852  0.00  0.00    -0.026 A 
ATOM     40  F27 J2M d   1       8.720  12.155   4.084  0.00  0.00    -0.184 F 
ATOM     41  C23 J2M d   1       5.490  10.619   4.357  0.00  0.00    -0.066 A 
ATOM     42  H5  J2M d   1       6.336  12.078   3.003  0.00  0.00     0.090 H 
ATOM     43  H6  J2M d   1       4.503  10.640   3.909  0.00  0.00     0.085 H 
ENDBRANCH   6  34
TORSDOF 4
