REMARK  6 active torsions:
REMARK  status: ('A' for Active; 'I' for Inactive)
REMARK    1  A    between atoms: C7_17  and  C16_2 
REMARK    2  A    between atoms: C19_4  and  O26_27 
REMARK       I    between atoms: N22_24  and  C23_7 
REMARK    3  A    between atoms: C23_7  and  C25_26 
REMARK    4  A    between atoms: O26_27  and  C27_10 
REMARK    5  A    between atoms: C10_20  and  C8_18 
REMARK    6  A    between atoms: C14_22  and  N22_24 
ROOT
ATOM      1  C1  J2V d   1       4.108   9.252   7.215  0.00  0.00     0.096 A 
ATOM      2  C2  J2V d   1       2.903   8.556   7.306  0.00  0.00     0.062 A 
ATOM      3  C3  J2V d   1       2.189   8.564   8.512  0.00  0.00    -0.053 A 
ATOM      4  C4  J2V d   1       2.727   9.276   9.577  0.00  0.00    -0.064 A 
ATOM      5  C5  J2V d   1       3.944   9.941   9.402  0.00  0.00     0.003 A 
ATOM      6  N6  J2V d   1       4.639   9.943   8.245  0.00  0.00    -0.258 NA
ATOM      7  C7  J2V d   1       4.576   9.093   5.857  0.00  0.00     0.034 A 
ATOM      8  C8  J2V d   1       3.654   8.299   5.205  0.00  0.00     0.057 A 
ATOM      9  N9  J2V d   1       2.638   7.981   6.089  0.00  0.00    -0.353 N 
ATOM     10  H10 J2V d   1       1.249   8.033   8.611  0.00  0.00     0.087 H 
ATOM     11  H11 J2V d   1       2.211   9.315  10.529  0.00  0.00     0.085 H 
ATOM     12  H12 J2V d   1       4.353  10.487  10.244  0.00  0.00     0.114 H 
ATOM     13  H13 J2V d   1       1.814   7.404   5.868  0.00  0.00     0.166 HD
ENDROOT
BRANCH   8  14
ATOM     14  C10 J2V d   1       3.607   7.730   3.833  0.00  0.00    -0.004 A 
ATOM     15  C15 J2V d   1       2.389   7.300   3.288  0.00  0.00    -0.026 A 
ATOM     16  C14 J2V d   1       2.386   6.600   2.068  0.00  0.00     0.130 A 
ATOM     17  H2  J2V d   1       1.457   7.505   3.803  0.00  0.00     0.090 H 
ATOM     18  N13 J2V d   1       3.521   6.368   1.379  0.00  0.00    -0.243 NA
ATOM     19  C12 J2V d   1       4.682   6.816   1.908  0.00  0.00     0.005 A 
ATOM     20  C11 J2V d   1       4.774   7.498   3.107  0.00  0.00    -0.054 A 
ATOM     21  H6  J2V d   1       5.597   6.629   1.358  0.00  0.00     0.114 H 
ATOM     22  H5  J2V d   1       5.733   7.845   3.475  0.00  0.00     0.087 H 
BRANCH  16  23
ATOM     23  N22 J2V d   1       1.218   6.029   1.459  0.00  0.00    -0.312 N 
ATOM     24  C23 J2V d   1      -0.068   6.000   1.930  0.00  0.00     0.219 C 
ATOM     25  O24 J2V d   1      -0.418   6.559   2.949  0.00  0.00    -0.274 OA
ATOM     26  H14 J2V d   1       1.363   5.593   0.571  0.00  0.00     0.170 HD
BRANCH  24  27
ATOM     27  C25 J2V d   1      -1.058   5.212   1.116  0.00  0.00    -0.002 C 
ATOM     28  H15 J2V d   1      -2.048   5.264   1.592  0.00  0.00     0.040 H 
ATOM     29  H16 J2V d   1      -0.733   4.163   1.059  0.00  0.00     0.040 H 
ATOM     30  H17 J2V d   1      -1.117   5.633   0.102  0.00  0.00     0.040 H 
ENDBRANCH  24  27
ENDBRANCH  16  23
ENDBRANCH   8  14
BRANCH   7  31
ATOM     31  C16 J2V d   1       5.780   9.755   5.300  0.00  0.00    -0.004 A 
ATOM     32  C17 J2V d   1       6.993   9.635   5.965  0.00  0.00     0.016 A 
ATOM     33  N18 J2V d   1       8.108  10.289   5.618  0.00  0.00    -0.236 NA
ATOM     34  H1  J2V d   1       7.040   8.969   6.819  0.00  0.00     0.116 H 
ATOM     35  C19 J2V d   1       8.029  11.092   4.562  0.00  0.00     0.163 A 
ATOM     36  C20 J2V d   1       6.859  11.304   3.803  0.00  0.00    -0.031 A 
ATOM     37  C21 J2V d   1       5.726  10.605   4.193  0.00  0.00    -0.067 A 
ATOM     38  H3  J2V d   1       6.846  11.980   2.956  0.00  0.00     0.090 H 
ATOM     39  H4  J2V d   1       4.801  10.718   3.640  0.00  0.00     0.085 H 
BRANCH  35  40
ATOM     40  O26 J2V d   1       9.145  11.717   4.125  0.00  0.00    -0.339 OA
BRANCH  40  41
ATOM     41  C27 J2V d   1      10.392  11.493   4.832  0.00  0.00     0.012 C 
ATOM     42  H7  J2V d   1      11.195  12.071   4.351  0.00  0.00     0.067 H 
ATOM     43  H8  J2V d   1      10.643  10.422   4.803  0.00  0.00     0.067 H 
ATOM     44  H9  J2V d   1      10.284  11.816   5.878  0.00  0.00     0.067 H 
ENDBRANCH  40  41
ENDBRANCH  35  40
ENDBRANCH   7  31
TORSDOF 6
