REMARK  6 active torsions:
REMARK  status: ('A' for Active; 'I' for Inactive)
REMARK    1  A    between atoms: C7_17  and  C16_2 
REMARK    2  A    between atoms: C19_4  and  O26_27 
REMARK       I    between atoms: N22_24  and  C23_7 
REMARK    3  A    between atoms: C23_7  and  C25_26 
REMARK    4  A    between atoms: O26_27  and  C27_10 
REMARK    5  A    between atoms: C10_20  and  C8_18 
REMARK    6  A    between atoms: C14_22  and  N22_24 
ROOT
ATOM      1  C1  J2Y d   1       4.111   9.822   7.500  0.00  0.00     0.098 A 
ATOM      2  C2  J2Y d   1       2.924   9.102   7.633  0.00  0.00     0.062 A 
ATOM      3  C3  J2Y d   1       2.184   9.205   8.816  0.00  0.00    -0.053 A 
ATOM      4  C4  J2Y d   1       2.691  10.013   9.835  0.00  0.00    -0.064 A 
ATOM      5  C5  J2Y d   1       3.899  10.677   9.630  0.00  0.00     0.003 A 
ATOM      6  N6  J2Y d   1       4.617  10.597   8.483  0.00  0.00    -0.258 NA
ATOM      7  C7  J2Y d   1       4.599   9.555   6.114  0.00  0.00     0.051 A 
ATOM      8  C8  J2Y d   1       3.692   8.689   5.544  0.00  0.00     0.058 A 
ATOM      9  N9  J2Y d   1       2.690   8.407   6.463  0.00  0.00    -0.353 N 
ATOM     10  H10 J2Y d   1       1.247   8.674   8.937  0.00  0.00     0.087 H 
ATOM     11  H11 J2Y d   1       2.154  10.122  10.770  0.00  0.00     0.085 H 
ATOM     12  H12 J2Y d   1       4.287  11.293  10.434  0.00  0.00     0.114 H 
ATOM     13  H13 J2Y d   1       1.893   7.776   6.297  0.00  0.00     0.166 HD
ENDROOT
BRANCH   8  14
ATOM     14  C10 J2Y d   1       3.591   8.130   4.184  0.00  0.00    -0.003 A 
ATOM     15  C15 J2Y d   1       2.351   7.700   3.719  0.00  0.00    -0.026 A 
ATOM     16  C14 J2Y d   1       2.292   7.012   2.494  0.00  0.00     0.130 A 
ATOM     17  H2  J2Y d   1       1.450   7.892   4.290  0.00  0.00     0.090 H 
ATOM     18  N13 J2Y d   1       3.383   6.806   1.717  0.00  0.00    -0.243 NA
ATOM     19  C12 J2Y d   1       4.562   7.266   2.176  0.00  0.00     0.005 A 
ATOM     20  C11 J2Y d   1       4.716   7.929   3.386  0.00  0.00    -0.054 A 
ATOM     21  H6  J2Y d   1       5.443   7.109   1.565  0.00  0.00     0.114 H 
ATOM     22  H5  J2Y d   1       5.690   8.283   3.703  0.00  0.00     0.087 H 
BRANCH  16  23
ATOM     23  N22 J2Y d   1       1.092   6.456   1.987  0.00  0.00    -0.312 N 
ATOM     24  C23 J2Y d   1      -0.145   6.392   2.575  0.00  0.00     0.219 C 
ATOM     25  O24 J2Y d   1      -0.398   6.872   3.677  0.00  0.00    -0.274 OA
ATOM     26  H14 J2Y d   1       1.156   6.054   1.073  0.00  0.00     0.170 HD
BRANCH  24  27
ATOM     27  C25 J2Y d   1      -1.223   5.731   1.753  0.00  0.00    -0.002 C 
ATOM     28  H15 J2Y d   1      -2.168   5.734   2.317  0.00  0.00     0.040 H 
ATOM     29  H16 J2Y d   1      -0.931   4.694   1.532  0.00  0.00     0.040 H 
ATOM     30  H17 J2Y d   1      -1.356   6.283   0.811  0.00  0.00     0.040 H 
ENDBRANCH  24  27
ENDBRANCH  16  23
ENDBRANCH   8  14
BRANCH   7  31
ATOM     31  C16 J2Y d   1       5.746  10.260   5.495  0.00  0.00     0.071 A 
ATOM     32  C21 J2Y d   1       5.555  11.082   4.379  0.00  0.00    -0.051 A 
ATOM     33  C20 J2Y d   1       6.632  11.816   3.905  0.00  0.00    -0.047 A 
ATOM     34  H4  J2Y d   1       4.587  11.144   3.896  0.00  0.00     0.087 H 
ATOM     35  C19 J2Y d   1       7.863  11.700   4.545  0.00  0.00     0.085 A 
ATOM     36  H3  J2Y d   1       6.517  12.471   3.049  0.00  0.00     0.087 H 
ATOM     37  C18 J2Y d   1       7.978  10.864   5.640  0.00  0.00     0.035 A 
ATOM     38  N17 J2Y d   1       6.936  10.137   6.114  0.00  0.00    -0.257 NA
ATOM     39  H1  J2Y d   1       8.937  10.787   6.139  0.00  0.00     0.119 H 
BRANCH  35  40
ATOM     40  O26 J2Y d   1       8.914  12.375   3.967  0.00  0.00    -0.355 OA
BRANCH  40  41
ATOM     41  C27 J2Y d   1      10.236  12.176   4.501  0.00  0.00     0.010 C 
ATOM     42  H7  J2Y d   1      10.956  12.782   3.932  0.00  0.00     0.066 H 
ATOM     43  H8  J2Y d   1      10.508  11.113   4.421  0.00  0.00     0.066 H 
ATOM     44  H9  J2Y d   1      10.254  12.481   5.558  0.00  0.00     0.066 H 
ENDBRANCH  40  41
ENDBRANCH  35  40
ENDBRANCH   7  31
TORSDOF 6
