REMARK  6 active torsions:
REMARK  status: ('A' for Active; 'I' for Inactive)
REMARK    1  A    between atoms: C7_17  and  C16_2 
REMARK    2  A    between atoms: C19_4  and  O26_27 
REMARK       I    between atoms: N22_24  and  C23_7 
REMARK    3  A    between atoms: C23_7  and  C25_26 
REMARK    4  A    between atoms: O26_27  and  C27_10 
REMARK    5  A    between atoms: C10_20  and  C8_18 
REMARK    6  A    between atoms: C14_22  and  N22_24 
ROOT
ATOM      1  C1  J2V d   1      16.922  -1.955   9.438  0.00  0.00     0.096 A 
ATOM      2  C2  J2V d   1      16.872  -1.205   8.269  0.00  0.00     0.062 A 
ATOM      3  C3  J2V d   1      18.004  -0.511   7.846  0.00  0.00    -0.053 A 
ATOM      4  C4  J2V d   1      19.156  -0.609   8.626  0.00  0.00    -0.064 A 
ATOM      5  C5  J2V d   1      19.121  -1.403   9.774  0.00  0.00     0.003 A 
ATOM      6  N6  J2V d   1      18.033  -2.063  10.199  0.00  0.00    -0.258 NA
ATOM      7  C7  J2V d   1      15.603  -2.560   9.589  0.00  0.00     0.034 A 
ATOM      8  C8  J2V d   1      14.841  -2.138   8.513  0.00  0.00     0.057 A 
ATOM      9  N9  J2V d   1      15.618  -1.321   7.710  0.00  0.00    -0.353 N 
ATOM     10  H10 J2V d   1      17.990   0.085   6.941  0.00  0.00     0.087 H 
ATOM     11  H11 J2V d   1      20.060  -0.080   8.347  0.00  0.00     0.085 H 
ATOM     12  H12 J2V d   1      20.030  -1.492  10.358  0.00  0.00     0.114 H 
ATOM     13  H13 J2V d   1      15.309  -0.872   6.836  0.00  0.00     0.166 HD
ENDROOT
BRANCH   8  14
ATOM     14  C10 J2V d   1      13.428  -2.365   8.143  0.00  0.00    -0.004 A 
ATOM     15  C15 J2V d   1      13.009  -2.191   6.820  0.00  0.00    -0.026 A 
ATOM     16  C14 J2V d   1      11.627  -2.196   6.534  0.00  0.00     0.130 A 
ATOM     17  H2  J2V d   1      13.735  -2.054   6.026  0.00  0.00     0.090 H 
ATOM     18  N13 J2V d   1      10.697  -2.398   7.483  0.00  0.00    -0.243 NA
ATOM     19  C12 J2V d   1      11.125  -2.616   8.748  0.00  0.00     0.005 A 
ATOM     20  C11 J2V d   1      12.458  -2.603   9.124  0.00  0.00    -0.054 A 
ATOM     21  H6  J2V d   1      10.381  -2.812   9.512  0.00  0.00     0.114 H 
ATOM     22  H5  J2V d   1      12.744  -2.773  10.156  0.00  0.00     0.087 H 
BRANCH  16  23
ATOM     23  N22 J2V d   1      11.093  -1.941   5.227  0.00  0.00    -0.312 N 
ATOM     24  C23 J2V d   1      11.764  -1.646   4.080  0.00  0.00     0.219 C 
ATOM     25  O24 J2V d   1      12.971  -1.545   4.003  0.00  0.00    -0.274 OA
ATOM     26  H14 J2V d   1      10.097  -1.986   5.148  0.00  0.00     0.170 HD
BRANCH  24  27
ATOM     27  C25 J2V d   1      10.907  -1.436   2.855  0.00  0.00    -0.002 C 
ATOM     28  H15 J2V d   1      11.550  -1.205   1.993  0.00  0.00     0.040 H 
ATOM     29  H16 J2V d   1      10.215  -0.599   3.031  0.00  0.00     0.040 H 
ATOM     30  H17 J2V d   1      10.332  -2.351   2.649  0.00  0.00     0.040 H 
ENDBRANCH  24  27
ENDBRANCH  16  23
ENDBRANCH   8  14
BRANCH   7  31
ATOM     31  C16 J2V d   1      15.226  -3.471  10.694  0.00  0.00    -0.004 A 
ATOM     32  C17 J2V d   1      15.715  -3.208  11.972  0.00  0.00     0.016 A 
ATOM     33  N18 J2V d   1      15.545  -4.032  13.028  0.00  0.00    -0.236 NA
ATOM     34  H1  J2V d   1      16.265  -2.287  12.128  0.00  0.00     0.116 H 
ATOM     35  C19 J2V d   1      14.903  -5.177  12.797  0.00  0.00     0.163 A 
ATOM     36  C20 J2V d   1      14.397  -5.573  11.539  0.00  0.00    -0.031 A 
ATOM     37  C21 J2V d   1      14.548  -4.678  10.487  0.00  0.00    -0.067 A 
ATOM     38  H3  J2V d   1      13.912  -6.533  11.400  0.00  0.00     0.090 H 
ATOM     39  H4  J2V d   1      14.142  -4.913   9.510  0.00  0.00     0.085 H 
BRANCH  35  40
ATOM     40  O26 J2V d   1      14.776  -6.066  13.803  0.00  0.00    -0.339 OA
BRANCH  40  41
ATOM     41  C27 J2V d   1      15.156  -5.660  15.124  0.00  0.00     0.012 C 
ATOM     42  H7  J2V d   1      14.993  -6.492  15.824  0.00  0.00     0.067 H 
ATOM     43  H8  J2V d   1      14.547  -4.797  15.432  0.00  0.00     0.067 H 
ATOM     44  H9  J2V d   1      16.219  -5.379  15.130  0.00  0.00     0.067 H 
ENDBRANCH  40  41
ENDBRANCH  35  40
ENDBRANCH   7  31
TORSDOF 6
