REMARK  5 active torsions:
REMARK  status: ('A' for Active; 'I' for Inactive)
REMARK    1  A    between atoms: C9_24  and  C13_1 
REMARK    2  A    between atoms: O_9  and  C5_19 
REMARK    3  A    between atoms: C6_21  and  O_9 
REMARK    4  A    between atoms: C2_13  and  N5_20 
REMARK    5  A    between atoms: C7_22  and  C6_21 
ROOT
ATOM      1  C11 JXP d   1      24.126  -2.957  25.680  0.00  0.00    -0.060 C 
ATOM      2  C12 JXP d   1      22.994  -3.676  25.355  0.00  0.00     0.042 C 
ATOM      3 CL   JXP d   1      21.733  -3.786  26.530  0.00  0.00    -0.084 Cl
ATOM      4  C7  JXP d   1      22.828  -4.266  24.105  0.00  0.00    -0.011 C 
ATOM      5  C8  JXP d   1      23.809  -4.002  23.145  0.00  0.00    -0.062 C 
ATOM      6  C9  JXP d   1      24.989  -3.314  23.452  0.00  0.00    -0.025 C 
ATOM      7  C10 JXP d   1      25.129  -2.803  24.744  0.00  0.00    -0.071 C 
ATOM      8  H4  JXP d   1      24.227  -2.515  26.665  0.00  0.00     0.086 H 
ATOM      9  H11 JXP d   1      23.651  -4.342  22.128  0.00  0.00     0.085 H 
ATOM     10  H12 JXP d   1      26.038  -2.278  25.016  0.00  0.00     0.084 H 
ENDROOT
BRANCH   4  11
ATOM     11  C6  JXP d   1      21.827  -5.365  23.868  0.00  0.00     0.051 C 
ATOM     12  H9  JXP d   1      22.266  -6.096  23.174  0.00  0.00     0.082 H 
ATOM     13  H10 JXP d   1      21.610  -5.856  24.828  0.00  0.00     0.082 H 
BRANCH  11  14
ATOM     14  O   JXP d   1      20.593  -4.885  23.309  0.00  0.00    -0.344 OA
BRANCH  14  15
ATOM     15  C5  JXP d   1      19.508  -5.729  23.315  0.00  0.00     0.104 A 
ATOM     16  C1  JXP d   1      19.548  -7.044  23.744  0.00  0.00    -0.004 A 
ATOM     17  C2  JXP d   1      18.375  -7.761  23.976  0.00  0.00     0.126 A 
ATOM     18  H5  JXP d   1      20.507  -7.524  23.902  0.00  0.00     0.093 H 
ATOM     19  N1  JXP d   1      17.153  -7.194  23.821  0.00  0.00    -0.208 NA
ATOM     20  C3  JXP d   1      17.140  -5.931  23.360  0.00  0.00     0.206 A 
ATOM     21  C4  JXP d   1      18.249  -5.145  23.065  0.00  0.00     0.134 A 
ATOM     22  N4  JXP d   1      16.031  -5.110  23.084  0.00  0.00    -0.109 NA
ATOM     23  N2  JXP d   1      17.794  -3.863  22.601  0.00  0.00    -0.253 N 
ATOM     24  N3  JXP d   1      16.515  -3.876  22.631  0.00  0.00    -0.066 NA
ATOM     25  H6  JXP d   1      18.389  -3.078  22.300  0.00  0.00     0.191 HD
BRANCH  17  26
ATOM     26  N5  JXP d   1      18.401  -9.075  24.296  0.00  0.00    -0.384 N 
ATOM     27  H7  JXP d   1      17.520  -9.582  24.462  0.00  0.00     0.157 HD
ATOM     28  H8  JXP d   1      19.302  -9.569  24.373  0.00  0.00     0.157 HD
ENDBRANCH  17  26
ENDBRANCH  14  15
ENDBRANCH  11  14
ENDBRANCH   4  11
BRANCH   6  29
ATOM     29  C13 JXP d   1      26.028  -3.091  22.409  0.00  0.00    -0.023 A 
ATOM     30  C18 JXP d   1      25.741  -3.324  21.062  0.00  0.00    -0.035 A 
ATOM     31  C17 JXP d   1      26.670  -2.999  20.104  0.00  0.00     0.117 A 
ATOM     32  H1  JXP d   1      24.791  -3.759  20.774  0.00  0.00     0.089 H 
ATOM     33  C16 JXP d   1      27.899  -2.478  20.399  0.00  0.00    -0.046 A 
ATOM     34  F   JXP d   1      26.333  -3.167  18.796  0.00  0.00    -0.206 F 
ATOM     35  C15 JXP d   1      28.198  -2.248  21.733  0.00  0.00    -0.079 A 
ATOM     36  H2  JXP d   1      28.615  -2.252  19.617  0.00  0.00     0.088 H 
ATOM     37  C14 JXP d   1      27.270  -2.536  22.726  0.00  0.00    -0.072 A 
ATOM     38  H3  JXP d   1      29.165  -1.840  22.004  0.00  0.00     0.083 H 
ATOM     39  H13 JXP d   1      27.513  -2.327  23.762  0.00  0.00     0.084 H 
ENDBRANCH   6  29
TORSDOF 5
