REMARK  5 active torsions:
REMARK  status: ('A' for Active; 'I' for Inactive)
REMARK    1  A    between atoms: C15_4  and  N18_24 
REMARK       I    between atoms: N18_24  and  C19_5 
REMARK    2  A    between atoms: C19_5  and  O20_25 
REMARK    3  A    between atoms: O20_25  and  C22_6 
REMARK    4  A    between atoms: N2_13  and  C3_14 
REMARK    5  A    between atoms: C32_34  and  C30_32 
ROOT
ATOM      1  C13 NRJ d   1      45.584 -20.618  29.939  0.00  0.00    -0.066 A 
ATOM      2  C17 NRJ d   1      44.277 -22.443  30.839  0.00  0.00     0.049 A 
ATOM      3  C16 NRJ d   1      45.315 -22.722  31.725  0.00  0.00    -0.030 A 
ATOM      4  C15 NRJ d   1      46.483 -21.962  31.727  0.00  0.00     0.039 A 
ATOM      5  C24 NRJ d   1      42.700 -24.057  29.845  0.00  0.00     0.222 C 
ATOM      6  C12 NRJ d   1      44.400 -21.361  29.936  0.00  0.00     0.021 A 
ATOM      7  C27 NRJ d   1      41.515 -24.940  30.171  0.00  0.00     0.012 C 
ATOM      8  C3  NRJ d   1      39.817 -20.540  28.407  0.00  0.00     0.077 C 
ATOM      9  C4  NRJ d   1      41.313 -20.557  28.415  0.00  0.00     0.128 A 
ATOM     10  C5  NRJ d   1      39.286 -21.587  27.405  0.00  0.00    -0.024 C 
ATOM     11  C6  NRJ d   1      39.808 -22.972  27.649  0.00  0.00    -0.104 C 
ATOM     12  C7  NRJ d   1      39.885 -23.585  28.815  0.00  0.00    -0.106 C 
ATOM     13  N8  NRJ d   1      42.069 -20.429  27.308  0.00  0.00    -0.350 N 
ATOM     14  C9  NRJ d   1      43.352 -20.697  27.661  0.00  0.00     0.007 A 
ATOM     15  C10 NRJ d   1      43.333 -20.975  28.998  0.00  0.00     0.086 A 
ATOM     16  N11 NRJ d   1      42.043 -20.875  29.466  0.00  0.00    -0.231 NA
ATOM     17  C14 NRJ d   1      46.625 -20.930  30.798  0.00  0.00    -0.056 A 
ATOM     18  N23 NRJ d   1      43.109 -23.255  30.853  0.00  0.00    -0.326 N 
ATOM     19  O25 NRJ d   1      43.231 -24.067  28.736  0.00  0.00    -0.273 OA
ATOM     20  C26 NRJ d   1      40.457 -24.926  29.059  0.00  0.00    -0.042 C 
ATOM     21  H1  NRJ d   1      45.690 -19.782  29.257  0.00  0.00     0.085 H 
ATOM     22  H2  NRJ d   1      45.212 -23.544  32.424  0.00  0.00     0.090 H 
ATOM     23  H7  NRJ d   1      41.053 -24.583  31.103  0.00  0.00     0.047 H 
ATOM     24  H8  NRJ d   1      41.870 -25.972  30.309  0.00  0.00     0.047 H 
ATOM     25  H10 NRJ d   1      39.495 -20.862  29.408  0.00  0.00     0.085 H 
ATOM     26  H11 NRJ d   1      39.580 -21.278  26.391  0.00  0.00     0.042 H 
ATOM     27  H12 NRJ d   1      38.189 -21.612  27.477  0.00  0.00     0.042 H 
ATOM     28  H13 NRJ d   1      40.158 -23.526  26.779  0.00  0.00     0.076 H 
ATOM     29  H14 NRJ d   1      39.490 -23.053  29.679  0.00  0.00     0.076 H 
ATOM     30  H15 NRJ d   1      41.735 -20.175  26.367  0.00  0.00     0.166 HD
ATOM     31  H16 NRJ d   1      44.223 -20.691  27.008  0.00  0.00     0.115 H 
ATOM     32  H17 NRJ d   1      47.553 -20.371  30.749  0.00  0.00     0.086 H 
ATOM     33  H19 NRJ d   1      42.544 -23.230  31.677  0.00  0.00     0.169 HD
ATOM     34  H20 NRJ d   1      39.642 -25.607  29.344  0.00  0.00     0.039 H 
ATOM     35  H21 NRJ d   1      40.923 -25.282  28.128  0.00  0.00     0.039 H 
ENDROOT
BRANCH   8  36
ATOM     36  N2  NRJ d   1      39.222 -19.216  28.197  0.00  0.00    -0.316 N 
ATOM     37  C28 NRJ d   1      38.974 -18.805  26.803  0.00  0.00     0.003 C 
ATOM     38  C29 NRJ d   1      38.486 -17.357  26.750  0.00  0.00    -0.021 C 
ATOM     39  H22 NRJ d   1      38.209 -19.461  26.363  0.00  0.00     0.064 H 
ATOM     40  H23 NRJ d   1      39.908 -18.893  26.228  0.00  0.00     0.064 H 
ATOM     41  C30 NRJ d   1      37.559 -17.092  27.918  0.00  0.00     0.076 C 
ATOM     42  H24 NRJ d   1      37.945 -17.187  25.807  0.00  0.00     0.039 H 
ATOM     43  H25 NRJ d   1      39.349 -16.677  26.806  0.00  0.00     0.039 H 
ATOM     44  O31 NRJ d   1      38.348 -17.288  29.136  0.00  0.00    -0.294 OA
ATOM     45  H26 NRJ d   1      36.765 -17.852  27.880  0.00  0.00     0.092 H 
ATOM     46  C38 NRJ d   1      39.074 -18.415  29.272  0.00  0.00     0.364 C 
ATOM     47  O39 NRJ d   1      39.598 -18.627  30.342  0.00  0.00    -0.238 OA
BRANCH  41  48
ATOM     48  C32 NRJ d   1      36.871 -15.748  27.992  0.00  0.00    -0.027 A 
ATOM     49  C33 NRJ d   1      37.417 -14.621  27.387  0.00  0.00    -0.074 A 
ATOM     50  C34 NRJ d   1      36.782 -13.392  27.484  0.00  0.00    -0.081 A 
ATOM     51  H9  NRJ d   1      38.346 -14.704  26.835  0.00  0.00     0.084 H 
ATOM     52  C35 NRJ d   1      35.583 -13.270  28.167  0.00  0.00    -0.062 A 
ATOM     53  H6  NRJ d   1      37.228 -12.519  27.021  0.00  0.00     0.083 H 
ATOM     54  C36 NRJ d   1      35.051 -14.388  28.779  0.00  0.00     0.034 A 
ATOM     55  H27 NRJ d   1      35.072 -12.315  28.220  0.00  0.00     0.086 H 
ATOM     56 CL1  NRJ d   1      33.566 -14.236  29.694  0.00  0.00    -0.084 Cl
ATOM     57  C37 NRJ d   1      35.674 -15.622  28.701  0.00  0.00    -0.053 A 
ATOM     58  H28 NRJ d   1      35.235 -16.486  29.188  0.00  0.00     0.087 H 
ENDBRANCH  41  48
ENDBRANCH   8  36
BRANCH   4  59
ATOM     59  N18 NRJ d   1      47.460 -22.333  32.691  0.00  0.00    -0.303 N 
ATOM     60  C19 NRJ d   1      48.771 -21.968  32.732  0.00  0.00     0.364 C 
ATOM     61  O21 NRJ d   1      49.357 -21.307  31.900  0.00  0.00    -0.238 OA
ATOM     62  H18 NRJ d   1      47.147 -22.934  33.427  0.00  0.00     0.171 HD
BRANCH  60  63
ATOM     63  O20 NRJ d   1      49.349 -22.491  33.826  0.00  0.00    -0.309 OA
BRANCH  63  64
ATOM     64  C22 NRJ d   1      50.743 -22.140  34.044  0.00  0.00     0.015 C 
ATOM     65  H3  NRJ d   1      51.103 -22.624  34.964  0.00  0.00     0.067 H 
ATOM     66  H4  NRJ d   1      50.835 -21.048  34.144  0.00  0.00     0.067 H 
ATOM     67  H5  NRJ d   1      51.345 -22.482  33.189  0.00  0.00     0.067 H 
ENDBRANCH  63  64
ENDBRANCH  60  63
ENDBRANCH   4  59
TORSDOF 5
