REMARK  8 active torsions:
REMARK  status: ('A' for Active; 'I' for Inactive)
REMARK       I    between atoms: N9_20  and  C19_5 
REMARK    1  A    between atoms: C19_5  and  O21_26 
REMARK    2  A    between atoms: O21_26  and  C22_6 
REMARK    3  A    between atoms: N12_22  and  C11_9 
REMARK    4  A    between atoms: C6_17  and  N9_20 
REMARK       I    between atoms: C29_31  and  N12_22 
REMARK    5  A    between atoms: C26_28  and  C28_30 
REMARK    6  A    between atoms: C39_39  and  C29_31 
REMARK    7  A    between atoms: N37_37  and  C35_35 
REMARK    8  A    between atoms: C38_38  and  C42_42 
ROOT
ATOM      1  C18 QEV d   1      43.229 -24.434  29.797  0.00  0.00     0.226 C 
ATOM      2  C17 QEV d   1      42.729 -21.331  29.074  0.00  0.00    -0.046 A 
ATOM      3  C16 QEV d   1      44.096 -21.353  28.800  0.00  0.00    -0.020 A 
ATOM      4  C15 QEV d   1      44.489 -21.069  27.492  0.00  0.00    -0.055 A 
ATOM      5  C23 QEV d   1      39.933 -22.735  27.567  0.00  0.00    -0.041 C 
ATOM      6  C24 QEV d   1      40.678 -23.990  28.026  0.00  0.00    -0.062 C 
ATOM      7  C11 QEV d   1      40.348 -21.425  28.254  0.00  0.00     0.054 C 
ATOM      8  C2  QEV d   1      44.861 -22.801  30.756  0.00  0.00     0.048 A 
ATOM      9  C3  QEV d   1      45.088 -21.753  29.838  0.00  0.00     0.001 A 
ATOM     10  C4  QEV d   1      46.295 -21.054  29.923  0.00  0.00    -0.068 A 
ATOM     11  C5  QEV d   1      47.232 -21.349  30.899  0.00  0.00    -0.056 A 
ATOM     12  C6  QEV d   1      46.990 -22.364  31.824  0.00  0.00     0.039 A 
ATOM     13  C7  QEV d   1      45.813 -23.103  31.729  0.00  0.00    -0.030 A 
ATOM     14  N8  QEV d   1      43.648 -23.542  30.726  0.00  0.00    -0.326 N 
ATOM     15  C10 QEV d   1      41.819 -21.129  28.041  0.00  0.00     0.057 A 
ATOM     16  N13 QEV d   1      42.198 -20.840  26.786  0.00  0.00    -0.263 NA
ATOM     17  C14 QEV d   1      43.520 -20.808  26.538  0.00  0.00     0.003 A 
ATOM     18  C25 QEV d   1      40.672 -24.251  29.546  0.00  0.00    -0.054 C 
ATOM     19  C26 QEV d   1      41.869 -25.054  30.069  0.00  0.00     0.020 C 
ATOM     20  O27 QEV d   1      43.867 -24.701  28.781  0.00  0.00    -0.273 OA
ATOM     21  H1  QEV d   1      42.376 -21.471  30.089  0.00  0.00     0.088 H 
ATOM     22  H2  QEV d   1      45.540 -21.053  27.226  0.00  0.00     0.087 H 
ATOM     23  H6  QEV d   1      38.861 -22.891  27.756  0.00  0.00     0.036 H 
ATOM     24  H7  QEV d   1      40.102 -22.618  26.486  0.00  0.00     0.036 H 
ATOM     25  H8  QEV d   1      41.725 -23.899  27.703  0.00  0.00     0.033 H 
ATOM     26  H9  QEV d   1      40.216 -24.857  27.532  0.00  0.00     0.033 H 
ATOM     27  H10 QEV d   1      40.162 -21.524  29.334  0.00  0.00     0.082 H 
ATOM     28  H11 QEV d   1      46.502 -20.264  29.210  0.00  0.00     0.085 H 
ATOM     29  H12 QEV d   1      48.158 -20.788  30.944  0.00  0.00     0.086 H 
ATOM     30  H13 QEV d   1      45.636 -23.921  32.418  0.00  0.00     0.090 H 
ATOM     31  H14 QEV d   1      43.023 -23.384  31.490  0.00  0.00     0.169 HD
ATOM     32  H17 QEV d   1      43.845 -20.564  25.533  0.00  0.00     0.114 H 
ATOM     33  H18 QEV d   1      39.755 -24.805  29.794  0.00  0.00     0.034 H 
ATOM     34  H19 QEV d   1      40.663 -23.278  30.059  0.00  0.00     0.034 H 
ATOM     35  H20 QEV d   1      41.757 -25.100  31.162  0.00  0.00     0.054 H 
ENDROOT
BRANCH   7  36
ATOM     36  N12 QEV d   1      39.561 -20.316  27.741  0.00  0.00    -0.345 N 
ATOM     37  C29 QEV d   1      39.387 -19.204  28.470  0.00  0.00     0.272 C 
ATOM     38  O30 QEV d   1      39.914 -19.020  29.563  0.00  0.00    -0.266 OA
ATOM     39  H16 QEV d   1      39.145 -20.383  26.834  0.00  0.00     0.163 HD
BRANCH  37  40
ATOM     40  C39 QEV d   1      38.523 -18.177  27.842  0.00  0.00     0.148 A 
ATOM     41  C38 QEV d   1      38.110 -16.980  28.369  0.00  0.00     0.048 A 
ATOM     42  N37 QEV d   1      37.345 -16.404  27.380  0.00  0.00    -0.305 N 
ATOM     43  C41 QEV d   1      37.323 -17.274  26.328  0.00  0.00     0.072 A 
ATOM     44  N40 QEV d   1      38.006 -18.365  26.569  0.00  0.00    -0.236 NA
ATOM     45  H27 QEV d   1      36.797 -17.082  25.394  0.00  0.00     0.144 H 
BRANCH  41  46
ATOM     46  C42 QEV d   1      38.251 -16.401  29.738  0.00  0.00    -0.035 C 
ATOM     47  H28 QEV d   1      38.911 -17.042  30.341  0.00  0.00     0.035 H 
ATOM     48  H29 QEV d   1      37.261 -16.342  30.215  0.00  0.00     0.035 H 
ATOM     49  H30 QEV d   1      38.685 -15.393  29.667  0.00  0.00     0.035 H 
ENDBRANCH  41  46
BRANCH  42  50
ATOM     50  C35 QEV d   1      36.561 -15.216  27.493  0.00  0.00     0.080 A 
ATOM     51  C34 QEV d   1      35.490 -15.192  28.368  0.00  0.00     0.165 A 
ATOM     52  C33 QEV d   1      34.880 -14.000  28.692  0.00  0.00     0.074 A 
ATOM     53  F43 QEV d   1      35.106 -16.320  28.988  0.00  0.00    -0.202 F 
ATOM     54 CL1  QEV d   1      33.521 -13.993  29.762  0.00  0.00    -0.081 Cl
ATOM     55  C32 QEV d   1      35.338 -12.810  28.159  0.00  0.00    -0.059 A 
ATOM     56  C31 QEV d   1      36.423 -12.827  27.299  0.00  0.00    -0.079 A 
ATOM     57  H25 QEV d   1      34.853 -11.874  28.411  0.00  0.00     0.086 H 
ATOM     58  C36 QEV d   1      37.050 -14.021  26.974  0.00  0.00    -0.053 A 
ATOM     59  H24 QEV d   1      36.786 -11.898  26.875  0.00  0.00     0.083 H 
ATOM     60  H26 QEV d   1      37.915 -14.023  26.320  0.00  0.00     0.087 H 
ENDBRANCH  42  50
ENDBRANCH  37  40
ENDBRANCH   7  36
BRANCH  19  61
ATOM     61  C28 QEV d   1      41.842 -26.492  29.546  0.00  0.00    -0.065 C 
ATOM     62  H21 QEV d   1      42.711 -27.041  29.938  0.00  0.00     0.028 H 
ATOM     63  H22 QEV d   1      41.879 -26.483  28.447  0.00  0.00     0.028 H 
ATOM     64  H23 QEV d   1      40.917 -26.986  29.878  0.00  0.00     0.028 H 
ENDBRANCH  19  61
BRANCH  12  65
ATOM     65  N9  QEV d   1      47.880 -22.694  32.886  0.00  0.00    -0.303 N 
ATOM     66  C19 QEV d   1      49.124 -22.188  33.121  0.00  0.00     0.364 C 
ATOM     67  O20 QEV d   1      49.727 -21.404  32.420  0.00  0.00    -0.238 OA
ATOM     68  H15 QEV d   1      47.553 -23.379  33.537  0.00  0.00     0.171 HD
BRANCH  66  69
ATOM     69  O21 QEV d   1      49.622 -22.724  34.245  0.00  0.00    -0.309 OA
BRANCH  69  70
ATOM     70  C22 QEV d   1      50.978 -22.343  34.579  0.00  0.00     0.015 C 
ATOM     71  H3  QEV d   1      51.279 -22.839  35.514  0.00  0.00     0.067 H 
ATOM     72  H4  QEV d   1      51.031 -21.252  34.710  0.00  0.00     0.067 H 
ATOM     73  H5  QEV d   1      51.655 -22.648  33.767  0.00  0.00     0.067 H 
ENDBRANCH  69  70
ENDBRANCH  66  69
ENDBRANCH  12  65
TORSDOF 8
