REMARK  28 active torsions:
REMARK  status: ('A' for Active; 'I' for Inactive)
REMARK    1  A    between atoms: N_1  and  CA_2 
REMARK    2  A    between atoms: CA_2  and  C_3 
REMARK    3  A    between atoms: CA_2  and  CB_5 
REMARK       I    between atoms: C_3  and  N_6 
REMARK    4  A    between atoms: N_6  and  CA_7 
REMARK    5  A    between atoms: CA_7  and  C_8 
REMARK    6  A    between atoms: CA_7  and  CB_10 
REMARK       I    between atoms: C_8  and  N_15 
REMARK    7  A    between atoms: CB_10  and  CG_11 
REMARK    8  A    between atoms: CG_11  and  CD_12 
REMARK       I    between atoms: CD_12  and  NE2_14 
REMARK    9  A    between atoms: N_15  and  CA_16 
REMARK   10  A    between atoms: CA_16  and  C_17 
REMARK   11  A    between atoms: CA_16  and  CB_19 
REMARK       I    between atoms: C_17  and  N_27 
REMARK   12  A    between atoms: CB_19  and  CG_20 
REMARK   13  A    between atoms: CZ_25  and  OH_26 
REMARK   14  A    between atoms: N_27  and  CA_28 
REMARK   15  A    between atoms: CA_28  and  C_29 
REMARK   16  A    between atoms: CA_28  and  CB_31 
REMARK       I    between atoms: C_29  and  N_35 
REMARK   17  A    between atoms: CB_31  and  CG_32 
REMARK   18  A    between atoms: CG_32  and  CD1_33 
REMARK   19  A    between atoms: CG_32  and  CD2_34 
REMARK   20  A    between atoms: N_35  and  CA_36 
REMARK   21  A    between atoms: CA_36  and  C_37 
REMARK   22  A    between atoms: CA_36  and  CB_39 
REMARK       I    between atoms: C_37  and  N_40 
REMARK   23  A    between atoms: N_40  and  CA_41 
REMARK   24  A    between atoms: CA_41  and  C_42 
REMARK   25  A    between atoms: CA_41  and  CB_44 
REMARK       I    between atoms: C_42  and  N_47 
REMARK   26  A    between atoms: CB_44  and  CG1_45 
REMARK   27  A    between atoms: CB_44  and  CG2_46 
REMARK   28  A    between atoms: CA_48  and  C_49 
ROOT
ATOM      1  CA  LEU d   1       9.120 -19.067  31.017  0.00  0.00     0.089 C 
ATOM      2  H26 LEU d   1       9.860 -19.667  30.468  0.00  0.00     0.087 H 
ENDROOT
BRANCH   1   3
ATOM      3  N   LEU d   1       9.812 -18.346  32.081  0.00  0.00    -0.346 N 
ATOM      4  C   TYR d   1      10.910 -17.632  31.852  0.00  0.00     0.241 C 
ATOM      5  O   TYR d   1      11.435 -17.544  30.742  0.00  0.00    -0.271 OA
ATOM      6  H25 LEU d   1       9.449 -18.390  33.012  0.00  0.00     0.163 HD
BRANCH   4   7
ATOM      7  CA  TYR d   1      11.512 -16.914  33.058  0.00  0.00     0.093 C 
ATOM      8  H17 TYR d   1      11.530 -17.618  33.903  0.00  0.00     0.088 H 
BRANCH   7   9
ATOM      9  N   TYR d   1      12.880 -16.484  32.795  0.00  0.00    -0.346 N 
ATOM     10  C   GLN d   1      13.927 -17.120  33.312  0.00  0.00     0.241 C 
ATOM     11  O   GLN d   1      13.820 -18.114  34.032  0.00  0.00    -0.271 OA
ATOM     12  H16 TYR d   1      13.035 -15.688  32.209  0.00  0.00     0.163 HD
BRANCH  10  13
ATOM     13  CA  GLN d   1      15.297 -16.546  32.966  0.00  0.00     0.090 C 
ATOM     14  H9  GLN d   1      16.047 -17.340  33.096  0.00  0.00     0.087 H 
BRANCH  13  15
ATOM     15  N   GLN d   1      15.346 -16.094  31.580  0.00  0.00    -0.346 N 
ATOM     16  C   ASP d   1      15.775 -16.879  30.597  0.00  0.00     0.248 C 
ATOM     17  O   ASP d   1      16.179 -18.029  30.784  0.00  0.00    -0.271 OA
ATOM     18  H8  GLN d   1      15.048 -15.165  31.363  0.00  0.00     0.163 HD
BRANCH  16  19
ATOM     19  CA  ASP d   1      15.745 -16.276  29.194  0.00  0.00     0.172 C 
ATOM     20  H4  ASP d   1      14.745 -16.444  28.768  0.00  0.00     0.098 H 
BRANCH  19  21
ATOM     21  N   ASP d   1      15.987 -14.838  29.233  0.00  0.00    -0.067 N 
ATOM     22  H1  ASP d   1      15.962 -14.467  28.296  0.00  0.00     0.275 HD
ATOM     23  H2  ASP d   1      16.892 -14.660  29.640  0.00  0.00     0.275 HD
ATOM     24  H3  ASP d   1      15.275 -14.392  29.790  0.00  0.00     0.275 HD
ENDBRANCH  19  21
BRANCH  19  25
ATOM     25  CB  ASP d   1      16.774 -16.970  28.299  0.00  0.00    -0.042 C 
ATOM     26  H5  ASP d   1      16.575 -18.052  28.282  0.00  0.00     0.030 H 
ATOM     27  H6  ASP d   1      17.785 -16.789  28.694  0.00  0.00     0.030 H 
ATOM     28  H7  ASP d   1      16.702 -16.568  27.277  0.00  0.00     0.030 H 
ENDBRANCH  19  25
ENDBRANCH  16  19
ENDBRANCH  13  15
BRANCH  13  29
ATOM     29  CB  GLN d   1      15.638 -15.396  33.916  0.00  0.00    -0.030 C 
ATOM     30  H10 GLN d   1      15.046 -14.517  33.622  0.00  0.00     0.037 H 
ATOM     31  H11 GLN d   1      16.709 -15.168  33.812  0.00  0.00     0.037 H 
BRANCH  29  32
ATOM     32  CG  GLN d   1      15.353 -15.696  35.378  0.00  0.00     0.011 C 
ATOM     33  H12 GLN d   1      16.027 -16.500  35.710  0.00  0.00     0.047 H 
ATOM     34  H13 GLN d   1      14.309 -16.030  35.472  0.00  0.00     0.047 H 
BRANCH  32  35
ATOM     35  CD  GLN d   1      15.558 -14.490  36.273  0.00  0.00     0.215 C 
ATOM     36  OE1 GLN d   1      16.188 -13.509  35.877  0.00  0.00    -0.274 OA
ATOM     37  NE2 GLN d   1      15.021 -14.554  37.486  0.00  0.00    -0.370 N 
ATOM     38  H14 GLN d   1      15.124 -13.787  38.120  0.00  0.00     0.159 HD
ATOM     39  H15 GLN d   1      14.513 -15.369  37.766  0.00  0.00     0.159 HD
ENDBRANCH  32  35
ENDBRANCH  29  32
ENDBRANCH  13  29
ENDBRANCH  10  13
ENDBRANCH   7   9
BRANCH   7  40
ATOM     40  CB  TYR d   1      10.644 -15.716  33.447  0.00  0.00    -0.014 C 
ATOM     41  H18 TYR d   1       9.613 -16.069  33.596  0.00  0.00     0.043 H 
ATOM     42  H19 TYR d   1      10.667 -14.989  32.622  0.00  0.00     0.043 H 
BRANCH  40  43
ATOM     43  CG  TYR d   1      11.096 -15.018  34.709  0.00  0.00    -0.056 A 
ATOM     44  CD1 TYR d   1      10.773 -15.528  35.961  0.00  0.00    -0.074 A 
ATOM     45  CE1 TYR d   1      11.183 -14.894  37.121  0.00  0.00    -0.051 A 
ATOM     46  H20 TYR d   1      10.189 -16.439  36.030  0.00  0.00     0.084 H 
ATOM     47  CZ  TYR d   1      11.924 -13.733  37.037  0.00  0.00     0.065 A 
ATOM     48  H22 TYR d   1      10.924 -15.307  38.089  0.00  0.00     0.087 H 
ATOM     49  CE2 TYR d   1      12.257 -13.206  35.805  0.00  0.00    -0.051 A 
ATOM     50  CD2 TYR d   1      11.842 -13.848  34.651  0.00  0.00    -0.074 A 
ATOM     51  H23 TYR d   1      12.840 -12.294  35.742  0.00  0.00     0.087 H 
ATOM     52  H21 TYR d   1      12.104 -13.430  33.685  0.00  0.00     0.084 H 
BRANCH  47  53
ATOM     53  OH  TYR d   1      12.333 -13.100  38.189  0.00  0.00    -0.361 OA
ATOM     54  H24 TYR d   1      12.024 -13.587  38.944  0.00  0.00     0.217 HD
ENDBRANCH  47  53
ENDBRANCH  40  43
ENDBRANCH   7  40
ENDBRANCH   4   7
ENDBRANCH   1   3
BRANCH   1  55
ATOM     55  C   LEU d   1       8.468 -18.095  30.040  0.00  0.00     0.241 C 
ATOM     56  O   LEU d   1       7.701 -17.222  30.443  0.00  0.00    -0.271 OA
ATOM     57  N   ALA d   1       8.778 -18.249  28.757  0.00  0.00    -0.346 N 
ATOM     58  H36 ALA d   1       9.353 -19.020  28.482  0.00  0.00     0.163 HD
BRANCH  57  59
ATOM     59  CA  ALA d   1       8.298 -17.319  27.741  0.00  0.00     0.086 C 
ATOM     60  H37 ALA d   1       7.991 -16.393  28.249  0.00  0.00     0.086 H 
BRANCH  59  61
ATOM     61  C   ALA d   1       7.091 -17.861  26.984  0.00  0.00     0.240 C 
ATOM     62  O   ALA d   1       6.983 -19.063  26.738  0.00  0.00    -0.271 OA
ATOM     63  N   VAL d   1       6.183 -16.962  26.619  0.00  0.00    -0.346 N 
ATOM     64  H41 VAL d   1       6.297 -16.012  26.908  0.00  0.00     0.163 HD
BRANCH  63  65
ATOM     65  CA  VAL d   1       5.027 -17.322  25.810  0.00  0.00     0.092 C 
ATOM     66  H42 VAL d   1       4.580 -18.236  26.227  0.00  0.00     0.088 H 
BRANCH  65  67
ATOM     67  C   VAL d   1       5.463 -17.598  24.375  0.00  0.00     0.243 C 
ATOM     68  O   VAL d   1       6.114 -16.760  23.752  0.00  0.00    -0.271 OA
ATOM     69  N   PRO d   1       5.112 -18.780  23.845  0.00  0.00    -0.336 N 
ATOM     70  CA  PRO d   1       5.501 -19.126  22.474  0.00  0.00     0.098 C 
ATOM     71  CD  PRO d   1       4.243 -19.804  24.449  0.00  0.00    -0.001 C 
ATOM     72  CB  PRO d   1       5.412 -20.655  22.458  0.00  0.00    -0.035 C 
ATOM     73  H50 PRO d   1       6.530 -18.793  22.271  0.00  0.00     0.089 H 
ATOM     74  CG  PRO d   1       4.474 -21.017  23.583  0.00  0.00    -0.048 C 
ATOM     75  H51 PRO d   1       6.404 -21.099  22.627  0.00  0.00     0.036 H 
ATOM     76  H52 PRO d   1       5.011 -21.007  21.496  0.00  0.00     0.036 H 
ATOM     77  H53 PRO d   1       4.919 -21.821  24.188  0.00  0.00     0.035 H 
ATOM     78  H54 PRO d   1       3.515 -21.359  23.166  0.00  0.00     0.035 H 
ATOM     79  H55 PRO d   1       3.188 -19.493  24.417  0.00  0.00     0.064 H 
ATOM     80  H56 PRO d   1       4.535 -20.003  25.491  0.00  0.00     0.064 H 
BRANCH  70  81
ATOM     81  C   PRO d   1       4.569 -18.515  21.435  0.00  0.00     0.196 C 
ATOM     82  O   PRO d   1       5.004 -17.614  20.719  0.00  0.00    -0.646 OA
ATOM     83  OXT PRO d   1       3.420 -18.948  21.355  0.00  0.00    -0.646 OA
ENDBRANCH  70  81
ENDBRANCH  65  67
BRANCH  65  84
ATOM     84  CB  VAL d   1       3.964 -16.208  25.823  0.00  0.00    -0.033 C 
ATOM     85  H43 VAL d   1       4.414 -15.295  25.405  0.00  0.00     0.042 H 
BRANCH  84  86
ATOM     86  CG1 VAL d   1       2.774 -16.591  24.958  0.00  0.00    -0.071 C 
ATOM     87  H44 VAL d   1       2.028 -15.783  24.982  0.00  0.00     0.028 H 
ATOM     88  H45 VAL d   1       2.323 -17.517  25.344  0.00  0.00     0.028 H 
ATOM     89  H46 VAL d   1       3.109 -16.750  23.923  0.00  0.00     0.028 H 
ENDBRANCH  84  86
BRANCH  84  90
ATOM     90  CG2 VAL d   1       3.523 -15.914  27.250  0.00  0.00    -0.071 C 
ATOM     91  H47 VAL d   1       4.399 -15.640  27.855  0.00  0.00     0.028 H 
ATOM     92  H48 VAL d   1       3.047 -16.808  27.678  0.00  0.00     0.028 H 
ATOM     93  H49 VAL d   1       2.804 -15.081  27.247  0.00  0.00     0.028 H 
ENDBRANCH  84  90
ENDBRANCH  65  84
ENDBRANCH  63  65
ENDBRANCH  59  61
BRANCH  59  94
ATOM     94  CB  ALA d   1       9.417 -16.982  26.768  0.00  0.00    -0.049 C 
ATOM     95  H38 ALA d   1       9.043 -16.281  26.008  0.00  0.00     0.030 H 
ATOM     96  H39 ALA d   1       9.766 -17.903  26.277  0.00  0.00     0.030 H 
ATOM     97  H40 ALA d   1      10.251 -16.519  27.315  0.00  0.00     0.030 H 
ENDBRANCH  59  94
ENDBRANCH  57  59
ENDBRANCH   1  55
BRANCH   1  98
ATOM     98  CB  LEU d   1       8.069 -20.013  31.603  0.00  0.00    -0.035 C 
ATOM     99  H27 LEU d   1       7.445 -19.428  32.295  0.00  0.00     0.037 H 
ATOM    100  H28 LEU d   1       8.602 -20.796  32.162  0.00  0.00     0.037 H 
BRANCH  98 101
ATOM    101  CG  LEU d   1       7.133 -20.709  30.611  0.00  0.00    -0.059 C 
ATOM    102  H29 LEU d   1       6.616 -19.933  30.028  0.00  0.00     0.038 H 
BRANCH 101 103
ATOM    103  CD1 LEU d   1       7.915 -21.581  29.643  0.00  0.00    -0.073 C 
ATOM    104  H30 LEU d   1       7.219 -22.068  28.944  0.00  0.00     0.028 H 
ATOM    105  H31 LEU d   1       8.467 -22.349  30.205  0.00  0.00     0.028 H 
ATOM    106  H32 LEU d   1       8.625 -20.958  29.080  0.00  0.00     0.028 H 
ENDBRANCH 101 103
BRANCH 101 107
ATOM    107  CD2 LEU d   1       6.083 -21.526  31.345  0.00  0.00    -0.073 C 
ATOM    108  H33 LEU d   1       5.531 -20.875  32.039  0.00  0.00     0.028 H 
ATOM    109  H34 LEU d   1       6.574 -22.331  31.911  0.00  0.00     0.028 H 
ATOM    110  H35 LEU d   1       5.384 -21.963  30.617  0.00  0.00     0.028 H 
ENDBRANCH 101 107
ENDBRANCH  98 101
ENDBRANCH   1  98
TORSDOF 28
