REMARK WARNING: 32 MAX_TORS EXCEEDED!!!
REMARK  40 active torsions:
REMARK  status: ('A' for Active; 'I' for Inactive)
REMARK    1  A    between atoms: N_1  and  CA_2 
REMARK    2  A    between atoms: CA_2  and  C_3 
REMARK    3  A    between atoms: CA_2  and  CB_5 
REMARK       I    between atoms: C_3  and  N_6 
REMARK    4  A    between atoms: N_6  and  CA_7 
REMARK    5  A    between atoms: CA_7  and  C_8 
REMARK    6  A    between atoms: CA_7  and  CB_10 
REMARK       I    between atoms: C_8  and  N_17 
REMARK    7  A    between atoms: CB_10  and  CG_11 
REMARK    8  A    between atoms: CG_11  and  CD_12 
REMARK    9  A    between atoms: CD_12  and  NE_13 
REMARK       I    between atoms: NE_13  and  CZ_14 
REMARK       I    between atoms: CZ_14  and  NH1_15 
REMARK       I    between atoms: CZ_14  and  NH2_16 
REMARK   10  A    between atoms: N_17  and  CA_18 
REMARK   11  A    between atoms: CA_18  and  C_19 
REMARK   12  A    between atoms: CA_18  and  CB_21 
REMARK       I    between atoms: C_19  and  N_24 
REMARK   13  A    between atoms: CB_21  and  OG1_22 
REMARK   14  A    between atoms: CB_21  and  CG2_23 
REMARK   15  A    between atoms: N_24  and  CA_25 
REMARK   16  A    between atoms: CA_25  and  C_26 
REMARK   17  A    between atoms: CA_25  and  CB_28 
REMARK       I    between atoms: C_26  and  N_33 
REMARK   18  A    between atoms: CB_28  and  CG_29 
REMARK   19  A    between atoms: CG_29  and  CD_30 
REMARK   20  A    between atoms: CD_30  and  CE_31 
REMARK   21  A    between atoms: CE_31  and  NZ_32 
REMARK   22  A    between atoms: N_33  and  CA_34 
REMARK   23  A    between atoms: CA_34  and  C_35 
REMARK   24  A    between atoms: CA_34  and  CB_37 
REMARK       I    between atoms: C_35  and  N_42 
REMARK   25  A    between atoms: CB_37  and  CG_38 
REMARK   26  A    between atoms: CG_38  and  CD_39 
REMARK       I    between atoms: CD_39  and  NE2_41 
REMARK   27  A    between atoms: N_42  and  CA_43 
REMARK   28  A    between atoms: CA_43  and  C_44 
REMARK   29  A    between atoms: CA_43  and  CB_46 
REMARK       I    between atoms: C_44  and  N_49 
REMARK   30  A    between atoms: CB_46  and  OG1_47 
REMARK   31  A    between atoms: CB_46  and  CG2_48 
REMARK   32  A    between atoms: N_49  and  CA_50 
REMARK   33  A    between atoms: CA_50  and  C_51 
REMARK   34  A    between atoms: CA_50  and  CB_53 
REMARK       I    between atoms: C_51  and  N_54 
REMARK   35  A    between atoms: N_54  and  CA_55 
REMARK   36  A    between atoms: CA_55  and  C_56 
REMARK   37  A    between atoms: CA_55  and  CB_58 
REMARK   38  A    between atoms: CB_58  and  CG_59 
REMARK   39  A    between atoms: CG_59  and  CD_60 
REMARK   40  A    between atoms: CD_60  and  NE_61 
REMARK       I    between atoms: NE_61  and  CZ_62 
REMARK       I    between atoms: CZ_62  and  NH1_63 
ROOT
ATOM      1  CA  LYS d   1     -35.515  34.993 -57.017  0.00  0.00     0.089 C 
ATOM      2  H29 LYS d   1     -36.124  35.471 -57.798  0.00  0.00     0.087 H 
ENDROOT
BRANCH   1   3
ATOM      3  N   LYS d   1     -34.993  36.032 -56.138  0.00  0.00    -0.346 N 
ATOM      4  C   THR d   1     -34.796  37.287 -56.531  0.00  0.00     0.243 C 
ATOM      5  O   THR d   1     -34.905  37.662 -57.706  0.00  0.00    -0.271 OA
ATOM      6  H28 LYS d   1     -34.772  35.789 -55.193  0.00  0.00     0.163 HD
BRANCH   4   7
ATOM      7  CA  THR d   1     -34.382  38.261 -55.428  0.00  0.00     0.113 C 
ATOM      8  H22 THR d   1     -33.707  37.726 -54.743  0.00  0.00     0.091 H 
BRANCH   7   9
ATOM      9  N   THR d   1     -33.652  39.413 -55.949  0.00  0.00    -0.344 N 
ATOM     10  C   ARG d   1     -32.435  39.702 -55.493  0.00  0.00     0.241 C 
ATOM     11  O   ARG d   1     -31.872  39.036 -54.626  0.00  0.00    -0.271 OA
ATOM     12  H21 THR d   1     -34.069  39.989 -56.653  0.00  0.00     0.163 HD
BRANCH  10  13
ATOM     13  CA  ARG d   1     -31.749  40.918 -56.084  0.00  0.00     0.089 C 
ATOM     14  H9  ARG d   1     -32.389  41.353 -56.866  0.00  0.00     0.087 H 
BRANCH  13  15
ATOM     15  N   ARG d   1     -31.547  41.895 -55.031  0.00  0.00    -0.346 N 
ATOM     16  C   ALA d   1     -32.452  42.834 -54.789  0.00  0.00     0.248 C 
ATOM     17  O   ALA d   1     -33.476  42.959 -55.451  0.00  0.00    -0.271 OA
ATOM     18  H8  ARG d   1     -30.713  41.860 -54.480  0.00  0.00     0.163 HD
BRANCH  16  19
ATOM     19  CA  ALA d   1     -32.171  43.766 -53.626  0.00  0.00     0.172 C 
ATOM     20  H4  ALA d   1     -31.091  43.972 -53.581  0.00  0.00     0.098 H 
BRANCH  19  21
ATOM     21  N   ALA d   1     -32.888  45.021 -53.834  0.00  0.00    -0.067 N 
ATOM     22  H1  ALA d   1     -32.705  45.644 -53.063  0.00  0.00     0.275 HD
ATOM     23  H2  ALA d   1     -33.878  44.837 -53.889  0.00  0.00     0.275 HD
ATOM     24  H3  ALA d   1     -32.577  45.447 -54.693  0.00  0.00     0.275 HD
ENDBRANCH  19  21
BRANCH  19  25
ATOM     25  CB  ALA d   1     -32.604  43.117 -52.321  0.00  0.00    -0.042 C 
ATOM     26  H5  ALA d   1     -32.055  42.174 -52.181  0.00  0.00     0.030 H 
ATOM     27  H6  ALA d   1     -33.684  42.911 -52.355  0.00  0.00     0.030 H 
ATOM     28  H7  ALA d   1     -32.386  43.796 -51.484  0.00  0.00     0.030 H 
ENDBRANCH  19  25
ENDBRANCH  16  19
ENDBRANCH  13  15
BRANCH  13  29
ATOM     29  CB  ARG d   1     -30.413  40.518 -56.702  0.00  0.00    -0.036 C 
ATOM     30  H10 ARG d   1     -29.796  40.039 -55.927  0.00  0.00     0.036 H 
ATOM     31  H11 ARG d   1     -29.907  41.425 -57.064  0.00  0.00     0.036 H 
BRANCH  29  32
ATOM     32  CG  ARG d   1     -30.568  39.561 -57.854  0.00  0.00    -0.048 C 
ATOM     33  H12 ARG d   1     -30.976  40.107 -58.718  0.00  0.00     0.035 H 
ATOM     34  H13 ARG d   1     -31.266  38.762 -57.562  0.00  0.00     0.035 H 
BRANCH  32  35
ATOM     35  CD  ARG d   1     -29.254  38.940 -58.247  0.00  0.00     0.009 C 
ATOM     36  H14 ARG d   1     -28.977  38.175 -57.507  0.00  0.00     0.064 H 
ATOM     37  H15 ARG d   1     -28.478  39.719 -58.277  0.00  0.00     0.064 H 
BRANCH  35  38
ATOM     38  NE  ARG d   1     -29.366  38.322 -59.558  0.00  0.00    -0.227 N 
ATOM     39  CZ  ARG d   1     -28.408  37.614 -60.139  0.00  0.00     0.665 C 
ATOM     40  NH1 ARG d   1     -27.245  37.417 -59.525  0.00  0.00    -0.235 N 
ATOM     41  NH2 ARG d   1     -28.620  37.108 -61.342  0.00  0.00    -0.235 N 
ATOM     42  H17 ARG d   1     -26.507  36.865 -59.985  0.00  0.00     0.174 HD
ATOM     43  H18 ARG d   1     -27.082  37.816 -58.590  0.00  0.00     0.174 HD
ATOM     44  H19 ARG d   1     -29.522  37.263 -61.814  0.00  0.00     0.174 HD
ATOM     45  H20 ARG d   1     -27.883  36.559 -61.807  0.00  0.00     0.174 HD
ATOM     46  H16 ARG d   1     -30.251  38.443 -60.071  0.00  0.00     0.177 HD
ENDBRANCH  35  38
ENDBRANCH  32  35
ENDBRANCH  29  32
ENDBRANCH  13  29
ENDBRANCH  10  13
ENDBRANCH   7   9
BRANCH   7  47
ATOM     47  CB  THR d   1     -35.626  38.692 -54.628  0.00  0.00     0.060 C 
ATOM     48  H23 THR d   1     -36.153  37.791 -54.280  0.00  0.00     0.086 H 
BRANCH  47  49
ATOM     49  OG1 THR d   1     -36.505  39.451 -55.475  0.00  0.00    -0.393 OA
ATOM     50  H24 THR d   1     -36.773  38.915 -56.212  0.00  0.00     0.210 HD
ENDBRANCH  47  49
BRANCH  47  51
ATOM     51  CG2 THR d   1     -35.226  39.540 -53.398  0.00  0.00    -0.050 C 
ATOM     52  H25 THR d   1     -36.131  39.834 -52.846  0.00  0.00     0.031 H 
ATOM     53  H26 THR d   1     -34.691  40.441 -53.732  0.00  0.00     0.031 H 
ATOM     54  H27 THR d   1     -34.572  38.948 -52.741  0.00  0.00     0.031 H 
ENDBRANCH  47  51
ENDBRANCH   7  47
ENDBRANCH   4   7
ENDBRANCH   1   3
BRANCH   1  55
ATOM     55  C   LYS d   1     -36.397  34.043 -56.223  0.00  0.00     0.241 C 
ATOM     56  O   LYS d   1     -36.162  33.792 -55.038  0.00  0.00    -0.271 OA
ATOM     57  N   GLN d   1     -37.435  33.529 -56.873  0.00  0.00    -0.346 N 
ATOM     58  H41 GLN d   1     -37.614  33.813 -57.815  0.00  0.00     0.163 HD
BRANCH  57  59
ATOM     59  CA  GLN d   1     -38.316  32.561 -56.240  0.00  0.00     0.090 C 
ATOM     60  H42 GLN d   1     -38.150  32.575 -55.153  0.00  0.00     0.087 H 
BRANCH  59  61
ATOM     61  C   GLN d   1     -38.037  31.166 -56.782  0.00  0.00     0.241 C 
ATOM     62  O   GLN d   1     -37.871  30.990 -57.987  0.00  0.00    -0.271 OA
ATOM     63  N   THR d   1     -37.989  30.176 -55.899  0.00  0.00    -0.344 N 
ATOM     64  H49 THR d   1     -38.032  30.388 -54.923  0.00  0.00     0.163 HD
BRANCH  63  65
ATOM     65  CA  THR d   1     -37.874  28.782 -56.325  0.00  0.00     0.113 C 
ATOM     66  H50 THR d   1     -37.813  28.752 -57.423  0.00  0.00     0.091 H 
BRANCH  65  67
ATOM     67  C   THR d   1     -39.123  28.049 -55.869  0.00  0.00     0.243 C 
ATOM     68  O   THR d   1     -39.762  28.449 -54.900  0.00  0.00    -0.271 OA
ATOM     69  N   ALA d   1     -39.497  26.980 -56.561  0.00  0.00    -0.346 N 
ATOM     70  H56 ALA d   1     -38.930  26.629 -57.306  0.00  0.00     0.163 HD
BRANCH  69  71
ATOM     71  CA  ALA d   1     -40.753  26.330 -56.209  0.00  0.00     0.086 C 
ATOM     72  H57 ALA d   1     -41.423  27.097 -55.795  0.00  0.00     0.086 H 
BRANCH  71  73
ATOM     73  C   ALA d   1     -40.535  25.279 -55.140  0.00  0.00     0.240 C 
ATOM     74  O   ALA d   1     -40.337  24.102 -55.440  0.00  0.00    -0.271 OA
ATOM     75  N   ARG d   1     -40.565  25.725 -53.891  0.00  0.00    -0.345 N 
ATOM     76  H61 ARG d   1     -40.708  26.703 -53.736  0.00  0.00     0.163 HD
BRANCH  75  77
ATOM     77  CA  ARG d   1     -40.400  24.858 -52.740  0.00  0.00     0.096 C 
ATOM     78  H62 ARG d   1     -39.507  24.233 -52.884  0.00  0.00     0.089 H 
BRANCH  77  79
ATOM     79  C   ARG d   1     -41.617  23.960 -52.566  0.00  0.00     0.196 C 
ATOM     80  O   ARG d   1     -41.659  22.846 -53.085  0.00  0.00    -0.646 OA
ATOM     81  OXT ARG d   1     -42.584  24.329 -51.903  0.00  0.00    -0.646 OA
ENDBRANCH  77  79
BRANCH  77  82
ATOM     82  CB  ARG d   1     -40.226  25.714 -51.488  0.00  0.00    -0.035 C 
ATOM     83  H63 ARG d   1     -39.396  26.417 -51.652  0.00  0.00     0.036 H 
ATOM     84  H64 ARG d   1     -39.987  25.056 -50.639  0.00  0.00     0.036 H 
BRANCH  82  85
ATOM     85  CG  ARG d   1     -41.492  26.512 -51.154  0.00  0.00    -0.047 C 
ATOM     86  H65 ARG d   1     -42.329  25.803 -51.067  0.00  0.00     0.035 H 
ATOM     87  H66 ARG d   1     -41.686  27.207 -51.984  0.00  0.00     0.035 H 
BRANCH  85  88
ATOM     88  CD  ARG d   1     -41.423  27.330 -49.854  0.00  0.00     0.009 C 
ATOM     89  H67 ARG d   1     -40.690  28.142 -49.969  0.00  0.00     0.064 H 
ATOM     90  H68 ARG d   1     -41.118  26.676 -49.024  0.00  0.00     0.064 H 
BRANCH  88  91
ATOM     91  NE  ARG d   1     -42.738  27.896 -49.571  0.00  0.00    -0.227 N 
ATOM     92  CZ  ARG d   1     -43.007  29.201 -49.567  0.00  0.00     0.665 C 
ATOM     93  NH1 ARG d   1     -42.036  30.086 -49.778  0.00  0.00    -0.235 N 
ATOM     94  NH2 ARG d   1     -44.240  29.636 -49.318  0.00  0.00    -0.235 N 
ATOM     95  H70 ARG d   1     -42.248  31.094 -49.774  0.00  0.00     0.174 HD
ATOM     96  H71 ARG d   1     -41.072  29.763 -49.945  0.00  0.00     0.174 HD
ATOM     97  H72 ARG d   1     -45.001  28.961 -49.153  0.00  0.00     0.174 HD
ATOM     98  H73 ARG d   1     -44.434  30.647 -49.290  0.00  0.00     0.174 HD
ATOM     99  H69 ARG d   1     -43.508  27.245 -49.361  0.00  0.00     0.177 HD
ENDBRANCH  88  91
ENDBRANCH  85  88
ENDBRANCH  82  85
ENDBRANCH  77  82
ENDBRANCH  75  77
ENDBRANCH  71  73
BRANCH  71 100
ATOM    100  CB  ALA d   1     -41.426  25.739 -57.422  0.00  0.00    -0.049 C 
ATOM    101  H58 ALA d   1     -42.368  25.258 -57.121  0.00  0.00     0.030 H 
ATOM    102  H59 ALA d   1     -40.763  24.991 -57.881  0.00  0.00     0.030 H 
ATOM    103  H60 ALA d   1     -41.638  26.537 -58.149  0.00  0.00     0.030 H 
ENDBRANCH  71 100
ENDBRANCH  69  71
ENDBRANCH  65  67
BRANCH  65 104
ATOM    104  CB  THR d   1     -36.622  28.078 -55.747  0.00  0.00     0.060 C 
ATOM    105  H51 THR d   1     -36.597  27.045 -56.123  0.00  0.00     0.086 H 
BRANCH 104 106
ATOM    106  OG1 THR d   1     -36.703  28.044 -54.312  0.00  0.00    -0.393 OA
ATOM    107  H52 THR d   1     -37.482  27.566 -54.051  0.00  0.00     0.210 HD
ENDBRANCH 104 106
BRANCH 104 108
ATOM    108  CG2 THR d   1     -35.332  28.789 -56.192  0.00  0.00    -0.050 C 
ATOM    109  H53 THR d   1     -34.461  28.268 -55.767  0.00  0.00     0.031 H 
ATOM    110  H54 THR d   1     -35.346  29.830 -55.837  0.00  0.00     0.031 H 
ATOM    111  H55 THR d   1     -35.267  28.777 -57.290  0.00  0.00     0.031 H 
ENDBRANCH 104 108
ENDBRANCH  65 104
ENDBRANCH  63  65
ENDBRANCH  59  61
BRANCH  59 112
ATOM    112  CB  GLN d   1     -39.774  32.907 -56.543  0.00  0.00    -0.030 C 
ATOM    113  H43 GLN d   1     -40.416  32.276 -55.911  0.00  0.00     0.037 H 
ATOM    114  H44 GLN d   1     -39.968  32.682 -57.602  0.00  0.00     0.037 H 
BRANCH 112 115
ATOM    115  CG  GLN d   1     -40.143  34.368 -56.290  0.00  0.00     0.011 C 
ATOM    116  H45 GLN d   1     -41.208  34.510 -56.524  0.00  0.00     0.047 H 
ATOM    117  H46 GLN d   1     -39.535  35.006 -56.948  0.00  0.00     0.047 H 
BRANCH 115 118
ATOM    118  CD  GLN d   1     -39.902  34.774 -54.862  0.00  0.00     0.215 C 
ATOM    119  OE1 GLN d   1     -39.083  35.653 -54.589  0.00  0.00    -0.274 OA
ATOM    120  NE2 GLN d   1     -40.610  34.133 -53.935  0.00  0.00    -0.370 N 
ATOM    121  H47 GLN d   1     -40.491  34.361 -52.969  0.00  0.00     0.159 HD
ATOM    122  H48 GLN d   1     -41.261  33.423 -54.205  0.00  0.00     0.159 HD
ENDBRANCH 115 118
ENDBRANCH 112 115
ENDBRANCH  59 112
ENDBRANCH  57  59
ENDBRANCH   1  55
BRANCH   1 123
ATOM    123  CB  LYS d   1     -34.380  34.214 -57.696  0.00  0.00    -0.038 C 
ATOM    124  H30 LYS d   1     -34.794  33.269 -58.078  0.00  0.00     0.036 H 
ATOM    125  H31 LYS d   1     -33.612  33.998 -56.939  0.00  0.00     0.036 H 
BRANCH 123 126
ATOM    126  CG  LYS d   1     -33.709  34.948 -58.862  0.00  0.00    -0.061 C 
ATOM    127  H32 LYS d   1     -33.187  35.834 -58.473  0.00  0.00     0.033 H 
ATOM    128  H33 LYS d   1     -34.482  35.263 -59.578  0.00  0.00     0.033 H 
BRANCH 126 129
ATOM    129  CD  LYS d   1     -32.700  34.054 -59.583  0.00  0.00    -0.043 C 
ATOM    130  H34 LYS d   1     -33.237  33.222 -60.062  0.00  0.00     0.035 H 
ATOM    131  H35 LYS d   1     -31.986  33.655 -58.848  0.00  0.00     0.035 H 
BRANCH 129 132
ATOM    132  CE  LYS d   1     -31.930  34.832 -60.654  0.00  0.00     0.080 C 
ATOM    133  H36 LYS d   1     -31.197  34.158 -61.123  0.00  0.00     0.075 H 
ATOM    134  H37 LYS d   1     -31.403  35.669 -60.173  0.00  0.00     0.075 H 
BRANCH 132 135
ATOM    135  NZ  LYS d   1     -32.828  35.376 -61.714  0.00  0.00    -0.079 N 
ATOM    136  H38 LYS d   1     -32.279  35.878 -62.394  0.00  0.00     0.274 HD
ATOM    137  H39 LYS d   1     -33.500  36.001 -61.297  0.00  0.00     0.274 HD
ATOM    138  H40 LYS d   1     -33.312  34.617 -62.167  0.00  0.00     0.274 HD
ENDBRANCH 132 135
ENDBRANCH 129 132
ENDBRANCH 126 129
ENDBRANCH 123 126
ENDBRANCH   1 123
TORSDOF 40
