REMARK  10 active torsions:
REMARK  status: ('A' for Active; 'I' for Inactive)
REMARK    1  A    between atoms: O3B_8  and  PG_1 
REMARK    2  A    between atoms: PB_5  and  O3B_8 
REMARK    3  A    between atoms: O3A_12  and  PB_5 
REMARK    4  A    between atoms: PA_9  and  O3A_12 
REMARK    5  A    between atoms: PA_9  and  O5'_13 
REMARK    6  A    between atoms: O5'_13  and  C5'_14 
REMARK    7  A    between atoms: C5'_14  and  C4'_15 
REMARK    8  A    between atoms: C3'_17  and  O3'_18 
REMARK    9  A    between atoms: C2'_19  and  O2'_20 
REMARK   10  A    between atoms: C1'_21  and  N9_22 
ROOT
ATOM      1  C4' ATP d   1     210.803 177.692 198.150  0.00  0.00     0.089 C 
ATOM      2  O4' ATP d   1     209.987 177.958 199.291  0.00  0.00    -0.353 OA
ATOM      3  C3' ATP d   1     210.091 176.624 197.336  0.00  0.00     0.091 C 
ATOM      4  C2' ATP d   1     208.661 176.685 197.810  0.00  0.00     0.105 C 
ATOM      5  C1' ATP d   1     208.839 177.111 199.258  0.00  0.00     0.139 C 
ATOM      6  H3  ATP d   1     211.790 177.323 198.466  0.00  0.00     0.090 H 
ATOM      7  H4  ATP d   1     210.163 176.831 196.258  0.00  0.00     0.091 H 
ATOM      8  H6  ATP d   1     208.099 177.446 197.249  0.00  0.00     0.093 H 
ATOM      9  H8  ATP d   1     209.010 176.224 199.885  0.00  0.00     0.122 H 
ENDROOT
BRANCH   1  10
ATOM     10  C5' ATP d   1     210.976 178.976 197.350  0.00  0.00     0.058 C 
ATOM     11  H1  ATP d   1     211.524 179.714 197.954  0.00  0.00     0.079 H 
ATOM     12  H2  ATP d   1     211.542 178.762 196.431  0.00  0.00     0.079 H 
BRANCH  10  13
ATOM     13  O5' ATP d   1     209.691 179.499 197.008  0.00  0.00    -0.287 OA
BRANCH  13  14
ATOM     14  PA  ATP d   1     209.490 180.312 195.632  0.00  0.00     0.417 P 
ATOM     15  O1A ATP d   1     208.059 180.783 195.520  0.00  0.00    -0.624 OA
ATOM     16  O2A ATP d   1     210.616 181.312 195.531  0.00  0.00    -0.624 OA
BRANCH  14  17
ATOM     17  O3A ATP d   1     209.778 179.180 194.511  0.00  0.00    -0.180 OA
BRANCH  17  18
ATOM     18  PB  ATP d   1     208.679 178.326 193.684  0.00  0.00     0.428 P 
ATOM     19  O1B ATP d   1     207.865 179.288 192.852  0.00  0.00    -0.624 OA
ATOM     20  O2B ATP d   1     209.426 177.219 192.978  0.00  0.00    -0.624 OA
BRANCH  18  21
ATOM     21  O3B ATP d   1     207.716 177.629 194.777  0.00  0.00    -0.173 OA
BRANCH  21  22
ATOM     22  PG  ATP d   1     206.315 176.935 194.348  0.00  0.00     0.431 P 
ATOM     23  O1G ATP d   1     206.479 176.616 192.882  0.00  0.00    -0.616 OA
ATOM     24  O2G ATP d   1     206.206 175.722 195.238  0.00  0.00    -0.616 OA
ATOM     25  O3G ATP d   1     205.254 177.974 194.627  0.00  0.00    -0.616 OA
ENDBRANCH  21  22
ENDBRANCH  18  21
ENDBRANCH  17  18
ENDBRANCH  14  17
ENDBRANCH  13  14
ENDBRANCH  10  13
ENDBRANCH   1  10
BRANCH   3  26
ATOM     26  O3' ATP d   1     210.645 175.337 197.629  0.00  0.00    -0.390 OA
ATOM     27  H5  ATP d   1     210.195 174.676 197.117  0.00  0.00     0.210 HD
ENDBRANCH   3  26
BRANCH   5  28
ATOM     28  N9  ATP d   1     207.658 177.831 199.765  0.00  0.00    -0.294 N 
ATOM     29  C8  ATP d   1     207.153 178.984 199.288  0.00  0.00     0.071 A 
ATOM     30  N7  ATP d   1     206.061 179.351 200.003  0.00  0.00    -0.236 NA
ATOM     31  H9  ATP d   1     207.563 179.542 198.448  0.00  0.00     0.144 H 
ATOM     32  C5  ATP d   1     205.873 178.420 200.951  0.00  0.00     0.149 A 
ATOM     33  C6  ATP d   1     204.913 178.192 202.043  0.00  0.00     0.155 A 
ATOM     34  C4  ATP d   1     206.926 177.419 200.786  0.00  0.00     0.167 A 
ATOM     35  N6  ATP d   1     203.912 179.064 202.259  0.00  0.00    -0.382 N 
ATOM     36  N1  ATP d   1     205.068 177.091 202.805  0.00  0.00    -0.222 NA
ATOM     37  H10 ATP d   1     203.243 178.900 203.024  0.00  0.00     0.157 HD
ATOM     38  H11 ATP d   1     203.815 179.895 201.659  0.00  0.00     0.157 HD
ATOM     39  C2  ATP d   1     206.064 176.214 202.595  0.00  0.00     0.091 A 
ATOM     40  N3  ATP d   1     206.975 176.359 201.618  0.00  0.00    -0.222 NA
ATOM     41  H12 ATP d   1     206.136 175.349 203.244  0.00  0.00     0.146 H 
ENDBRANCH   5  28
BRANCH   4  42
ATOM     42  O2' ATP d   1     207.985 175.437 197.677  0.00  0.00    -0.388 OA
ATOM     43  H7  ATP d   1     208.435 174.778 198.192  0.00  0.00     0.210 HD
ENDBRANCH   4  42
TORSDOF 10
