REMARK  10 active torsions:
REMARK  status: ('A' for Active; 'I' for Inactive)
REMARK    1  A    between atoms: O3B_8  and  PG_1 
REMARK    2  A    between atoms: PB_5  and  O3B_8 
REMARK    3  A    between atoms: O3A_12  and  PB_5 
REMARK    4  A    between atoms: PA_9  and  O3A_12 
REMARK    5  A    between atoms: PA_9  and  O5'_13 
REMARK    6  A    between atoms: O5'_13  and  C5'_14 
REMARK    7  A    between atoms: C5'_14  and  C4'_15 
REMARK    8  A    between atoms: C3'_17  and  O3'_18 
REMARK    9  A    between atoms: C2'_19  and  O2'_20 
REMARK   10  A    between atoms: C1'_21  and  N9_22 
ROOT
ATOM      1  C4' ATP d   1     123.047  90.085 109.656  0.00  0.00     0.089 C 
ATOM      2  O4' ATP d   1     122.273  90.373 110.821  0.00  0.00    -0.353 OA
ATOM      3  C3' ATP d   1     122.358  88.930 108.945  0.00  0.00     0.091 C 
ATOM      4  C2' ATP d   1     120.947  88.970 109.464  0.00  0.00     0.105 C 
ATOM      5  C1' ATP d   1     121.153  89.493 110.874  0.00  0.00     0.139 C 
ATOM      6  H3  ATP d   1     124.062  89.780 109.949  0.00  0.00     0.090 H 
ATOM      7  H4  ATP d   1     122.385  89.060 107.853  0.00  0.00     0.091 H 
ATOM      8  H6  ATP d   1     120.337  89.665 108.869  0.00  0.00     0.093 H 
ATOM      9  H8  ATP d   1     121.366  88.659 111.558  0.00  0.00     0.122 H 
ENDROOT
BRANCH   1  10
ATOM     10  C5' ATP d   1     123.143  91.326 108.773  0.00  0.00     0.058 C 
ATOM     11  H1  ATP d   1     123.718  92.101 109.301  0.00  0.00     0.079 H 
ATOM     12  H2  ATP d   1     123.655  91.064 107.836  0.00  0.00     0.079 H 
BRANCH  10  13
ATOM     13  O5' ATP d   1     121.846  91.829 108.472  0.00  0.00    -0.287 OA
BRANCH  13  14
ATOM     14  PA  ATP d   1     121.617  92.657 107.114  0.00  0.00     0.417 P 
ATOM     15  O1A ATP d   1     120.147  92.988 106.970  0.00  0.00    -0.624 OA
ATOM     16  O2A ATP d   1     122.650  93.763 107.081  0.00  0.00    -0.624 OA
BRANCH  14  17
ATOM     17  O3A ATP d   1     121.982  91.570 105.973  0.00  0.00    -0.180 OA
BRANCH  17  18
ATOM     18  PB  ATP d   1     120.865  90.703 105.187  0.00  0.00     0.428 P 
ATOM     19  O1B ATP d   1     120.119  91.607 104.238  0.00  0.00    -0.624 OA
ATOM     20  O2B ATP d   1     121.561  89.469 104.662  0.00  0.00    -0.624 OA
BRANCH  18  21
ATOM     21  O3B ATP d   1     119.839  90.210 106.326  0.00  0.00    -0.173 OA
BRANCH  21  22
ATOM     22  PG  ATP d   1     118.553  89.314 105.964  0.00  0.00     0.431 P 
ATOM     23  O1G ATP d   1     118.697  89.051 104.489  0.00  0.00    -0.616 OA
ATOM     24  O2G ATP d   1     118.712  88.120 106.860  0.00  0.00    -0.616 OA
ATOM     25  O3G ATP d   1     117.345  90.124 106.327  0.00  0.00    -0.616 OA
ENDBRANCH  21  22
ENDBRANCH  18  21
ENDBRANCH  17  18
ENDBRANCH  14  17
ENDBRANCH  13  14
ENDBRANCH  10  13
ENDBRANCH   1  10
BRANCH   3  26
ATOM     26  O3' ATP d   1     122.983  87.690 109.310  0.00  0.00    -0.390 OA
ATOM     27  H5  ATP d   1     122.548  86.974 108.863  0.00  0.00     0.210 HD
ENDBRANCH   3  26
BRANCH   5  28
ATOM     28  N9  ATP d   1     119.947  90.198 111.334  0.00  0.00    -0.294 N 
ATOM     29  C8  ATP d   1     119.385  91.285 110.763  0.00  0.00     0.071 A 
ATOM     30  N7  ATP d   1     118.282  91.669 111.441  0.00  0.00    -0.236 NA
ATOM     31  H9  ATP d   1     119.769  91.785 109.875  0.00  0.00     0.144 H 
ATOM     32  C5  ATP d   1     118.142  90.810 112.457  0.00  0.00     0.149 A 
ATOM     33  C6  ATP d   1     117.178  90.653 113.563  0.00  0.00     0.155 A 
ATOM     34  C4  ATP d   1     119.230  89.843 112.383  0.00  0.00     0.167 A 
ATOM     35  N6  ATP d   1     116.155  91.518 113.679  0.00  0.00    -0.382 N 
ATOM     36  N1  ATP d   1     117.370  89.624 114.422  0.00  0.00    -0.222 NA
ATOM     37  H10 ATP d   1     115.478  91.415 114.448  0.00  0.00     0.157 HD
ATOM     38  H11 ATP d   1     116.048  92.284 112.998  0.00  0.00     0.157 HD
ATOM     39  C2  ATP d   1     118.405  88.781 114.284  0.00  0.00     0.091 A 
ATOM     40  N3  ATP d   1     119.319  88.867 113.302  0.00  0.00    -0.222 NA
ATOM     41  H12 ATP d   1     118.510  87.982 115.009  0.00  0.00     0.146 H 
ENDBRANCH   5  28
BRANCH   4  42
ATOM     42  O2' ATP d   1     120.306  87.697 109.479  0.00  0.00    -0.388 OA
ATOM     43  H7  ATP d   1     120.796  87.103 110.036  0.00  0.00     0.210 HD
ENDBRANCH   4  42
TORSDOF 10
