REMARK WARNING: 32 MAX_TORS EXCEEDED!!!
REMARK  59 active torsions:
REMARK  status: ('A' for Active; 'I' for Inactive)
REMARK    1  A    between atoms: N_1  and  CA_2 
REMARK    2  A    between atoms: CA_2  and  C_3 
REMARK    3  A    between atoms: CA_2  and  CB_5 
REMARK       I    between atoms: C_3  and  N_6 
REMARK    4  A    between atoms: N_6  and  CA_7 
REMARK    5  A    between atoms: CA_7  and  C_8 
REMARK    6  A    between atoms: CA_7  and  CB_10 
REMARK       I    between atoms: C_8  and  N_17 
REMARK    7  A    between atoms: CB_10  and  CG_11 
REMARK    8  A    between atoms: CG_11  and  CD_12 
REMARK    9  A    between atoms: CD_12  and  NE_13 
REMARK       I    between atoms: NE_13  and  CZ_14 
REMARK       I    between atoms: CZ_14  and  NH1_15 
REMARK       I    between atoms: CZ_14  and  NH2_16 
REMARK   10  A    between atoms: N_17  and  CA_18 
REMARK   11  A    between atoms: CA_18  and  C_19 
REMARK   12  A    between atoms: CA_18  and  CB_21 
REMARK       I    between atoms: C_19  and  N_24 
REMARK   13  A    between atoms: CB_21  and  OG1_22 
REMARK   14  A    between atoms: CB_21  and  CG2_23 
REMARK   15  A    between atoms: N_24  and  CA_25 
REMARK   16  A    between atoms: CA_25  and  CB_26 
REMARK   17  A    between atoms: CA_25  and  C_31 
REMARK   18  A    between atoms: CB_26  and  CG_27 
REMARK   19  A    between atoms: CG_27  and  CD_28 
REMARK   20  A    between atoms: CD_28  and  CE_29 
REMARK   21  A    between atoms: CE_29  and  NZ_30 
REMARK   22  A    between atoms: NZ_30  and  CM1_33 
REMARK   23  A    between atoms: NZ_30  and  CM2_34 
REMARK   24  A    between atoms: NZ_30  and  CM3_35 
REMARK       I    between atoms: C_31  and  N_36 
REMARK   25  A    between atoms: N_36  and  CA_37 
REMARK   26  A    between atoms: CA_37  and  C_38 
REMARK   27  A    between atoms: CA_37  and  CB_40 
REMARK       I    between atoms: C_38  and  N_45 
REMARK   28  A    between atoms: CB_40  and  CG_41 
REMARK   29  A    between atoms: CG_41  and  CD_42 
REMARK       I    between atoms: CD_42  and  NE2_44 
REMARK   30  A    between atoms: N_45  and  CA_46 
REMARK   31  A    between atoms: CA_46  and  C_47 
REMARK   32  A    between atoms: CA_46  and  CB_49 
REMARK       I    between atoms: C_47  and  N_52 
REMARK   33  A    between atoms: CB_49  and  OG1_50 
REMARK   34  A    between atoms: CB_49  and  CG2_51 
REMARK   35  A    between atoms: N_52  and  CA_53 
REMARK   36  A    between atoms: CA_53  and  C_54 
REMARK   37  A    between atoms: CA_53  and  CB_56 
REMARK       I    between atoms: C_54  and  N_57 
REMARK   38  A    between atoms: N_57  and  CA_58 
REMARK   39  A    between atoms: CA_58  and  C_59 
REMARK   40  A    between atoms: CA_58  and  CB_61 
REMARK       I    between atoms: C_59  and  N_68 
REMARK   41  A    between atoms: CB_61  and  CG_62 
REMARK   42  A    between atoms: CG_62  and  CD_63 
REMARK   43  A    between atoms: CD_63  and  NE_64 
REMARK       I    between atoms: NE_64  and  CZ_65 
REMARK       I    between atoms: CZ_65  and  NH1_66 
REMARK   44  A    between atoms: N_68  and  CA_69 
REMARK   45  A    between atoms: CA_69  and  C_70 
REMARK   46  A    between atoms: CA_69  and  CB_72 
REMARK       I    between atoms: C_70  and  N_77 
REMARK   47  A    between atoms: CB_72  and  CG_73 
REMARK   48  A    between atoms: CG_73  and  CD_74 
REMARK   49  A    between atoms: CD_74  and  CE_75 
REMARK   50  A    between atoms: CE_75  and  NZ_76 
REMARK   51  A    between atoms: N_77  and  CA_78 
REMARK   52  A    between atoms: CA_78  and  C_79 
REMARK   53  A    between atoms: CA_78  and  CB_81 
REMARK       I    between atoms: C_79  and  N_83 
REMARK   54  A    between atoms: CB_81  and  OG_82 
REMARK   55  A    between atoms: N_83  and  CA_84 
REMARK   56  A    between atoms: CA_84  and  C_85 
REMARK   57  A    between atoms: CA_84  and  CB_87 
REMARK   58  A    between atoms: CB_87  and  OG1_88 
REMARK   59  A    between atoms: CB_87  and  CG2_89 
ROOT
ATOM      1  N   THR d   1      66.518  70.903   1.664  0.00  0.00    -0.344 N 
ATOM      2  H55 THR d   1      66.811  71.824   1.409  0.00  0.00     0.163 HD
ATOM      3  C   GLN d   1      67.440  69.959   1.838  0.00  0.00     0.241 C 
ATOM      4  O   GLN d   1      67.172  68.824   2.225  0.00  0.00    -0.271 OA
ENDROOT
BRANCH   3   5
ATOM      5  CA  GLN d   1      68.883  70.344   1.528  0.00  0.00     0.090 C 
ATOM      6  H48 GLN d   1      68.970  71.441   1.540  0.00  0.00     0.087 H 
BRANCH   5   7
ATOM      7  N   GLN d   1      69.771  69.796   2.546  0.00  0.00    -0.346 N 
ATOM      8  C   M3L d   1      70.565  70.562   3.291  0.00  0.00     0.241 C 
ATOM      9  O   M3L d   1      70.636  71.786   3.149  0.00  0.00    -0.271 OA
ATOM     10  H47 GLN d   1      69.784  68.806   2.690  0.00  0.00     0.163 HD
BRANCH   8  11
ATOM     11  CA  M3L d   1      71.370  69.819   4.338  0.00  0.00     0.089 C 
ATOM     12  H29 M3L d   1      71.836  68.935   3.878  0.00  0.00     0.087 H 
BRANCH  11  13
ATOM     13  N   M3L d   1      72.424  70.679   4.814  0.00  0.00    -0.346 N 
ATOM     14  C   THR d   1      73.611  70.219   5.187  0.00  0.00     0.243 C 
ATOM     15  O   THR d   1      73.862  69.023   5.324  0.00  0.00    -0.271 OA
ATOM     16  H28 M3L d   1      72.254  71.663   4.865  0.00  0.00     0.163 HD
BRANCH  14  17
ATOM     17  CA  THR d   1      74.656  71.289   5.463  0.00  0.00     0.113 C 
ATOM     18  H22 THR d   1      74.183  72.093   6.046  0.00  0.00     0.091 H 
BRANCH  17  19
ATOM     19  N   THR d   1      75.773  70.775   6.243  0.00  0.00    -0.344 N 
ATOM     20  C   ARG d   1      76.138  71.351   7.384  0.00  0.00     0.241 C 
ATOM     21  O   ARG d   1      75.565  72.335   7.851  0.00  0.00    -0.271 OA
ATOM     22  H21 THR d   1      76.274  69.975   5.915  0.00  0.00     0.163 HD
BRANCH  20  23
ATOM     23  CA  ARG d   1      77.314  70.730   8.121  0.00  0.00     0.089 C 
ATOM     24  H9  ARG d   1      77.694  69.881   7.534  0.00  0.00     0.087 H 
BRANCH  23  25
ATOM     25  N   ARG d   1      78.384  71.707   8.273  0.00  0.00    -0.346 N 
ATOM     26  C   ALA d   1      79.294  71.908   7.325  0.00  0.00     0.248 C 
ATOM     27  O   ALA d   1      79.344  71.257   6.282  0.00  0.00    -0.271 OA
ATOM     28  H8  ARG d   1      78.436  72.243   9.116  0.00  0.00     0.163 HD
BRANCH  26  29
ATOM     29  CA  ALA d   1      80.297  73.017   7.586  0.00  0.00     0.172 C 
ATOM     30  H4  ALA d   1      80.568  73.004   8.652  0.00  0.00     0.098 H 
BRANCH  29  31
ATOM     31  N   ALA d   1      81.502  72.794   6.794  0.00  0.00    -0.067 N 
ATOM     32  H1  ALA d   1      82.163  73.534   6.972  0.00  0.00     0.275 HD
ATOM     33  H2  ALA d   1      81.264  72.785   5.815  0.00  0.00     0.275 HD
ATOM     34  H3  ALA d   1      81.912  71.909   7.048  0.00  0.00     0.275 HD
ENDBRANCH  29  31
BRANCH  29  35
ATOM     35  CB  ALA d   1      79.690  74.365   7.257  0.00  0.00    -0.042 C 
ATOM     36  H5  ALA d   1      78.784  74.517   7.862  0.00  0.00     0.030 H 
ATOM     37  H6  ALA d   1      79.428  74.398   6.189  0.00  0.00     0.030 H 
ATOM     38  H7  ALA d   1      80.417  75.159   7.481  0.00  0.00     0.030 H 
ENDBRANCH  29  35
ENDBRANCH  26  29
ENDBRANCH  23  25
BRANCH  23  39
ATOM     39  CB  ARG d   1      76.851  70.218   9.481  0.00  0.00    -0.036 C 
ATOM     40  H10 ARG d   1      76.338  71.038  10.004  0.00  0.00     0.036 H 
ATOM     41  H11 ARG d   1      77.737  69.913  10.057  0.00  0.00     0.036 H 
BRANCH  39  42
ATOM     42  CG  ARG d   1      75.903  69.035   9.398  0.00  0.00    -0.048 C 
ATOM     43  H12 ARG d   1      76.476  68.141   9.112  0.00  0.00     0.035 H 
ATOM     44  H13 ARG d   1      75.141  69.243   8.632  0.00  0.00     0.035 H 
BRANCH  42  45
ATOM     45  CD  ARG d   1      75.205  68.768  10.725  0.00  0.00     0.009 C 
ATOM     46  H14 ARG d   1      74.395  69.500  10.860  0.00  0.00     0.064 H 
ATOM     47  H15 ARG d   1      75.933  68.872  11.543  0.00  0.00     0.064 H 
BRANCH  45  48
ATOM     48  NE  ARG d   1      74.642  67.421  10.755  0.00  0.00    -0.227 N 
ATOM     49  CZ  ARG d   1      75.254  66.361  11.276  0.00  0.00     0.665 C 
ATOM     50  NH1 ARG d   1      76.448  66.477  11.842  0.00  0.00    -0.235 N 
ATOM     51  NH2 ARG d   1      74.662  65.178  11.243  0.00  0.00    -0.235 N 
ATOM     52  H17 ARG d   1      76.911  65.648  12.242  0.00  0.00     0.174 HD
ATOM     53  H18 ARG d   1      76.912  67.396  11.882  0.00  0.00     0.174 HD
ATOM     54  H19 ARG d   1      73.735  65.078  10.806  0.00  0.00     0.174 HD
ATOM     55  H20 ARG d   1      75.128  64.357  11.655  0.00  0.00     0.174 HD
ATOM     56  H16 ARG d   1      73.707  67.282  10.345  0.00  0.00     0.177 HD
ENDBRANCH  45  48
ENDBRANCH  42  45
ENDBRANCH  39  42
ENDBRANCH  23  39
ENDBRANCH  20  23
ENDBRANCH  17  19
BRANCH  17  57
ATOM     57  CB  THR d   1      75.121  71.872   4.117  0.00  0.00     0.060 C 
ATOM     58  H23 THR d   1      74.244  72.249   3.571  0.00  0.00     0.086 H 
BRANCH  57  59
ATOM     59  OG1 THR d   1      75.750  70.848   3.340  0.00  0.00    -0.393 OA
ATOM     60  H24 THR d   1      75.130  70.146   3.183  0.00  0.00     0.210 HD
ENDBRANCH  57  59
BRANCH  57  61
ATOM     61  CG2 THR d   1      76.097  73.021   4.335  0.00  0.00    -0.050 C 
ATOM     62  H25 THR d   1      76.415  73.421   3.361  0.00  0.00     0.031 H 
ATOM     63  H26 THR d   1      76.976  72.656   4.886  0.00  0.00     0.031 H 
ATOM     64  H27 THR d   1      75.605  73.816   4.915  0.00  0.00     0.031 H 
ENDBRANCH  57  61
ENDBRANCH  17  57
ENDBRANCH  14  17
ENDBRANCH  11  13
BRANCH  11  65
ATOM     65  CB  M3L d   1      70.397  69.334   5.427  0.00  0.00    -0.038 C 
ATOM     66  H30 M3L d   1      70.977  68.912   6.261  0.00  0.00     0.036 H 
ATOM     67  H31 M3L d   1      69.746  68.555   5.002  0.00  0.00     0.036 H 
BRANCH  65  68
ATOM     68  CG  M3L d   1      69.534  70.461   5.951  0.00  0.00    -0.061 C 
ATOM     69  H32 M3L d   1      68.860  70.806   5.153  0.00  0.00     0.033 H 
ATOM     70  H33 M3L d   1      70.177  71.293   6.274  0.00  0.00     0.033 H 
BRANCH  68  71
ATOM     71  CD  M3L d   1      68.710  69.974   7.131  0.00  0.00    -0.042 C 
ATOM     72  H34 M3L d   1      69.377  69.714   7.966  0.00  0.00     0.035 H 
ATOM     73  H35 M3L d   1      68.130  69.087   6.836  0.00  0.00     0.035 H 
BRANCH  71  74
ATOM     74  CE  M3L d   1      67.761  71.088   7.561  0.00  0.00     0.084 C 
ATOM     75  H36 M3L d   1      67.321  71.518   6.649  0.00  0.00     0.076 H 
ATOM     76  H37 M3L d   1      68.360  71.854   8.075  0.00  0.00     0.076 H 
BRANCH  74  77
ATOM     77  NZ  M3L d   1      66.621  70.707   8.482  0.00  0.00    -0.079 N 
BRANCH  77  78
ATOM     78  CM1 M3L d   1      67.126  69.992   9.686  0.00  0.00     0.067 C 
ATOM     79  H38 M3L d   1      66.280  69.727  10.337  0.00  0.00     0.068 H 
ATOM     80  H39 M3L d   1      67.821  70.644  10.235  0.00  0.00     0.068 H 
ATOM     81  H40 M3L d   1      67.650  69.076   9.376  0.00  0.00     0.068 H 
ENDBRANCH  77  78
BRANCH  77  82
ATOM     82  CM2 M3L d   1      65.625  69.823   7.805  0.00  0.00     0.067 C 
ATOM     83  H41 M3L d   1      65.235  70.329   6.909  0.00  0.00     0.068 H 
ATOM     84  H42 M3L d   1      64.796  69.609   8.495  0.00  0.00     0.068 H 
ATOM     85  H43 M3L d   1      66.111  68.881   7.512  0.00  0.00     0.068 H 
ENDBRANCH  77  82
BRANCH  77  86
ATOM     86  CM3 M3L d   1      65.945  71.975   8.896  0.00  0.00     0.067 C 
ATOM     87  H44 M3L d   1      66.672  72.632   9.396  0.00  0.00     0.068 H 
ATOM     88  H45 M3L d   1      65.123  71.743   9.590  0.00  0.00     0.068 H 
ATOM     89  H46 M3L d   1      65.542  72.483   8.007  0.00  0.00     0.068 H 
ENDBRANCH  77  86
ENDBRANCH  74  77
ENDBRANCH  71  74
ENDBRANCH  68  71
ENDBRANCH  65  68
ENDBRANCH  11  65
ENDBRANCH   8  11
ENDBRANCH   5   7
BRANCH   5  90
ATOM     90  CB  GLN d   1      69.262  69.837   0.133  0.00  0.00    -0.030 C 
ATOM     91  H49 GLN d   1      68.757  70.472  -0.610  0.00  0.00     0.037 H 
ATOM     92  H50 GLN d   1      68.902  68.802   0.036  0.00  0.00     0.037 H 
BRANCH  90  93
ATOM     93  CG  GLN d   1      70.760  69.849  -0.172  0.00  0.00     0.011 C 
ATOM     94  H51 GLN d   1      70.968  69.090  -0.941  0.00  0.00     0.047 H 
ATOM     95  H52 GLN d   1      71.308  69.598   0.748  0.00  0.00     0.047 H 
BRANCH  93  96
ATOM     96  CD  GLN d   1      71.248  71.189  -0.673  0.00  0.00     0.215 C 
ATOM     97  OE1 GLN d   1      72.045  71.860  -0.013  0.00  0.00    -0.274 OA
ATOM     98  NE2 GLN d   1      70.789  71.580  -1.859  0.00  0.00    -0.370 N 
ATOM     99  H53 GLN d   1      71.077  72.458  -2.242  0.00  0.00     0.159 HD
ATOM    100  H54 GLN d   1      70.156  70.996  -2.367  0.00  0.00     0.159 HD
ENDBRANCH  93  96
ENDBRANCH  90  93
ENDBRANCH   5  90
ENDBRANCH   3   5
BRANCH   1 101
ATOM    101  CA  THR d   1      65.089  70.636   1.834  0.00  0.00     0.113 C 
ATOM    102  H56 THR d   1      64.962  69.553   1.977  0.00  0.00     0.091 H 
BRANCH 101 103
ATOM    103  C   THR d   1      64.283  71.069   0.614  0.00  0.00     0.243 C 
ATOM    104  O   THR d   1      64.717  71.914  -0.171  0.00  0.00    -0.271 OA
ATOM    105  N   ALA d   1      63.093  70.498   0.482  0.00  0.00    -0.346 N 
ATOM    106  H62 ALA d   1      62.823  69.785   1.129  0.00  0.00     0.163 HD
BRANCH 105 107
ATOM    107  CA  ALA d   1      62.169  70.879  -0.576  0.00  0.00     0.086 C 
ATOM    108  H63 ALA d   1      62.688  70.782  -1.541  0.00  0.00     0.086 H 
BRANCH 107 109
ATOM    109  C   ALA d   1      61.719  72.327  -0.415  0.00  0.00     0.240 C 
ATOM    110  O   ALA d   1      61.469  72.792   0.697  0.00  0.00    -0.271 OA
ATOM    111  N   ARG d   1      61.628  73.030  -1.539  0.00  0.00    -0.346 N 
ATOM    112  H67 ARG d   1      61.897  72.595  -2.398  0.00  0.00     0.163 HD
BRANCH 111 113
ATOM    113  CA  ARG d   1      61.153  74.409  -1.575  0.00  0.00     0.089 C 
ATOM    114  H68 ARG d   1      60.645  74.644  -0.628  0.00  0.00     0.087 H 
BRANCH 113 115
ATOM    115  C   ARG d   1      60.149  74.522  -2.723  0.00  0.00     0.241 C 
ATOM    116  O   ARG d   1      60.533  74.607  -3.891  0.00  0.00    -0.271 OA
ATOM    117  N   LYS d   1      58.863  74.500  -2.383  0.00  0.00    -0.346 N 
ATOM    118  H80 LYS d   1      58.616  74.536  -1.415  0.00  0.00     0.163 HD
BRANCH 117 119
ATOM    119  CA  LYS d   1      57.799  74.425  -3.386  0.00  0.00     0.089 C 
ATOM    120  H81 LYS d   1      57.929  73.487  -3.945  0.00  0.00     0.087 H 
BRANCH 119 121
ATOM    121  C   LYS d   1      57.847  75.582  -4.381  0.00  0.00     0.241 C 
ATOM    122  O   LYS d   1      57.541  75.409  -5.562  0.00  0.00    -0.271 OA
ATOM    123  N   SER d   1      58.231  76.761  -3.900  0.00  0.00    -0.344 N 
ATOM    124  H93 SER d   1      58.529  76.825  -2.948  0.00  0.00     0.163 HD
BRANCH 123 125
ATOM    125  CA  SER d   1      58.228  77.964  -4.728  0.00  0.00     0.109 C 
ATOM    126  H94 SER d   1      57.216  78.089  -5.141  0.00  0.00     0.090 H 
BRANCH 125 127
ATOM    127  C   SER d   1      59.208  77.861  -5.899  0.00  0.00     0.243 C 
ATOM    128  O   SER d   1      59.112  78.626  -6.860  0.00  0.00    -0.271 OA
ATOM    129  N   THR d   1      60.142  76.916  -5.815  0.00  0.00    -0.342 N 
ATOM    130  H98 THR d   1      60.175  76.338  -4.999  0.00  0.00     0.163 HD
BRANCH 129 131
ATOM    131  CA  THR d   1      61.118  76.698  -6.877  0.00  0.00     0.120 C 
ATOM    132  H99 THR d   1      60.770  77.231  -7.774  0.00  0.00     0.093 H 
BRANCH 131 133
ATOM    133  C   THR d   1      61.250  75.216  -7.211  0.00  0.00     0.199 C 
ATOM    134  O   THR d   1      62.172  74.814  -7.922  0.00  0.00    -0.646 OA
ATOM    135  OXT THR d   1      60.436  74.401  -6.774  0.00  0.00    -0.646 OA
ENDBRANCH 131 133
BRANCH 131 136
ATOM    136  CB  THR d   1      62.506  77.244  -6.489  0.00  0.00     0.061 C 
ATOM    137 0H10 THR d   1      63.206  77.066  -7.318  0.00  0.00     0.086 H 
BRANCH 136 138
ATOM    138  OG1 THR d   1      62.978  76.559  -5.317  0.00  0.00    -0.393 OA
ATOM    139 1H10 THR d   1      63.042  75.629  -5.500  0.00  0.00     0.210 HD
ENDBRANCH 136 138
BRANCH 136 140
ATOM    140  CG2 THR d   1      62.431  78.738  -6.217  0.00  0.00    -0.050 C 
ATOM    141 2H10 THR d   1      63.428  79.111  -5.942  0.00  0.00     0.031 H 
ATOM    142 3H10 THR d   1      61.729  78.926  -5.391  0.00  0.00     0.031 H 
ATOM    143 4H10 THR d   1      62.081  79.258  -7.121  0.00  0.00     0.031 H 
ENDBRANCH 136 140
ENDBRANCH 131 136
ENDBRANCH 129 131
ENDBRANCH 125 127
BRANCH 125 144
ATOM    144  CB  SER d   1      58.557  79.193  -3.877  0.00  0.00     0.044 C 
ATOM    145  H95 SER d   1      57.928  79.183  -2.975  0.00  0.00     0.077 H 
ATOM    146  H96 SER d   1      58.345  80.100  -4.462  0.00  0.00     0.077 H 
BRANCH 144 147
ATOM    147  OG  SER d   1      59.919  79.203  -3.489  0.00  0.00    -0.398 OA
ATOM    148  H97 SER d   1      60.092  79.975  -2.964  0.00  0.00     0.209 HD
ENDBRANCH 144 147
ENDBRANCH 125 144
ENDBRANCH 123 125
ENDBRANCH 119 121
BRANCH 119 149
ATOM    149  CB  LYS d   1      56.425  74.404  -2.711  0.00  0.00    -0.038 C 
ATOM    150  H82 LYS d   1      55.673  74.151  -3.473  0.00  0.00     0.036 H 
ATOM    151  H83 LYS d   1      56.222  75.410  -2.316  0.00  0.00     0.036 H 
BRANCH 149 152
ATOM    152  CG  LYS d   1      56.294  73.411  -1.568  0.00  0.00    -0.061 C 
ATOM    153  H84 LYS d   1      57.195  72.781  -1.535  0.00  0.00     0.033 H 
ATOM    154  H85 LYS d   1      55.411  72.779  -1.741  0.00  0.00     0.033 H 
BRANCH 152 155
ATOM    155  CD  LYS d   1      56.139  74.125  -0.235  0.00  0.00    -0.043 C 
ATOM    156  H86 LYS d   1      56.909  74.907  -0.157  0.00  0.00     0.035 H 
ATOM    157  H87 LYS d   1      56.273  73.396   0.578  0.00  0.00     0.035 H 
BRANCH 155 158
ATOM    158  CE  LYS d   1      54.766  74.769  -0.099  0.00  0.00     0.080 C 
ATOM    159  H88 LYS d   1      53.997  73.986  -0.172  0.00  0.00     0.075 H 
ATOM    160  H89 LYS d   1      54.630  75.493  -0.916  0.00  0.00     0.075 H 
BRANCH 158 161
ATOM    161  NZ  LYS d   1      54.610  75.477   1.201  0.00  0.00    -0.079 N 
ATOM    162  H90 LYS d   1      53.691  75.888   1.252  0.00  0.00     0.274 HD
ATOM    163  H91 LYS d   1      55.307  76.202   1.275  0.00  0.00     0.274 HD
ATOM    164  H92 LYS d   1      54.727  74.821   1.957  0.00  0.00     0.274 HD
ENDBRANCH 158 161
ENDBRANCH 155 158
ENDBRANCH 152 155
ENDBRANCH 149 152
ENDBRANCH 119 149
ENDBRANCH 117 119
ENDBRANCH 113 115
BRANCH 113 165
ATOM    165  CB  ARG d   1      62.328  75.381  -1.752  0.00  0.00    -0.036 C 
ATOM    166  H69 ARG d   1      62.774  75.199  -2.741  0.00  0.00     0.036 H 
ATOM    167  H70 ARG d   1      63.070  75.164  -0.969  0.00  0.00     0.036 H 
BRANCH 165 168
ATOM    168  CG  ARG d   1      61.968  76.859  -1.663  0.00  0.00    -0.048 C 
ATOM    169  H71 ARG d   1      61.428  77.042  -0.722  0.00  0.00     0.035 H 
ATOM    170  H72 ARG d   1      61.323  77.124  -2.514  0.00  0.00     0.035 H 
BRANCH 168 171
ATOM    171  CD  ARG d   1      63.222  77.728  -1.697  0.00  0.00     0.009 C 
ATOM    172  H73 ARG d   1      63.859  77.467  -0.839  0.00  0.00     0.064 H 
ATOM    173  H74 ARG d   1      62.925  78.785  -1.625  0.00  0.00     0.064 H 
BRANCH 171 174
ATOM    174  NE  ARG d   1      63.984  77.534  -2.928  0.00  0.00    -0.227 N 
ATOM    175  CZ  ARG d   1      65.266  77.855  -3.094  0.00  0.00     0.665 C 
ATOM    176  NH1 ARG d   1      65.971  78.388  -2.106  0.00  0.00    -0.235 N 
ATOM    177  NH2 ARG d   1      65.853  77.628  -4.260  0.00  0.00    -0.235 N 
ATOM    178  H76 ARG d   1      66.961  78.630  -2.252  0.00  0.00     0.174 HD
ATOM    179  H77 ARG d   1      65.528  78.560  -1.192  0.00  0.00     0.174 HD
ATOM    180  H78 ARG d   1      65.316  77.214  -5.035  0.00  0.00     0.174 HD
ATOM    181  H79 ARG d   1      66.847  77.865  -4.391  0.00  0.00     0.174 HD
ATOM    182  H75 ARG d   1      63.491  77.116  -3.730  0.00  0.00     0.177 HD
ENDBRANCH 171 174
ENDBRANCH 168 171
ENDBRANCH 165 168
ENDBRANCH 113 165
ENDBRANCH 111 113
ENDBRANCH 107 109
BRANCH 107 183
ATOM    183  CB  ALA d   1      60.964  69.950  -0.579  0.00  0.00    -0.049 C 
ATOM    184  H64 ALA d   1      60.274  70.248  -1.382  0.00  0.00     0.030 H 
ATOM    185  H65 ALA d   1      60.449  70.015   0.391  0.00  0.00     0.030 H 
ATOM    186  H66 ALA d   1      61.299  68.916  -0.748  0.00  0.00     0.030 H 
ENDBRANCH 107 183
ENDBRANCH 105 107
ENDBRANCH 101 103
BRANCH 101 187
ATOM    187  CB  THR d   1      64.506  71.366   3.053  0.00  0.00     0.060 C 
ATOM    188  H57 THR d   1      63.451  71.077   3.167  0.00  0.00     0.086 H 
BRANCH 187 189
ATOM    189  OG1 THR d   1      64.583  72.782   2.844  0.00  0.00    -0.393 OA
ATOM    190  H58 THR d   1      64.086  73.014   2.068  0.00  0.00     0.210 HD
ENDBRANCH 187 189
BRANCH 187 191
ATOM    191  CG2 THR d   1      65.251  70.994   4.317  0.00  0.00    -0.050 C 
ATOM    192  H59 THR d   1      64.813  71.530   5.172  0.00  0.00     0.031 H 
ATOM    193  H60 THR d   1      66.310  71.272   4.213  0.00  0.00     0.031 H 
ATOM    194  H61 THR d   1      65.171  69.910   4.484  0.00  0.00     0.031 H 
ENDBRANCH 187 191
ENDBRANCH 101 187
ENDBRANCH   1 101
TORSDOF 59
