REMARK WARNING: 32 MAX_TORS EXCEEDED!!!
REMARK  57 active torsions:
REMARK  status: ('A' for Active; 'I' for Inactive)
REMARK    1  A    between atoms: N_1  and  CA_2 
REMARK    2  A    between atoms: CA_2  and  C_3 
REMARK    3  A    between atoms: CA_2  and  CB_5 
REMARK       I    between atoms: C_3  and  N_6 
REMARK    4  A    between atoms: N_6  and  CA_7 
REMARK    5  A    between atoms: CA_7  and  C_8 
REMARK    6  A    between atoms: CA_7  and  CB_10 
REMARK       I    between atoms: C_8  and  N_17 
REMARK    7  A    between atoms: CB_10  and  CG_11 
REMARK    8  A    between atoms: CG_11  and  CD_12 
REMARK    9  A    between atoms: CD_12  and  NE_13 
REMARK       I    between atoms: NE_13  and  CZ_14 
REMARK       I    between atoms: CZ_14  and  NH1_15 
REMARK       I    between atoms: CZ_14  and  NH2_16 
REMARK   10  A    between atoms: N_17  and  CA_18 
REMARK   11  A    between atoms: CA_18  and  C_19 
REMARK   12  A    between atoms: CA_18  and  CB_21 
REMARK       I    between atoms: C_19  and  N_24 
REMARK   13  A    between atoms: CB_21  and  OG1_22 
REMARK   14  A    between atoms: CB_21  and  CG2_23 
REMARK   15  A    between atoms: N_24  and  CA_25 
REMARK   16  A    between atoms: CA_25  and  CB_26 
REMARK   17  A    between atoms: CA_25  and  C_32 
REMARK   18  A    between atoms: CB_26  and  CG_27 
REMARK   19  A    between atoms: CG_27  and  CD_28 
REMARK   20  A    between atoms: CD_28  and  CE_29 
REMARK   21  A    between atoms: CE_29  and  NZ_30 
REMARK   22  A    between atoms: NZ_30  and  CM_31 
REMARK       I    between atoms: C_32  and  N_34 
REMARK   23  A    between atoms: N_34  and  CA_35 
REMARK   24  A    between atoms: CA_35  and  C_36 
REMARK   25  A    between atoms: CA_35  and  CB_38 
REMARK       I    between atoms: C_36  and  N_43 
REMARK   26  A    between atoms: CB_38  and  CG_39 
REMARK   27  A    between atoms: CG_39  and  CD_40 
REMARK       I    between atoms: CD_40  and  NE2_42 
REMARK   28  A    between atoms: N_43  and  CA_44 
REMARK   29  A    between atoms: CA_44  and  C_45 
REMARK   30  A    between atoms: CA_44  and  CB_47 
REMARK       I    between atoms: C_45  and  N_50 
REMARK   31  A    between atoms: CB_47  and  OG1_48 
REMARK   32  A    between atoms: CB_47  and  CG2_49 
REMARK   33  A    between atoms: N_50  and  CA_51 
REMARK   34  A    between atoms: CA_51  and  C_52 
REMARK   35  A    between atoms: CA_51  and  CB_54 
REMARK       I    between atoms: C_52  and  N_55 
REMARK   36  A    between atoms: N_55  and  CA_56 
REMARK   37  A    between atoms: CA_56  and  C_57 
REMARK   38  A    between atoms: CA_56  and  CB_59 
REMARK       I    between atoms: C_57  and  N_66 
REMARK   39  A    between atoms: CB_59  and  CG_60 
REMARK   40  A    between atoms: CG_60  and  CD_61 
REMARK   41  A    between atoms: CD_61  and  NE_62 
REMARK       I    between atoms: NE_62  and  CZ_63 
REMARK       I    between atoms: CZ_63  and  NH1_64 
REMARK   42  A    between atoms: N_66  and  CA_67 
REMARK   43  A    between atoms: CA_67  and  C_68 
REMARK   44  A    between atoms: CA_67  and  CB_70 
REMARK       I    between atoms: C_68  and  N_75 
REMARK   45  A    between atoms: CB_70  and  CG_71 
REMARK   46  A    between atoms: CG_71  and  CD_72 
REMARK   47  A    between atoms: CD_72  and  CE_73 
REMARK   48  A    between atoms: CE_73  and  NZ_74 
REMARK   49  A    between atoms: N_75  and  CA_76 
REMARK   50  A    between atoms: CA_76  and  C_77 
REMARK   51  A    between atoms: CA_76  and  CB_79 
REMARK       I    between atoms: C_77  and  N_81 
REMARK   52  A    between atoms: CB_79  and  OG_80 
REMARK   53  A    between atoms: N_81  and  CA_82 
REMARK   54  A    between atoms: CA_82  and  C_83 
REMARK   55  A    between atoms: CA_82  and  CB_85 
REMARK   56  A    between atoms: CB_85  and  OG1_86 
REMARK   57  A    between atoms: CB_85  and  CG2_87 
ROOT
ATOM      1  N   THR d   1     -13.127   2.884  38.312  0.00  0.00    -0.344 N 
ATOM      2  H51 THR d   1     -13.366   3.829  38.534  0.00  0.00     0.163 HD
ATOM      3  C   GLN d   1     -14.107   2.000  38.157  0.00  0.00     0.241 C 
ATOM      4  O   GLN d   1     -13.926   0.847  37.756  0.00  0.00    -0.271 OA
ENDROOT
BRANCH   1   5
ATOM      5  CA  THR d   1     -11.720   2.534  38.172  0.00  0.00     0.113 C 
ATOM      6  H52 THR d   1     -11.643   1.438  38.130  0.00  0.00     0.091 H 
BRANCH   5   7
ATOM      7  C   THR d   1     -10.934   3.035  39.376  0.00  0.00     0.243 C 
ATOM      8  O   THR d   1     -11.309   4.000  40.036  0.00  0.00    -0.271 OA
ATOM      9  N   ALA d   1      -9.835   2.351  39.657  0.00  0.00    -0.346 N 
ATOM     10  H58 ALA d   1      -9.613   1.547  39.106  0.00  0.00     0.163 HD
BRANCH   9  11
ATOM     11  CA  ALA d   1      -8.940   2.731  40.741  0.00  0.00     0.086 C 
ATOM     12  H59 ALA d   1      -9.508   2.700  41.682  0.00  0.00     0.086 H 
BRANCH  11  13
ATOM     13  C   ALA d   1      -8.385   4.134  40.566  0.00  0.00     0.240 C 
ATOM     14  O   ALA d   1      -8.011   4.519  39.469  0.00  0.00    -0.271 OA
ATOM     15  N   ARG d   1      -8.347   4.890  41.662  0.00  0.00    -0.346 N 
ATOM     16  H63 ARG d   1      -8.726   4.516  42.509  0.00  0.00     0.163 HD
BRANCH  15  17
ATOM     17  CA  ARG d   1      -7.780   6.239  41.691  0.00  0.00     0.089 C 
ATOM     18  H64 ARG d   1      -7.218   6.418  40.763  0.00  0.00     0.087 H 
BRANCH  17  19
ATOM     19  C   ARG d   1      -6.813   6.334  42.884  0.00  0.00     0.241 C 
ATOM     20  O   ARG d   1      -7.224   6.557  44.025  0.00  0.00    -0.271 OA
ATOM     21  N   LYS d   1      -5.521   6.187  42.598  0.00  0.00    -0.346 N 
ATOM     22  H76 LYS d   1      -5.239   6.171  41.639  0.00  0.00     0.163 HD
BRANCH  21  23
ATOM     23  CA  LYS d   1      -4.501   6.048  43.635  0.00  0.00     0.089 C 
ATOM     24  H77 LYS d   1      -4.796   5.216  44.292  0.00  0.00     0.087 H 
BRANCH  23  25
ATOM     25  C   LYS d   1      -4.390   7.312  44.481  0.00  0.00     0.241 C 
ATOM     26  O   LYS d   1      -4.054   7.250  45.665  0.00  0.00    -0.271 OA
ATOM     27  N   SER d   1      -4.668   8.458  43.865  0.00  0.00    -0.344 N 
ATOM     28  H89 SER d   1      -4.925   8.447  42.899  0.00  0.00     0.163 HD
BRANCH  27  29
ATOM     29  CA  SER d   1      -4.604   9.732  44.575  0.00  0.00     0.109 C 
ATOM     30  H90 SER d   1      -3.603   9.825  45.020  0.00  0.00     0.090 H 
BRANCH  29  31
ATOM     31  C   SER d   1      -5.638   9.797  45.703  0.00  0.00     0.243 C 
ATOM     32  O   SER d   1      -5.591  10.697  46.539  0.00  0.00    -0.271 OA
ATOM     33  N   THR d   1      -6.570   8.846  45.712  0.00  0.00    -0.342 N 
ATOM     34  H94 THR d   1      -6.588   8.178  44.968  0.00  0.00     0.163 HD
BRANCH  33  35
ATOM     35  CA  THR d   1      -7.564   8.748  46.773  0.00  0.00     0.120 C 
ATOM     36  H95 THR d   1      -7.220   9.343  47.632  0.00  0.00     0.093 H 
BRANCH  35  37
ATOM     37  C   THR d   1      -7.724   7.297  47.205  0.00  0.00     0.199 C 
ATOM     38  O   THR d   1      -6.763   6.524  47.168  0.00  0.00    -0.646 OA
ATOM     39  OXT THR d   1      -8.816   6.878  47.597  0.00  0.00    -0.646 OA
ENDBRANCH  35  37
BRANCH  35  40
ATOM     40  CB  THR d   1      -8.927   9.288  46.310  0.00  0.00     0.061 C 
ATOM     41  H96 THR d   1      -9.623   9.277  47.162  0.00  0.00     0.086 H 
BRANCH  40  42
ATOM     42  OG1 THR d   1      -9.451   8.452  45.266  0.00  0.00    -0.393 OA
ATOM     43  H97 THR d   1      -9.558   7.567  45.594  0.00  0.00     0.210 HD
ENDBRANCH  40  42
BRANCH  40  44
ATOM     44  CG2 THR d   1      -8.791  10.716  45.804  0.00  0.00    -0.050 C 
ATOM     45  H98 THR d   1      -9.775  11.085  45.478  0.00  0.00     0.031 H 
ATOM     46  H99 THR d   1      -8.091  10.739  44.956  0.00  0.00     0.031 H 
ATOM     47 0H10 THR d   1      -8.409  11.357  46.612  0.00  0.00     0.031 H 
ENDBRANCH  40  44
ENDBRANCH  35  40
ENDBRANCH  33  35
ENDBRANCH  29  31
BRANCH  29  48
ATOM     48  CB  SER d   1      -4.812  10.898  43.607  0.00  0.00     0.044 C 
ATOM     49  H91 SER d   1      -4.152  10.765  42.737  0.00  0.00     0.077 H 
ATOM     50  H92 SER d   1      -4.559  11.839  44.118  0.00  0.00     0.077 H 
BRANCH  48  51
ATOM     51  OG  SER d   1      -6.158  10.959  43.163  0.00  0.00    -0.398 OA
ATOM     52  H93 SER d   1      -6.260  11.690  42.565  0.00  0.00     0.209 HD
ENDBRANCH  48  51
ENDBRANCH  29  48
ENDBRANCH  27  29
ENDBRANCH  23  25
BRANCH  23  53
ATOM     53  CB  LYS d   1      -3.129   5.721  43.026  0.00  0.00    -0.038 C 
ATOM     54  H78 LYS d   1      -2.526   5.224  43.800  0.00  0.00     0.036 H 
ATOM     55  H79 LYS d   1      -2.651   6.670  42.742  0.00  0.00     0.036 H 
BRANCH  53  56
ATOM     56  CG  LYS d   1      -3.146   4.817  41.792  0.00  0.00    -0.061 C 
ATOM     57  H80 LYS d   1      -3.968   4.094  41.895  0.00  0.00     0.033 H 
ATOM     58  H81 LYS d   1      -2.189   4.278  41.735  0.00  0.00     0.033 H 
BRANCH  56  59
ATOM     59  CD  LYS d   1      -3.344   5.607  40.496  0.00  0.00    -0.043 C 
ATOM     60  H82 LYS d   1      -3.127   6.668  40.692  0.00  0.00     0.035 H 
ATOM     61  H83 LYS d   1      -4.390   5.500  40.173  0.00  0.00     0.035 H 
BRANCH  59  62
ATOM     62  CE  LYS d   1      -2.438   5.122  39.381  0.00  0.00     0.080 C 
ATOM     63  H84 LYS d   1      -2.971   5.195  38.422  0.00  0.00     0.075 H 
ATOM     64  H85 LYS d   1      -2.161   4.074  39.568  0.00  0.00     0.075 H 
BRANCH  62  65
ATOM     65  NZ  LYS d   1      -1.209   5.950  39.323  0.00  0.00    -0.079 N 
ATOM     66  H86 LYS d   1      -0.615   5.618  38.579  0.00  0.00     0.274 HD
ATOM     67  H87 LYS d   1      -0.717   5.883  40.200  0.00  0.00     0.274 HD
ATOM     68  H88 LYS d   1      -1.459   6.911  39.150  0.00  0.00     0.274 HD
ENDBRANCH  62  65
ENDBRANCH  59  62
ENDBRANCH  56  59
ENDBRANCH  53  56
ENDBRANCH  23  53
ENDBRANCH  21  23
ENDBRANCH  17  19
BRANCH  17  69
ATOM     69  CB  ARG d   1      -8.914   7.275  41.785  0.00  0.00    -0.036 C 
ATOM     70  H65 ARG d   1      -9.368   7.188  42.783  0.00  0.00     0.036 H 
ATOM     71  H66 ARG d   1      -9.663   7.026  41.019  0.00  0.00     0.036 H 
BRANCH  69  72
ATOM     72  CG  ARG d   1      -8.505   8.728  41.583  0.00  0.00    -0.048 C 
ATOM     73  H67 ARG d   1      -7.965   8.825  40.630  0.00  0.00     0.035 H 
ATOM     74  H68 ARG d   1      -7.849   9.040  42.409  0.00  0.00     0.035 H 
BRANCH  72  75
ATOM     75  CD  ARG d   1      -9.744   9.622  41.556  0.00  0.00     0.009 C 
ATOM     76  H69 ARG d   1     -10.373   9.338  40.699  0.00  0.00     0.064 H 
ATOM     77  H70 ARG d   1      -9.428  10.670  41.448  0.00  0.00     0.064 H 
BRANCH  75  78
ATOM     78  NE  ARG d   1     -10.520   9.483  42.781  0.00  0.00    -0.227 N 
ATOM     79  CZ  ARG d   1     -11.799   9.826  42.928  0.00  0.00     0.665 C 
ATOM     80  NH1 ARG d   1     -12.502  10.360  41.933  0.00  0.00    -0.235 N 
ATOM     81  NH2 ARG d   1     -12.371   9.654  44.118  0.00  0.00    -0.235 N 
ATOM     82  H72 ARG d   1     -13.489  10.614  42.079  0.00  0.00     0.174 HD
ATOM     83  H73 ARG d   1     -12.059  10.519  41.017  0.00  0.00     0.174 HD
ATOM     84  H74 ARG d   1     -11.833   9.241  44.893  0.00  0.00     0.174 HD
ATOM     85  H75 ARG d   1     -13.352   9.934  44.263  0.00  0.00     0.174 HD
ATOM     86  H71 ARG d   1     -10.040   9.087  43.602  0.00  0.00     0.177 HD
ENDBRANCH  75  78
ENDBRANCH  72  75
ENDBRANCH  69  72
ENDBRANCH  17  69
ENDBRANCH  15  17
ENDBRANCH  11  13
BRANCH  11  87
ATOM     87  CB  ALA d   1      -7.795   1.747  40.831  0.00  0.00    -0.049 C 
ATOM     88  H60 ALA d   1      -7.123   2.040  41.651  0.00  0.00     0.030 H 
ATOM     89  H61 ALA d   1      -7.237   1.746  39.883  0.00  0.00     0.030 H 
ATOM     90  H62 ALA d   1      -8.192   0.739  41.024  0.00  0.00     0.030 H 
ENDBRANCH  11  87
ENDBRANCH   9  11
ENDBRANCH   5   7
BRANCH   5  91
ATOM     91  CB  THR d   1     -11.101   3.110  36.897  0.00  0.00     0.060 C 
ATOM     92  H53 THR d   1     -10.045   2.806  36.843  0.00  0.00     0.086 H 
BRANCH  91  93
ATOM     93  OG1 THR d   1     -11.180   4.534  36.935  0.00  0.00    -0.393 OA
ATOM     94  H54 THR d   1     -10.706   4.856  37.693  0.00  0.00     0.210 HD
ENDBRANCH  91  93
BRANCH  91  95
ATOM     95  CG2 THR d   1     -11.820   2.604  35.673  0.00  0.00    -0.050 C 
ATOM     96  H55 THR d   1     -11.356   3.032  34.772  0.00  0.00     0.031 H 
ATOM     97  H56 THR d   1     -12.877   2.904  35.719  0.00  0.00     0.031 H 
ATOM     98  H57 THR d   1     -11.751   1.507  35.635  0.00  0.00     0.031 H 
ENDBRANCH  91  95
ENDBRANCH   5  91
ENDBRANCH   1   5
BRANCH   3  99
ATOM     99  CA  GLN d   1     -15.503   2.495  38.505  0.00  0.00     0.090 C 
ATOM    100  H44 GLN d   1     -15.532   3.590  38.400  0.00  0.00     0.087 H 
BRANCH  99 101
ATOM    101  N   GLN d   1     -16.472   1.919  37.597  0.00  0.00    -0.346 N 
ATOM    102  C   MLZ d   1     -17.215   2.650  36.775  0.00  0.00     0.241 C 
ATOM    103  O   MLZ d   1     -17.239   3.886  36.798  0.00  0.00    -0.271 OA
ATOM    104  H43 GLN d   1     -16.587   0.926  37.589  0.00  0.00     0.163 HD
BRANCH 102 105
ATOM    105  CA  MLZ d   1     -18.006   1.884  35.751  0.00  0.00     0.089 C 
ATOM    106  H29 MLZ d   1     -18.488   1.023  36.237  0.00  0.00     0.087 H 
BRANCH 105 107
ATOM    107  N   MLZ d   1     -19.029   2.736  35.226  0.00  0.00    -0.346 N 
ATOM    108  C   THR d   1     -20.196   2.273  34.798  0.00  0.00     0.243 C 
ATOM    109  O   THR d   1     -20.452   1.061  34.689  0.00  0.00    -0.271 OA
ATOM    110  H28 MLZ d   1     -18.857   3.720  35.180  0.00  0.00     0.163 HD
BRANCH 108 111
ATOM    111  CA  THR d   1     -21.216   3.346  34.433  0.00  0.00     0.113 C 
ATOM    112  H22 THR d   1     -20.715   4.106  33.816  0.00  0.00     0.091 H 
BRANCH 111 113
ATOM    113  N   THR d   1     -22.302   2.792  33.656  0.00  0.00    -0.344 N 
ATOM    114  C   ARG d   1     -22.672   3.332  32.491  0.00  0.00     0.241 C 
ATOM    115  O   ARG d   1     -22.121   4.308  32.003  0.00  0.00    -0.271 OA
ATOM    116  H21 THR d   1     -22.787   1.987  33.998  0.00  0.00     0.163 HD
BRANCH 114 117
ATOM    117  CA  ARG d   1     -23.851   2.691  31.787  0.00  0.00     0.089 C 
ATOM    118  H9  ARG d   1     -24.243   1.875  32.411  0.00  0.00     0.087 H 
BRANCH 117 119
ATOM    119  N   ARG d   1     -24.896   3.686  31.594  0.00  0.00    -0.346 N 
ATOM    120  C   ALA d   1     -25.805   3.932  32.526  0.00  0.00     0.248 C 
ATOM    121  O   ALA d   1     -25.884   3.311  33.579  0.00  0.00    -0.271 OA
ATOM    122  H8  ARG d   1     -24.929   4.197  30.735  0.00  0.00     0.163 HD
BRANCH 120 123
ATOM    123  CA  ALA d   1     -26.775   5.058  32.225  0.00  0.00     0.172 C 
ATOM    124  H4  ALA d   1     -27.027   5.042  31.154  0.00  0.00     0.098 H 
BRANCH 123 125
ATOM    125  N   ALA d   1     -28.006   4.863  33.020  0.00  0.00    -0.067 N 
ATOM    126  H1  ALA d   1     -28.654   5.609  32.824  0.00  0.00     0.275 HD
ATOM    127  H2  ALA d   1     -27.776   4.867  34.002  0.00  0.00     0.275 HD
ATOM    128  H3  ALA d   1     -28.427   3.980  32.777  0.00  0.00     0.275 HD
ENDBRANCH 123 125
BRANCH 123 129
ATOM    129  CB  ALA d   1     -26.154   6.387  32.564  0.00  0.00    -0.042 C 
ATOM    130  H5  ALA d   1     -25.239   6.526  31.970  0.00  0.00     0.030 H 
ATOM    131  H6  ALA d   1     -25.903   6.412  33.635  0.00  0.00     0.030 H 
ATOM    132  H7  ALA d   1     -26.866   7.194  32.335  0.00  0.00     0.030 H 
ENDBRANCH 123 129
ENDBRANCH 120 123
ENDBRANCH 117 119
BRANCH 117 133
ATOM    133  CB  ARG d   1     -23.412   2.121  30.453  0.00  0.00    -0.036 C 
ATOM    134  H10 ARG d   1     -22.878   2.904  29.894  0.00  0.00     0.036 H 
ATOM    135  H11 ARG d   1     -24.305   1.813  29.890  0.00  0.00     0.036 H 
BRANCH 133 136
ATOM    136  CG  ARG d   1     -22.524   0.959  30.600  0.00  0.00    -0.048 C 
ATOM    137  H12 ARG d   1     -23.092   0.113  31.015  0.00  0.00     0.035 H 
ATOM    138  H13 ARG d   1     -21.697   1.213  31.279  0.00  0.00     0.035 H 
BRANCH 136 139
ATOM    139  CD  ARG d   1     -21.981   0.587  29.280  0.00  0.00     0.009 C 
ATOM    140  H14 ARG d   1     -21.285   1.369  28.943  0.00  0.00     0.064 H 
ATOM    141  H15 ARG d   1     -22.809   0.498  28.561  0.00  0.00     0.064 H 
BRANCH 139 142
ATOM    142  NE  ARG d   1     -21.278  -0.674  29.352  0.00  0.00    -0.227 N 
ATOM    143  CZ  ARG d   1     -20.755  -1.246  28.304  0.00  0.00     0.665 C 
ATOM    144  NH1 ARG d   1     -20.931  -0.666  27.125  0.00  0.00    -0.235 N 
ATOM    145  NH2 ARG d   1     -20.164  -2.423  28.414  0.00  0.00    -0.235 N 
ATOM    146  H17 ARG d   1     -20.531  -1.092  26.277  0.00  0.00     0.174 HD
ATOM    147  H18 ARG d   1     -21.468   0.210  27.057  0.00  0.00     0.174 HD
ATOM    148  H19 ARG d   1     -20.040  -2.852  29.342  0.00  0.00     0.174 HD
ATOM    149  H20 ARG d   1     -19.828  -2.911  27.572  0.00  0.00     0.174 HD
ATOM    150  H16 ARG d   1     -21.187  -1.139  30.267  0.00  0.00     0.177 HD
ENDBRANCH 139 142
ENDBRANCH 136 139
ENDBRANCH 133 136
ENDBRANCH 117 133
ENDBRANCH 114 117
ENDBRANCH 111 113
BRANCH 111 151
ATOM    151  CB  THR d   1     -21.715   4.025  35.726  0.00  0.00     0.060 C 
ATOM    152  H23 THR d   1     -20.844   4.412  36.274  0.00  0.00     0.086 H 
BRANCH 151 153
ATOM    153  OG1 THR d   1     -22.367   3.049  36.536  0.00  0.00    -0.393 OA
ATOM    154  H24 THR d   1     -22.678   3.458  37.335  0.00  0.00     0.210 HD
ENDBRANCH 151 153
BRANCH 151 155
ATOM    155  CG2 THR d   1     -22.640   5.187  35.434  0.00  0.00    -0.050 C 
ATOM    156  H25 THR d   1     -22.970   5.640  36.381  0.00  0.00     0.031 H 
ATOM    157  H26 THR d   1     -23.516   4.827  34.875  0.00  0.00     0.031 H 
ATOM    158  H27 THR d   1     -22.106   5.939  34.835  0.00  0.00     0.031 H 
ENDBRANCH 151 155
ENDBRANCH 111 151
ENDBRANCH 108 111
ENDBRANCH 105 107
BRANCH 105 159
ATOM    159  CB  MLZ d   1     -17.052   1.358  34.673  0.00  0.00    -0.038 C 
ATOM    160  H30 MLZ d   1     -17.650   0.899  33.872  0.00  0.00     0.036 H 
ATOM    161  H31 MLZ d   1     -16.400   0.597  35.126  0.00  0.00     0.036 H 
BRANCH 159 162
ATOM    162  CG  MLZ d   1     -16.176   2.442  34.061  0.00  0.00    -0.061 C 
ATOM    163  H32 MLZ d   1     -15.577   2.900  34.861  0.00  0.00     0.033 H 
ATOM    164  H33 MLZ d   1     -16.828   3.204  33.609  0.00  0.00     0.033 H 
BRANCH 162 165
ATOM    165  CD  MLZ d   1     -15.232   1.918  32.991  0.00  0.00    -0.043 C 
ATOM    166  H34 MLZ d   1     -15.826   1.487  32.172  0.00  0.00     0.035 H 
ATOM    167  H35 MLZ d   1     -14.594   1.137  33.431  0.00  0.00     0.035 H 
BRANCH 165 168
ATOM    168  CE  MLZ d   1     -14.349   3.018  32.432  0.00  0.00     0.081 C 
ATOM    169  H36 MLZ d   1     -13.937   3.596  33.272  0.00  0.00     0.075 H 
ATOM    170  H37 MLZ d   1     -14.967   3.676  31.803  0.00  0.00     0.075 H 
BRANCH 168 171
ATOM    171  NZ  MLZ d   1     -13.236   2.513  31.624  0.00  0.00    -0.079 N 
ATOM    172  H38 MLZ d   1     -12.686   1.887  32.191  0.00  0.00     0.276 HD
ATOM    173  H39 MLZ d   1     -12.667   3.294  31.338  0.00  0.00     0.276 HD
BRANCH 171 174
ATOM    174  CM  MLZ d   1     -13.666   1.807  30.449  0.00  0.00     0.065 C 
ATOM    175  H40 MLZ d   1     -12.786   1.456  29.890  0.00  0.00     0.067 H 
ATOM    176  H41 MLZ d   1     -14.260   2.480  29.813  0.00  0.00     0.067 H 
ATOM    177  H42 MLZ d   1     -14.281   0.944  30.744  0.00  0.00     0.067 H 
ENDBRANCH 171 174
ENDBRANCH 168 171
ENDBRANCH 165 168
ENDBRANCH 162 165
ENDBRANCH 159 162
ENDBRANCH 105 159
ENDBRANCH 102 105
ENDBRANCH  99 101
BRANCH  99 178
ATOM    178  CB  GLN d   1     -15.811   2.134  39.949  0.00  0.00    -0.030 C 
ATOM    179  H45 GLN d   1     -14.902   2.289  40.548  0.00  0.00     0.037 H 
ATOM    180  H46 GLN d   1     -16.099   1.073  39.989  0.00  0.00     0.037 H 
BRANCH 178 181
ATOM    181  CG  GLN d   1     -16.934   2.961  40.556  0.00  0.00     0.011 C 
ATOM    182  H47 GLN d   1     -16.734   4.021  40.341  0.00  0.00     0.047 H 
ATOM    183  H48 GLN d   1     -16.929   2.800  41.644  0.00  0.00     0.047 H 
BRANCH 181 184
ATOM    184  CD  GLN d   1     -18.320   2.626  40.035  0.00  0.00     0.215 C 
ATOM    185  OE1 GLN d   1     -18.695   1.460  39.898  0.00  0.00    -0.274 OA
ATOM    186  NE2 GLN d   1     -19.100   3.662  39.765  0.00  0.00    -0.370 N 
ATOM    187  H49 GLN d   1     -20.026   3.514  39.418  0.00  0.00     0.159 HD
ATOM    188  H50 GLN d   1     -18.763   4.593  39.908  0.00  0.00     0.159 HD
ENDBRANCH 181 184
ENDBRANCH 178 181
ENDBRANCH  99 178
ENDBRANCH   3  99
TORSDOF 57
