REMARK WARNING: 32 MAX_TORS EXCEEDED!!!
REMARK  45 active torsions:
REMARK  status: ('A' for Active; 'I' for Inactive)
REMARK    1  A    between atoms: N_1  and  CA_2 
REMARK    2  A    between atoms: CA_2  and  C_3 
REMARK       I    between atoms: C_3  and  N_5 
REMARK    3  A    between atoms: N_5  and  CA_6 
REMARK    4  A    between atoms: CA_6  and  C_7 
REMARK    5  A    between atoms: CA_6  and  CB_9 
REMARK       I    between atoms: C_7  and  N_16 
REMARK    6  A    between atoms: CB_9  and  CG_10 
REMARK    7  A    between atoms: CG_10  and  CD_11 
REMARK    8  A    between atoms: CD_11  and  NE_12 
REMARK       I    between atoms: NE_12  and  CZ_13 
REMARK       I    between atoms: CZ_13  and  NH1_14 
REMARK       I    between atoms: CZ_13  and  NH2_15 
REMARK    9  A    between atoms: N_16  and  CA_17 
REMARK   10  A    between atoms: CA_17  and  C_18 
REMARK   11  A    between atoms: CA_17  and  CB_20 
REMARK       I    between atoms: C_18  and  N_25 
REMARK   12  A    between atoms: CB_20  and  CG_21 
REMARK   13  A    between atoms: CG_21  and  CD_22 
REMARK   14  A    between atoms: CD_22  and  CE_23 
REMARK   15  A    between atoms: CE_23  and  NZ_24 
REMARK   16  A    between atoms: N_25  and  CA_26 
REMARK   17  A    between atoms: CA_26  and  C_27 
REMARK   18  A    between atoms: CA_26  and  CB_29 
REMARK       I    between atoms: C_27  and  N_34 
REMARK   19  A    between atoms: CB_29  and  CG_30 
REMARK   20  A    between atoms: CG_30  and  CD_31 
REMARK   21  A    between atoms: CD_31  and  CE_32 
REMARK   22  A    between atoms: CE_32  and  NZ_33 
REMARK   23  A    between atoms: N_34  and  CA_35 
REMARK   24  A    between atoms: CA_35  and  C_36 
REMARK   25  A    between atoms: CA_35  and  CB_38 
REMARK       I    between atoms: C_36  and  N_45 
REMARK   26  A    between atoms: CB_38  and  CG_39 
REMARK   27  A    between atoms: CG_39  and  CD_40 
REMARK   28  A    between atoms: CD_40  and  NE_41 
REMARK       I    between atoms: NE_41  and  CZ_42 
REMARK       I    between atoms: CZ_42  and  NH1_43 
REMARK       I    between atoms: CZ_42  and  NH2_44 
REMARK   29  A    between atoms: N_45  and  CA_46 
REMARK   30  A    between atoms: CA_46  and  C_47 
REMARK   31  A    between atoms: CA_46  and  CB_49 
REMARK       I    between atoms: C_47  and  N_56 
REMARK   32  A    between atoms: CB_49  and  CG_50 
REMARK   33  A    between atoms: CG_50  and  CD_51 
REMARK   34  A    between atoms: CD_51  and  NE_52 
REMARK       I    between atoms: NE_52  and  CZ_53 
REMARK       I    between atoms: CZ_53  and  NH1_54 
REMARK       I    between atoms: CZ_53  and  NH2_55 
REMARK   35  A    between atoms: N_56  and  CA_57 
REMARK   36  A    between atoms: CA_57  and  C_58 
REMARK   37  A    between atoms: CA_57  and  CB_60 
REMARK       I    between atoms: C_58  and  N_65 
REMARK   38  A    between atoms: CB_60  and  CG_61 
REMARK   39  A    between atoms: CG_61  and  CD_62 
REMARK       I    between atoms: CD_62  and  NE2_64 
REMARK   40  A    between atoms: N_65  and  CA_66 
REMARK   41  A    between atoms: CA_66  and  C_67 
REMARK   42  A    between atoms: CA_66  and  CB_69 
REMARK   43  A    between atoms: CB_69  and  CG_70 
REMARK   44  A    between atoms: CG_70  and  CD_71 
REMARK   45  A    between atoms: CD_71  and  NE_72 
REMARK       I    between atoms: NE_72  and  CZ_73 
REMARK       I    between atoms: CZ_73  and  NH1_74 
ROOT
ATOM      1  CA  ARG d   1      80.426   2.075 108.272  0.00  0.00     0.089 C 
ATOM      2  H46 ARG d   1      79.481   2.017 108.833  0.00  0.00     0.087 H 
ENDROOT
BRANCH   1   3
ATOM      3  N   ARG d   1      80.533   3.394 107.665  0.00  0.00    -0.346 N 
ATOM      4  C   LYS d   1      79.819   4.436 108.081  0.00  0.00     0.241 C 
ATOM      5  O   LYS d   1      78.929   4.354 108.932  0.00  0.00    -0.271 OA
ATOM      6  H45 ARG d   1      81.169   3.522 106.904  0.00  0.00     0.163 HD
BRANCH   4   7
ATOM      7  CA  LYS d   1      80.161   5.783 107.461  0.00  0.00     0.089 C 
ATOM      8  H33 LYS d   1      80.767   5.622 106.557  0.00  0.00     0.087 H 
BRANCH   7   9
ATOM      9  N   LYS d   1      78.930   6.468 107.081  0.00  0.00    -0.346 N 
ATOM     10  C   LYS d   1      78.811   7.174 105.953  0.00  0.00     0.241 C 
ATOM     11  O   LYS d   1      79.721   7.298 105.130  0.00  0.00    -0.271 OA
ATOM     12  H32 LYS d   1      78.141   6.406 107.692  0.00  0.00     0.163 HD
BRANCH  10  13
ATOM     13  CA  LYS d   1      77.452   7.829 105.732  0.00  0.00     0.089 C 
ATOM     14  H20 LYS d   1      77.049   8.137 106.708  0.00  0.00     0.087 H 
BRANCH  13  15
ATOM     15  N   LYS d   1      77.586   9.019 104.901  0.00  0.00    -0.346 N 
ATOM     16  C   ARG d   1      76.915  10.141 105.173  0.00  0.00     0.241 C 
ATOM     17  O   ARG d   1      76.153  10.237 106.140  0.00  0.00    -0.271 OA
ATOM     18  H19 LYS d   1      78.195   8.995 104.108  0.00  0.00     0.163 HD
BRANCH  16  19
ATOM     19  CA  ARG d   1      77.130  11.342 104.256  0.00  0.00     0.089 C 
ATOM     20  H7  ARG d   1      76.319  12.062 104.441  0.00  0.00     0.087 H 
BRANCH  19  21
ATOM     21  N   ARG d   1      78.397  12.001 104.558  0.00  0.00    -0.346 N 
ATOM     22  C   GLY d   1      78.475  13.334 104.565  0.00  0.00     0.243 C 
ATOM     23  O   GLY d   1      77.565  14.049 104.160  0.00  0.00    -0.272 OA
ATOM     24  H6  ARG d   1      79.209  11.453 104.760  0.00  0.00     0.163 HD
BRANCH  22  25
ATOM     25  CA  GLY d   1      79.764  13.955 105.076  0.00  0.00     0.152 C 
ATOM     26  H4  GLY d   1      80.429  13.148 105.418  0.00  0.00     0.090 H 
ATOM     27  H5  GLY d   1      80.242  14.498 104.247  0.00  0.00     0.090 H 
BRANCH  25  28
ATOM     28  N   GLY d   1      79.560  14.881 106.177  0.00  0.00    -0.071 N 
ATOM     29  H1  GLY d   1      80.449  15.257 106.469  0.00  0.00     0.274 HD
ATOM     30  H2  GLY d   1      79.130  14.396 106.949  0.00  0.00     0.274 HD
ATOM     31  H3  GLY d   1      78.960  15.633 105.877  0.00  0.00     0.274 HD
ENDBRANCH  25  28
ENDBRANCH  22  25
ENDBRANCH  19  21
BRANCH  19  32
ATOM     32  CB  ARG d   1      77.067  10.926 102.784  0.00  0.00    -0.036 C 
ATOM     33  H8  ARG d   1      77.826  10.150 102.608  0.00  0.00     0.036 H 
ATOM     34  H9  ARG d   1      77.291  11.806 102.163  0.00  0.00     0.036 H 
BRANCH  32  35
ATOM     35  CG  ARG d   1      75.707  10.375 102.371  0.00  0.00    -0.048 C 
ATOM     36  H10 ARG d   1      74.960  11.179 102.446  0.00  0.00     0.035 H 
ATOM     37  H11 ARG d   1      75.434   9.556 103.052  0.00  0.00     0.035 H 
BRANCH  35  38
ATOM     38  CD  ARG d   1      75.716   9.843 100.939  0.00  0.00     0.009 C 
ATOM     39  H12 ARG d   1      76.596   9.196 100.807  0.00  0.00     0.064 H 
ATOM     40  H13 ARG d   1      75.779  10.694 100.245  0.00  0.00     0.064 H 
BRANCH  38  41
ATOM     41  NE  ARG d   1      74.508   9.068 100.629  0.00  0.00    -0.227 N 
ATOM     42  CZ  ARG d   1      74.385   7.748 100.775  0.00  0.00     0.665 C 
ATOM     43  NH1 ARG d   1      75.400   7.020 101.225  0.00  0.00    -0.235 N 
ATOM     44  NH2 ARG d   1      73.238   7.146 100.466  0.00  0.00    -0.235 N 
ATOM     45  H15 ARG d   1      75.295   6.001 101.334  0.00  0.00     0.174 HD
ATOM     46  H16 ARG d   1      76.293   7.474 101.465  0.00  0.00     0.174 HD
ATOM     47  H17 ARG d   1      72.444   7.700 100.116  0.00  0.00     0.174 HD
ATOM     48  H18 ARG d   1      73.145   6.126 100.577  0.00  0.00     0.174 HD
ATOM     49  H14 ARG d   1      73.692   9.584 100.271  0.00  0.00     0.177 HD
ENDBRANCH  38  41
ENDBRANCH  35  38
ENDBRANCH  32  35
ENDBRANCH  19  32
ENDBRANCH  16  19
ENDBRANCH  13  15
BRANCH  13  50
ATOM     50  CB  LYS d   1      76.484   6.805 105.111  0.00  0.00    -0.038 C 
ATOM     51  H21 LYS d   1      76.533   5.882 105.708  0.00  0.00     0.036 H 
ATOM     52  H22 LYS d   1      76.819   6.596 104.084  0.00  0.00     0.036 H 
BRANCH  50  53
ATOM     53  CG  LYS d   1      75.026   7.255 105.052  0.00  0.00    -0.061 C 
ATOM     54  H23 LYS d   1      74.957   8.162 104.433  0.00  0.00     0.033 H 
ATOM     55  H24 LYS d   1      74.680   7.480 106.072  0.00  0.00     0.033 H 
BRANCH  53  56
ATOM     56  CD  LYS d   1      74.129   6.174 104.451  0.00  0.00    -0.043 C 
ATOM     57  H25 LYS d   1      74.072   5.328 105.152  0.00  0.00     0.035 H 
ATOM     58  H26 LYS d   1      74.568   5.835 103.501  0.00  0.00     0.035 H 
BRANCH  56  59
ATOM     59  CE  LYS d   1      72.720   6.692 104.187  0.00  0.00     0.080 C 
ATOM     60  H27 LYS d   1      72.790   7.659 103.668  0.00  0.00     0.075 H 
ATOM     61  H28 LYS d   1      72.207   6.829 105.150  0.00  0.00     0.075 H 
BRANCH  59  62
ATOM     62  NZ  LYS d   1      71.922   5.755 103.348  0.00  0.00    -0.079 N 
ATOM     63  H29 LYS d   1      71.001   6.138 103.200  0.00  0.00     0.274 HD
ATOM     64  H30 LYS d   1      71.845   4.866 103.817  0.00  0.00     0.274 HD
ATOM     65  H31 LYS d   1      72.379   5.627 102.459  0.00  0.00     0.274 HD
ENDBRANCH  59  62
ENDBRANCH  56  59
ENDBRANCH  53  56
ENDBRANCH  50  53
ENDBRANCH  13  50
ENDBRANCH  10  13
ENDBRANCH   7   9
BRANCH   7  66
ATOM     66  CB  LYS d   1      80.984   6.603 108.465  0.00  0.00    -0.038 C 
ATOM     67  H34 LYS d   1      81.781   5.955 108.858  0.00  0.00     0.036 H 
ATOM     68  H35 LYS d   1      80.316   6.901 109.286  0.00  0.00     0.036 H 
BRANCH  66  69
ATOM     69  CG  LYS d   1      81.636   7.862 107.913  0.00  0.00    -0.061 C 
ATOM     70  H36 LYS d   1      80.865   8.634 107.772  0.00  0.00     0.033 H 
ATOM     71  H37 LYS d   1      82.105   7.630 106.945  0.00  0.00     0.033 H 
BRANCH  69  72
ATOM     72  CD  LYS d   1      82.703   8.390 108.872  0.00  0.00    -0.043 C 
ATOM     73  H38 LYS d   1      83.031   9.381 108.527  0.00  0.00     0.035 H 
ATOM     74  H39 LYS d   1      83.558   7.698 108.867  0.00  0.00     0.035 H 
BRANCH  72  75
ATOM     75  CE  LYS d   1      82.178   8.515 110.301  0.00  0.00     0.080 C 
ATOM     76  H40 LYS d   1      82.318   7.553 110.816  0.00  0.00     0.075 H 
ATOM     77  H41 LYS d   1      81.106   8.759 110.265  0.00  0.00     0.075 H 
BRANCH  75  78
ATOM     78  NZ  LYS d   1      82.889   9.579 111.067  0.00  0.00    -0.079 N 
ATOM     79  H42 LYS d   1      82.513   9.628 112.001  0.00  0.00     0.274 HD
ATOM     80  H43 LYS d   1      82.762  10.467 110.606  0.00  0.00     0.274 HD
ATOM     81  H44 LYS d   1      83.872   9.361 111.111  0.00  0.00     0.274 HD
ENDBRANCH  75  78
ENDBRANCH  72  75
ENDBRANCH  69  72
ENDBRANCH  66  69
ENDBRANCH   7  66
ENDBRANCH   4   7
ENDBRANCH   1   3
BRANCH   1  82
ATOM     82  C   ARG d   1      81.587   1.867 109.236  0.00  0.00     0.241 C 
ATOM     83  O   ARG d   1      82.728   2.233 108.935  0.00  0.00    -0.271 OA
ATOM     84  N   ARG d   1      81.298   1.285 110.399  0.00  0.00    -0.346 N 
ATOM     85  H58 ARG d   1      80.356   1.003 110.584  0.00  0.00     0.163 HD
BRANCH  84  86
ATOM     86  CA  ARG d   1      82.324   1.049 111.410  0.00  0.00     0.089 C 
ATOM     87  H59 ARG d   1      83.114   1.805 111.290  0.00  0.00     0.087 H 
BRANCH  86  88
ATOM     88  C   ARG d   1      82.928  -0.335 111.196  0.00  0.00     0.241 C 
ATOM     89  O   ARG d   1      82.206  -1.339 111.195  0.00  0.00    -0.271 OA
ATOM     90  N   GLN d   1      84.255  -0.388 111.042  0.00  0.00    -0.346 N 
ATOM     91  H71 GLN d   1      84.793   0.449 111.144  0.00  0.00     0.163 HD
BRANCH  90  92
ATOM     92  CA  GLN d   1      84.935  -1.637 110.729  0.00  0.00     0.090 C 
ATOM     93  H72 GLN d   1      84.159  -2.393 110.538  0.00  0.00     0.087 H 
BRANCH  92  94
ATOM     94  C   GLN d   1      85.833  -2.169 111.838  0.00  0.00     0.241 C 
ATOM     95  O   GLN d   1      86.246  -3.330 111.760  0.00  0.00    -0.271 OA
ATOM     96  N   ARG d   1      86.151  -1.367 112.849  0.00  0.00    -0.345 N 
ATOM     97  H79 ARG d   1      85.813  -0.426 112.857  0.00  0.00     0.163 HD
BRANCH  96  98
ATOM     98  CA  ARG d   1      86.989  -1.842 113.951  0.00  0.00     0.096 C 
ATOM     99  H80 ARG d   1      86.762  -2.906 114.113  0.00  0.00     0.089 H 
BRANCH  98 100
ATOM    100  C   ARG d   1      86.705  -1.094 115.255  0.00  0.00     0.196 C 
ATOM    101  O   ARG d   1      86.110  -0.014 115.254  0.00  0.00    -0.646 OA
ATOM    102  OXT ARG d   1      87.063  -1.550 116.343  0.00  0.00    -0.646 OA
ENDBRANCH  98 100
BRANCH  98 103
ATOM    103  CB  ARG d   1      88.476  -1.715 113.588  0.00  0.00    -0.035 C 
ATOM    104  H81 ARG d   1      88.641  -2.249 112.640  0.00  0.00     0.036 H 
ATOM    105  H82 ARG d   1      89.062  -2.194 114.386  0.00  0.00     0.036 H 
BRANCH 103 106
ATOM    106  CG  ARG d   1      88.988  -0.290 113.420  0.00  0.00    -0.047 C 
ATOM    107  H83 ARG d   1      88.468   0.367 114.133  0.00  0.00     0.035 H 
ATOM    108  H84 ARG d   1      88.785   0.049 112.393  0.00  0.00     0.035 H 
BRANCH 106 109
ATOM    109  CD  ARG d   1      90.482  -0.226 113.680  0.00  0.00     0.009 C 
ATOM    110  H85 ARG d   1      90.929  -1.192 113.404  0.00  0.00     0.064 H 
ATOM    111  H86 ARG d   1      90.645  -0.040 114.752  0.00  0.00     0.064 H 
BRANCH 109 112
ATOM    112  NE  ARG d   1      91.145   0.831 112.916  0.00  0.00    -0.227 N 
ATOM    113  CZ  ARG d   1      92.267   1.445 113.288  0.00  0.00     0.665 C 
ATOM    114  NH1 ARG d   1      92.860   1.132 114.433  0.00  0.00    -0.235 N 
ATOM    115  NH2 ARG d   1      92.794   2.386 112.515  0.00  0.00    -0.235 N 
ATOM    116  H88 ARG d   1      93.727   1.612 114.712  0.00  0.00     0.174 HD
ATOM    117  H89 ARG d   1      92.453   0.409 115.043  0.00  0.00     0.174 HD
ATOM    118  H90 ARG d   1      92.340   2.635 111.625  0.00  0.00     0.174 HD
ATOM    119  H91 ARG d   1      93.657   2.867 112.805  0.00  0.00     0.174 HD
ATOM    120  H87 ARG d   1      90.713   1.121 112.027  0.00  0.00     0.177 HD
ENDBRANCH 109 112
ENDBRANCH 106 109
ENDBRANCH 103 106
ENDBRANCH  98 103
ENDBRANCH  96  98
ENDBRANCH  92  94
BRANCH  92 121
ATOM    121  CB  GLN d   1      85.778  -1.471 109.457  0.00  0.00    -0.030 C 
ATOM    122  H73 GLN d   1      86.471  -2.322 109.383  0.00  0.00     0.037 H 
ATOM    123  H74 GLN d   1      86.352  -0.536 109.537  0.00  0.00     0.037 H 
BRANCH 121 124
ATOM    124  CG  GLN d   1      84.941  -1.417 108.190  0.00  0.00     0.011 C 
ATOM    125  H75 GLN d   1      84.290  -0.531 108.238  0.00  0.00     0.047 H 
ATOM    126  H76 GLN d   1      84.322  -2.325 108.141  0.00  0.00     0.047 H 
BRANCH 124 127
ATOM    127  CD  GLN d   1      85.776  -1.334 106.925  0.00  0.00     0.215 C 
ATOM    128  OE1 GLN d   1      85.500  -0.523 106.043  0.00  0.00    -0.274 OA
ATOM    129  NE2 GLN d   1      86.798  -2.181 106.825  0.00  0.00    -0.370 N 
ATOM    130  H77 GLN d   1      87.380  -2.168 106.012  0.00  0.00     0.159 HD
ATOM    131  H78 GLN d   1      86.984  -2.830 107.563  0.00  0.00     0.159 HD
ENDBRANCH 124 127
ENDBRANCH 121 124
ENDBRANCH  92 121
ENDBRANCH  90  92
ENDBRANCH  86  88
BRANCH  86 132
ATOM    132  CB  ARG d   1      81.760   1.163 112.825  0.00  0.00    -0.036 C 
ATOM    133  H60 ARG d   1      81.020   0.364 112.980  0.00  0.00     0.036 H 
ATOM    134  H61 ARG d   1      81.271   2.142 112.937  0.00  0.00     0.036 H 
BRANCH 132 135
ATOM    135  CG  ARG d   1      82.856   1.034 113.877  0.00  0.00    -0.048 C 
ATOM    136  H62 ARG d   1      83.581   1.847 113.723  0.00  0.00     0.035 H 
ATOM    137  H63 ARG d   1      83.357   0.065 113.737  0.00  0.00     0.035 H 
BRANCH 135 138
ATOM    138  CD  ARG d   1      82.353   1.108 115.302  0.00  0.00     0.009 C 
ATOM    139  H64 ARG d   1      81.618   0.308 115.471  0.00  0.00     0.064 H 
ATOM    140  H65 ARG d   1      81.877   2.085 115.470  0.00  0.00     0.064 H 
BRANCH 138 141
ATOM    141  NE  ARG d   1      83.468   0.946 116.232  0.00  0.00    -0.227 N 
ATOM    142  CZ  ARG d   1      83.403   1.173 117.540  0.00  0.00     0.665 C 
ATOM    143  NH1 ARG d   1      82.272   1.581 118.094  0.00  0.00    -0.235 N 
ATOM    144  NH2 ARG d   1      84.479   0.996 118.293  0.00  0.00    -0.235 N 
ATOM    145  H67 ARG d   1      82.229   1.755 119.108  0.00  0.00     0.174 HD
ATOM    146  H68 ARG d   1      81.435   1.724 117.511  0.00  0.00     0.174 HD
ATOM    147  H69 ARG d   1      85.361   0.679 117.865  0.00  0.00     0.174 HD
ATOM    148  H70 ARG d   1      84.434   1.176 119.306  0.00  0.00     0.174 HD
ATOM    149  H66 ARG d   1      84.370   0.633 115.846  0.00  0.00     0.177 HD
ENDBRANCH 138 141
ENDBRANCH 135 138
ENDBRANCH 132 135
ENDBRANCH  86 132
ENDBRANCH  84  86
ENDBRANCH   1  82
BRANCH   1 150
ATOM    150  CB  ARG d   1      80.426   0.984 107.197  0.00  0.00    -0.036 C 
ATOM    151  H47 ARG d   1      81.412   0.985 106.709  0.00  0.00     0.036 H 
ATOM    152  H48 ARG d   1      79.650   1.232 106.458  0.00  0.00     0.036 H 
BRANCH 150 153
ATOM    153  CG  ARG d   1      80.156  -0.417 107.713  0.00  0.00    -0.048 C 
ATOM    154  H49 ARG d   1      79.287  -0.392 108.387  0.00  0.00     0.035 H 
ATOM    155  H50 ARG d   1      81.038  -0.774 108.265  0.00  0.00     0.035 H 
BRANCH 153 156
ATOM    156  CD  ARG d   1      79.868  -1.369 106.562  0.00  0.00     0.009 C 
ATOM    157  H51 ARG d   1      79.048  -0.955 105.957  0.00  0.00     0.064 H 
ATOM    158  H52 ARG d   1      79.564  -2.342 106.975  0.00  0.00     0.064 H 
BRANCH 156 159
ATOM    159  NE  ARG d   1      81.033  -1.568 105.700  0.00  0.00    -0.227 N 
ATOM    160  CZ  ARG d   1      81.887  -2.586 105.788  0.00  0.00     0.665 C 
ATOM    161  NH1 ARG d   1      81.725  -3.533 106.703  0.00  0.00    -0.235 N 
ATOM    162  NH2 ARG d   1      82.912  -2.661 104.949  0.00  0.00    -0.235 N 
ATOM    163  H54 ARG d   1      82.394  -4.314 106.759  0.00  0.00     0.174 HD
ATOM    164  H55 ARG d   1      80.931  -3.487 107.357  0.00  0.00     0.174 HD
ATOM    165  H56 ARG d   1      83.047  -1.931 104.235  0.00  0.00     0.174 HD
ATOM    166  H57 ARG d   1      83.572  -3.449 105.012  0.00  0.00     0.174 HD
ATOM    167  H53 ARG d   1      81.206  -0.865 104.967  0.00  0.00     0.177 HD
ENDBRANCH 156 159
ENDBRANCH 153 156
ENDBRANCH 150 153
ENDBRANCH   1 150
TORSDOF 45
