REMARK WARNING: 32 MAX_TORS EXCEEDED!!!
REMARK  37 active torsions:
REMARK  status: ('A' for Active; 'I' for Inactive)
REMARK    1  A    between atoms: N_1  and  CA_2 
REMARK    2  A    between atoms: CA_2  and  C_3 
REMARK    3  A    between atoms: CA_2  and  CB_5 
REMARK       I    between atoms: C_3  and  N_7 
REMARK    4  A    between atoms: CB_5  and  CG_6 
REMARK    5  A    between atoms: N_7  and  CA_8 
REMARK    6  A    between atoms: CA_8  and  C_9 
REMARK    7  A    between atoms: CA_8  and  CB_11 
REMARK       I    between atoms: C_9  and  N_15 
REMARK    8  A    between atoms: CB_11  and  CG_12 
REMARK    9  A    between atoms: CG_12  and  CD1_13 
REMARK   10  A    between atoms: CG_12  and  CD2_14 
REMARK   11  A    between atoms: N_15  and  CA_16 
REMARK   12  A    between atoms: CA_16  and  CB_17 
REMARK   13  A    between atoms: CA_16  and  C_19 
REMARK   14  A    between atoms: CB_17  and  OG_18 
REMARK   15  A    between atoms: OG_18  and  P_21 
REMARK       I    between atoms: C_19  and  N_25 
REMARK   16  A    between atoms: CA_26  and  C_27 
REMARK       I    between atoms: C_27  and  N_32 
REMARK   17  A    between atoms: N_32  and  CA_33 
REMARK   18  A    between atoms: CA_33  and  C_34 
REMARK   19  A    between atoms: CA_33  and  CB_36 
REMARK       I    between atoms: C_34  and  N_40 
REMARK   20  A    between atoms: CB_36  and  CG1_37 
REMARK   21  A    between atoms: CB_36  and  CG2_38 
REMARK   22  A    between atoms: CG1_37  and  CD1_39 
REMARK   23  A    between atoms: N_40  and  CA_41 
REMARK   24  A    between atoms: CA_41  and  C_42 
REMARK   25  A    between atoms: CA_41  and  CB_44 
REMARK       I    between atoms: C_42  and  N_48 
REMARK   26  A    between atoms: CB_44  and  CG1_45 
REMARK   27  A    between atoms: CB_44  and  CG2_46 
REMARK   28  A    between atoms: CG1_45  and  CD1_47 
REMARK   29  A    between atoms: N_48  and  CA_49 
REMARK   30  A    between atoms: CA_49  and  C_50 
REMARK   31  A    between atoms: CA_49  and  CB_52 
REMARK       I    between atoms: C_50  and  N_57 
REMARK   32  A    between atoms: CB_52  and  CG_53 
REMARK   33  A    between atoms: CG_53  and  CD_54 
REMARK   34  A    between atoms: N_57  and  CA_58 
REMARK   35  A    between atoms: CA_58  and  C_59 
REMARK   36  A    between atoms: CA_58  and  CB_61 
REMARK   37  A    between atoms: CB_61  and  CG_62 
ROOT
ATOM      1  C   PRO d   1     -17.425 -14.365  31.800  0.00  0.00     0.241 C 
ATOM      2  O   PRO d   1     -17.914 -14.691  30.720  0.00  0.00    -0.271 OA
ATOM      3  N   ILE d   1     -17.287 -15.205  32.820  0.00  0.00    -0.346 N 
ATOM      4  H32 ILE d   1     -16.857 -14.880  33.662  0.00  0.00     0.163 HD
ENDROOT
BRANCH   3   5
ATOM      5  CA  ILE d   1     -17.745 -16.588  32.748  0.00  0.00     0.092 C 
ATOM      6  H33 ILE d   1     -18.306 -16.718  31.811  0.00  0.00     0.088 H 
BRANCH   5   7
ATOM      7  C   ILE d   1     -18.675 -16.894  33.921  0.00  0.00     0.241 C 
ATOM      8  O   ILE d   1     -18.223 -17.048  35.054  0.00  0.00    -0.271 OA
ATOM      9  N   ILE d   1     -19.974 -16.974  33.644  0.00  0.00    -0.346 N 
ATOM     10  H43 ILE d   1     -20.275 -16.872  32.696  0.00  0.00     0.163 HD
BRANCH   9  11
ATOM     11  CA  ILE d   1     -20.975 -17.207  34.685  0.00  0.00     0.092 C 
ATOM     12  H44 ILE d   1     -20.837 -16.438  35.459  0.00  0.00     0.088 H 
BRANCH  11  13
ATOM     13  C   ILE d   1     -20.808 -18.579  35.343  0.00  0.00     0.241 C 
ATOM     14  O   ILE d   1     -20.776 -19.607  34.666  0.00  0.00    -0.271 OA
ATOM     15  N   GLU d   1     -20.695 -18.579  36.670  0.00  0.00    -0.346 N 
ATOM     16  H54 GLU d   1     -20.730 -17.706  37.156  0.00  0.00     0.163 HD
BRANCH  15  17
ATOM     17  CA  GLU d   1     -20.522 -19.807  37.442  0.00  0.00     0.090 C 
ATOM     18  H55 GLU d   1     -19.709 -20.393  36.987  0.00  0.00     0.087 H 
BRANCH  17  19
ATOM     19  C   GLU d   1     -21.798 -20.647  37.411  0.00  0.00     0.241 C 
ATOM     20  O   GLU d   1     -22.897 -20.113  37.258  0.00  0.00    -0.271 OA
ATOM     21  N   ASP d   1     -21.646 -21.960  37.549  0.00  0.00    -0.344 N 
ATOM     22  H60 ASP d   1     -20.724 -22.335  37.649  0.00  0.00     0.163 HD
BRANCH  21  23
ATOM     23  CA  ASP d   1     -22.788 -22.869  37.559  0.00  0.00     0.105 C 
ATOM     24  H61 ASP d   1     -23.684 -22.297  37.276  0.00  0.00     0.090 H 
BRANCH  23  25
ATOM     25  C   ASP d   1     -23.017 -23.463  38.947  0.00  0.00     0.197 C 
ATOM     26  O   ASP d   1     -23.657 -22.848  39.801  0.00  0.00    -0.646 OA
ATOM     27  OXT ASP d   1     -22.567 -24.570  39.244  0.00  0.00    -0.646 OA
ENDBRANCH  23  25
BRANCH  23  28
ATOM     28  CB  ASP d   1     -22.586 -23.992  36.539  0.00  0.00     0.044 C 
ATOM     29  H62 ASP d   1     -22.665 -24.958  37.059  0.00  0.00     0.053 H 
ATOM     30  H63 ASP d   1     -21.582 -23.893  36.100  0.00  0.00     0.053 H 
BRANCH  28  31
ATOM     31  CG  ASP d   1     -23.611 -23.957  35.421  0.00  0.00     0.175 C 
ATOM     32  OD1 ASP d   1     -23.557 -23.022  34.594  0.00  0.00    -0.648 OA
ATOM     33  OD2 ASP d   1     -24.464 -24.868  35.362  0.00  0.00    -0.648 OA
ENDBRANCH  28  31
ENDBRANCH  23  28
ENDBRANCH  21  23
ENDBRANCH  17  19
BRANCH  17  34
ATOM     34  CB  GLU d   1     -20.132 -19.475  38.889  0.00  0.00    -0.029 C 
ATOM     35  H56 GLU d   1     -21.015 -19.054  39.392  0.00  0.00     0.037 H 
ATOM     36  H57 GLU d   1     -19.331 -18.722  38.862  0.00  0.00     0.037 H 
BRANCH  34  37
ATOM     37  CG  GLU d   1     -19.639 -20.662  39.712  0.00  0.00     0.018 C 
ATOM     38  H58 GLU d   1     -18.729 -21.063  39.241  0.00  0.00     0.049 H 
ATOM     39  H59 GLU d   1     -20.421 -21.436  39.717  0.00  0.00     0.049 H 
BRANCH  37  40
ATOM     40  CD  GLU d   1     -19.318 -20.288  41.148  0.00  0.00     0.172 C 
ATOM     41  OE1 GLU d   1     -19.705 -19.180  41.577  0.00  0.00    -0.648 OA
ATOM     42  OE2 GLU d   1     -18.676 -21.100  41.848  0.00  0.00    -0.648 OA
ENDBRANCH  37  40
ENDBRANCH  34  37
ENDBRANCH  17  34
ENDBRANCH  15  17
ENDBRANCH  11  13
BRANCH  11  43
ATOM     43  CB  ILE d   1     -22.414 -17.080  34.127  0.00  0.00    -0.030 C 
ATOM     44  H45 ILE d   1     -22.466 -17.619  33.170  0.00  0.00     0.043 H 
BRANCH  43  45
ATOM     45  CG1 ILE d   1     -22.779 -15.610  33.889  0.00  0.00    -0.063 C 
ATOM     46  H46 ILE d   1     -22.359 -15.015  34.713  0.00  0.00     0.033 H 
ATOM     47  H47 ILE d   1     -23.876 -15.524  33.896  0.00  0.00     0.033 H 
BRANCH  45  48
ATOM     48  CD1 ILE d   1     -22.269 -15.033  32.583  0.00  0.00    -0.076 C 
ATOM     49  H51 ILE d   1     -22.578 -13.980  32.502  0.00  0.00     0.027 H 
ATOM     50  H52 ILE d   1     -22.688 -15.604  31.741  0.00  0.00     0.027 H 
ATOM     51  H53 ILE d   1     -21.171 -15.095  32.559  0.00  0.00     0.027 H 
ENDBRANCH  45  48
ENDBRANCH  43  45
BRANCH  43  52
ATOM     52  CG2 ILE d   1     -23.422 -17.688  35.089  0.00  0.00    -0.071 C 
ATOM     53  H48 ILE d   1     -23.169 -18.744  35.267  0.00  0.00     0.028 H 
ATOM     54  H49 ILE d   1     -24.430 -17.621  34.654  0.00  0.00     0.028 H 
ATOM     55  H50 ILE d   1     -23.396 -17.140  36.042  0.00  0.00     0.028 H 
ENDBRANCH  43  52
ENDBRANCH  11  43
ENDBRANCH   9  11
ENDBRANCH   5   7
BRANCH   5  56
ATOM     56  CB  ILE d   1     -16.558 -17.577  32.745  0.00  0.00    -0.030 C 
ATOM     57  H34 ILE d   1     -16.026 -17.480  33.703  0.00  0.00     0.043 H 
BRANCH  56  58
ATOM     58  CG1 ILE d   1     -15.584 -17.233  31.617  0.00  0.00    -0.063 C 
ATOM     59  H35 ILE d   1     -15.270 -16.186  31.739  0.00  0.00     0.033 H 
ATOM     60  H36 ILE d   1     -16.111 -17.348  30.658  0.00  0.00     0.033 H 
BRANCH  58  61
ATOM     61  CD1 ILE d   1     -14.348 -18.099  31.586  0.00  0.00    -0.076 C 
ATOM     62  H40 ILE d   1     -13.704 -17.788  30.750  0.00  0.00     0.027 H 
ATOM     63  H41 ILE d   1     -14.640 -19.151  31.452  0.00  0.00     0.027 H 
ATOM     64  H42 ILE d   1     -13.799 -17.989  32.533  0.00  0.00     0.027 H 
ENDBRANCH  58  61
ENDBRANCH  56  58
BRANCH  56  65
ATOM     65  CG2 ILE d   1     -17.045 -19.014  32.615  0.00  0.00    -0.071 C 
ATOM     66  H37 ILE d   1     -17.743 -19.240  33.435  0.00  0.00     0.028 H 
ATOM     67  H38 ILE d   1     -16.186 -19.698  32.666  0.00  0.00     0.028 H 
ATOM     68  H39 ILE d   1     -17.558 -19.141  31.651  0.00  0.00     0.028 H 
ENDBRANCH  56  65
ENDBRANCH   5  56
ENDBRANCH   3   5
BRANCH   1  69
ATOM     69  CA  PRO d   1     -16.938 -12.935  32.027  0.00  0.00     0.091 C 
ATOM     70  N   PRO d   1     -16.603 -12.226  30.785  0.00  0.00    -0.337 N 
ATOM     71  C   SEP d   1     -15.684 -12.667  29.908  0.00  0.00     0.245 C 
ATOM     72  CD  PRO d   1     -17.347 -10.961  30.658  0.00  0.00    -0.001 C 
ATOM     73  O   SEP d   1     -15.055 -13.712  30.071  0.00  0.00    -0.271 OA
ATOM     74  CG  PRO d   1     -17.849 -10.728  32.045  0.00  0.00    -0.048 C 
ATOM     75  H30 PRO d   1     -18.180 -11.062  29.947  0.00  0.00     0.064 H 
ATOM     76  H31 PRO d   1     -16.686 -10.144  30.334  0.00  0.00     0.064 H 
ATOM     77  CB  PRO d   1     -18.056 -12.078  32.627  0.00  0.00    -0.036 C 
ATOM     78  H28 PRO d   1     -17.108 -10.166  32.632  0.00  0.00     0.035 H 
ATOM     79  H29 PRO d   1     -18.797 -10.171  32.022  0.00  0.00     0.035 H 
ATOM     80  H26 PRO d   1     -17.973 -12.045  33.723  0.00  0.00     0.036 H 
ATOM     81  H27 PRO d   1     -19.043 -12.475  32.346  0.00  0.00     0.036 H 
ATOM     82  H25 PRO d   1     -16.065 -12.961  32.696  0.00  0.00     0.087 H 
BRANCH  71  83
ATOM     83  CA  SEP d   1     -15.430 -11.807  28.672  0.00  0.00     0.110 C 
ATOM     84  H22 SEP d   1     -15.685 -10.765  28.916  0.00  0.00     0.090 H 
BRANCH  83  85
ATOM     85  N   SEP d   1     -14.025 -11.859  28.281  0.00  0.00    -0.344 N 
ATOM     86  C   LEU d   1     -13.057 -11.354  29.040  0.00  0.00     0.241 C 
ATOM     87  O   LEU d   1     -13.270 -10.773  30.105  0.00  0.00    -0.271 OA
ATOM     88  H21 SEP d   1     -13.782 -12.290  27.412  0.00  0.00     0.163 HD
BRANCH  86  89
ATOM     89  CA  LEU d   1     -11.637 -11.527  28.514  0.00  0.00     0.089 C 
ATOM     90  H11 LEU d   1     -11.692 -11.783  27.446  0.00  0.00     0.087 H 
BRANCH  89  91
ATOM     91  N   LEU d   1     -10.876 -10.292  28.648  0.00  0.00    -0.346 N 
ATOM     92  C   LYS d   1     -11.165  -9.212  27.929  0.00  0.00     0.248 C 
ATOM     93  O   LYS d   1     -12.059  -9.189  27.084  0.00  0.00    -0.271 OA
ATOM     94  H10 LEU d   1     -10.117 -10.256  29.298  0.00  0.00     0.163 HD
BRANCH  92  95
ATOM     95  CA  LYS d   1     -10.314  -7.973  28.200  0.00  0.00     0.175 C 
ATOM     96  H4  LYS d   1      -9.419  -8.285  28.758  0.00  0.00     0.099 H 
BRANCH  95  97
ATOM     97  N   LYS d   1      -9.881  -7.346  26.957  0.00  0.00    -0.067 N 
ATOM     98  H1  LYS d   1      -9.323  -6.533  27.167  0.00  0.00     0.275 HD
ATOM     99  H2  LYS d   1     -10.689  -7.069  26.421  0.00  0.00     0.275 HD
ATOM    100  H3  LYS d   1      -9.332  -8.002  26.423  0.00  0.00     0.275 HD
ENDBRANCH  95  97
BRANCH  95 101
ATOM    101  CB  LYS d   1     -11.096  -6.974  29.057  0.00  0.00    -0.034 C 
ATOM    102  H5  LYS d   1     -12.014  -6.701  28.516  0.00  0.00     0.036 H 
ATOM    103  H6  LYS d   1     -10.473  -6.079  29.197  0.00  0.00     0.036 H 
BRANCH 101 104
ATOM    104  CG  LYS d   1     -11.491  -7.498  30.429  0.00  0.00    -0.074 C 
ATOM    105  H7  LYS d   1     -12.046  -6.719  30.973  0.00  0.00     0.027 H 
ATOM    106  H8  LYS d   1     -10.586  -7.766  30.994  0.00  0.00     0.027 H 
ATOM    107  H9  LYS d   1     -12.127  -8.388  30.312  0.00  0.00     0.027 H 
ENDBRANCH 101 104
ENDBRANCH  95 101
ENDBRANCH  92  95
ENDBRANCH  89  91
BRANCH  89 108
ATOM    108  CB  LEU d   1     -10.938 -12.673  29.251  0.00  0.00    -0.035 C 
ATOM    109  H12 LEU d   1     -11.608 -13.545  29.220  0.00  0.00     0.037 H 
ATOM    110  H13 LEU d   1     -10.795 -12.357  30.295  0.00  0.00     0.037 H 
BRANCH 108 111
ATOM    111  CG  LEU d   1      -9.575 -13.119  28.712  0.00  0.00    -0.059 C 
ATOM    112  H14 LEU d   1      -8.914 -12.241  28.674  0.00  0.00     0.038 H 
BRANCH 111 113
ATOM    113  CD1 LEU d   1      -8.944 -14.152  29.633  0.00  0.00    -0.073 C 
ATOM    114  H15 LEU d   1      -7.968 -14.457  29.227  0.00  0.00     0.028 H 
ATOM    115  H16 LEU d   1      -9.602 -15.030  29.705  0.00  0.00     0.028 H 
ATOM    116  H17 LEU d   1      -8.805 -13.715  30.633  0.00  0.00     0.028 H 
ENDBRANCH 111 113
BRANCH 111 117
ATOM    117  CD2 LEU d   1      -9.715 -13.672  27.304  0.00  0.00    -0.073 C 
ATOM    118  H18 LEU d   1     -10.172 -12.911  26.655  0.00  0.00     0.028 H 
ATOM    119  H19 LEU d   1     -10.352 -14.568  27.324  0.00  0.00     0.028 H 
ATOM    120  H20 LEU d   1      -8.721 -13.937  26.914  0.00  0.00     0.028 H 
ENDBRANCH 111 117
ENDBRANCH 108 111
ENDBRANCH  89 108
ENDBRANCH  86  89
ENDBRANCH  83  85
BRANCH  83 121
ATOM    121  CB  SEP d   1     -16.318 -12.267  27.509  0.00  0.00     0.059 C 
ATOM    122  H23 SEP d   1     -16.351 -11.473  26.749  0.00  0.00     0.079 H 
ATOM    123  H24 SEP d   1     -17.334 -12.454  27.887  0.00  0.00     0.079 H 
BRANCH 121 124
ATOM    124  OG  SEP d   1     -15.822 -13.454  26.914  0.00  0.00    -0.280 OA
BRANCH 124 125
ATOM    125  P   SEP d   1     -16.873 -14.008  25.828  0.00  0.00     0.422 P 
ATOM    126  O1P SEP d   1     -16.123 -14.241  24.421  0.00  0.00    -0.617 OA
ATOM    127  O2P SEP d   1     -17.478 -15.410  26.350  0.00  0.00    -0.617 OA
ATOM    128  O3P SEP d   1     -18.061 -12.937  25.637  0.00  0.00    -0.617 OA
ENDBRANCH 124 125
ENDBRANCH 121 124
ENDBRANCH  83 121
ENDBRANCH  71  83
ENDBRANCH   1  69
TORSDOF 37
