REMARK  12 active torsions:
REMARK  status: ('A' for Active; 'I' for Inactive)
REMARK    1  A    between atoms: C4_4  and  C5_5 
REMARK    2  A    between atoms: C13_7  and  C15_9 
REMARK    3  A    between atoms: C12_18  and  C13_7 
REMARK       I    between atoms: C15_9  and  N4_16 
REMARK    4  A    between atoms: C16_10  and  C17_11 
REMARK    5  A    between atoms: C16_10  and  C18_12 
REMARK    6  A    between atoms: N4_16  and  C16_10 
REMARK    7  A    between atoms: C19_13  and  C20_14 
REMARK    8  A    between atoms: N5_20  and  C19_13 
REMARK    9  A    between atoms: C20_14  and  O1_21 
REMARK   10  A    between atoms: C12_18  and  C11_19 
REMARK   11  A    between atoms: O1_21  and  C21_22 
REMARK   12  A    between atoms: C_25  and  N_26 
ROOT
ATOM      1  C13 MOL d   1      -6.093 -38.309   6.314  0.00  0.00     0.112 C 
ATOM      2  C14 MOL d   1      -6.109 -37.465   5.114  0.00  0.00     0.073 C 
ATOM      3  N3  MOL d   1      -6.163 -36.825   4.174  0.00  0.00    -0.196 NA
ATOM      4  H3  MOL d   1      -5.699 -37.715   7.152  0.00  0.00     0.078 H 
ENDROOT
BRANCH   1   5
ATOM      5  C15 MOL d   1      -5.147 -39.493   6.084  0.00  0.00     0.236 C 
ATOM      6  O   MOL d   1      -5.568 -40.568   5.654  0.00  0.00    -0.272 OA
ATOM      7  N4  MOL d   1      -3.853 -39.272   6.372  0.00  0.00    -0.356 N 
ATOM      8  H15 MOL d   1      -3.500 -38.342   6.270  0.00  0.00     0.162 HD
BRANCH   7   9
ATOM      9  C16 MOL d   1      -2.925 -40.318   6.829  0.00  0.00     0.005 C 
ATOM     10  H4  MOL d   1      -3.320 -40.742   7.764  0.00  0.00     0.071 H 
BRANCH   9  11
ATOM     11  C17 MOL d   1      -1.557 -39.722   7.126  0.00  0.00    -0.058 C 
ATOM     12  H5  MOL d   1      -0.877 -40.517   7.466  0.00  0.00     0.030 H 
ATOM     13  H6  MOL d   1      -1.652 -38.959   7.913  0.00  0.00     0.030 H 
ATOM     14  H7  MOL d   1      -1.153 -39.259   6.214  0.00  0.00     0.030 H 
ENDBRANCH   9  11
BRANCH   9  15
ATOM     15  C18 MOL d   1      -2.839 -41.436   5.809  0.00  0.00    -0.058 C 
ATOM     16  H8  MOL d   1      -3.845 -41.840   5.622  0.00  0.00     0.030 H 
ATOM     17  H9  MOL d   1      -2.189 -42.235   6.195  0.00  0.00     0.030 H 
ATOM     18  H10 MOL d   1      -2.421 -41.044   4.870  0.00  0.00     0.030 H 
ENDBRANCH   9  15
ENDBRANCH   7   9
ENDBRANCH   1   5
BRANCH   1  19
ATOM     19  C12 MOL d   1      -7.533 -38.760   6.689  0.00  0.00    -0.002 C 
ATOM     20  H16 MOL d   1      -7.524 -39.122   7.728  0.00  0.00     0.045 H 
ATOM     21  H17 MOL d   1      -7.826 -39.581   6.018  0.00  0.00     0.045 H 
BRANCH  19  22
ATOM     22  C11 MOL d   1      -8.576 -37.646   6.574  0.00  0.00     0.027 C 
ATOM     23  C4  MOL d   1      -8.652 -36.421   7.187  0.00  0.00     0.015 C 
ATOM     24  C3  MOL d   1      -9.898 -35.836   6.793  0.00  0.00     0.069 A 
ATOM     25  C2  MOL d   1     -10.504 -36.756   5.929  0.00  0.00     0.146 A 
ATOM     26  C   MOL d   1     -10.680 -34.705   7.147  0.00  0.00     0.137 A 
ATOM     27  N5  MOL d   1      -9.593 -37.769   5.650  0.00  0.00    -0.332 N 
ATOM     28  N2  MOL d   1     -11.754 -36.667   5.445  0.00  0.00    -0.223 NA
ATOM     29  C1  MOL d   1     -12.389 -35.572   5.870  0.00  0.00     0.091 A 
ATOM     30  N1  MOL d   1     -11.937 -34.601   6.668  0.00  0.00    -0.224 NA
ATOM     31  H1  MOL d   1     -13.408 -35.455   5.520  0.00  0.00     0.146 H 
BRANCH  23  32
ATOM     32  C5  MOL d   1      -7.688 -35.751   8.085  0.00  0.00    -0.023 A 
ATOM     33  C6  MOL d   1      -6.727 -34.886   7.582  0.00  0.00    -0.070 A 
ATOM     34  C7  MOL d   1      -5.871 -34.210   8.435  0.00  0.00    -0.061 A 
ATOM     35  H2  MOL d   1      -6.646 -34.738   6.511  0.00  0.00     0.084 H 
ATOM     36  C8  MOL d   1      -5.981 -34.408   9.794  0.00  0.00     0.034 A 
ATOM     37  H25 MOL d   1      -5.123 -33.533   8.038  0.00  0.00     0.086 H 
ATOM     38  C9  MOL d   1      -6.921 -35.260  10.317  0.00  0.00    -0.061 A 
ATOM     39 CL   MOL d   1      -4.899 -33.576  10.872  0.00  0.00    -0.084 Cl
ATOM     40  C10 MOL d   1      -7.770 -35.934   9.460  0.00  0.00    -0.070 A 
ATOM     41  H24 MOL d   1      -6.997 -35.403  11.389  0.00  0.00     0.086 H 
ATOM     42  H23 MOL d   1      -8.510 -36.614   9.866  0.00  0.00     0.084 H 
ENDBRANCH  23  32
BRANCH  27  43
ATOM     43  C19 MOL d   1      -9.433 -38.269   4.274  0.00  0.00     0.021 C 
ATOM     44  H11 MOL d   1     -10.066 -37.678   3.595  0.00  0.00     0.068 H 
ATOM     45  H12 MOL d   1      -8.380 -38.172   3.971  0.00  0.00     0.068 H 
BRANCH  43  46
ATOM     46  C20 MOL d   1      -9.844 -39.725   4.203  0.00  0.00     0.034 C 
ATOM     47  H13 MOL d   1     -10.879 -39.798   3.837  0.00  0.00     0.076 H 
ATOM     48  H14 MOL d   1      -9.777 -40.176   5.204  0.00  0.00     0.076 H 
BRANCH  46  49
ATOM     49  O1  MOL d   1      -8.966 -40.418   3.304  0.00  0.00    -0.394 OA
BRANCH  49  50
ATOM     50  C21 MOL d   1      -9.481 -41.685   2.875  0.00  0.00     0.004 C 
ATOM     51  H18 MOL d   1      -8.762 -42.160   2.192  0.00  0.00     0.066 H 
ATOM     52  H19 MOL d   1     -10.438 -41.534   2.354  0.00  0.00     0.066 H 
ATOM     53  H20 MOL d   1      -9.638 -42.332   3.750  0.00  0.00     0.066 H 
ENDBRANCH  49  50
ENDBRANCH  46  49
ENDBRANCH  43  46
ENDBRANCH  27  43
BRANCH  26  54
ATOM     54  N   MOL d   1     -10.238 -33.729   7.939  0.00  0.00    -0.383 N 
ATOM     55  H21 MOL d   1     -10.849 -32.931   8.163  0.00  0.00     0.157 HD
ATOM     56  H22 MOL d   1      -9.285 -33.773   8.327  0.00  0.00     0.157 HD
ENDBRANCH  26  54
ENDBRANCH  19  22
ENDBRANCH   1  19
TORSDOF 12
