REMARK  3 active torsions:
REMARK  status: ('A' for Active; 'I' for Inactive)
REMARK    1  A    between atoms: C4_4  and  N1_7 
REMARK    2  A    between atoms: C5_5  and  C6_6 
REMARK    3  A    between atoms: C_8  and  N_9 
ROOT
ATOM      1  C3  71K d   1      58.034  43.288  74.314  0.00  0.00    -0.057 A 
ATOM      2  C2  71K d   1      57.537  43.344  75.619  0.00  0.00    -0.079 A 
ATOM      3  C1  71K d   1      57.076  44.552  76.165  0.00  0.00    -0.057 A 
ATOM      4  C4  71K d   1      58.087  44.429  73.491  0.00  0.00     0.034 A 
ATOM      5  C5  71K d   1      57.601  45.754  74.025  0.00  0.00    -0.010 A 
ATOM      6  C   71K d   1      57.079  45.759  75.438  0.00  0.00     0.034 A 
ATOM      7  H1  71K d   1      58.388  42.340  73.925  0.00  0.00     0.086 H 
ATOM      8  H2  71K d   1      57.507  42.441  76.218  0.00  0.00     0.083 H 
ATOM      9  H3  71K d   1      56.704  44.557  77.183  0.00  0.00     0.086 H 
ENDROOT
BRANCH   5  10
ATOM     10  C6  71K d   1      57.622  47.035  73.202  0.00  0.00    -0.047 C 
ATOM     11  H4  71K d   1      58.036  46.824  72.205  0.00  0.00     0.033 H 
ATOM     12  H5  71K d   1      58.248  47.785  73.707  0.00  0.00     0.033 H 
ATOM     13  H6  71K d   1      56.597  47.422  73.099  0.00  0.00     0.033 H 
ENDBRANCH   5  10
BRANCH   4  14
ATOM     14  N1  71K d   1      58.581  44.282  72.231  0.00  0.00    -0.399 N 
ATOM     15  H7  71K d   1      58.902  43.358  71.908  0.00  0.00     0.156 HD
ATOM     16  H8  71K d   1      58.634  45.095  71.600  0.00  0.00     0.156 HD
ENDBRANCH   4  14
BRANCH   6  17
ATOM     17  N   71K d   1      56.606  46.892  76.046  0.00  0.00    -0.399 N 
ATOM     18  H9  71K d   1      56.258  46.850  77.015  0.00  0.00     0.156 HD
ATOM     19  H10 71K d   1      56.598  47.786  75.534  0.00  0.00     0.156 HD
ENDBRANCH   6  17
TORSDOF 3
