REMARK  4 active torsions:
REMARK  status: ('A' for Active; 'I' for Inactive)
REMARK    1  A    between atoms: C5_1  and  C13_5 
REMARK    2  A    between atoms: N2_12  and  C1_11 
REMARK    3  A    between atoms: C1_11  and  C19_22 
REMARK    4  A    between atoms: C3_13  and  N2_12 
ROOT
ATOM      1  C5  74U d   1      48.499  71.354  11.450  0.00  0.00     0.162 A 
ATOM      2  C7  74U d   1      48.574  69.514  10.044  0.00  0.00     0.073 A 
ATOM      3  C8  74U d   1      49.214  68.730   9.065  0.00  0.00    -0.054 A 
ATOM      4  C10 74U d   1      47.341  67.189   9.091  0.00  0.00    -0.082 A 
ATOM      5  C3  74U d   1      46.663  69.913  11.533  0.00  0.00     0.139 A 
ATOM      6  N4  74U d   1      47.312  70.992  11.936  0.00  0.00    -0.210 NA
ATOM      7  N6  74U d   1      49.144  70.644  10.527  0.00  0.00    -0.228 NA
ATOM      8  C9  74U d   1      48.597  67.594   8.621  0.00  0.00    -0.081 A 
ATOM      9  C11 74U d   1      46.684  67.922  10.042  0.00  0.00    -0.067 A 
ATOM     10  C12 74U d   1      47.285  69.098  10.539  0.00  0.00     0.038 A 
ATOM     11  H1  74U d   1      50.180  69.022   8.670  0.00  0.00     0.087 H 
ATOM     12  H2  74U d   1      46.886  66.287   8.698  0.00  0.00     0.083 H 
ATOM     13  H11 74U d   1      49.098  66.984   7.878  0.00  0.00     0.083 H 
ATOM     14  H12 74U d   1      45.715  67.603  10.409  0.00  0.00     0.085 H 
ENDROOT
BRANCH   5  15
ATOM     15  N2  74U d   1      45.429  69.611  12.087  0.00  0.00    -0.368 N 
ATOM     16  H10 74U d   1      44.913  68.790  11.740  0.00  0.00     0.161 HD
BRANCH  15  17
ATOM     17  C1  74U d   1      44.833  70.428  13.156  0.00  0.00     0.038 C 
ATOM     18  H8  74U d   1      44.503  71.394  12.746  0.00  0.00     0.074 H 
ATOM     19  H9  74U d   1      45.575  70.601  13.949  0.00  0.00     0.074 H 
BRANCH  17  20
ATOM     20  C19 74U d   1      43.655  69.686  13.717  0.00  0.00     0.070 A 
ATOM     21  C20 74U d   1      43.718  68.580  14.469  0.00  0.00    -0.051 A 
ATOM     22  C21 74U d   1      42.386  68.225  14.765  0.00  0.00    -0.059 A 
ATOM     23  H5  74U d   1      44.619  68.058  14.789  0.00  0.00     0.087 H 
ATOM     24  C22 74U d   1      41.586  69.141  14.188  0.00  0.00     0.019 A 
ATOM     25  H6  74U d   1      42.063  67.367  15.353  0.00  0.00     0.086 H 
ATOM     26  O23 74U d   1      42.363  70.019  13.544  0.00  0.00    -0.325 OA
ATOM     27  H7  74U d   1      40.498  69.163  14.237  0.00  0.00     0.123 H 
ENDBRANCH  17  20
ENDBRANCH  15  17
ENDBRANCH   5  15
BRANCH   1  28
ATOM     28  C13 74U d   1      49.065  72.587  12.042  0.00  0.00     0.012 A 
ATOM     29  C14 74U d   1      48.231  73.701  12.253  0.00  0.00    -0.069 A 
ATOM     30  C15 74U d   1      48.731  74.861  12.826  0.00  0.00    -0.082 A 
ATOM     31  H13 74U d   1      47.187  73.652  11.965  0.00  0.00     0.085 H 
ATOM     32  C16 74U d   1      50.065  74.900  13.203  0.00  0.00    -0.083 A 
ATOM     33  H3  74U d   1      48.090  75.722  12.976  0.00  0.00     0.083 H 
ATOM     34  C17 74U d   1      50.892  73.794  13.018  0.00  0.00    -0.082 A 
ATOM     35  H14 74U d   1      50.469  75.802  13.647  0.00  0.00     0.083 H 
ATOM     36  C18 74U d   1      50.406  72.631  12.437  0.00  0.00    -0.069 A 
ATOM     37  H4  74U d   1      51.928  73.843  13.332  0.00  0.00     0.083 H 
ATOM     38  H15 74U d   1      51.053  71.773  12.292  0.00  0.00     0.085 H 
ENDBRANCH   1  28
TORSDOF 4
