REMARK  8 active torsions:
REMARK  status: ('A' for Active; 'I' for Inactive)
REMARK    1  A    between atoms: N3_1  and  C4_2 
REMARK       I    between atoms: C10_6  and  N3_1 
REMARK    2  A    between atoms: N3_1  and  C2_14 
REMARK    3  A    between atoms: C12_18  and  C10_6 
REMARK    4  A    between atoms: C15_8  and  C16_20 
REMARK    5  A    between atoms: C20_9  and  C21_10 
REMARK    6  A    between atoms: N19_23  and  C20_9 
REMARK    7  A    between atoms: C2_14  and  C1_13 
REMARK    8  A    between atoms: C18_22  and  N19_23 
ROOT
ATOM      1  N3  74V d   1      33.204  57.704  41.888  0.00  0.00    -0.342 N 
ATOM      2  C10 74V d   1      34.417  57.949  42.472  0.00  0.00     0.259 C 
ATOM      3  O11 74V d   1      35.061  58.916  42.095  0.00  0.00    -0.267 OA
ENDROOT
BRANCH   2   4
ATOM      4  C12 74V d   1      35.061  57.130  43.529  0.00  0.00     0.095 A 
ATOM      5  C13 74V d   1      35.760  55.965  43.155  0.00  0.00     0.023 A 
ATOM      6  N14 74V d   1      36.365  55.223  44.085  0.00  0.00    -0.245 NA
ATOM      7  H8  74V d   1      35.806  55.672  42.112  0.00  0.00     0.116 H 
ATOM      8  C15 74V d   1      36.340  55.569  45.359  0.00  0.00     0.124 A 
ATOM      9  N17 74V d   1      35.714  56.662  45.767  0.00  0.00    -0.216 NA
ATOM     10  C18 74V d   1      35.064  57.476  44.913  0.00  0.00     0.143 A 
BRANCH   8  11
ATOM     11  C16 74V d   1      37.039  54.691  46.361  0.00  0.00    -0.019 C 
ATOM     12  H22 74V d   1      37.499  53.837  45.842  0.00  0.00     0.037 H 
ATOM     13  H23 74V d   1      36.310  54.323  47.098  0.00  0.00     0.037 H 
ATOM     14  H24 74V d   1      37.819  55.271  46.875  0.00  0.00     0.037 H 
ENDBRANCH   8  11
BRANCH  10  15
ATOM     15  N19 74V d   1      34.409  58.609  45.373  0.00  0.00    -0.368 N 
ATOM     16  H25 74V d   1      33.748  59.102  44.756  0.00  0.00     0.161 HD
BRANCH  15  17
ATOM     17  C20 74V d   1      34.649  59.113  46.732  0.00  0.00     0.038 C 
ATOM     18  H9  74V d   1      34.425  58.315  47.455  0.00  0.00     0.074 H 
ATOM     19  H10 74V d   1      35.705  59.406  46.825  0.00  0.00     0.074 H 
BRANCH  17  20
ATOM     20  C21 74V d   1      33.783  60.302  47.030  0.00  0.00     0.070 A 
ATOM     21  C22 74V d   1      32.547  60.269  47.541  0.00  0.00    -0.051 A 
ATOM     22  C23 74V d   1      32.124  61.606  47.644  0.00  0.00    -0.059 A 
ATOM     23  H11 74V d   1      31.981  59.382  47.822  0.00  0.00     0.087 H 
ATOM     24  C24 74V d   1      33.127  62.378  47.200  0.00  0.00     0.019 A 
ATOM     25  H26 74V d   1      31.160  61.951  48.016  0.00  0.00     0.086 H 
ATOM     26  O25 74V d   1      34.128  61.576  46.828  0.00  0.00    -0.325 OA
ATOM     27  H12 74V d   1      33.125  63.466  47.151  0.00  0.00     0.123 H 
ENDBRANCH  17  20
ENDBRANCH  15  17
ENDBRANCH  10  15
ENDBRANCH   2   4
BRANCH   1  28
ATOM     28  C4  74V d   1      32.805  58.661  40.815  0.00  0.00     0.038 C 
ATOM     29  C5  74V d   1      32.504  57.978  39.464  0.00  0.00    -0.043 C 
ATOM     30  C6  74V d   1      32.159  58.981  38.345  0.00  0.00    -0.041 C 
ATOM     31  H2  74V d   1      31.651  57.296  39.598  0.00  0.00     0.036 H 
ATOM     32  H3  74V d   1      33.390  57.402  39.157  0.00  0.00     0.036 H 
ATOM     33  C7  74V d   1      30.992  59.879  38.793  0.00  0.00     0.082 C 
ATOM     34  H4  74V d   1      31.869  58.431  37.438  0.00  0.00     0.035 H 
ATOM     35  H5  74V d   1      33.039  59.605  38.130  0.00  0.00     0.035 H 
ATOM     36  N8  74V d   1      31.305  60.525  40.092  0.00  0.00    -0.073 N 
ATOM     37  H6  74V d   1      30.085  59.267  38.902  0.00  0.00     0.075 H 
ATOM     38  H7  74V d   1      30.821  60.656  38.034  0.00  0.00     0.075 H 
ATOM     39  C9  74V d   1      31.644  59.594  41.196  0.00  0.00     0.100 C 
ATOM     40  H18 74V d   1      30.501  61.063  40.374  0.00  0.00     0.277 HD
ATOM     41  H19 74V d   1      32.090  61.142  39.952  0.00  0.00     0.277 HD
ATOM     42  H20 74V d   1      31.933  60.180  42.081  0.00  0.00     0.078 H 
ATOM     43  H21 74V d   1      30.759  58.984  41.433  0.00  0.00     0.078 H 
ATOM     44  H1  74V d   1      33.681  59.306  40.652  0.00  0.00     0.075 H 
ENDBRANCH   1  28
BRANCH   1  45
ATOM     45  C2  74V d   1      32.356  56.549  42.274  0.00  0.00    -0.005 C 
ATOM     46  H16 74V d   1      33.005  55.687  42.486  0.00  0.00     0.063 H 
ATOM     47  H17 74V d   1      31.685  56.306  41.437  0.00  0.00     0.063 H 
BRANCH  45  48
ATOM     48  C1  74V d   1      31.509  56.849  43.518  0.00  0.00    -0.061 C 
ATOM     49  H13 74V d   1      30.898  55.968  43.767  0.00  0.00     0.029 H 
ATOM     50  H14 74V d   1      30.850  57.706  43.315  0.00  0.00     0.029 H 
ATOM     51  H15 74V d   1      32.171  57.087  44.364  0.00  0.00     0.029 H 
ENDBRANCH  45  48
ENDBRANCH   1  45
TORSDOF 8
