REMARK  3 active torsions:
REMARK  status: ('A' for Active; 'I' for Inactive)
REMARK    1  A    between atoms: N2_8  and  C1_7 
REMARK    2  A    between atoms: C1_7  and  C16_17 
REMARK    3  A    between atoms: C3_9  and  N2_8 
ROOT
ATOM      1  C5  74Z d   1     -13.274  16.553  -5.532  0.00  0.00     0.090 A 
ATOM      2  C7  74Z d   1     -13.977  18.758  -5.741  0.00  0.00     0.114 A 
ATOM      3  C10 74Z d   1     -16.158  22.150  -5.389  0.00  0.00    -0.066 C 
ATOM      4  C13 74Z d   1     -17.256  19.727  -3.969  0.00  0.00    -0.071 C 
ATOM      5  C15 74Z d   1     -15.107  18.499  -4.945  0.00  0.00     0.057 A 
ATOM      6  C3  74Z d   1     -15.249  17.162  -4.456  0.00  0.00     0.139 A 
ATOM      7  N4  74Z d   1     -14.322  16.249  -4.776  0.00  0.00    -0.224 NA
ATOM      8  N6  74Z d   1     -13.095  17.772  -6.007  0.00  0.00    -0.234 NA
ATOM      9  S8  74Z d   1     -13.989  20.437  -6.238  0.00  0.00    -0.069 SA
ATOM     10  C9  74Z d   1     -15.483  20.780  -5.392  0.00  0.00     0.018 A 
ATOM     11  C11 74Z d   1     -17.390  22.181  -4.464  0.00  0.00    -0.082 C 
ATOM     12  C12 74Z d   1     -18.162  20.851  -4.492  0.00  0.00    -0.082 C 
ATOM     13  C14 74Z d   1     -15.953  19.688  -4.770  0.00  0.00    -0.002 A 
ATOM     14  H1  74Z d   1     -12.548  15.782  -5.765  0.00  0.00     0.146 H 
ATOM     15  H2  74Z d   1     -15.812  22.999  -5.968  0.00  0.00     0.085 H 
ATOM     16  H3  74Z d   1     -17.503  19.059  -3.152  0.00  0.00     0.084 H 
ATOM     17  H8  74Z d   1     -17.678  23.038  -3.865  0.00  0.00     0.083 H 
ATOM     18  H9  74Z d   1     -19.185  20.727  -4.828  0.00  0.00     0.083 H 
ENDROOT
BRANCH   6  19
ATOM     19  N2  74Z d   1     -16.343  16.848  -3.665  0.00  0.00    -0.368 N 
ATOM     20  H7  74Z d   1     -17.101  17.542  -3.592  0.00  0.00     0.161 HD
BRANCH  19  21
ATOM     21  C1  74Z d   1     -16.489  15.596  -2.929  0.00  0.00     0.038 C 
ATOM     22  H5  74Z d   1     -16.034  15.701  -1.933  0.00  0.00     0.074 H 
ATOM     23  H6  74Z d   1     -15.986  14.787  -3.478  0.00  0.00     0.074 H 
BRANCH  21  24
ATOM     24  C16 74Z d   1     -17.953  15.268  -2.781  0.00  0.00     0.070 A 
ATOM     25  C17 74Z d   1     -18.927  15.539  -3.668  0.00  0.00    -0.051 A 
ATOM     26  C18 74Z d   1     -20.125  15.051  -3.106  0.00  0.00    -0.059 A 
ATOM     27  H4  74Z d   1     -18.813  16.037  -4.630  0.00  0.00     0.087 H 
ATOM     28  C19 74Z d   1     -19.819  14.504  -1.917  0.00  0.00     0.019 A 
ATOM     29  H10 74Z d   1     -21.116  15.107  -3.553  0.00  0.00     0.086 H 
ATOM     30  O20 74Z d   1     -18.500  14.645  -1.720  0.00  0.00    -0.325 OA
ATOM     31  H11 74Z d   1     -20.520  14.029  -1.233  0.00  0.00     0.123 H 
ENDBRANCH  21  24
ENDBRANCH  19  21
ENDBRANCH   6  19
TORSDOF 3
