REMARK  4 active torsions:
REMARK  status: ('A' for Active; 'I' for Inactive)
REMARK    1  A    between atoms: C7_25  and  C8_2 
REMARK    2  A    between atoms: N_14  and  C4_24 
REMARK    3  A    between atoms: O_16  and  C_15 
REMARK    4  A    between atoms: C1_17  and  O_16 
REMARK       I    between atoms: N1_18  and  C7_25 
ROOT
ATOM      1  C6  71T d   1      28.274  -6.041  42.040  0.00  0.00     0.013 C 
ATOM      2  C5  71T d   1      26.939  -5.575  41.535  0.00  0.00     0.010 C 
ATOM      3  C19 71T d   1      27.520  -8.330  42.084  0.00  0.00     0.013 C 
ATOM      4  N   71T d   1      26.302  -6.634  40.746  0.00  0.00    -0.378 N 
ATOM      5  N1  71T d   1      28.101  -7.237  42.870  0.00  0.00    -0.344 N 
ATOM      6  O3  71T d   1      28.383  -8.504  44.705  0.00  0.00    -0.267 OA
ATOM      7  C7  71T d   1      28.466  -7.412  44.158  0.00  0.00     0.260 C 
ATOM      8  C20 71T d   1      26.191  -7.899  41.483  0.00  0.00     0.010 C 
ATOM      9  H2  71T d   1      28.736  -5.244  42.641  0.00  0.00     0.066 H 
ATOM     10  H3  71T d   1      28.924  -6.280  41.186  0.00  0.00     0.066 H 
ATOM     11  H4  71T d   1      27.079  -4.685  40.904  0.00  0.00     0.066 H 
ATOM     12  H5  71T d   1      26.295  -5.321  42.390  0.00  0.00     0.066 H 
ATOM     13  H10 71T d   1      27.358  -9.200  42.737  0.00  0.00     0.066 H 
ATOM     14  H11 71T d   1      28.213  -8.603  41.274  0.00  0.00     0.066 H 
ATOM     15  H20 71T d   1      25.459  -7.774  42.294  0.00  0.00     0.066 H 
ATOM     16  H21 71T d   1      25.843  -8.682  40.793  0.00  0.00     0.066 H 
ENDROOT
BRANCH   7  17
ATOM     17  C8  71T d   1      29.046  -6.309  44.962  0.00  0.00     0.074 A 
ATOM     18  S1  71T d   1      30.432  -6.620  45.948  0.00  0.00    -0.083 SA
ATOM     19  C11 71T d   1      30.434  -4.976  46.545  0.00  0.00     0.024 A 
ATOM     20  C10 71T d   1      29.393  -4.240  45.997  0.00  0.00    -0.024 A 
ATOM     21  C12 71T d   1      31.402  -4.408  47.459  0.00  0.00     0.003 A 
ATOM     22  C18 71T d   1      29.173  -2.816  46.402  0.00  0.00     0.058 C 
ATOM     23  C9  71T d   1      28.609  -5.009  45.091  0.00  0.00    -0.053 A 
ATOM     24  S   71T d   1      29.561  -2.541  48.091  0.00  0.00     0.180 S 
ATOM     25  H8  71T d   1      28.117  -2.559  46.235  0.00  0.00     0.064 H 
ATOM     26  H9  71T d   1      29.811  -2.169  45.782  0.00  0.00     0.064 H 
ATOM     27  C17 71T d   1      31.112  -3.247  48.190  0.00  0.00     0.071 A 
ATOM     28  O1  71T d   1      29.649  -1.130  48.352  0.00  0.00    -0.222 OA
ATOM     29  O2  71T d   1      28.610  -3.310  48.845  0.00  0.00    -0.222 OA
ATOM     30  C16 71T d   1      32.052  -2.679  49.043  0.00  0.00    -0.061 A 
ATOM     31  C15 71T d   1      33.297  -3.278  49.180  0.00  0.00    -0.082 A 
ATOM     32  H19 71T d   1      31.815  -1.777  49.596  0.00  0.00     0.085 H 
ATOM     33  C14 71T d   1      33.602  -4.423  48.467  0.00  0.00    -0.082 A 
ATOM     34  H12 71T d   1      34.033  -2.846  49.849  0.00  0.00     0.083 H 
ATOM     35  C13 71T d   1      32.665  -4.988  47.614  0.00  0.00    -0.070 A 
ATOM     36  H18 71T d   1      34.578  -4.881  48.575  0.00  0.00     0.083 H 
ATOM     37  H7  71T d   1      32.914  -5.887  47.063  0.00  0.00     0.084 H 
ATOM     38  H17 71T d   1      27.750  -4.610  44.554  0.00  0.00     0.086 H 
ENDBRANCH   7  17
BRANCH   4  39
ATOM     39  C4  71T d   1      25.199  -6.259  39.921  0.00  0.00     0.030 A 
ATOM     40  C21 71T d   1      25.296  -5.178  39.048  0.00  0.00    -0.055 A 
ATOM     41  C22 71T d   1      24.214  -4.790  38.275  0.00  0.00    -0.049 A 
ATOM     42  H1  71T d   1      26.230  -4.633  38.972  0.00  0.00     0.087 H 
ATOM     43  C1  71T d   1      23.019  -5.480  38.364  0.00  0.00     0.068 A 
ATOM     44  H22 71T d   1      24.304  -3.946  37.601  0.00  0.00     0.087 H 
ATOM     45  C2  71T d   1      22.910  -6.570  39.210  0.00  0.00    -0.049 A 
ATOM     46  C3  71T d   1      23.992  -6.950  39.984  0.00  0.00    -0.055 A 
ATOM     47  H6  71T d   1      21.980  -7.124  39.266  0.00  0.00     0.087 H 
ATOM     48  H16 71T d   1      23.898  -7.800  40.651  0.00  0.00     0.087 H 
BRANCH  43  49
ATOM     49  O   71T d   1      22.015  -4.987  37.571  0.00  0.00    -0.356 OA
BRANCH  49  50
ATOM     50  C   71T d   1      20.764  -5.683  37.556  0.00  0.00     0.010 C 
ATOM     51  H13 71T d   1      20.067  -5.169  36.878  0.00  0.00     0.066 H 
ATOM     52  H14 71T d   1      20.342  -5.700  38.572  0.00  0.00     0.066 H 
ATOM     53  H15 71T d   1      20.922  -6.714  37.207  0.00  0.00     0.066 H 
ENDBRANCH  49  50
ENDBRANCH  43  49
ENDBRANCH   4  39
TORSDOF 4
