REMARK  14 active torsions:
REMARK  status: ('A' for Active; 'I' for Inactive)
REMARK    1  A    between atoms: C7_1  and  C8_17 
REMARK    2  A    between atoms: C9_6  and  C10_2 
REMARK    3  A    between atoms: C2_9  and  C1_7 
REMARK    4  A    between atoms: C1_7  and  O_28 
REMARK    5  A    between atoms: N_27  and  C2_9 
REMARK       I    between atoms: N3_16  and  C13_14 
REMARK    6  A    between atoms: C13_14  and  C14_34 
REMARK    7  A    between atoms: C12_15  and  N3_16 
REMARK    8  A    between atoms: C27_20  and  C28_21 
REMARK    9  A    between atoms: C26_25  and  C27_20 
REMARK       I    between atoms: C28_21  and  N4_23 
REMARK   10  A    between atoms: N4_23  and  C29_24 
REMARK   11  A    between atoms: C26_25  and  C25_26 
REMARK   12  A    between atoms: O_28  and  C_29 
REMARK   13  A    between atoms: C23_30  and  C24_31 
REMARK   14  A    between atoms: C16_38  and  C17_40 
ROOT
ATOM      1  N5  MOL d   1       2.286  37.947   6.365  0.00  0.00    -0.196 NA
ATOM      2  C30 MOL d   1       2.974  38.459   5.616  0.00  0.00     0.073 C 
ATOM      3  C27 MOL d   1       3.825  39.170   4.661  0.00  0.00     0.112 C 
ATOM      4  H9  MOL d   1       4.006  38.538   3.779  0.00  0.00     0.078 H 
ENDROOT
BRANCH   3   5
ATOM      5  C28 MOL d   1       3.071  40.435   4.244  0.00  0.00     0.235 C 
ATOM      6  O2  MOL d   1       2.429  41.080   5.072  0.00  0.00    -0.272 OA
ATOM      7  N4  MOL d   1       3.140  40.767   2.960  0.00  0.00    -0.364 N 
ATOM      8  H10 MOL d   1       3.478  40.090   2.306  0.00  0.00     0.161 HD
BRANCH   7   9
ATOM      9  C29 MOL d   1       2.744  42.076   2.468  0.00  0.00    -0.018 C 
ATOM     10  H11 MOL d   1       2.889  42.117   1.378  0.00  0.00     0.056 H 
ATOM     11  H12 MOL d   1       3.360  42.850   2.949  0.00  0.00     0.056 H 
ATOM     12  H13 MOL d   1       1.684  42.251   2.704  0.00  0.00     0.056 H 
ENDBRANCH   7   9
ENDBRANCH   3   5
BRANCH   3  13
ATOM     13  C26 MOL d   1       5.185  39.528   5.316  0.00  0.00    -0.002 C 
ATOM     14  H14 MOL d   1       5.039  39.627   6.402  0.00  0.00     0.045 H 
ATOM     15  H15 MOL d   1       5.534  40.487   4.904  0.00  0.00     0.045 H 
BRANCH  13  16
ATOM     16  C25 MOL d   1       6.255  38.466   5.060  0.00  0.00     0.035 A 
ATOM     17  C7  MOL d   1       6.318  37.233   5.646  0.00  0.00     0.056 A 
ATOM     18  C6  MOL d   1       7.584  36.666   5.343  0.00  0.00     0.048 A 
ATOM     19  C5  MOL d   1       8.374  35.552   5.638  0.00  0.00     0.019 A 
ATOM     20  C3  MOL d   1       8.243  37.604   4.521  0.00  0.00     0.144 A 
ATOM     21  N2  MOL d   1       9.635  35.397   5.224  0.00  0.00    -0.253 NA
ATOM     22  H2  MOL d   1       7.937  34.764   6.240  0.00  0.00     0.116 H 
ATOM     23  C4  MOL d   1      10.121  36.384   4.472  0.00  0.00     0.088 A 
ATOM     24  N1  MOL d   1       9.499  37.494   4.064  0.00  0.00    -0.223 NA
ATOM     25  H1  MOL d   1      11.150  36.272   4.151  0.00  0.00     0.146 H 
ATOM     26  N   MOL d   1       7.400  38.695   4.313  0.00  0.00    -0.331 N 
BRANCH  17  27
ATOM     27  C8  MOL d   1       5.324  36.518   6.371  0.00  0.00    -0.058 C 
ATOM     28  C9  MOL d   1       4.443  35.962   6.948  0.00  0.00    -0.061 C 
BRANCH  28  29
ATOM     29  C10 MOL d   1       3.322  35.324   7.568  0.00  0.00     0.026 A 
ATOM     30  C11 MOL d   1       2.444  34.561   6.802  0.00  0.00    -0.038 A 
ATOM     31  C12 MOL d   1       1.302  34.023   7.389  0.00  0.00     0.036 A 
ATOM     32  H7  MOL d   1       2.649  34.387   5.752  0.00  0.00     0.089 H 
ATOM     33  C21 MOL d   1       1.047  34.257   8.736  0.00  0.00    -0.057 A 
ATOM     34  C22 MOL d   1       1.935  35.004   9.489  0.00  0.00    -0.074 A 
ATOM     35  H23 MOL d   1       0.152  33.854   9.196  0.00  0.00     0.086 H 
ATOM     36  C23 MOL d   1       3.096  35.541   8.934  0.00  0.00    -0.043 A 
ATOM     37  H22 MOL d   1       1.723  35.176  10.538  0.00  0.00     0.084 H 
BRANCH  31  38
ATOM     38  N3  MOL d   1       0.440  33.244   6.582  0.00  0.00    -0.323 N 
ATOM     39  C13 MOL d   1       0.613  31.953   6.199  0.00  0.00     0.256 C 
ATOM     40  O1  MOL d   1       1.705  31.491   5.869  0.00  0.00    -0.267 OA
ATOM     41  H8  MOL d   1      -0.391  33.695   6.257  0.00  0.00     0.169 HD
BRANCH  39  42
ATOM     42  C14 MOL d   1      -0.624  31.109   6.158  0.00  0.00     0.033 A 
ATOM     43  C20 MOL d   1      -1.815  31.490   6.782  0.00  0.00    -0.068 A 
ATOM     44  C19 MOL d   1      -2.954  30.715   6.646  0.00  0.00    -0.081 A 
ATOM     45  H24 MOL d   1      -1.847  32.397   7.375  0.00  0.00     0.085 H 
ATOM     46  C18 MOL d   1      -2.912  29.546   5.908  0.00  0.00    -0.068 A 
ATOM     47  H25 MOL d   1      -3.879  31.024   7.118  0.00  0.00     0.083 H 
ATOM     48  C16 MOL d   1      -1.728  29.136   5.305  0.00  0.00     0.048 A 
ATOM     49  H26 MOL d   1      -3.808  28.945   5.799  0.00  0.00     0.084 H 
ATOM     50  C15 MOL d   1      -0.589  29.924   5.428  0.00  0.00    -0.053 A 
ATOM     51  H27 MOL d   1       0.334  29.613   4.952  0.00  0.00     0.086 H 
BRANCH  48  52
ATOM     52  C17 MOL d   1      -1.655  27.853   4.546  0.00  0.00     0.417 C 
ATOM     53  F   MOL d   1      -1.423  28.046   3.254  0.00  0.00    -0.166 F 
ATOM     54  F1  MOL d   1      -2.773  27.128   4.623  0.00  0.00    -0.166 F 
ATOM     55  F2  MOL d   1      -0.664  27.071   4.972  0.00  0.00    -0.166 F 
ENDBRANCH  48  52
ENDBRANCH  39  42
ENDBRANCH  31  38
BRANCH  36  56
ATOM     56  C24 MOL d   1       4.110  36.259   9.786  0.00  0.00    -0.050 C 
ATOM     57  H19 MOL d   1       3.740  36.323  10.820  0.00  0.00     0.033 H 
ATOM     58  H20 MOL d   1       4.270  37.273   9.390  0.00  0.00     0.033 H 
ATOM     59  H21 MOL d   1       5.060  35.705   9.770  0.00  0.00     0.033 H 
ENDBRANCH  36  56
ENDBRANCH  28  29
ENDBRANCH  17  27
BRANCH  26  60
ATOM     60  C2  MOL d   1       7.615  39.810   3.369  0.00  0.00     0.021 C 
ATOM     61  H5  MOL d   1       7.370  40.754   3.878  0.00  0.00     0.068 H 
ATOM     62  H6  MOL d   1       8.673  39.819   3.070  0.00  0.00     0.068 H 
BRANCH  60  63
ATOM     63  C1  MOL d   1       6.755  39.693   2.117  0.00  0.00     0.034 C 
ATOM     64  H3  MOL d   1       5.885  40.360   2.203  0.00  0.00     0.076 H 
ATOM     65  H4  MOL d   1       6.411  38.655   2.001  0.00  0.00     0.076 H 
BRANCH  63  66
ATOM     66  O   MOL d   1       7.538  40.070   0.980  0.00  0.00    -0.394 OA
BRANCH  66  67
ATOM     67  C   MOL d   1       7.589  41.471   0.710  0.00  0.00     0.004 C 
ATOM     68  H16 MOL d   1       8.213  41.651  -0.178  0.00  0.00     0.066 H 
ATOM     69  H17 MOL d   1       8.022  41.995   1.574  0.00  0.00     0.066 H 
ATOM     70  H18 MOL d   1       6.572  41.846   0.526  0.00  0.00     0.066 H 
ENDBRANCH  66  67
ENDBRANCH  63  66
ENDBRANCH  60  63
ENDBRANCH  26  60
ENDBRANCH  13  16
ENDBRANCH   3  13
TORSDOF 14
