REMARK  5 active torsions:
REMARK  status: ('A' for Active; 'I' for Inactive)
REMARK    1  A    between atoms: C5_2  and  C6_3 
REMARK       I    between atoms: C6_3  and  N8_14 
REMARK    2  A    between atoms: N16_19  and  C15_6 
REMARK    3  A    between atoms: C17_7  and  N16_19 
REMARK    4  A    between atoms: C18_20  and  C17_7 
REMARK    5  A    between atoms: C2_11  and  C1_10 
ROOT
ATOM      1  C4  74Y d   1     -24.221 -33.487 -13.474  0.00  0.00    -0.062 A 
ATOM      2  C5  74Y d   1     -23.779 -33.930 -12.200  0.00  0.00     0.077 A 
ATOM      3  C15 74Y d   1     -22.529 -33.470 -11.710  0.00  0.00     0.140 A 
ATOM      4  C2  74Y d   1     -22.195 -32.224 -13.672  0.00  0.00     0.033 A 
ATOM      5  C3  74Y d   1     -23.411 -32.632 -14.216  0.00  0.00    -0.058 A 
ATOM      6  N23 74Y d   1     -21.799 -32.640 -12.472  0.00  0.00    -0.235 NA
ATOM      7  H1  74Y d   1     -25.179 -33.811 -13.865  0.00  0.00     0.085 H 
ATOM      8  H13 74Y d   1     -23.720 -32.291 -15.197  0.00  0.00     0.086 H 
ENDROOT
BRANCH   2   9
ATOM      9  C6  74Y d   1     -24.610 -34.841 -11.372  0.00  0.00     0.257 C 
ATOM     10  O7  74Y d   1     -25.265 -34.311 -10.488  0.00  0.00    -0.267 OA
ATOM     11  N8  74Y d   1     -24.652 -36.206 -11.545  0.00  0.00    -0.348 N 
ATOM     12  C9  74Y d   1     -23.871 -36.875 -12.624  0.00  0.00    -0.002 C 
ATOM     13  C14 74Y d   1     -25.507 -37.015 -10.678  0.00  0.00    -0.002 C 
ATOM     14  C10 74Y d   1     -24.641 -36.904 -13.973  0.00  0.00    -0.050 C 
ATOM     15  H14 74Y d   1     -22.926 -36.331 -12.767  0.00  0.00     0.064 H 
ATOM     16  H15 74Y d   1     -23.656 -37.909 -12.316  0.00  0.00     0.064 H 
ATOM     17  C11 74Y d   1     -25.957 -37.652 -13.899  0.00  0.00    -0.064 C 
ATOM     18  H2  74Y d   1     -24.005 -37.391 -14.727  0.00  0.00     0.035 H 
ATOM     19  H3  74Y d   1     -24.846 -35.868 -14.280  0.00  0.00     0.035 H 
ATOM     20  C12 74Y d   1     -26.853 -37.113 -12.782  0.00  0.00    -0.064 C 
ATOM     21  H16 74Y d   1     -25.752 -38.716 -13.709  0.00  0.00     0.033 H 
ATOM     22  H17 74Y d   1     -26.482 -37.545 -14.860  0.00  0.00     0.033 H 
ATOM     23  C13 74Y d   1     -26.659 -37.712 -11.446  0.00  0.00    -0.050 C 
ATOM     24  H18 74Y d   1     -26.668 -36.032 -12.695  0.00  0.00     0.033 H 
ATOM     25  H19 74Y d   1     -27.898 -37.284 -13.078  0.00  0.00     0.033 H 
ATOM     26  H4  74Y d   1     -26.418 -38.779 -11.563  0.00  0.00     0.035 H 
ATOM     27  H5  74Y d   1     -27.589 -37.608 -10.868  0.00  0.00     0.035 H 
ATOM     28  H20 74Y d   1     -24.889 -37.787 -10.197  0.00  0.00     0.064 H 
ATOM     29  H21 74Y d   1     -25.943 -36.362  -9.908  0.00  0.00     0.064 H 
ENDBRANCH   2   9
BRANCH   3  30
ATOM     30  N16 74Y d   1     -22.063 -33.877 -10.454  0.00  0.00    -0.368 N 
ATOM     31  H22 74Y d   1     -22.591 -33.626  -9.606  0.00  0.00     0.161 HD
BRANCH  30  32
ATOM     32  C17 74Y d   1     -20.822 -34.662 -10.339  0.00  0.00     0.038 C 
ATOM     33  H6  74Y d   1     -19.974 -33.992 -10.543  0.00  0.00     0.074 H 
ATOM     34  H7  74Y d   1     -20.851 -35.459 -11.097  0.00  0.00     0.074 H 
BRANCH  32  35
ATOM     35  C18 74Y d   1     -20.596 -35.306  -8.990  0.00  0.00     0.070 A 
ATOM     36  C19 74Y d   1     -19.838 -36.394  -8.773  0.00  0.00    -0.051 A 
ATOM     37  C20 74Y d   1     -19.877 -36.672  -7.393  0.00  0.00    -0.059 A 
ATOM     38  H23 74Y d   1     -19.292 -36.959  -9.528  0.00  0.00     0.087 H 
ATOM     39  C21 74Y d   1     -20.654 -35.729  -6.839  0.00  0.00     0.019 A 
ATOM     40  H8  74Y d   1     -19.376 -37.490  -6.878  0.00  0.00     0.086 H 
ATOM     41  O22 74Y d   1     -21.084 -34.904  -7.808  0.00  0.00    -0.325 OA
ATOM     42  H9  74Y d   1     -20.896 -35.646  -5.780  0.00  0.00     0.123 H 
ENDBRANCH  32  35
ENDBRANCH  30  32
ENDBRANCH   3  30
BRANCH   4  43
ATOM     43  C1  74Y d   1     -21.307 -31.294 -14.455  0.00  0.00    -0.035 C 
ATOM     44  H10 74Y d   1     -21.785 -31.053 -15.416  0.00  0.00     0.035 H 
ATOM     45  H11 74Y d   1     -20.338 -31.781 -14.639  0.00  0.00     0.035 H 
ATOM     46  H12 74Y d   1     -21.149 -30.368 -13.882  0.00  0.00     0.035 H 
ENDBRANCH   4  43
TORSDOF 5
