REMARK WARNING: 32 MAX_TORS EXCEEDED!!!
REMARK  71 active torsions:
REMARK  status: ('A' for Active; 'I' for Inactive)
REMARK    1  A    between atoms: CA_2  and  N_1 
REMARK    2  A    between atoms: C_3  and  CA_2 
REMARK    3  A    between atoms: CA_2  and  CB_5 
REMARK       I    between atoms: N_6  and  C_3 
REMARK    4  A    between atoms: CA_7  and  N_6 
REMARK    5  A    between atoms: C_8  and  CA_7 
REMARK    6  A    between atoms: CA_7  and  CB_10 
REMARK       I    between atoms: N_17  and  C_8 
REMARK    7  A    between atoms: CB_10  and  CG_11 
REMARK    8  A    between atoms: CG_11  and  CD_12 
REMARK    9  A    between atoms: CD_12  and  NE_13 
REMARK       I    between atoms: NE_13  and  CZ_14 
REMARK       I    between atoms: CZ_14  and  NH1_15 
REMARK       I    between atoms: CZ_14  and  NH2_16 
REMARK   10  A    between atoms: CA_18  and  N_17 
REMARK   11  A    between atoms: C_19  and  CA_18 
REMARK   12  A    between atoms: CA_18  and  CB_21 
REMARK       I    between atoms: N_24  and  C_19 
REMARK   13  A    between atoms: CB_21  and  OG1_22 
REMARK   14  A    between atoms: CB_21  and  CG2_23 
REMARK   15  A    between atoms: CA_25  and  N_24 
REMARK   16  A    between atoms: C_26  and  CA_25 
REMARK   17  A    between atoms: CA_25  and  CB_28 
REMARK       I    between atoms: N_33  and  C_26 
REMARK   18  A    between atoms: CB_28  and  CG_29 
REMARK   19  A    between atoms: CG_29  and  CD_30 
REMARK   20  A    between atoms: CD_30  and  CE_31 
REMARK   21  A    between atoms: CE_31  and  NZ_32 
REMARK   22  A    between atoms: CA_34  and  N_33 
REMARK   23  A    between atoms: C_35  and  CA_34 
REMARK   24  A    between atoms: CA_34  and  CB_37 
REMARK       I    between atoms: N_42  and  C_35 
REMARK   25  A    between atoms: CB_37  and  CG_38 
REMARK   26  A    between atoms: CG_38  and  CD_39 
REMARK       I    between atoms: CD_39  and  NE2_41 
REMARK   27  A    between atoms: CA_43  and  N_42 
REMARK   28  A    between atoms: C_44  and  CA_43 
REMARK   29  A    between atoms: CA_43  and  CB_46 
REMARK       I    between atoms: N_49  and  C_44 
REMARK   30  A    between atoms: CB_46  and  OG1_47 
REMARK   31  A    between atoms: CB_46  and  CG2_48 
REMARK   32  A    between atoms: CA_50  and  N_49 
REMARK   33  A    between atoms: C_51  and  CA_50 
REMARK   34  A    between atoms: CA_50  and  CB_53 
REMARK       I    between atoms: N_54  and  C_51 
REMARK   35  A    between atoms: CA_55  and  N_54 
REMARK   36  A    between atoms: C_56  and  CA_55 
REMARK   37  A    between atoms: CA_55  and  CB_58 
REMARK       I    between atoms: N_65  and  C_56 
REMARK   38  A    between atoms: CB_58  and  CG_59 
REMARK   39  A    between atoms: CG_59  and  CD_60 
REMARK   40  A    between atoms: CD_60  and  NE_61 
REMARK       I    between atoms: NE_61  and  CZ_62 
REMARK       I    between atoms: CZ_62  and  NH1_63 
REMARK   41  A    between atoms: CA_66  and  N_65 
REMARK   42  A    between atoms: C_67  and  CA_66 
REMARK   43  A    between atoms: CA_66  and  CB_69 
REMARK       I    between atoms: N_74  and  C_67 
REMARK   44  A    between atoms: CB_69  and  CG_70 
REMARK   45  A    between atoms: CG_70  and  CD_71 
REMARK   46  A    between atoms: CD_71  and  CE_72 
REMARK   47  A    between atoms: CE_72  and  NZ_73 
REMARK   48  A    between atoms: CA_75  and  N_74 
REMARK   49  A    between atoms: C_76  and  CA_75 
REMARK   50  A    between atoms: CA_75  and  CB_78 
REMARK       I    between atoms: N_80  and  C_76 
REMARK   51  A    between atoms: CB_78  and  OG_79 
REMARK   52  A    between atoms: CA_81  and  N_80 
REMARK   53  A    between atoms: C_82  and  CA_81 
REMARK   54  A    between atoms: CA_81  and  CB_84 
REMARK       I    between atoms: N_87  and  C_82 
REMARK   55  A    between atoms: CB_84  and  OG1_85 
REMARK   56  A    between atoms: CB_84  and  CG2_86 
REMARK   57  A    between atoms: CA_88  and  N_87 
REMARK   58  A    between atoms: C_89  and  CA_88 
REMARK       I    between atoms: N_91  and  C_89 
REMARK   59  A    between atoms: CA_92  and  N_91 
REMARK   60  A    between atoms: C_93  and  CA_92 
REMARK       I    between atoms: N_104  and  C_93 
REMARK   61  A    between atoms: CH_96  and  CH3_97 
REMARK       I    between atoms: NZ_98  and  CH_96 
REMARK   62  A    between atoms: CE_99  and  NZ_98 
REMARK   63  A    between atoms: CD_100  and  CE_99 
REMARK   64  A    between atoms: CG_101  and  CD_100 
REMARK   65  A    between atoms: CB_102  and  CG_101 
REMARK   66  A    between atoms: CA_103  and  CB_102 
REMARK   67  A    between atoms: CA_103  and  N_104 
REMARK   68  A    between atoms: CA_103  and  C_105 
REMARK       I    between atoms: C_105  and  N_107 
REMARK   69  A    between atoms: N_107  and  CA_108 
REMARK   70  A    between atoms: CA_108  and  C_109 
REMARK   71  A    between atoms: CA_108  and  CB_111 
ROOT
ATOM      1  CA  ALA d   1       0.471  21.406  72.966  0.00  0.00     0.089 C 
ATOM      2  H62 ALA d   1       1.276  21.633  72.251  0.00  0.00     0.087 H 
ENDROOT
BRANCH   1   3
ATOM      3  N   ALA d   1       0.306  22.525  73.888  0.00  0.00    -0.346 N 
ATOM      4  C   ALA d   1      -0.078  23.716  73.434  0.00  0.00     0.240 C 
ATOM      5  O   ALA d   1      -0.207  23.944  72.226  0.00  0.00    -0.271 OA
ATOM      6  H61 ALA d   1       0.482  22.397  74.864  0.00  0.00     0.163 HD
BRANCH   4   7
ATOM      7  CA  ALA d   1      -0.331  24.818  74.453  0.00  0.00     0.086 C 
ATOM      8  H57 ALA d   1      -0.968  25.582  73.984  0.00  0.00     0.086 H 
BRANCH   7   9
ATOM      9  N   ALA d   1      -1.014  24.308  75.633  0.00  0.00    -0.346 N 
ATOM     10  C   ALA d   1      -2.273  23.868  75.560  0.00  0.00     0.243 C 
ATOM     11  O   ALA d   1      -2.908  23.848  74.501  0.00  0.00    -0.271 OA
ATOM     12  H56 ALA d   1      -0.534  24.287  76.510  0.00  0.00     0.163 HD
BRANCH  10  13
ATOM     13  CA  ALA d   1      -2.894  23.307  76.828  0.00  0.00     0.113 C 
ATOM     14  H50 ALA d   1      -3.596  22.518  76.520  0.00  0.00     0.091 H 
BRANCH  13  15
ATOM     15  N   ALA d   1      -1.882  22.675  77.668  0.00  0.00    -0.344 N 
ATOM     16  C   ALA d   1      -1.344  21.525  77.249  0.00  0.00     0.241 C 
ATOM     17  O   ALA d   1      -1.673  21.016  76.176  0.00  0.00    -0.271 OA
ATOM     18  H49 ALA d   1      -1.599  23.090  78.532  0.00  0.00     0.163 HD
BRANCH  16  19
ATOM     19  CA  ALA d   1      -0.325  20.832  78.143  0.00  0.00     0.090 C 
ATOM     20  H42 ALA d   1       0.179  20.065  77.537  0.00  0.00     0.087 H 
BRANCH  19  21
ATOM     21  N   ALA d   1       0.693  21.756  78.615  0.00  0.00    -0.346 N 
ATOM     22  C   ALA d   1       1.505  22.339  77.738  0.00  0.00     0.241 C 
ATOM     23  O   ALA d   1       1.412  22.142  76.521  0.00  0.00    -0.271 OA
ATOM     24  H41 ALA d   1       0.782  21.952  79.592  0.00  0.00     0.163 HD
BRANCH  22  25
ATOM     25  CA  ALA d   1       2.567  23.279  78.296  0.00  0.00     0.089 C 
ATOM     26  H29 ALA d   1       2.922  23.930  77.484  0.00  0.00     0.087 H 
BRANCH  25  27
ATOM     27  N   ALA d   1       1.999  24.105  79.340  0.00  0.00    -0.346 N 
ATOM     28  C   ALA d   1       0.922  24.828  79.051  0.00  0.00     0.243 C 
ATOM     29  O   ALA d   1       0.421  24.855  77.924  0.00  0.00    -0.271 OA
ATOM     30  H28 ALA d   1       2.406  24.131  80.253  0.00  0.00     0.163 HD
BRANCH  28  31
ATOM     31  CA  ALA d   1       0.309  25.590  80.206  0.00  0.00     0.113 C 
ATOM     32  H22 ALA d   1       1.076  26.193  80.714  0.00  0.00     0.091 H 
BRANCH  31  33
ATOM     33  N   ALA d   1      -0.713  26.463  79.665  0.00  0.00    -0.344 N 
ATOM     34  C   ALA d   1      -0.626  27.780  79.724  0.00  0.00     0.241 C 
ATOM     35  O   ALA d   1       0.133  28.367  80.497  0.00  0.00    -0.271 OA
ATOM     36  H21 ALA d   1      -1.515  26.053  79.230  0.00  0.00     0.163 HD
BRANCH  34  37
ATOM     37  CA  ALA d   1      -1.511  28.559  78.762  0.00  0.00     0.089 C 
ATOM     38  H9  ALA d   1      -2.337  27.920  78.417  0.00  0.00     0.087 H 
BRANCH  37  39
ATOM     39  N   ALA d   1      -2.055  29.720  79.444  0.00  0.00    -0.346 N 
ATOM     40  C   ALA d   1      -3.325  29.812  79.798  0.00  0.00     0.248 C 
ATOM     41  O   ALA d   1      -4.144  28.922  79.607  0.00  0.00    -0.271 OA
ATOM     42  H8  ALA d   1      -1.443  30.482  79.655  0.00  0.00     0.163 HD
BRANCH  40  43
ATOM     43  CA  ALA d   1      -3.725  31.100  80.482  0.00  0.00     0.172 C 
ATOM     44  H4  ALA d   1      -3.188  31.935  80.008  0.00  0.00     0.098 H 
BRANCH  43  45
ATOM     45  N   ALA d   1      -5.196  31.337  80.338  0.00  0.00    -0.067 N 
ATOM     46  H1  ALA d   1      -5.444  32.198  80.799  0.00  0.00     0.275 HD
ATOM     47  H2  ALA d   1      -5.702  30.573  80.758  0.00  0.00     0.275 HD
ATOM     48  H3  ALA d   1      -5.432  31.399  79.360  0.00  0.00     0.275 HD
ENDBRANCH  43  45
BRANCH  43  49
ATOM     49  CB  ALA d   1      -3.332  31.034  81.943  0.00  0.00    -0.042 C 
ATOM     50  H5  ALA d   1      -2.249  30.860  82.024  0.00  0.00     0.030 H 
ATOM     51  H6  ALA d   1      -3.873  30.210  82.431  0.00  0.00     0.030 H 
ATOM     52  H7  ALA d   1      -3.588  31.984  82.435  0.00  0.00     0.030 H 
ENDBRANCH  43  49
ENDBRANCH  40  43
ENDBRANCH  37  39
BRANCH  37  53
ATOM     53  CB  ALA d   1      -0.665  28.988  77.564  0.00  0.00    -0.036 C 
ATOM     54  H10 ALA d   1      -0.240  28.084  77.104  0.00  0.00     0.036 H 
ATOM     55  H11 ALA d   1       0.149  29.629  77.933  0.00  0.00     0.036 H 
BRANCH  53  56
ATOM     56  CG  ALA d   1      -1.417  29.751  76.495  0.00  0.00    -0.048 C 
ATOM     57  H12 ALA d   1      -1.877  30.646  76.939  0.00  0.00     0.035 H 
ATOM     58  H13 ALA d   1      -2.201  29.108  76.070  0.00  0.00     0.035 H 
BRANCH  56  59
ATOM     59  CD  ALA d   1      -0.472  30.164  75.413  0.00  0.00     0.009 C 
ATOM     60  H14 ALA d   1      -1.031  30.647  74.598  0.00  0.00     0.064 H 
ATOM     61  H15 ALA d   1       0.054  29.280  75.024  0.00  0.00     0.064 H 
BRANCH  59  62
ATOM     62  NE  ALA d   1       0.489  31.100  75.968  0.00  0.00    -0.227 N 
ATOM     63  CZ  ALA d   1       1.781  31.132  75.654  0.00  0.00     0.665 C 
ATOM     64  NH1 ALA d   1       2.294  30.291  74.769  0.00  0.00    -0.235 N 
ATOM     65  NH2 ALA d   1       2.565  32.024  76.221  0.00  0.00    -0.235 N 
ATOM     66  H17 ALA d   1       3.297  30.333  74.540  0.00  0.00     0.174 HD
ATOM     67  H18 ALA d   1       1.690  29.595  74.309  0.00  0.00     0.174 HD
ATOM     68  H19 ALA d   1       2.179  32.684  76.911  0.00  0.00     0.174 HD
ATOM     69  H20 ALA d   1       3.564  32.062  75.975  0.00  0.00     0.174 HD
ATOM     70  H16 ALA d   1       0.146  31.788  76.653  0.00  0.00     0.177 HD
ENDBRANCH  59  62
ENDBRANCH  56  59
ENDBRANCH  53  56
ENDBRANCH  37  53
ENDBRANCH  34  37
ENDBRANCH  31  33
BRANCH  31  71
ATOM     71  CB  ALA d   1      -0.270  24.578  81.185  0.00  0.00     0.060 C 
ATOM     72  H23 ALA d   1       0.550  23.984  81.615  0.00  0.00     0.086 H 
BRANCH  71  73
ATOM     73  OG1 ALA d   1      -1.146  23.706  80.463  0.00  0.00    -0.393 OA
ATOM     74  H24 ALA d   1      -1.517  23.067  81.060  0.00  0.00     0.210 HD
ENDBRANCH  71  73
BRANCH  71  75
ATOM     75  CG2 ALA d   1      -1.000  25.279  82.318  0.00  0.00    -0.050 C 
ATOM     76  H25 ALA d   1      -1.409  24.529  83.011  0.00  0.00     0.031 H 
ATOM     77  H26 ALA d   1      -1.821  25.884  81.906  0.00  0.00     0.031 H 
ATOM     78  H27 ALA d   1      -0.298  25.932  82.857  0.00  0.00     0.031 H 
ENDBRANCH  71  75
ENDBRANCH  31  71
ENDBRANCH  28  31
ENDBRANCH  25  27
BRANCH  25  79
ATOM     79  CB  ALA d   1       3.748  22.491  78.837  0.00  0.00    -0.038 C 
ATOM     80  H30 ALA d   1       3.405  21.835  79.651  0.00  0.00     0.036 H 
ATOM     81  H31 ALA d   1       4.504  23.190  79.224  0.00  0.00     0.036 H 
BRANCH  79  82
ATOM     82  CG  ALA d   1       4.366  21.642  77.735  0.00  0.00    -0.061 C 
ATOM     83  H32 ALA d   1       4.647  22.308  76.905  0.00  0.00     0.033 H 
ATOM     84  H33 ALA d   1       3.608  20.924  77.389  0.00  0.00     0.033 H 
BRANCH  82  85
ATOM     85  CD  ALA d   1       5.593  20.867  78.153  0.00  0.00    -0.043 C 
ATOM     86  H34 ALA d   1       5.927  20.248  77.307  0.00  0.00     0.035 H 
ATOM     87  H35 ALA d   1       5.330  20.218  79.001  0.00  0.00     0.035 H 
BRANCH  85  88
ATOM     88  CE  ALA d   1       6.719  21.771  78.566  0.00  0.00     0.080 C 
ATOM     89  H36 ALA d   1       6.586  22.055  79.620  0.00  0.00     0.075 H 
ATOM     90  H37 ALA d   1       6.706  22.674  77.938  0.00  0.00     0.075 H 
BRANCH  88  91
ATOM     91  NZ  ALA d   1       8.028  21.086  78.407  0.00  0.00    -0.079 N 
ATOM     92  H38 ALA d   1       8.769  21.708  78.689  0.00  0.00     0.274 HD
ATOM     93  H39 ALA d   1       8.156  20.826  77.442  0.00  0.00     0.274 HD
ATOM     94  H40 ALA d   1       8.046  20.259  78.983  0.00  0.00     0.274 HD
ENDBRANCH  88  91
ENDBRANCH  85  88
ENDBRANCH  82  85
ENDBRANCH  79  82
ENDBRANCH  25  79
ENDBRANCH  22  25
ENDBRANCH  19  21
BRANCH  19  95
ATOM     95  CB  ALA d   1      -1.005  20.125  79.309  0.00  0.00    -0.030 C 
ATOM     96  H43 ALA d   1      -1.391  20.874  80.016  0.00  0.00     0.037 H 
ATOM     97  H44 ALA d   1      -0.277  19.479  79.820  0.00  0.00     0.037 H 
BRANCH  95  98
ATOM     98  CG  ALA d   1      -2.188  19.255  78.775  0.00  0.00     0.011 C 
ATOM     99  H45 ALA d   1      -1.909  18.900  77.772  0.00  0.00     0.047 H 
ATOM    100  H46 ALA d   1      -3.070  19.909  78.700  0.00  0.00     0.047 H 
BRANCH  98 101
ATOM    101  CD  ALA d   1      -2.597  18.024  79.601  0.00  0.00     0.215 C 
ATOM    102  OE1 ALA d   1      -3.479  17.250  79.182  0.00  0.00    -0.274 OA
ATOM    103  NE2 ALA d   1      -1.966  17.825  80.742  0.00  0.00    -0.370 N 
ATOM    104  H47 ALA d   1      -2.200  17.037  81.312  0.00  0.00     0.159 HD
ATOM    105  H48 ALA d   1      -1.254  18.462  81.037  0.00  0.00     0.159 HD
ENDBRANCH  98 101
ENDBRANCH  95  98
ENDBRANCH  19  95
ENDBRANCH  16  19
ENDBRANCH  13  15
BRANCH  13 106
ATOM    106  CB  ALA d   1      -3.717  24.354  77.598  0.00  0.00     0.060 C 
ATOM    107  H51 ALA d   1      -4.542  24.690  76.952  0.00  0.00     0.086 H 
BRANCH 106 108
ATOM    108  OG1 ALA d   1      -2.902  25.488  77.911  0.00  0.00    -0.393 OA
ATOM    109  H52 ALA d   1      -2.578  25.876  77.106  0.00  0.00     0.210 HD
ENDBRANCH 106 108
BRANCH 106 110
ATOM    110  CG2 ALA d   1      -4.326  23.738  78.875  0.00  0.00    -0.050 C 
ATOM    111  H53 ALA d   1      -4.909  24.503  79.409  0.00  0.00     0.031 H 
ATOM    112  H54 ALA d   1      -3.519  23.372  79.526  0.00  0.00     0.031 H 
ATOM    113  H55 ALA d   1      -4.984  22.901  78.600  0.00  0.00     0.031 H 
ENDBRANCH 106 110
ENDBRANCH  13 106
ENDBRANCH  10  13
ENDBRANCH   7   9
BRANCH   7 114
ATOM    114  CB  ALA d   1       0.984  25.467  74.873  0.00  0.00    -0.049 C 
ATOM    115  H58 ALA d   1       1.503  25.854  73.983  0.00  0.00     0.030 H 
ATOM    116  H59 ALA d   1       1.619  24.720  75.372  0.00  0.00     0.030 H 
ATOM    117  H60 ALA d   1       0.779  26.296  75.567  0.00  0.00     0.030 H 
ENDBRANCH   7 114
ENDBRANCH   4   7
ENDBRANCH   1   3
BRANCH   1 118
ATOM    118  C   ALA d   1      -0.821  21.146  72.230  0.00  0.00     0.241 C 
ATOM    119  O   ALA d   1      -0.828  20.898  71.020  0.00  0.00    -0.271 OA
ATOM    120  N   ALA d   1      -1.927  21.161  72.963  0.00  0.00    -0.346 N 
ATOM    121  H74 ALA d   1      -1.878  21.422  73.927  0.00  0.00     0.163 HD
BRANCH 120 122
ATOM    122  CA  ALA d   1      -3.205  20.803  72.380  0.00  0.00     0.089 C 
ATOM    123  H75 ALA d   1      -3.079  19.853  71.840  0.00  0.00     0.087 H 
BRANCH 122 124
ATOM    124  C   ALA d   1      -3.715  21.839  71.403  0.00  0.00     0.241 C 
ATOM    125  O   ALA d   1      -4.478  21.496  70.500  0.00  0.00    -0.271 OA
ATOM    126  N   ALA d   1      -3.339  23.104  71.557  0.00  0.00    -0.344 N 
ATOM    127  H87 ALA d   1      -2.691  23.360  72.274  0.00  0.00     0.163 HD
BRANCH 126 128
ATOM    128  CA  ALA d   1      -3.890  24.106  70.662  0.00  0.00     0.109 C 
ATOM    129  H88 ALA d   1      -4.809  23.684  70.229  0.00  0.00     0.090 H 
BRANCH 128 130
ATOM    130  C   ALA d   1      -2.960  24.432  69.507  0.00  0.00     0.243 C 
ATOM    131  O   ALA d   1      -3.377  25.115  68.568  0.00  0.00    -0.271 OA
ATOM    132  N   ALA d   1      -1.743  23.904  69.528  0.00  0.00    -0.344 N 
ATOM    133  H92 ALA d   1      -1.480  23.364  70.328  0.00  0.00     0.163 HD
BRANCH 132 134
ATOM    134  CA  ALA d   1      -0.766  24.061  68.460  0.00  0.00     0.113 C 
ATOM    135  H93 ALA d   1      -1.169  24.690  67.652  0.00  0.00     0.091 H 
BRANCH 134 136
ATOM    136  C   ALA d   1      -0.532  22.634  67.971  0.00  0.00     0.243 C 
ATOM    137  O   ALA d   1       0.465  22.001  68.318  0.00  0.00    -0.271 OA
ATOM    138  N   ALA d   1      -1.498  22.113  67.218  0.00  0.00    -0.350 N 
ATOM    139  H99 ALA d   1      -2.293  22.673  66.985  0.00  0.00     0.163 HD
BRANCH 138 140
ATOM    140  CA  ALA d   1      -1.420  20.750  66.729  0.00  0.00     0.069 C 
ATOM    141 0H10 ALA d   1      -2.444  20.377  66.580  0.00  0.00     0.078 H 
ATOM    142 1H10 ALA d   1      -0.914  20.138  67.491  0.00  0.00     0.078 H 
BRANCH 140 143
ATOM    143  C   ALA d   1      -0.670  20.604  65.431  0.00  0.00     0.235 C 
ATOM    144  O   ALA d   1      -0.357  19.480  65.030  0.00  0.00    -0.272 OA
ATOM    145  N   ALA d   1      -0.349  21.716  64.781  0.00  0.00    -0.351 N 
ATOM    146 2H10 ALA d   1      -0.642  22.601  65.144  0.00  0.00     0.163 HD
BRANCH 145 147
ATOM    147  CA  ALA d   1       0.412  21.667  63.565  0.00  0.00     0.069 C 
ATOM    148 3H10 ALA d   1       0.219  22.581  62.985  0.00  0.00     0.078 H 
ATOM    149 4H10 ALA d   1       0.098  20.789  62.981  0.00  0.00     0.078 H 
BRANCH 147 150
ATOM    150  C   ALA d   1       1.892  21.566  63.845  0.00  0.00     0.236 C 
ATOM    151  O   ALA d   1       2.642  21.404  62.953  0.00  0.00    -0.272 OA
ATOM    152  N   ALA d   1       2.372  21.640  65.078  0.00  0.00    -0.346 N 
ATOM    153 8H11 ALA d   1       1.769  21.756  65.868  0.00  0.00     0.163 HD
BRANCH 152 154
ATOM    154  CA  ALA d   1       3.806  21.546  65.230  0.00  0.00     0.089 C 
ATOM    155 7H11 ALA d   1       4.244  22.223  64.482  0.00  0.00     0.087 H 
BRANCH 154 156
ATOM    156  CB  ALA d   1       4.357  21.998  66.591  0.00  0.00    -0.038 C 
ATOM    157 5H11 ALA d   1       4.159  23.075  66.698  0.00  0.00     0.036 H 
ATOM    158 6H11 ALA d   1       3.819  21.447  67.376  0.00  0.00     0.036 H 
BRANCH 156 159
ATOM    159  CG  ALA d   1       5.828  21.775  66.793  0.00  0.00    -0.061 C 
ATOM    160 3H11 ALA d   1       6.028  20.713  66.998  0.00  0.00     0.033 H 
ATOM    161 4H11 ALA d   1       6.387  22.087  65.899  0.00  0.00     0.033 H 
BRANCH 159 162
ATOM    162  CD  ALA d   1       6.220  22.612  67.968  0.00  0.00    -0.050 C 
ATOM    163 1H11 ALA d   1       5.956  23.667  67.806  0.00  0.00     0.035 H 
ATOM    164 2H11 ALA d   1       5.737  22.250  68.888  0.00  0.00     0.035 H 
BRANCH 162 165
ATOM    165  CE  ALA d   1       7.725  22.433  68.037  0.00  0.00    -0.005 C 
ATOM    166 9H10 ALA d   1       8.033  22.605  69.079  0.00  0.00     0.064 H 
ATOM    167 0H11 ALA d   1       7.949  21.394  67.756  0.00  0.00     0.064 H 
BRANCH 165 168
ATOM    168  NZ  ALA d   1       8.521  23.292  67.200  0.00  0.00    -0.361 N 
ATOM    169  CH  ALA d   1       8.799  24.616  67.459  0.00  0.00     0.213 C 
ATOM    170  OH  ALA d   1       8.289  25.041  68.465  0.00  0.00    -0.274 OA
ATOM    171 8H10 ALA d   1       8.902  22.896  66.365  0.00  0.00     0.162 HD
BRANCH 169 172
ATOM    172  CH3 ALA d   1       9.653  25.506  66.647  0.00  0.00    -0.003 C 
ATOM    173 5H10 ALA d   1      10.031  24.955  65.773  0.00  0.00     0.040 H 
ATOM    174 6H10 ALA d   1      10.501  25.855  67.255  0.00  0.00     0.040 H 
ATOM    175 7H10 ALA d   1       9.064  26.371  66.308  0.00  0.00     0.040 H 
ENDBRANCH 169 172
ENDBRANCH 165 168
ENDBRANCH 162 165
ENDBRANCH 159 162
ENDBRANCH 156 159
ENDBRANCH 154 156
BRANCH 154 176
ATOM    176  C   ALA d   1       4.263  20.146  64.891  0.00  0.00     0.241 C 
ATOM    177  O   ALA d   1       3.667  19.163  65.331  0.00  0.00    -0.271 OA
ATOM    178  N   ALA d   1       5.304  20.056  64.059  0.00  0.00    -0.345 N 
ATOM    179 9H11 ALA d   1       5.723  20.888  63.695  0.00  0.00     0.163 HD
BRANCH 178 180
ATOM    180  CA  ALA d   1       5.833  18.749  63.678  0.00  0.00     0.093 C 
ATOM    181 0H12 ALA d   1       5.156  18.312  62.929  0.00  0.00     0.089 H 
BRANCH 180 182
ATOM    182  C   ALA d   1       5.910  17.804  64.863  0.00  0.00     0.196 C 
ATOM    183  O   ALA d   1       6.698  18.028  65.780  0.00  0.00    -0.646 OA
ATOM    184  OXT ALA d   1       5.185  16.812  64.909  0.00  0.00    -0.646 OA
ENDBRANCH 180 182
BRANCH 180 185
ATOM    185  CB  ALA d   1       7.213  18.883  63.063  0.00  0.00    -0.048 C 
ATOM    186 1H12 ALA d   1       7.589  17.887  62.785  0.00  0.00     0.030 H 
ATOM    187 2H12 ALA d   1       7.896  19.342  63.792  0.00  0.00     0.030 H 
ATOM    188 3H12 ALA d   1       7.155  19.516  62.166  0.00  0.00     0.030 H 
ENDBRANCH 180 185
ENDBRANCH 178 180
ENDBRANCH 154 176
ENDBRANCH 152 154
ENDBRANCH 147 150
ENDBRANCH 145 147
ENDBRANCH 140 143
ENDBRANCH 138 140
ENDBRANCH 134 136
BRANCH 134 189
ATOM    189  CB  ALA d   1       0.533  24.679  68.985  0.00  0.00     0.060 C 
ATOM    190  H94 ALA d   1       1.164  24.952  68.126  0.00  0.00     0.086 H 
BRANCH 189 191
ATOM    191  OG1 ALA d   1       1.215  23.705  69.780  0.00  0.00    -0.393 OA
ATOM    192  H95 ALA d   1       1.411  22.944  69.247  0.00  0.00     0.210 HD
ENDBRANCH 189 191
BRANCH 189 193
ATOM    193  CG2 ALA d   1       0.286  25.936  69.826  0.00  0.00    -0.050 C 
ATOM    194  H96 ALA d   1       1.248  26.338  70.176  0.00  0.00     0.031 H 
ATOM    195  H97 ALA d   1      -0.342  25.680  70.692  0.00  0.00     0.031 H 
ATOM    196  H98 ALA d   1      -0.226  26.693  69.213  0.00  0.00     0.031 H 
ENDBRANCH 189 193
ENDBRANCH 134 189
ENDBRANCH 132 134
ENDBRANCH 128 130
BRANCH 128 197
ATOM    197  CB  ALA d   1      -4.284  25.370  71.428  0.00  0.00     0.044 C 
ATOM    198  H89 ALA d   1      -5.045  25.110  72.178  0.00  0.00     0.077 H 
ATOM    199  H90 ALA d   1      -4.702  26.101  70.720  0.00  0.00     0.077 H 
BRANCH 197 200
ATOM    200  OG  ALA d   1      -3.180  25.948  72.081  0.00  0.00    -0.398 OA
ATOM    201  H91 ALA d   1      -2.817  25.324  72.699  0.00  0.00     0.209 HD
ENDBRANCH 197 200
ENDBRANCH 128 197
ENDBRANCH 126 128
ENDBRANCH 122 124
BRANCH 122 202
ATOM    202  CB  ALA d   1      -4.239  20.610  73.476  0.00  0.00    -0.038 C 
ATOM    203  H76 ALA d   1      -5.215  20.411  73.010  0.00  0.00     0.036 H 
ATOM    204  H77 ALA d   1      -4.298  21.533  74.072  0.00  0.00     0.036 H 
BRANCH 202 205
ATOM    205  CG  ALA d   1      -3.902  19.474  74.384  0.00  0.00    -0.061 C 
ATOM    206  H78 ALA d   1      -2.905  19.638  74.819  0.00  0.00     0.033 H 
ATOM    207  H79 ALA d   1      -3.902  18.536  73.810  0.00  0.00     0.033 H 
BRANCH 205 208
ATOM    208  CD  ALA d   1      -4.916  19.384  75.485  0.00  0.00    -0.043 C 
ATOM    209  H80 ALA d   1      -5.924  19.452  75.049  0.00  0.00     0.035 H 
ATOM    210  H81 ALA d   1      -4.761  20.220  76.183  0.00  0.00     0.035 H 
BRANCH 208 211
ATOM    211  CE  ALA d   1      -4.797  18.096  76.235  0.00  0.00     0.080 C 
ATOM    212  H82 ALA d   1      -3.747  17.932  76.517  0.00  0.00     0.075 H 
ATOM    213  H83 ALA d   1      -5.139  17.267  75.597  0.00  0.00     0.075 H 
BRANCH 211 214
ATOM    214  NZ  ALA d   1      -5.632  18.156  77.455  0.00  0.00    -0.079 N 
ATOM    215  H84 ALA d   1      -5.551  17.288  77.960  0.00  0.00     0.274 HD
ATOM    216  H85 ALA d   1      -6.595  18.306  77.196  0.00  0.00     0.274 HD
ATOM    217  H86 ALA d   1      -5.319  18.915  78.040  0.00  0.00     0.274 HD
ENDBRANCH 211 214
ENDBRANCH 208 211
ENDBRANCH 205 208
ENDBRANCH 202 205
ENDBRANCH 122 202
ENDBRANCH 120 122
ENDBRANCH   1 118
BRANCH   1 218
ATOM    218  CB  ALA d   1       0.800  20.140  73.743  0.00  0.00    -0.036 C 
ATOM    219  H63 ALA d   1       0.047  19.380  73.485  0.00  0.00     0.036 H 
ATOM    220  H64 ALA d   1       0.732  20.375  74.816  0.00  0.00     0.036 H 
BRANCH 218 221
ATOM    221  CG  ALA d   1       2.133  19.561  73.490  0.00  0.00    -0.048 C 
ATOM    222  H65 ALA d   1       2.907  20.274  73.809  0.00  0.00     0.035 H 
ATOM    223  H66 ALA d   1       2.244  19.357  72.415  0.00  0.00     0.035 H 
BRANCH 221 224
ATOM    224  CD  ALA d   1       2.286  18.302  74.246  0.00  0.00     0.009 C 
ATOM    225  H67 ALA d   1       1.982  17.457  73.610  0.00  0.00     0.064 H 
ATOM    226  H68 ALA d   1       1.647  18.336  75.141  0.00  0.00     0.064 H 
BRANCH 224 227
ATOM    227  NE  ALA d   1       3.668  18.124  74.650  0.00  0.00    -0.227 N 
ATOM    228  CZ  ALA d   1       4.091  17.985  75.904  0.00  0.00     0.665 C 
ATOM    229  NH1 ALA d   1       3.253  18.021  76.927  0.00  0.00    -0.235 N 
ATOM    230  NH2 ALA d   1       5.381  17.794  76.127  0.00  0.00    -0.235 N 
ATOM    231  H70 ALA d   1       3.608  17.911  77.888  0.00  0.00     0.174 HD
ATOM    232  H71 ALA d   1       2.246  18.159  76.763  0.00  0.00     0.174 HD
ATOM    233  H72 ALA d   1       6.041  17.764  75.337  0.00  0.00     0.174 HD
ATOM    234  H73 ALA d   1       5.725  17.675  77.091  0.00  0.00     0.174 HD
ATOM    235  H69 ALA d   1       4.380  18.104  73.906  0.00  0.00     0.177 HD
ENDBRANCH 224 227
ENDBRANCH 221 224
ENDBRANCH 218 221
ENDBRANCH   1 218
TORSDOF 71
