REMARK WARNING: 32 MAX_TORS EXCEEDED!!!
REMARK  72 active torsions:
REMARK  status: ('A' for Active; 'I' for Inactive)
REMARK    1  A    between atoms: CA_2  and  N_1 
REMARK    2  A    between atoms: C_3  and  CA_2 
REMARK    3  A    between atoms: CA_2  and  CB_5 
REMARK       I    between atoms: N_6  and  C_3 
REMARK    4  A    between atoms: CA_7  and  N_6 
REMARK    5  A    between atoms: C_8  and  CA_7 
REMARK    6  A    between atoms: CA_7  and  CB_10 
REMARK       I    between atoms: N_17  and  C_8 
REMARK    7  A    between atoms: CB_10  and  CG_11 
REMARK    8  A    between atoms: CG_11  and  CD_12 
REMARK    9  A    between atoms: CD_12  and  NE_13 
REMARK       I    between atoms: NE_13  and  CZ_14 
REMARK       I    between atoms: CZ_14  and  NH1_15 
REMARK       I    between atoms: CZ_14  and  NH2_16 
REMARK   10  A    between atoms: CA_18  and  N_17 
REMARK   11  A    between atoms: C_19  and  CA_18 
REMARK   12  A    between atoms: CA_18  and  CB_21 
REMARK       I    between atoms: N_24  and  C_19 
REMARK   13  A    between atoms: CB_21  and  OG1_22 
REMARK   14  A    between atoms: CB_21  and  CG2_23 
REMARK   15  A    between atoms: CA_25  and  N_24 
REMARK   16  A    between atoms: CA_25  and  CB_26 
REMARK   17  A    between atoms: C_32  and  CA_25 
REMARK   18  A    between atoms: CB_26  and  CG_27 
REMARK   19  A    between atoms: CG_27  and  CD_28 
REMARK   20  A    between atoms: CD_28  and  CE_29 
REMARK   21  A    between atoms: CE_29  and  NZ_30 
REMARK   22  A    between atoms: NZ_30  and  CM_31 
REMARK       I    between atoms: N_34  and  C_32 
REMARK   23  A    between atoms: CA_35  and  N_34 
REMARK   24  A    between atoms: C_36  and  CA_35 
REMARK   25  A    between atoms: CA_35  and  CB_38 
REMARK       I    between atoms: N_43  and  C_36 
REMARK   26  A    between atoms: CB_38  and  CG_39 
REMARK   27  A    between atoms: CG_39  and  CD_40 
REMARK       I    between atoms: CD_40  and  NE2_42 
REMARK   28  A    between atoms: CA_44  and  N_43 
REMARK   29  A    between atoms: C_45  and  CA_44 
REMARK   30  A    between atoms: CA_44  and  CB_47 
REMARK       I    between atoms: N_50  and  C_45 
REMARK   31  A    between atoms: CB_47  and  OG1_48 
REMARK   32  A    between atoms: CB_47  and  CG2_49 
REMARK   33  A    between atoms: CA_51  and  N_50 
REMARK   34  A    between atoms: C_52  and  CA_51 
REMARK   35  A    between atoms: CA_51  and  CB_54 
REMARK       I    between atoms: N_55  and  C_52 
REMARK   36  A    between atoms: CA_56  and  N_55 
REMARK   37  A    between atoms: C_57  and  CA_56 
REMARK   38  A    between atoms: CA_56  and  CB_59 
REMARK       I    between atoms: N_66  and  C_57 
REMARK   39  A    between atoms: CB_59  and  CG_60 
REMARK   40  A    between atoms: CG_60  and  CD_61 
REMARK   41  A    between atoms: CD_61  and  NE_62 
REMARK       I    between atoms: NE_62  and  CZ_63 
REMARK       I    between atoms: CZ_63  and  NH1_64 
REMARK   42  A    between atoms: CA_67  and  N_66 
REMARK   43  A    between atoms: C_68  and  CA_67 
REMARK   44  A    between atoms: CA_67  and  CB_70 
REMARK       I    between atoms: N_75  and  C_68 
REMARK   45  A    between atoms: CB_70  and  CG_71 
REMARK   46  A    between atoms: CG_71  and  CD_72 
REMARK   47  A    between atoms: CD_72  and  CE_73 
REMARK   48  A    between atoms: CE_73  and  NZ_74 
REMARK   49  A    between atoms: CA_76  and  N_75 
REMARK   50  A    between atoms: C_77  and  CA_76 
REMARK   51  A    between atoms: CA_76  and  CB_79 
REMARK       I    between atoms: N_81  and  C_77 
REMARK   52  A    between atoms: CB_79  and  OG_80 
REMARK   53  A    between atoms: CA_82  and  N_81 
REMARK   54  A    between atoms: C_83  and  CA_82 
REMARK   55  A    between atoms: CA_82  and  CB_85 
REMARK       I    between atoms: N_88  and  C_83 
REMARK   56  A    between atoms: CB_85  and  OG1_86 
REMARK   57  A    between atoms: CB_85  and  CG2_87 
REMARK   58  A    between atoms: CA_89  and  N_88 
REMARK   59  A    between atoms: C_90  and  CA_89 
REMARK       I    between atoms: N_92  and  C_90 
REMARK   60  A    between atoms: CA_93  and  N_92 
REMARK   61  A    between atoms: C_94  and  CA_93 
REMARK       I    between atoms: N_105  and  C_94 
REMARK   62  A    between atoms: CH_97  and  CH3_98 
REMARK       I    between atoms: NZ_99  and  CH_97 
REMARK   63  A    between atoms: CE_100  and  NZ_99 
REMARK   64  A    between atoms: CD_101  and  CE_100 
REMARK   65  A    between atoms: CG_102  and  CD_101 
REMARK   66  A    between atoms: CB_103  and  CG_102 
REMARK   67  A    between atoms: CA_104  and  CB_103 
REMARK   68  A    between atoms: CA_104  and  N_105 
REMARK   69  A    between atoms: CA_104  and  C_106 
REMARK       I    between atoms: C_106  and  N_108 
REMARK   70  A    between atoms: N_108  and  CA_109 
REMARK   71  A    between atoms: CA_109  and  C_110 
REMARK   72  A    between atoms: CA_109  and  CB_112 
ROOT
ATOM      1  CA  ALA d   1       0.438  21.297  72.985  0.00  0.00     0.089 C 
ATOM      2  H64 ALA d   1       1.235  21.508  72.257  0.00  0.00     0.087 H 
ENDROOT
BRANCH   1   3
ATOM      3  N   ALA d   1       0.289  22.437  73.882  0.00  0.00    -0.346 N 
ATOM      4  C   ALA d   1      -0.082  23.623  73.412  0.00  0.00     0.240 C 
ATOM      5  O   ALA d   1      -0.217  23.839  72.202  0.00  0.00    -0.271 OA
ATOM      6  H63 ALA d   1       0.468  22.325  74.859  0.00  0.00     0.163 HD
BRANCH   4   7
ATOM      7  CA  ALA d   1      -0.321  24.734  74.423  0.00  0.00     0.086 C 
ATOM      8  H59 ALA d   1      -0.956  25.498  73.951  0.00  0.00     0.086 H 
BRANCH   7   9
ATOM      9  N   ALA d   1      -0.998  24.232  75.608  0.00  0.00    -0.346 N 
ATOM     10  C   ALA d   1      -2.251  23.789  75.530  0.00  0.00     0.243 C 
ATOM     11  O   ALA d   1      -2.875  23.770  74.467  0.00  0.00    -0.271 OA
ATOM     12  H58 ALA d   1      -0.520  24.220  76.486  0.00  0.00     0.163 HD
BRANCH  10  13
ATOM     13  CA  ALA d   1      -2.890  23.251  76.799  0.00  0.00     0.113 C 
ATOM     14  H52 ALA d   1      -3.612  22.477  76.501  0.00  0.00     0.091 H 
BRANCH  13  15
ATOM     15  N   ALA d   1      -1.896  22.612  77.655  0.00  0.00    -0.344 N 
ATOM     16  C   ALA d   1      -1.350  21.470  77.237  0.00  0.00     0.241 C 
ATOM     17  O   ALA d   1      -1.662  20.965  76.160  0.00  0.00    -0.271 OA
ATOM     18  H51 ALA d   1      -1.632  23.019  78.530  0.00  0.00     0.163 HD
BRANCH  16  19
ATOM     19  CA  ALA d   1      -0.326  20.781  78.137  0.00  0.00     0.090 C 
ATOM     20  H44 ALA d   1       0.166  19.993  77.547  0.00  0.00     0.087 H 
BRANCH  19  21
ATOM     21  N   ALA d   1       0.688  21.701  78.593  0.00  0.00    -0.346 N 
ATOM     22  C   ALA d   1       1.485  22.293  77.720  0.00  0.00     0.241 C 
ATOM     23  O   ALA d   1       1.408  22.090  76.489  0.00  0.00    -0.271 OA
ATOM     24  H43 ALA d   1       0.788  21.891  79.570  0.00  0.00     0.163 HD
BRANCH  22  25
ATOM     25  CA  ALA d   1       2.564  23.221  78.287  0.00  0.00     0.089 C 
ATOM     26  H29 ALA d   1       2.950  23.859  77.478  0.00  0.00     0.087 H 
BRANCH  25  27
ATOM     27  N   ALA d   1       1.973  24.043  79.310  0.00  0.00    -0.346 N 
ATOM     28  C   ALA d   1       0.896  24.773  79.045  0.00  0.00     0.243 C 
ATOM     29  O   ALA d   1       0.397  24.823  77.917  0.00  0.00    -0.271 OA
ATOM     30  H28 ALA d   1       2.376  24.064  80.225  0.00  0.00     0.163 HD
BRANCH  28  31
ATOM     31  CA  ALA d   1       0.267  25.535  80.192  0.00  0.00     0.113 C 
ATOM     32  H22 ALA d   1       1.026  26.146  80.703  0.00  0.00     0.091 H 
BRANCH  31  33
ATOM     33  N   ALA d   1      -0.764  26.408  79.653  0.00  0.00    -0.344 N 
ATOM     34  C   ALA d   1      -0.655  27.732  79.700  0.00  0.00     0.241 C 
ATOM     35  O   ALA d   1       0.133  28.313  80.448  0.00  0.00    -0.271 OA
ATOM     36  H21 ALA d   1      -1.577  26.001  79.236  0.00  0.00     0.163 HD
BRANCH  34  37
ATOM     37  CA  ALA d   1      -1.532  28.519  78.737  0.00  0.00     0.089 C 
ATOM     38  H9  ALA d   1      -2.356  27.882  78.384  0.00  0.00     0.087 H 
BRANCH  37  39
ATOM     39  N   ALA d   1      -2.079  29.680  79.415  0.00  0.00    -0.346 N 
ATOM     40  C   ALA d   1      -3.343  29.753  79.783  0.00  0.00     0.248 C 
ATOM     41  O   ALA d   1      -4.144  28.844  79.605  0.00  0.00    -0.271 OA
ATOM     42  H8  ALA d   1      -1.475  30.453  79.610  0.00  0.00     0.163 HD
BRANCH  40  43
ATOM     43  CA  ALA d   1      -3.748  31.040  80.463  0.00  0.00     0.172 C 
ATOM     44  H4  ALA d   1      -3.208  31.872  79.987  0.00  0.00     0.098 H 
BRANCH  43  45
ATOM     45  N   ALA d   1      -5.217  31.296  80.325  0.00  0.00    -0.067 N 
ATOM     46  H1  ALA d   1      -5.452  32.160  80.788  0.00  0.00     0.275 HD
ATOM     47  H2  ALA d   1      -5.731  30.538  80.746  0.00  0.00     0.275 HD
ATOM     48  H3  ALA d   1      -5.456  31.363  79.348  0.00  0.00     0.275 HD
ENDBRANCH  43  45
BRANCH  43  49
ATOM     49  CB  ALA d   1      -3.353  30.976  81.922  0.00  0.00    -0.042 C 
ATOM     50  H5  ALA d   1      -2.272  30.788  82.001  0.00  0.00     0.030 H 
ATOM     51  H6  ALA d   1      -3.904  30.162  82.416  0.00  0.00     0.030 H 
ATOM     52  H7  ALA d   1      -3.595  31.932  82.410  0.00  0.00     0.030 H 
ENDBRANCH  43  49
ENDBRANCH  40  43
ENDBRANCH  37  39
BRANCH  37  53
ATOM     53  CB  ALA d   1      -0.682  28.956  77.549  0.00  0.00    -0.036 C 
ATOM     54  H10 ALA d   1      -0.219  28.059  77.111  0.00  0.00     0.036 H 
ATOM     55  H11 ALA d   1       0.104  29.630  77.920  0.00  0.00     0.036 H 
BRANCH  53  56
ATOM     56  CG  ALA d   1      -1.441  29.675  76.455  0.00  0.00    -0.048 C 
ATOM     57  H12 ALA d   1      -1.940  30.561  76.875  0.00  0.00     0.035 H 
ATOM     58  H13 ALA d   1      -2.194  28.999  76.025  0.00  0.00     0.035 H 
BRANCH  56  59
ATOM     59  CD  ALA d   1      -0.481  30.101  75.386  0.00  0.00     0.009 C 
ATOM     60  H14 ALA d   1      -1.034  30.586  74.568  0.00  0.00     0.064 H 
ATOM     61  H15 ALA d   1       0.051  29.220  74.998  0.00  0.00     0.064 H 
BRANCH  59  62
ATOM     62  NE  ALA d   1       0.478  31.038  75.945  0.00  0.00    -0.227 N 
ATOM     63  CZ  ALA d   1       1.766  31.068  75.628  0.00  0.00     0.665 C 
ATOM     64  NH1 ALA d   1       2.282  30.209  74.755  0.00  0.00    -0.235 N 
ATOM     65  NH2 ALA d   1       2.559  31.961  76.187  0.00  0.00    -0.235 N 
ATOM     66  H17 ALA d   1       3.285  30.250  74.523  0.00  0.00     0.174 HD
ATOM     67  H18 ALA d   1       1.679  29.502  74.310  0.00  0.00     0.174 HD
ATOM     68  H19 ALA d   1       2.178  32.635  76.866  0.00  0.00     0.174 HD
ATOM     69  H20 ALA d   1       3.560  31.984  75.945  0.00  0.00     0.174 HD
ATOM     70  H16 ALA d   1       0.136  31.724  76.633  0.00  0.00     0.177 HD
ENDBRANCH  59  62
ENDBRANCH  56  59
ENDBRANCH  53  56
ENDBRANCH  37  53
ENDBRANCH  34  37
ENDBRANCH  31  33
BRANCH  31  71
ATOM     71  CB  ALA d   1      -0.288  24.508  81.164  0.00  0.00     0.060 C 
ATOM     72  H23 ALA d   1       0.547  23.924  81.578  0.00  0.00     0.086 H 
BRANCH  71  73
ATOM     73  OG1 ALA d   1      -1.167  23.624  80.457  0.00  0.00    -0.393 OA
ATOM     74  H24 ALA d   1      -1.518  22.979  81.060  0.00  0.00     0.210 HD
ENDBRANCH  71  73
BRANCH  71  75
ATOM     75  CG2 ALA d   1      -1.022  25.191  82.320  0.00  0.00    -0.050 C 
ATOM     76  H25 ALA d   1      -1.413  24.427  83.008  0.00  0.00     0.031 H 
ATOM     77  H26 ALA d   1      -1.856  25.789  81.923  0.00  0.00     0.031 H 
ATOM     78  H27 ALA d   1      -0.325  25.848  82.860  0.00  0.00     0.031 H 
ENDBRANCH  71  75
ENDBRANCH  31  71
ENDBRANCH  28  31
ENDBRANCH  25  27
BRANCH  25  79
ATOM     79  CB  ALA d   1       3.721  22.435  78.893  0.00  0.00    -0.038 C 
ATOM     80  H30 ALA d   1       3.354  21.788  79.704  0.00  0.00     0.036 H 
ATOM     81  H31 ALA d   1       4.479  23.126  79.290  0.00  0.00     0.036 H 
BRANCH  79  82
ATOM     82  CG  ALA d   1       4.318  21.589  77.781  0.00  0.00    -0.061 C 
ATOM     83  H32 ALA d   1       4.611  22.254  76.955  0.00  0.00     0.033 H 
ATOM     84  H33 ALA d   1       3.551  20.884  77.429  0.00  0.00     0.033 H 
BRANCH  82  85
ATOM     85  CD  ALA d   1       5.541  20.794  78.219  0.00  0.00    -0.043 C 
ATOM     86  H34 ALA d   1       5.819  20.096  77.416  0.00  0.00     0.035 H 
ATOM     87  H35 ALA d   1       5.290  20.227  79.127  0.00  0.00     0.035 H 
BRANCH  85  88
ATOM     88  CE  ALA d   1       6.729  21.702  78.516  0.00  0.00     0.081 C 
ATOM     89  H36 ALA d   1       6.678  22.013  79.570  0.00  0.00     0.075 H 
ATOM     90  H37 ALA d   1       6.664  22.589  77.869  0.00  0.00     0.075 H 
BRANCH  88  91
ATOM     91  NZ  ALA d   1       8.013  21.050  78.284  0.00  0.00    -0.079 N 
ATOM     92  H38 ALA d   1       8.749  21.640  78.639  0.00  0.00     0.276 HD
ATOM     93  H39 ALA d   1       8.138  20.917  77.293  0.00  0.00     0.276 HD
BRANCH  91  94
ATOM     94  CM  ALA d   1       8.084  19.757  78.946  0.00  0.00     0.065 C 
ATOM     95  H40 ALA d   1       9.064  19.297  78.749  0.00  0.00     0.067 H 
ATOM     96  H41 ALA d   1       7.288  19.103  78.560  0.00  0.00     0.067 H 
ATOM     97  H42 ALA d   1       7.954  19.892  80.030  0.00  0.00     0.067 H 
ENDBRANCH  91  94
ENDBRANCH  88  91
ENDBRANCH  85  88
ENDBRANCH  82  85
ENDBRANCH  79  82
ENDBRANCH  25  79
ENDBRANCH  22  25
ENDBRANCH  19  21
BRANCH  19  98
ATOM     98  CB  ALA d   1      -1.000  20.130  79.336  0.00  0.00    -0.030 C 
ATOM     99  H45 ALA d   1      -1.452  20.924  79.949  0.00  0.00     0.037 H 
ATOM    100  H46 ALA d   1      -0.229  19.609  79.922  0.00  0.00     0.037 H 
BRANCH  98 101
ATOM    101  CG  ALA d   1      -2.088  19.126  78.984  0.00  0.00     0.011 C 
ATOM    102  H47 ALA d   1      -1.683  18.409  78.255  0.00  0.00     0.047 H 
ATOM    103  H48 ALA d   1      -2.935  19.666  78.536  0.00  0.00     0.047 H 
BRANCH 101 104
ATOM    104  CD  ALA d   1      -2.590  18.354  80.204  0.00  0.00     0.215 C 
ATOM    105  OE1 ALA d   1      -1.829  17.668  80.871  0.00  0.00    -0.274 OA
ATOM    106  NE2 ALA d   1      -3.888  18.442  80.470  0.00  0.00    -0.370 N 
ATOM    107  H49 ALA d   1      -4.271  17.957  81.256  0.00  0.00     0.159 HD
ATOM    108  H50 ALA d   1      -4.482  18.993  79.884  0.00  0.00     0.159 HD
ENDBRANCH 101 104
ENDBRANCH  98 101
ENDBRANCH  19  98
ENDBRANCH  16  19
ENDBRANCH  13  15
BRANCH  13 109
ATOM    109  CB  ALA d   1      -3.675  24.342  77.546  0.00  0.00     0.060 C 
ATOM    110  H53 ALA d   1      -4.494  24.684  76.896  0.00  0.00     0.086 H 
BRANCH 109 111
ATOM    111  OG1 ALA d   1      -2.824  25.459  77.827  0.00  0.00    -0.393 OA
ATOM    112  H54 ALA d   1      -2.493  25.817  77.011  0.00  0.00     0.210 HD
ENDBRANCH 109 111
BRANCH 109 113
ATOM    113  CG2 ALA d   1      -4.286  23.794  78.837  0.00  0.00    -0.050 C 
ATOM    114  H55 ALA d   1      -4.840  24.595  79.349  0.00  0.00     0.031 H 
ATOM    115  H56 ALA d   1      -3.485  23.425  79.494  0.00  0.00     0.031 H 
ATOM    116  H57 ALA d   1      -4.973  22.969  78.596  0.00  0.00     0.031 H 
ENDBRANCH 109 113
ENDBRANCH  13 109
ENDBRANCH  10  13
ENDBRANCH   7   9
BRANCH   7 117
ATOM    117  CB  ALA d   1       0.988  25.380  74.847  0.00  0.00    -0.049 C 
ATOM    118  H60 ALA d   1       1.511  25.765  73.959  0.00  0.00     0.030 H 
ATOM    119  H61 ALA d   1       1.620  24.633  75.350  0.00  0.00     0.030 H 
ATOM    120  H62 ALA d   1       0.780  26.210  75.538  0.00  0.00     0.030 H 
ENDBRANCH   7 117
ENDBRANCH   4   7
ENDBRANCH   1   3
BRANCH   1 121
ATOM    121  C   ALA d   1      -0.858  21.023  72.252  0.00  0.00     0.241 C 
ATOM    122  O   ALA d   1      -0.859  20.751  71.047  0.00  0.00    -0.271 OA
ATOM    123  N   ALA d   1      -1.973  21.078  72.973  0.00  0.00    -0.346 N 
ATOM    124  H76 ALA d   1      -1.929  21.388  73.923  0.00  0.00     0.163 HD
BRANCH 123 125
ATOM    125  CA  ALA d   1      -3.255  20.695  72.405  0.00  0.00     0.089 C 
ATOM    126  H77 ALA d   1      -3.126  19.737  71.880  0.00  0.00     0.087 H 
BRANCH 125 127
ATOM    127  C   ALA d   1      -3.771  21.718  71.412  0.00  0.00     0.241 C 
ATOM    128  O   ALA d   1      -4.542  21.364  70.517  0.00  0.00    -0.271 OA
ATOM    129  N   ALA d   1      -3.389  22.981  71.552  0.00  0.00    -0.344 N 
ATOM    130  H89 ALA d   1      -2.746  23.229  72.276  0.00  0.00     0.163 HD
BRANCH 129 131
ATOM    131  CA  ALA d   1      -3.901  24.008  70.657  0.00  0.00     0.109 C 
ATOM    132  H90 ALA d   1      -4.834  23.628  70.216  0.00  0.00     0.090 H 
BRANCH 131 133
ATOM    133  C   ALA d   1      -2.946  24.320  69.518  0.00  0.00     0.243 C 
ATOM    134  O   ALA d   1      -3.320  25.051  68.595  0.00  0.00    -0.271 OA
ATOM    135  N   ALA d   1      -1.739  23.773  69.558  0.00  0.00    -0.344 N 
ATOM    136  H94 ALA d   1      -1.492  23.231  70.361  0.00  0.00     0.163 HD
BRANCH 135 137
ATOM    137  CA  ALA d   1      -0.754  23.919  68.495  0.00  0.00     0.113 C 
ATOM    138  H95 ALA d   1      -1.160  24.565  67.702  0.00  0.00     0.091 H 
BRANCH 137 139
ATOM    139  C   ALA d   1      -0.483  22.529  67.922  0.00  0.00     0.243 C 
ATOM    140  O   ALA d   1       0.596  21.960  68.109  0.00  0.00    -0.271 OA
ATOM    141  N   ALA d   1      -1.479  21.975  67.229  0.00  0.00    -0.350 N 
ATOM    142 1H10 ALA d   1      -2.331  22.482  67.096  0.00  0.00     0.163 HD
BRANCH 141 143
ATOM    143  CA  ALA d   1      -1.340  20.644  66.666  0.00  0.00     0.069 C 
ATOM    144 2H10 ALA d   1      -2.343  20.273  66.409  0.00  0.00     0.078 H 
ATOM    145 3H10 ALA d   1      -0.893  19.992  67.431  0.00  0.00     0.078 H 
BRANCH 143 146
ATOM    146  C   ALA d   1      -0.478  20.576  65.424  0.00  0.00     0.235 C 
ATOM    147  O   ALA d   1       0.012  19.493  65.081  0.00  0.00    -0.272 OA
ATOM    148  N   ALA d   1      -0.272  21.705  64.751  0.00  0.00    -0.351 N 
ATOM    149 4H10 ALA d   1      -0.622  22.564  65.124  0.00  0.00     0.163 HD
BRANCH 148 150
ATOM    150  CA  ALA d   1       0.447  21.725  63.489  0.00  0.00     0.069 C 
ATOM    151 5H10 ALA d   1       0.233  22.680  62.987  0.00  0.00     0.078 H 
ATOM    152 6H10 ALA d   1       0.077  20.894  62.870  0.00  0.00     0.078 H 
BRANCH 150 153
ATOM    153  C   ALA d   1       1.951  21.585  63.620  0.00  0.00     0.236 C 
ATOM    154  O   ALA d   1       2.655  21.503  62.614  0.00  0.00    -0.272 OA
ATOM    155  N   ALA d   1       2.444  21.548  64.856  0.00  0.00    -0.346 N 
ATOM    156 0H12 ALA d   1       1.813  21.581  65.631  0.00  0.00     0.163 HD
BRANCH 155 157
ATOM    157  CA  ALA d   1       3.865  21.462  65.112  0.00  0.00     0.089 C 
ATOM    158 9H11 ALA d   1       4.370  22.149  64.417  0.00  0.00     0.087 H 
BRANCH 157 159
ATOM    159  CB  ALA d   1       4.324  21.825  66.539  0.00  0.00    -0.038 C 
ATOM    160 7H11 ALA d   1       3.964  22.837  66.776  0.00  0.00     0.036 H 
ATOM    161 8H11 ALA d   1       3.883  21.104  67.243  0.00  0.00     0.036 H 
BRANCH 159 162
ATOM    162  CG  ALA d   1       5.826  21.798  66.700  0.00  0.00    -0.061 C 
ATOM    163 5H11 ALA d   1       6.161  20.755  66.799  0.00  0.00     0.033 H 
ATOM    164 6H11 ALA d   1       6.293  22.251  65.813  0.00  0.00     0.033 H 
BRANCH 162 165
ATOM    165  CD  ALA d   1       6.240  22.573  67.932  0.00  0.00    -0.050 C 
ATOM    166 3H11 ALA d   1       5.974  23.633  67.808  0.00  0.00     0.035 H 
ATOM    167 4H11 ALA d   1       5.725  22.166  68.814  0.00  0.00     0.035 H 
BRANCH 165 168
ATOM    168  CE  ALA d   1       7.752  22.442  68.115  0.00  0.00    -0.005 C 
ATOM    169 1H11 ALA d   1       7.982  22.616  69.177  0.00  0.00     0.064 H 
ATOM    170 2H11 ALA d   1       8.040  21.417  67.840  0.00  0.00     0.064 H 
BRANCH 168 171
ATOM    171  NZ  ALA d   1       8.544  23.351  67.334  0.00  0.00    -0.361 N 
ATOM    172  CH  ALA d   1       8.721  24.693  67.610  0.00  0.00     0.213 C 
ATOM    173  OH  ALA d   1       8.191  25.268  68.571  0.00  0.00    -0.274 OA
ATOM    174 0H11 ALA d   1       9.004  22.983  66.526  0.00  0.00     0.162 HD
BRANCH 172 175
ATOM    175  CH3 ALA d   1       9.601  25.479  66.685  0.00  0.00    -0.003 C 
ATOM    176 7H10 ALA d   1       9.985  24.818  65.894  0.00  0.00     0.040 H 
ATOM    177 8H10 ALA d   1      10.444  25.901  67.251  0.00  0.00     0.040 H 
ATOM    178 9H10 ALA d   1       9.020  26.295  66.231  0.00  0.00     0.040 H 
ENDBRANCH 172 175
ENDBRANCH 168 171
ENDBRANCH 165 168
ENDBRANCH 162 165
ENDBRANCH 159 162
ENDBRANCH 157 159
BRANCH 157 179
ATOM    179  C   ALA d   1       4.309  20.040  64.819  0.00  0.00     0.241 C 
ATOM    180  O   ALA d   1       3.766  19.045  65.309  0.00  0.00    -0.271 OA
ATOM    181  N   ALA d   1       5.329  19.944  63.968  0.00  0.00    -0.345 N 
ATOM    182 1H12 ALA d   1       5.737  20.783  63.607  0.00  0.00     0.163 HD
BRANCH 181 183
ATOM    183  CA  ALA d   1       5.874  18.655  63.542  0.00  0.00     0.093 C 
ATOM    184 2H12 ALA d   1       5.152  18.182  62.860  0.00  0.00     0.089 H 
BRANCH 183 185
ATOM    185  C   ALA d   1       6.086  17.731  64.734  0.00  0.00     0.196 C 
ATOM    186  O   ALA d   1       6.809  18.069  65.670  0.00  0.00    -0.646 OA
ATOM    187  OXT ALA d   1       5.538  16.631  64.781  0.00  0.00    -0.646 OA
ENDBRANCH 183 185
BRANCH 183 188
ATOM    188  CB  ALA d   1       7.189  18.857  62.794  0.00  0.00    -0.048 C 
ATOM    189 3H12 ALA d   1       7.586  17.880  62.480  0.00  0.00     0.030 H 
ATOM    190 4H12 ALA d   1       7.915  19.353  63.456  0.00  0.00     0.030 H 
ATOM    191 5H12 ALA d   1       7.014  19.483  61.907  0.00  0.00     0.030 H 
ENDBRANCH 183 188
ENDBRANCH 181 183
ENDBRANCH 157 179
ENDBRANCH 155 157
ENDBRANCH 150 153
ENDBRANCH 148 150
ENDBRANCH 143 146
ENDBRANCH 141 143
ENDBRANCH 137 139
BRANCH 137 192
ATOM    192  CB  ALA d   1       0.524  24.563  69.050  0.00  0.00     0.060 C 
ATOM    193  H96 ALA d   1       1.168  24.864  68.210  0.00  0.00     0.086 H 
BRANCH 192 194
ATOM    194  OG1 ALA d   1       1.221  23.609  69.863  0.00  0.00    -0.393 OA
ATOM    195  H97 ALA d   1       1.449  22.852  69.336  0.00  0.00     0.210 HD
ENDBRANCH 192 194
BRANCH 192 196
ATOM    196  CG2 ALA d   1       0.189  25.801  69.890  0.00  0.00    -0.050 C 
ATOM    197  H98 ALA d   1       1.119  26.244  70.276  0.00  0.00     0.031 H 
ATOM    198  H99 ALA d   1      -0.456  25.509  70.732  0.00  0.00     0.031 H 
ATOM    199 0H10 ALA d   1      -0.336  26.538  69.264  0.00  0.00     0.031 H 
ENDBRANCH 192 196
ENDBRANCH 137 192
ENDBRANCH 135 137
ENDBRANCH 131 133
BRANCH 131 200
ATOM    200  CB  ALA d   1      -4.229  25.285  71.433  0.00  0.00     0.044 C 
ATOM    201  H91 ALA d   1      -4.985  25.057  72.198  0.00  0.00     0.077 H 
ATOM    202  H92 ALA d   1      -4.627  26.038  70.737  0.00  0.00     0.077 H 
BRANCH 200 203
ATOM    203  OG  ALA d   1      -3.076  25.802  72.062  0.00  0.00    -0.398 OA
ATOM    204  H93 ALA d   1      -2.730  25.156  72.667  0.00  0.00     0.209 HD
ENDBRANCH 200 203
ENDBRANCH 131 200
ENDBRANCH 129 131
ENDBRANCH 125 127
BRANCH 125 205
ATOM    205  CB  ALA d   1      -4.284  20.513  73.515  0.00  0.00    -0.038 C 
ATOM    206  H78 ALA d   1      -5.271  20.360  73.054  0.00  0.00     0.036 H 
ATOM    207  H79 ALA d   1      -4.303  21.427  74.126  0.00  0.00     0.036 H 
BRANCH 205 208
ATOM    208  CG  ALA d   1      -3.994  19.347  74.413  0.00  0.00    -0.061 C 
ATOM    209  H80 ALA d   1      -2.981  19.449  74.828  0.00  0.00     0.033 H 
ATOM    210  H81 ALA d   1      -4.061  18.415  73.833  0.00  0.00     0.033 H 
BRANCH 208 211
ATOM    211  CD  ALA d   1      -4.988  19.308  75.533  0.00  0.00    -0.043 C 
ATOM    212  H82 ALA d   1      -6.005  19.328  75.115  0.00  0.00     0.035 H 
ATOM    213  H83 ALA d   1      -4.840  20.186  76.180  0.00  0.00     0.035 H 
BRANCH 211 214
ATOM    214  CE  ALA d   1      -4.812  18.062  76.345  0.00  0.00     0.080 C 
ATOM    215  H84 ALA d   1      -3.762  17.978  76.662  0.00  0.00     0.075 H 
ATOM    216  H85 ALA d   1      -5.082  17.188  75.735  0.00  0.00     0.075 H 
BRANCH 214 217
ATOM    217  NZ  ALA d   1      -5.678  18.113  77.535  0.00  0.00    -0.079 N 
ATOM    218  H86 ALA d   1      -5.555  17.272  78.077  0.00  0.00     0.274 HD
ATOM    219  H87 ALA d   1      -6.641  18.189  77.247  0.00  0.00     0.274 HD
ATOM    220  H88 ALA d   1      -5.431  18.913  78.096  0.00  0.00     0.274 HD
ENDBRANCH 214 217
ENDBRANCH 211 214
ENDBRANCH 208 211
ENDBRANCH 205 208
ENDBRANCH 125 205
ENDBRANCH 123 125
ENDBRANCH   1 121
BRANCH   1 221
ATOM    221  CB  ALA d   1       0.797  20.062  73.798  0.00  0.00    -0.036 C 
ATOM    222  H65 ALA d   1       0.050  19.284  73.584  0.00  0.00     0.036 H 
ATOM    223  H66 ALA d   1       0.752  20.330  74.864  0.00  0.00     0.036 H 
BRANCH 221 224
ATOM    224  CG  ALA d   1       2.141  19.498  73.522  0.00  0.00    -0.048 C 
ATOM    225  H67 ALA d   1       2.912  20.222  73.826  0.00  0.00     0.035 H 
ATOM    226  H68 ALA d   1       2.237  19.290  72.446  0.00  0.00     0.035 H 
BRANCH 224 227
ATOM    227  CD  ALA d   1       2.316  18.241  74.285  0.00  0.00     0.009 C 
ATOM    228  H69 ALA d   1       2.035  17.392  73.644  0.00  0.00     0.064 H 
ATOM    229  H70 ALA d   1       1.661  18.266  75.169  0.00  0.00     0.064 H 
BRANCH 227 230
ATOM    230  NE  ALA d   1       3.689  18.067  74.721  0.00  0.00    -0.227 N 
ATOM    231  CZ  ALA d   1       4.076  17.905  75.984  0.00  0.00     0.665 C 
ATOM    232  NH1 ALA d   1       3.199  17.889  76.980  0.00  0.00    -0.235 N 
ATOM    233  NH2 ALA d   1       5.363  17.744  76.247  0.00  0.00    -0.235 N 
ATOM    234  H72 ALA d   1       3.523  17.762  77.950  0.00  0.00     0.174 HD
ATOM    235  H73 ALA d   1       2.194  18.003  76.784  0.00  0.00     0.174 HD
ATOM    236  H74 ALA d   1       6.051  17.755  75.480  0.00  0.00     0.174 HD
ATOM    237  H75 ALA d   1       5.677  17.608  77.219  0.00  0.00     0.174 HD
ATOM    238  H71 ALA d   1       4.421  18.069  73.996  0.00  0.00     0.177 HD
ENDBRANCH 227 230
ENDBRANCH 224 227
ENDBRANCH 221 224
ENDBRANCH   1 221
TORSDOF 72
