REMARK  9 active torsions:
REMARK  status: ('A' for Active; 'I' for Inactive)
REMARK    1  A    between atoms: C18_2  and  C3_15 
REMARK    2  A    between atoms: C6_18  and  C15_3 
REMARK       I    between atoms: C15_3  and  N17_25 
REMARK    3  A    between atoms: N25_27  and  C22_7 
REMARK    4  A    between atoms: C23_8  and  C41_41 
REMARK    5  A    between atoms: C11_9  and  C14_23 
REMARK    6  A    between atoms: C14_23  and  O24_26 
REMARK    7  A    between atoms: C14_23  and  C39_39 
REMARK    8  A    between atoms: C14_23  and  C40_40 
REMARK    9  A    between atoms: N27_29  and  C42_42 
ROOT
ATOM      1  C13 73T d   1       6.447 -14.366  -4.450  0.00  0.00    -0.038 C 
ATOM      2  C11 73T d   1       5.258 -16.272  -5.608  0.00  0.00    -0.020 C 
ATOM      3  C12 73T d   1       6.166 -15.055  -5.766  0.00  0.00    -0.055 C 
ATOM      4  C1  73T d   1       3.374 -13.332  -2.505  0.00  0.00     0.060 A 
ATOM      5  C2  73T d   1       4.808 -13.224  -2.732  0.00  0.00     0.014 A 
ATOM      6  C3  73T d   1       5.521 -12.364  -1.908  0.00  0.00     0.026 A 
ATOM      7  C4  73T d   1       4.784 -11.628  -0.950  0.00  0.00     0.129 A 
ATOM      8  C5  73T d   1       3.420 -11.706  -0.755  0.00  0.00    -0.027 A 
ATOM      9  C6  73T d   1       2.672 -12.603  -1.548  0.00  0.00     0.062 A 
ATOM     10  N7  73T d   1       2.876 -14.267  -3.402  0.00  0.00    -0.358 N 
ATOM     11  C8  73T d   1       3.979 -14.741  -4.149  0.00  0.00     0.017 A 
ATOM     12  C9  73T d   1       5.150 -14.097  -3.763  0.00  0.00    -0.022 A 
ATOM     13  C10 73T d   1       3.869 -15.788  -5.182  0.00  0.00    -0.020 C 
ATOM     14  F38 73T d   1       5.433 -10.734  -0.154  0.00  0.00    -0.205 F 
ATOM     15  H1  73T d   1       6.972 -13.417  -4.634  0.00  0.00     0.040 H 
ATOM     16  H2  73T d   1       7.072 -15.015  -3.819  0.00  0.00     0.040 H 
ATOM     17  H6  73T d   1       5.662 -16.879  -4.784  0.00  0.00     0.045 H 
ATOM     18  H7  73T d   1       7.121 -15.382  -6.204  0.00  0.00     0.034 H 
ATOM     19  H8  73T d   1       5.679 -14.337  -6.443  0.00  0.00     0.034 H 
ATOM     20  H11 73T d   1       2.933 -11.091  -0.008  0.00  0.00     0.089 H 
ATOM     21  H12 73T d   1       1.893 -14.559  -3.504  0.00  0.00     0.166 HD
ATOM     22  H13 73T d   1       3.299 -16.637  -4.777  0.00  0.00     0.043 H 
ATOM     23  H14 73T d   1       3.345 -15.378  -6.058  0.00  0.00     0.043 H 
ENDROOT
BRANCH   6  24
ATOM     24  C18 73T d   1       6.992 -12.199  -1.947  0.00  0.00    -0.014 A 
ATOM     25  C19 73T d   1       7.753 -13.152  -1.262  0.00  0.00    -0.071 A 
ATOM     26  C20 73T d   1       9.172 -13.085  -1.343  0.00  0.00    -0.080 A 
ATOM     27  H3  73T d   1       7.270 -13.928  -0.679  0.00  0.00     0.084 H 
ATOM     28  C21 73T d   1       9.789 -12.089  -2.037  0.00  0.00    -0.056 A 
ATOM     29  H4  73T d   1       9.771 -13.838  -0.845  0.00  0.00     0.083 H 
ATOM     30  C22 73T d   1       8.994 -11.133  -2.704  0.00  0.00     0.054 A 
ATOM     31  H5  73T d   1      10.871 -12.032  -2.076  0.00  0.00     0.087 H 
ATOM     32  C23 73T d   1       7.586 -11.183  -2.664  0.00  0.00    -0.023 A 
BRANCH  30  33
ATOM     33  N25 73T d   1       9.676 -10.095  -3.430  0.00  0.00    -0.229 N 
ATOM     34  C26 73T d   1      10.094  -8.990  -2.671  0.00  0.00     0.336 C 
ATOM     35  N27 73T d   1      10.808  -7.979  -3.380  0.00  0.00    -0.300 N 
ATOM     36  O36 73T d   1       9.903  -8.890  -1.487  0.00  0.00    -0.246 OA
ATOM     37  C28 73T d   1      10.964  -8.033  -4.758  0.00  0.00     0.092 A 
ATOM     38  C29 73T d   1      10.552  -9.200  -5.476  0.00  0.00     0.063 A 
ATOM     39  C31 73T d   1      11.588  -6.999  -5.527  0.00  0.00     0.144 A 
ATOM     40  C34 73T d   1      10.772  -9.346  -6.847  0.00  0.00    -0.065 A 
ATOM     41  C30 73T d   1       9.885 -10.302  -4.775  0.00  0.00     0.269 C 
ATOM     42  C33 73T d   1      11.392  -8.305  -7.534  0.00  0.00    -0.079 A 
ATOM     43  H9  73T d   1      10.467 -10.248  -7.365  0.00  0.00     0.085 H 
ATOM     44  C32 73T d   1      11.799  -7.168  -6.886  0.00  0.00    -0.043 A 
ATOM     45  H10 73T d   1      11.556  -8.396  -8.602  0.00  0.00     0.083 H 
ATOM     46  H18 73T d   1      12.296  -6.385  -7.448  0.00  0.00     0.088 H 
ATOM     47  O37 73T d   1       9.532 -11.353  -5.296  0.00  0.00    -0.267 OA
ATOM     48  F35 73T d   1      11.923  -5.852  -4.985  0.00  0.00    -0.204 F 
BRANCH  35  49
ATOM     49  C42 73T d   1      11.452  -6.937  -2.572  0.00  0.00    -0.009 C 
ATOM     50  H28 73T d   1      11.195  -7.083  -1.512  0.00  0.00     0.057 H 
ATOM     51  H29 73T d   1      11.100  -5.948  -2.901  0.00  0.00     0.057 H 
ATOM     52  H30 73T d   1      12.543  -6.998  -2.697  0.00  0.00     0.057 H 
ENDBRANCH  35  49
ENDBRANCH  30  33
BRANCH  32  53
ATOM     53  C41 73T d   1       6.753 -10.132  -3.353  0.00  0.00    -0.048 C 
ATOM     54  H25 73T d   1       5.686 -10.353  -3.202  0.00  0.00     0.033 H 
ATOM     55  H26 73T d   1       6.979 -10.133  -4.430  0.00  0.00     0.033 H 
ATOM     56  H27 73T d   1       6.986  -9.144  -2.930  0.00  0.00     0.033 H 
ENDBRANCH  32  53
ENDBRANCH   6  24
BRANCH   9  57
ATOM     57  C15 73T d   1       1.209 -12.752  -1.418  0.00  0.00     0.251 C 
ATOM     58  O16 73T d   1       0.655 -13.762  -1.916  0.00  0.00    -0.268 OA
ATOM     59  N17 73T d   1       0.473 -11.943  -0.666  0.00  0.00    -0.366 N 
ATOM     60  H15 73T d   1      -0.516 -12.079  -0.605  0.00  0.00     0.159 HD
ATOM     61  H16 73T d   1       0.907 -11.198  -0.160  0.00  0.00     0.159 HD
ENDBRANCH   9  57
BRANCH   2  62
ATOM     62  C14 73T d   1       5.236 -17.184  -6.851  0.00  0.00     0.054 C 
BRANCH  62  63
ATOM     63  O24 73T d   1       6.565 -17.766  -6.964  0.00  0.00    -0.390 OA
ATOM     64  H17 73T d   1       6.596 -18.338  -7.722  0.00  0.00     0.210 HD
ENDBRANCH  62  63
BRANCH  62  65
ATOM     65  C39 73T d   1       4.262 -18.341  -6.682  0.00  0.00    -0.048 C 
ATOM     66  H19 73T d   1       4.275 -18.966  -7.587  0.00  0.00     0.031 H 
ATOM     67  H20 73T d   1       3.248 -17.946  -6.524  0.00  0.00     0.031 H 
ATOM     68  H21 73T d   1       4.559 -18.947  -5.813  0.00  0.00     0.031 H 
ENDBRANCH  62  65
BRANCH  62  69
ATOM     69  C40 73T d   1       4.935 -16.419  -8.131  0.00  0.00    -0.048 C 
ATOM     70  H22 73T d   1       4.932 -17.116  -8.982  0.00  0.00     0.031 H 
ATOM     71  H23 73T d   1       5.706 -15.651  -8.289  0.00  0.00     0.031 H 
ATOM     72  H24 73T d   1       3.950 -15.938  -8.047  0.00  0.00     0.031 H 
ENDBRANCH  62  69
ENDBRANCH   2  62
TORSDOF 9
