REMARK  5 active torsions:
REMARK  status: ('A' for Active; 'I' for Inactive)
REMARK    1  A    between atoms: C_1  and  C1_2 
REMARK    2  A    between atoms: C1_2  and  C2_4 
REMARK    3  A    between atoms: C3_5  and  O2_24 
REMARK    4  A    between atoms: N_8  and  C12_16 
REMARK    5  A    between atoms: C5_9  and  C6_10 
ROOT
ATOM      1  C2  VT5 d   1       4.403  27.155 189.576  0.00  0.00     0.050 A 
ATOM      2  C3  VT5 d   1       3.337  27.697 189.319  0.00  0.00     0.146 A 
ATOM      3  C4  VT5 d   1       3.637  28.654 188.211  0.00  0.00     0.282 A 
ATOM      4  O1  VT5 d   1       2.754  29.403 187.659  0.00  0.00    -0.265 OA
ATOM      5  N   VT5 d   1       4.945  28.590 187.922  0.00  0.00    -0.299 N 
ATOM      6  C5  VT5 d   1       5.605  27.593 188.794  0.00  0.00     0.055 A 
ATOM      7  H4  VT5 d   1       6.399  27.993 189.442  0.00  0.00     0.082 H 
ENDROOT
BRANCH   6   8
ATOM      8  C6  VT5 d   1       6.164  26.578 187.788  0.00  0.00    -0.030 C 
ATOM      9  C11 VT5 d   1       7.550  26.071 188.176  0.00  0.00    -0.059 C 
ATOM     10  C10 VT5 d   1       8.143  25.277 187.021  0.00  0.00    -0.065 C 
ATOM     11  H6  VT5 d   1       7.469  25.424 189.062  0.00  0.00     0.033 H 
ATOM     12  H7  VT5 d   1       8.202  26.927 188.405  0.00  0.00     0.033 H 
ATOM     13  C9  VT5 d   1       7.251  24.085 186.702  0.00  0.00    -0.065 C 
ATOM     14  H8  VT5 d   1       9.145  24.919 187.300  0.00  0.00     0.033 H 
ATOM     15  H9  VT5 d   1       8.219  25.924 186.134  0.00  0.00     0.033 H 
ATOM     16  C8  VT5 d   1       5.836  24.539 186.368  0.00  0.00    -0.065 C 
ATOM     17  H10 VT5 d   1       7.218  23.416 187.575  0.00  0.00     0.033 H 
ATOM     18  H11 VT5 d   1       7.668  23.543 185.840  0.00  0.00     0.033 H 
ATOM     19  C7  VT5 d   1       5.245  25.397 187.483  0.00  0.00    -0.059 C 
ATOM     20  H12 VT5 d   1       5.201  23.652 186.225  0.00  0.00     0.033 H 
ATOM     21  H13 VT5 d   1       5.859  25.127 185.439  0.00  0.00     0.033 H 
ATOM     22  H14 VT5 d   1       4.261  25.775 187.167  0.00  0.00     0.033 H 
ATOM     23  H15 VT5 d   1       5.129  24.784 188.389  0.00  0.00     0.033 H 
ATOM     24  H5  VT5 d   1       6.281  27.128 186.843  0.00  0.00     0.043 H 
ENDBRANCH   6   8
BRANCH   1  25
ATOM     25  C1  VT5 d   1       4.672  26.130 190.644  0.00  0.00     0.156 C 
ATOM     26  O   VT5 d   1       5.826  25.881 190.956  0.00  0.00    -0.293 OA
BRANCH  25  27
ATOM     27  C   VT5 d   1       3.528  25.441 191.332  0.00  0.00    -0.017 C 
ATOM     28  H1  VT5 d   1       2.577  25.800 190.911  0.00  0.00     0.038 H 
ATOM     29  H2  VT5 d   1       3.560  25.664 192.409  0.00  0.00     0.038 H 
ATOM     30  H3  VT5 d   1       3.609  24.355 191.180  0.00  0.00     0.038 H 
ENDBRANCH  25  27
ENDBRANCH   1  25
BRANCH   5  31
ATOM     31  C12 VT5 d   1       5.566  29.315 186.990  0.00  0.00     0.077 A 
ATOM     32  C13 VT5 d   1       6.648  30.123 187.333  0.00  0.00    -0.052 A 
ATOM     33  C14 VT5 d   1       7.330  30.907 186.418  0.00  0.00    -0.060 A 
ATOM     34  H16 VT5 d   1       6.972  30.139 188.367  0.00  0.00     0.087 H 
ATOM     35  C15 VT5 d   1       6.935  30.909 185.094  0.00  0.00     0.037 A 
ATOM     36  H17 VT5 d   1       8.168  31.515 186.738  0.00  0.00     0.086 H 
ATOM     37  C16 VT5 d   1       5.860  30.122 184.711  0.00  0.00    -0.022 A 
ATOM     38 CL   VT5 d   1       7.821  31.924 183.912  0.00  0.00    -0.084 Cl
ATOM     39  C17 VT5 d   1       5.192  29.342 185.652  0.00  0.00     0.144 A 
ATOM     40  H18 VT5 d   1       5.538  30.114 183.676  0.00  0.00     0.090 H 
ATOM     41  F   VT5 d   1       4.152  28.588 185.252  0.00  0.00    -0.204 F 
ENDBRANCH   5  31
BRANCH   2  42
ATOM     42  O2  VT5 d   1       1.991  27.493 189.905  0.00  0.00    -0.355 OA
ATOM     43  H19 VT5 d   1       2.042  26.839 190.592  0.00  0.00     0.218 HD
ENDBRANCH   2  42
TORSDOF 5
