REMARK WARNING: 32 MAX_TORS EXCEEDED!!!
REMARK  65 active torsions:
REMARK  status: ('A' for Active; 'I' for Inactive)
REMARK    1  A    between atoms: C_1  and  CA_3 
REMARK       I    between atoms: C_1  and  N_11 
REMARK       I    between atoms: N_4  and  C1_5 
REMARK    2  A    between atoms: C1_5  and  C2_7 
REMARK    3  A    between atoms: N_11  and  CA_12 
REMARK    4  A    between atoms: CA_12  and  C_13 
REMARK    5  A    between atoms: CA_12  and  CB_15 
REMARK       I    between atoms: C_13  and  N_21 
REMARK    6  A    between atoms: CB_15  and  CG_16 
REMARK    7  A    between atoms: N_21  and  CA_22 
REMARK    8  A    between atoms: CA_22  and  C_23 
REMARK    9  A    between atoms: CA_22  and  CB_25 
REMARK       I    between atoms: C_23  and  N_32 
REMARK   10  A    between atoms: CB_25  and  CG_26 
REMARK   11  A    between atoms: CG_26  and  CD_27 
REMARK   12  A    between atoms: CD_27  and  NE_28 
REMARK       I    between atoms: NE_28  and  CZ_29 
REMARK       I    between atoms: CZ_29  and  NH1_30 
REMARK       I    between atoms: CZ_29  and  NH2_31 
REMARK   13  A    between atoms: N_32  and  CA_33 
REMARK   14  A    between atoms: CA_33  and  C_34 
REMARK   15  A    between atoms: CA_33  and  CB_36 
REMARK       I    between atoms: C_34  and  N_44 
REMARK   16  A    between atoms: CB_36  and  CG_37 
REMARK   17  A    between atoms: CZ_42  and  OH_43 
REMARK   18  A    between atoms: N_44  and  CA_45 
REMARK   19  A    between atoms: CA_45  and  C_46 
REMARK   20  A    between atoms: CA_45  and  CB_48 
REMARK       I    between atoms: C_46  and  N_55 
REMARK   21  A    between atoms: CB_48  and  CG_49 
REMARK   22  A    between atoms: CG_49  and  CD_50 
REMARK   23  A    between atoms: CD_50  and  NE_51 
REMARK       I    between atoms: NE_51  and  CZ_52 
REMARK       I    between atoms: CZ_52  and  NH1_53 
REMARK       I    between atoms: CZ_52  and  NH2_54 
REMARK   24  A    between atoms: CA_56  and  C_57 
REMARK       I    between atoms: C_57  and  N_62 
REMARK   25  A    between atoms: N_62  and  CA_63 
REMARK   26  A    between atoms: CA_63  and  C_64 
REMARK       I    between atoms: C_64  and  N_66 
REMARK   27  A    between atoms: N_66  and  CA_67 
REMARK   28  A    between atoms: CA_67  and  C_68 
REMARK   29  A    between atoms: CA_67  and  CB_70 
REMARK       I    between atoms: C_68  and  N_73 
REMARK   30  A    between atoms: CB_70  and  OG1_71 
REMARK   31  A    between atoms: CB_70  and  CG2_72 
REMARK   32  A    between atoms: N_73  and  CA_74 
REMARK   33  A    between atoms: CA_74  and  C_75 
REMARK   34  A    between atoms: CA_74  and  CB_77 
REMARK       I    between atoms: C_75  and  N_80 
REMARK   35  A    between atoms: CB_77  and  CG1_78 
REMARK   36  A    between atoms: CB_77  and  CG2_79 
REMARK   37  A    between atoms: N_80  and  CA_81 
REMARK   38  A    between atoms: CA_81  and  C_82 
REMARK   39  A    between atoms: CA_81  and  CB_84 
REMARK       I    between atoms: C_82  and  N_85 
REMARK   40  A    between atoms: N_85  and  CA_86 
REMARK   41  A    between atoms: CA_86  and  C_87 
REMARK   42  A    between atoms: CA_86  and  CB_89 
REMARK       I    between atoms: C_87  and  N_93 
REMARK   43  A    between atoms: CB_89  and  CG_90 
REMARK   44  A    between atoms: CG_90  and  CD1_91 
REMARK   45  A    between atoms: CG_90  and  CD2_92 
REMARK   46  A    between atoms: N_93  and  CA_94 
REMARK   47  A    between atoms: CA_94  and  C_95 
REMARK   48  A    between atoms: CA_94  and  CB_97 
REMARK       I    between atoms: C_95  and  N_98 
REMARK   49  A    between atoms: N_98  and  CA_99 
REMARK   50  A    between atoms: CA_99  and  C_100 
REMARK   51  A    between atoms: CA_99  and  CB_102 
REMARK       I    between atoms: C_100  and  N_107 
REMARK   52  A    between atoms: CB_102  and  CG_103 
REMARK   53  A    between atoms: CG_103  and  CD_104 
REMARK   54  A    between atoms: N_107  and  CA_108 
REMARK   55  A    between atoms: CA_108  and  C_109 
REMARK   56  A    between atoms: CA_108  and  CB_111 
REMARK       I    between atoms: C_109  and  N_115 
REMARK   57  A    between atoms: CB_111  and  CG1_112 
REMARK   58  A    between atoms: CB_111  and  CG2_113 
REMARK   59  A    between atoms: CG1_112  and  CD1_114 
REMARK   60  A    between atoms: N_115  and  CA_116 
REMARK   61  A    between atoms: CA_116  and  CB_117 
REMARK   62  A    between atoms: CA_116  and  C_124 
REMARK   63  A    between atoms: CB_117  and  CG_118 
REMARK   64  A    between atoms: CG_118  and  CD_119 
REMARK   65  A    between atoms: CD_119  and  NE_120 
REMARK       I    between atoms: NE_120  and  CZ_121 
REMARK       I    between atoms: CZ_121  and  NH1_122 
REMARK       I    between atoms: CZ_121  and  NH2_123 
REMARK       I    between atoms: C_124  and  NT_126 
ROOT
ATOM      1  CA  THR d   1      33.562  56.332  -0.485  0.00  0.00     0.113 C 
ATOM      2  H62 THR d   1      33.565  55.679   0.400  0.00  0.00     0.091 H 
ENDROOT
BRANCH   1   3
ATOM      3  N   THR d   1      32.290  56.114  -1.188  0.00  0.00    -0.344 N 
ATOM      4  C   GLY d   1      31.502  55.102  -0.849  0.00  0.00     0.236 C 
ATOM      5  O   GLY d   1      31.747  54.290   0.055  0.00  0.00    -0.272 OA
ATOM      6  H61 THR d   1      32.017  56.732  -1.926  0.00  0.00     0.163 HD
BRANCH   4   7
ATOM      7  CA  GLY d   1      30.152  55.068  -1.521  0.00  0.00     0.069 C 
ATOM      8  H59 GLY d   1      29.390  55.431  -0.816  0.00  0.00     0.078 H 
ATOM      9  H60 GLY d   1      30.174  55.721  -2.406  0.00  0.00     0.078 H 
BRANCH   7  10
ATOM     10  N   GLY d   1      29.818  53.750  -1.926  0.00  0.00    -0.350 N 
ATOM     11  C   PRO d   1      29.242  53.516  -3.085  0.00  0.00     0.244 C 
ATOM     12  O   PRO d   1      28.999  54.390  -3.917  0.00  0.00    -0.271 OA
ATOM     13  H58 GLY d   1      30.025  52.983  -1.318  0.00  0.00     0.163 HD
BRANCH  11  14
ATOM     14  CA  PRO d   1      28.823  52.086  -3.308  0.00  0.00     0.108 C 
ATOM     15  N   PRO d   1      27.358  51.940  -3.348  0.00  0.00    -0.330 N 
ATOM     16  C   ARG d   1      26.613  51.850  -2.209  0.00  0.00     0.243 C 
ATOM     17  CD  PRO d   1      26.883  51.668  -4.703  0.00  0.00     0.014 C 
ATOM     18  O   ARG d   1      27.124  51.731  -1.061  0.00  0.00    -0.271 OA
ATOM     19  CG  PRO d   1      28.099  51.366  -5.498  0.00  0.00    -0.087 C 
ATOM     20  H56 PRO d   1      26.365  52.548  -5.112  0.00  0.00     0.070 H 
ATOM     21  H57 PRO d   1      26.199  50.806  -4.705  0.00  0.00     0.070 H 
ATOM     22  CB  PRO d   1      29.307  51.582  -4.670  0.00  0.00    -0.075 C 
ATOM     23  H55 PRO d   1      28.102  51.035  -6.535  0.00  0.00     0.079 H 
ATOM     24  H54 PRO d   1      30.340  51.415  -4.971  0.00  0.00     0.080 H 
ATOM     25  H53 PRO d   1      29.241  51.464  -2.502  0.00  0.00     0.094 H 
BRANCH  16  26
ATOM     26  CA  ARG d   1      25.075  51.850  -2.371  0.00  0.00     0.089 C 
ATOM     27  H41 ARG d   1      24.836  51.106  -3.145  0.00  0.00     0.087 H 
BRANCH  26  28
ATOM     28  N   ARG d   1      24.381  51.445  -1.177  0.00  0.00    -0.346 N 
ATOM     29  C   TYR d   1      23.827  50.229  -1.127  0.00  0.00     0.241 C 
ATOM     30  O   TYR d   1      24.070  49.320  -1.957  0.00  0.00    -0.271 OA
ATOM     31  H40 ARG d   1      24.314  52.065  -0.395  0.00  0.00     0.163 HD
BRANCH  29  32
ATOM     32  CA  TYR d   1      22.907  49.964   0.027  0.00  0.00     0.093 C 
ATOM     33  H32 TYR d   1      22.227  50.819   0.152  0.00  0.00     0.088 H 
BRANCH  32  34
ATOM     34  N   TYR d   1      22.122  48.774  -0.310  0.00  0.00    -0.346 N 
ATOM     35  C   ARG d   1      20.858  48.657   0.090  0.00  0.00     0.241 C 
ATOM     36  O   ARG d   1      20.335  49.456   0.886  0.00  0.00    -0.271 OA
ATOM     37  H31 TYR d   1      22.541  48.041  -0.847  0.00  0.00     0.163 HD
BRANCH  35  38
ATOM     38  CA  ARG d   1      20.082  47.465  -0.484  0.00  0.00     0.089 C 
ATOM     39  H19 ARG d   1      20.777  46.632  -0.667  0.00  0.00     0.087 H 
BRANCH  38  40
ATOM     40  N   ARG d   1      19.049  47.014   0.462  0.00  0.00    -0.346 N 
ATOM     41  C   HIS d   1      19.389  46.591   1.683  0.00  0.00     0.241 C 
ATOM     42  O   HIS d   1      20.529  46.354   2.017  0.00  0.00    -0.271 OA
ATOM     43  H18 ARG d   1      18.087  47.024   0.190  0.00  0.00     0.163 HD
BRANCH  41  44
ATOM     44  CA  HIS d   1      18.284  46.432   2.683  0.00  0.00     0.094 C 
ATOM     45  H12 HIS d   1      18.206  47.388   3.222  0.00  0.00     0.088 H 
BRANCH  44  46
ATOM     46  N   HIS d   1      17.011  46.185   2.067  0.00  0.00    -0.346 N 
ATOM     47  C   N7P d   1      16.043  47.097   2.128  0.00  0.00     0.241 C 
ATOM     48  O   N7P d   1      16.188  48.200   2.656  0.00  0.00    -0.271 OA
ATOM     49  H11 HIS d   1      16.850  45.322   1.589  0.00  0.00     0.163 HD
BRANCH  47  50
ATOM     50  CA  N7P d   1      14.713  46.758   1.480  0.00  0.00     0.091 C 
ATOM     51  N   N7P d   1      14.779  45.750   0.377  0.00  0.00    -0.339 N 
ATOM     52  C1  N7P d   1      15.439  45.986  -0.779  0.00  0.00     0.216 C 
ATOM     53  CD  N7P d   1      14.173  44.475   0.780  0.00  0.00    -0.001 C 
ATOM     54  O1  N7P d   1      16.105  47.002  -0.915  0.00  0.00    -0.274 OA
ATOM     55  CG  N7P d   1      13.993  44.639   2.280  0.00  0.00    -0.048 C 
ATOM     56  H5  N7P d   1      14.841  43.631   0.552  0.00  0.00     0.064 H 
ATOM     57  H6  N7P d   1      13.205  44.322   0.280  0.00  0.00     0.064 H 
ATOM     58  CB  N7P d   1      13.760  46.118   2.490  0.00  0.00    -0.036 C 
ATOM     59  H7  N7P d   1      14.896  44.311   2.815  0.00  0.00     0.035 H 
ATOM     60  H8  N7P d   1      13.127  44.058   2.631  0.00  0.00     0.035 H 
ATOM     61  H9  N7P d   1      12.716  46.389   2.276  0.00  0.00     0.036 H 
ATOM     62  H10 N7P d   1      14.013  46.417   3.518  0.00  0.00     0.036 H 
ATOM     63  H1  N7P d   1      14.281  47.692   1.091  0.00  0.00     0.087 H 
BRANCH  52  64
ATOM     64  C2  N7P d   1      15.397  44.927  -1.843  0.00  0.00    -0.003 C 
ATOM     65  H2  N7P d   1      15.976  45.262  -2.717  0.00  0.00     0.040 H 
ATOM     66  H3  N7P d   1      14.353  44.748  -2.141  0.00  0.00     0.040 H 
ATOM     67  H4  N7P d   1      15.831  43.996  -1.451  0.00  0.00     0.040 H 
ENDBRANCH  52  64
ENDBRANCH  47  50
ENDBRANCH  44  46
BRANCH  44  68
ATOM     68  CB  HIS d   1      18.580  45.348   3.722  0.00  0.00     0.004 C 
ATOM     69  H13 HIS d   1      19.643  45.404   3.998  0.00  0.00     0.046 H 
ATOM     70  H14 HIS d   1      18.369  44.365   3.277  0.00  0.00     0.046 H 
BRANCH  68  71
ATOM     71  CG  HIS d   1      17.753  45.503   4.959  0.00  0.00     0.053 A 
ATOM     72  ND1 HIS d   1      17.658  44.518   5.916  0.00  0.00    -0.247 NA
ATOM     73  CE1 HIS d   1      16.856  44.929   6.887  0.00  0.00     0.064 A 
ATOM     74  NE2 HIS d   1      16.445  46.152   6.597  0.00  0.00    -0.359 N 
ATOM     75  H16 HIS d   1      16.582  44.358   7.773  0.00  0.00     0.143 H 
ATOM     76  CD2 HIS d   1      16.988  46.537   5.397  0.00  0.00     0.002 A 
ATOM     77  H17 HIS d   1      15.817  46.724   7.179  0.00  0.00     0.166 HD
ATOM     78  H15 HIS d   1      16.835  47.490   4.892  0.00  0.00     0.114 H 
ENDBRANCH  68  71
ENDBRANCH  44  68
ENDBRANCH  41  44
ENDBRANCH  38  40
BRANCH  38  79
ATOM     79  CB  ARG d   1      19.468  47.911  -1.815  0.00  0.00    -0.036 C 
ATOM     80  H20 ARG d   1      20.214  48.517  -2.350  0.00  0.00     0.036 H 
ATOM     81  H21 ARG d   1      18.584  48.527  -1.595  0.00  0.00     0.036 H 
BRANCH  79  82
ATOM     82  CG  ARG d   1      19.040  46.780  -2.724  0.00  0.00    -0.048 C 
ATOM     83  H22 ARG d   1      18.462  46.047  -2.142  0.00  0.00     0.035 H 
ATOM     84  H23 ARG d   1      19.934  46.294  -3.142  0.00  0.00     0.035 H 
BRANCH  82  85
ATOM     85  CD  ARG d   1      18.180  47.304  -3.860  0.00  0.00     0.009 C 
ATOM     86  H24 ARG d   1      18.047  46.504  -4.603  0.00  0.00     0.064 H 
ATOM     87  H25 ARG d   1      18.691  48.158  -4.328  0.00  0.00     0.064 H 
BRANCH  85  88
ATOM     88  NE  ARG d   1      16.857  47.741  -3.390  0.00  0.00    -0.227 N 
ATOM     89  CZ  ARG d   1      15.879  48.152  -4.169  0.00  0.00     0.665 C 
ATOM     90  NH1 ARG d   1      16.025  48.141  -5.492  0.00  0.00    -0.235 N 
ATOM     91  NH2 ARG d   1      14.720  48.516  -3.621  0.00  0.00    -0.235 N 
ATOM     92  H27 ARG d   1      15.257  48.464  -6.098  0.00  0.00     0.174 HD
ATOM     93  H28 ARG d   1      16.906  47.810  -5.910  0.00  0.00     0.174 HD
ATOM     94  H29 ARG d   1      14.614  48.522  -2.596  0.00  0.00     0.174 HD
ATOM     95  H30 ARG d   1      13.930  48.791  -4.222  0.00  0.00     0.174 HD
ATOM     96  H26 ARG d   1      16.683  47.724  -2.375  0.00  0.00     0.177 HD
ENDBRANCH  85  88
ENDBRANCH  82  85
ENDBRANCH  79  82
ENDBRANCH  38  79
ENDBRANCH  35  38
ENDBRANCH  32  34
BRANCH  32  97
ATOM     97  CB  TYR d   1      23.700  49.783   1.331  0.00  0.00    -0.014 C 
ATOM     98  H33 TYR d   1      23.007  49.956   2.167  0.00  0.00     0.043 H 
ATOM     99  H34 TYR d   1      24.491  50.547   1.347  0.00  0.00     0.043 H 
BRANCH  97 100
ATOM    100  CG  TYR d   1      24.365  48.428   1.557  0.00  0.00    -0.056 A 
ATOM    101  CD1 TYR d   1      25.648  48.163   1.084  0.00  0.00    -0.074 A 
ATOM    102  CE1 TYR d   1      26.266  46.944   1.308  0.00  0.00    -0.051 A 
ATOM    103  H35 TYR d   1      26.175  48.929   0.527  0.00  0.00     0.084 H 
ATOM    104  CZ  TYR d   1      25.633  45.966   2.007  0.00  0.00     0.065 A 
ATOM    105  H37 TYR d   1      27.264  46.769   0.922  0.00  0.00     0.087 H 
ATOM    106  CE2 TYR d   1      24.356  46.183   2.497  0.00  0.00    -0.051 A 
ATOM    107  CD2 TYR d   1      23.735  47.423   2.284  0.00  0.00    -0.074 A 
ATOM    108  H38 TYR d   1      23.840  45.400   3.041  0.00  0.00     0.087 H 
ATOM    109  H36 TYR d   1      22.747  47.601   2.693  0.00  0.00     0.084 H 
BRANCH 104 110
ATOM    110  OH  TYR d   1      26.316  44.792   2.167  0.00  0.00    -0.361 OA
ATOM    111  H39 TYR d   1      27.168  44.864   1.754  0.00  0.00     0.217 HD
ENDBRANCH 104 110
ENDBRANCH  97 100
ENDBRANCH  32  97
ENDBRANCH  29  32
ENDBRANCH  26  28
BRANCH  26 112
ATOM    112  CB  ARG d   1      24.572  53.213  -2.879  0.00  0.00    -0.036 C 
ATOM    113  H42 ARG d   1      24.828  53.276  -3.947  0.00  0.00     0.036 H 
ATOM    114  H43 ARG d   1      25.120  53.989  -2.324  0.00  0.00     0.036 H 
BRANCH 112 115
ATOM    115  CG  ARG d   1      23.102  53.532  -2.754  0.00  0.00    -0.048 C 
ATOM    116  H44 ARG d   1      22.757  53.306  -1.734  0.00  0.00     0.035 H 
ATOM    117  H45 ARG d   1      22.528  52.934  -3.477  0.00  0.00     0.035 H 
BRANCH 115 118
ATOM    118  CD  ARG d   1      22.913  55.010  -3.045  0.00  0.00     0.009 C 
ATOM    119  H46 ARG d   1      23.469  55.593  -2.297  0.00  0.00     0.064 H 
ATOM    120  H47 ARG d   1      21.842  55.252  -2.976  0.00  0.00     0.064 H 
BRANCH 118 121
ATOM    121  NE  ARG d   1      23.394  55.371  -4.378  0.00  0.00    -0.227 N 
ATOM    122  CZ  ARG d   1      23.285  56.585  -4.901  0.00  0.00     0.665 C 
ATOM    123  NH1 ARG d   1      23.761  56.817  -6.115  0.00  0.00    -0.235 N 
ATOM    124  NH2 ARG d   1      22.700  57.565  -4.221  0.00  0.00    -0.235 N 
ATOM    125  H49 ARG d   1      23.681  57.757  -6.529  0.00  0.00     0.174 HD
ATOM    126  H50 ARG d   1      24.212  56.058  -6.645  0.00  0.00     0.174 HD
ATOM    127  H51 ARG d   1      22.329  57.387  -3.277  0.00  0.00     0.174 HD
ATOM    128  H52 ARG d   1      22.617  58.503  -4.638  0.00  0.00     0.174 HD
ATOM    129  H48 ARG d   1      23.845  54.638  -4.945  0.00  0.00     0.177 HD
ENDBRANCH 118 121
ENDBRANCH 115 118
ENDBRANCH 112 115
ENDBRANCH  26 112
ENDBRANCH  16  26
ENDBRANCH  11  14
ENDBRANCH   7  10
ENDBRANCH   4   7
ENDBRANCH   1   3
BRANCH   1 130
ATOM    130  C   THR d   1      33.752  57.753  -0.027  0.00  0.00     0.243 C 
ATOM    131  O   THR d   1      33.035  58.661  -0.393  0.00  0.00    -0.271 OA
ATOM    132  N   VAL d   1      34.715  57.928   0.884  0.00  0.00    -0.346 N 
ATOM    133  H68 VAL d   1      35.199  57.132   1.248  0.00  0.00     0.163 HD
BRANCH 132 134
ATOM    134  CA  VAL d   1      35.066  59.246   1.350  0.00  0.00     0.092 C 
ATOM    135  H69 VAL d   1      34.203  59.921   1.252  0.00  0.00     0.088 H 
BRANCH 134 136
ATOM    136  C   VAL d   1      36.187  59.725   0.480  0.00  0.00     0.241 C 
ATOM    137  O   VAL d   1      37.261  59.172   0.590  0.00  0.00    -0.271 OA
ATOM    138  N   ALA d   1      35.954  60.723  -0.385  0.00  0.00    -0.346 N 
ATOM    139  H77 ALA d   1      35.085  61.214  -0.326  0.00  0.00     0.163 HD
BRANCH 138 140
ATOM    140  CA  ALA d   1      36.909  61.121  -1.403  0.00  0.00     0.086 C 
ATOM    141  H78 ALA d   1      37.500  60.240  -1.692  0.00  0.00     0.086 H 
BRANCH 140 142
ATOM    142  C   ALA d   1      37.877  62.194  -0.868  0.00  0.00     0.240 C 
ATOM    143  O   ALA d   1      37.509  63.358  -0.662  0.00  0.00    -0.271 OA
ATOM    144  N   LEU d   1      39.059  61.753  -0.504  0.00  0.00    -0.346 N 
ATOM    145  H82 LEU d   1      39.249  60.774  -0.577  0.00  0.00     0.163 HD
BRANCH 144 146
ATOM    146  CA  LEU d   1      40.109  62.637   0.004  0.00  0.00     0.089 C 
ATOM    147  H83 LEU d   1      39.640  63.594   0.276  0.00  0.00     0.087 H 
BRANCH 146 148
ATOM    148  C   LEU d   1      41.197  62.927  -1.040  0.00  0.00     0.241 C 
ATOM    149  O   LEU d   1      41.343  62.240  -2.046  0.00  0.00    -0.271 OA
ATOM    150  N   ARG d   1      41.987  63.949  -0.741  0.00  0.00    -0.346 N 
ATOM    151  H93 ARG d   1      41.879  64.390   0.150  0.00  0.00     0.163 HD
BRANCH 150 152
ATOM    152  CA  ARG d   1      42.996  64.455  -1.641  0.00  0.00     0.086 C 
ATOM    153  H94 ARG d   1      43.168  63.770  -2.484  0.00  0.00     0.086 H 
BRANCH 152 154
ATOM    154  C   ARG d   1      44.199  64.575  -0.760  0.00  0.00     0.240 C 
ATOM    155  O   ARG d   1      44.161  65.343   0.157  0.00  0.00    -0.271 OA
ATOM    156  N   GLU d   1      45.251  63.838  -1.018  0.00  0.00    -0.346 N 
ATOM    157  H98 GLU d   1      45.217  63.193  -1.781  0.00  0.00     0.163 HD
BRANCH 156 158
ATOM    158  CA  GLU d   1      46.478  63.933  -0.217  0.00  0.00     0.090 C 
ATOM    159  H99 GLU d   1      46.229  63.750   0.839  0.00  0.00     0.087 H 
BRANCH 158 160
ATOM    160  C   GLU d   1      47.085  65.354  -0.323  0.00  0.00     0.241 C 
ATOM    161  O   GLU d   1      47.234  65.896  -1.427  0.00  0.00    -0.271 OA
ATOM    162  N   ILE d   1      47.433  65.954   0.803  0.00  0.00    -0.346 N 
ATOM    163 4H10 ILE d   1      47.288  65.488   1.676  0.00  0.00     0.163 HD
BRANCH 162 164
ATOM    164  CA  ILE d   1      48.023  67.279   0.788  0.00  0.00     0.092 C 
ATOM    165 5H10 ILE d   1      47.427  67.903   0.106  0.00  0.00     0.088 H 
BRANCH 164 166
ATOM    166  C   ILE d   1      49.416  67.190   0.236  0.00  0.00     0.241 C 
ATOM    167  O   ILE d   1      49.767  68.011  -0.629  0.00  0.00    -0.271 OA
ATOM    168  N   AAR d   1      50.179  66.182   0.650  0.00  0.00    -0.346 N 
ATOM    169 5H11 AAR d   1      49.793  65.491   1.261  0.00  0.00     0.163 HD
BRANCH 168 170
ATOM    170  CA  AAR d   1      51.560  66.070   0.229  0.00  0.00     0.089 C 
ATOM    171 6H11 AAR d   1      52.062  67.040   0.361  0.00  0.00     0.087 H 
BRANCH 170 172
ATOM    172  CB  AAR d   1      52.299  65.030   1.120  0.00  0.00    -0.036 C 
ATOM    173 7H11 AAR d   1      53.319  64.898   0.731  0.00  0.00     0.036 H 
ATOM    174 8H11 AAR d   1      51.758  64.074   1.064  0.00  0.00     0.036 H 
BRANCH 172 175
ATOM    175  CG  AAR d   1      52.389  65.453   2.589  0.00  0.00    -0.048 C 
ATOM    176 9H11 AAR d   1      51.790  64.763   3.201  0.00  0.00     0.035 H 
ATOM    177 0H12 AAR d   1      51.995  66.474   2.696  0.00  0.00     0.035 H 
BRANCH 175 178
ATOM    178  CD  AAR d   1      53.846  65.421   3.072  0.00  0.00     0.009 C 
ATOM    179 1H12 AAR d   1      54.384  66.256   2.599  0.00  0.00     0.064 H 
ATOM    180 2H12 AAR d   1      54.294  64.469   2.752  0.00  0.00     0.064 H 
BRANCH 178 181
ATOM    181  NE  AAR d   1      54.004  65.537   4.519  0.00  0.00    -0.227 N 
ATOM    182  CZ  AAR d   1      55.154  65.752   5.146  0.00  0.00     0.665 C 
ATOM    183  NH1 AAR d   1      55.186  65.850   6.462  0.00  0.00    -0.235 N 
ATOM    184  NH2 AAR d   1      56.277  65.884   4.458  0.00  0.00    -0.235 N 
ATOM    185 4H12 AAR d   1      56.081  66.017   6.944  0.00  0.00     0.174 HD
ATOM    186 5H12 AAR d   1      54.316  65.760   7.006  0.00  0.00     0.174 HD
ATOM    187 6H12 AAR d   1      56.264  65.809   3.431  0.00  0.00     0.174 HD
ATOM    188 7H12 AAR d   1      57.164  66.061   4.950  0.00  0.00     0.174 HD
ATOM    189 3H12 AAR d   1      53.157  65.445   5.098  0.00  0.00     0.177 HD
ENDBRANCH 178 181
ENDBRANCH 175 178
ENDBRANCH 172 175
ENDBRANCH 170 172
BRANCH 170 190
ATOM    190  C   AAR d   1      51.533  65.723  -1.347  0.00  0.00     0.238 C 
ATOM    191  O   AAR d   1      50.728  64.892  -1.825  0.00  0.00    -0.271 OA
ATOM    192  NT  AAR d   1      52.392  66.387  -2.103  0.00  0.00    -0.368 N 
ATOM    193 8H12 AAR d   1      52.426  66.218  -3.088  0.00  0.00     0.159 HD
ATOM    194 9H12 AAR d   1      53.008  67.058  -1.689  0.00  0.00     0.159 HD
ENDBRANCH 170 190
ENDBRANCH 168 170
ENDBRANCH 164 166
BRANCH 164 195
ATOM    195  CB  ILE d   1      48.001  67.960   2.162  0.00  0.00    -0.030 C 
ATOM    196 6H10 ILE d   1      48.389  67.246   2.903  0.00  0.00     0.043 H 
BRANCH 195 197
ATOM    197  CG1 ILE d   1      46.575  68.305   2.553  0.00  0.00    -0.063 C 
ATOM    198 7H10 ILE d   1      45.915  67.459   2.311  0.00  0.00     0.033 H 
ATOM    199 8H10 ILE d   1      46.249  69.196   1.997  0.00  0.00     0.033 H 
BRANCH 197 200
ATOM    200  CD1 ILE d   1      46.505  68.592   4.067  0.00  0.00    -0.076 C 
ATOM    201 2H11 ILE d   1      45.471  68.841   4.345  0.00  0.00     0.027 H 
ATOM    202 3H11 ILE d   1      47.164  69.438   4.311  0.00  0.00     0.027 H 
ATOM    203 4H11 ILE d   1      46.830  67.701   4.625  0.00  0.00     0.027 H 
ENDBRANCH 197 200
ENDBRANCH 195 197
BRANCH 195 204
ATOM    204  CG2 ILE d   1      48.914  69.186   2.177  0.00  0.00    -0.071 C 
ATOM    205 9H10 ILE d   1      49.933  68.888   1.888  0.00  0.00     0.028 H 
ATOM    206 0H11 ILE d   1      48.931  69.618   3.188  0.00  0.00     0.028 H 
ATOM    207 1H11 ILE d   1      48.535  69.934   1.465  0.00  0.00     0.028 H 
ENDBRANCH 195 204
ENDBRANCH 164 195
ENDBRANCH 162 164
ENDBRANCH 158 160
BRANCH 158 208
ATOM    208  CB  GLU d   1      47.435  62.835  -0.682  0.00  0.00    -0.029 C 
ATOM    209 0H10 GLU d   1      47.534  62.928  -1.774  0.00  0.00     0.037 H 
ATOM    210 1H10 GLU d   1      46.968  61.870  -0.438  0.00  0.00     0.037 H 
BRANCH 208 211
ATOM    211  CG  GLU d   1      48.791  62.818  -0.121  0.00  0.00     0.018 C 
ATOM    212 2H10 GLU d   1      49.304  63.741  -0.429  0.00  0.00     0.049 H 
ATOM    213 3H10 GLU d   1      49.324  61.948  -0.532  0.00  0.00     0.049 H 
BRANCH 211 214
ATOM    214  CD  GLU d   1      48.834  62.732   1.384  0.00  0.00     0.172 C 
ATOM    215  OE1 GLU d   1      48.563  61.620   1.937  0.00  0.00    -0.648 OA
ATOM    216  OE2 GLU d   1      49.219  63.776   1.962  0.00  0.00    -0.648 OA
ENDBRANCH 211 214
ENDBRANCH 208 211
ENDBRANCH 158 208
ENDBRANCH 156 158
ENDBRANCH 152 154
BRANCH 152 217
ATOM    217  CB  ARG d   1      42.616  65.854  -2.154  0.00  0.00    -0.049 C 
ATOM    218  H95 ARG d   1      43.398  66.219  -2.837  0.00  0.00     0.030 H 
ATOM    219  H96 ARG d   1      42.522  66.544  -1.302  0.00  0.00     0.030 H 
ATOM    220  H97 ARG d   1      41.657  65.800  -2.690  0.00  0.00     0.030 H 
ENDBRANCH 152 217
ENDBRANCH 150 152
ENDBRANCH 146 148
BRANCH 146 221
ATOM    221  CB  LEU d   1      40.740  62.039   1.256  0.00  0.00    -0.035 C 
ATOM    222  H84 LEU d   1      41.389  62.811   1.695  0.00  0.00     0.037 H 
ATOM    223  H85 LEU d   1      41.353  61.184   0.936  0.00  0.00     0.037 H 
BRANCH 221 224
ATOM    224  CG  LEU d   1      39.802  61.536   2.379  0.00  0.00    -0.059 C 
ATOM    225  H86 LEU d   1      39.214  60.698   1.978  0.00  0.00     0.038 H 
BRANCH 224 226
ATOM    226  CD1 LEU d   1      40.606  61.016   3.538  0.00  0.00    -0.073 C 
ATOM    227  H87 LEU d   1      39.926  60.663   4.327  0.00  0.00     0.028 H 
ATOM    228  H88 LEU d   1      41.241  61.822   3.935  0.00  0.00     0.028 H 
ATOM    229  H89 LEU d   1      41.240  60.183   3.200  0.00  0.00     0.028 H 
ENDBRANCH 224 226
BRANCH 224 230
ATOM    230  CD2 LEU d   1      38.832  62.613   2.799  0.00  0.00    -0.073 C 
ATOM    231  H90 LEU d   1      38.268  62.961   1.921  0.00  0.00     0.028 H 
ATOM    232  H91 LEU d   1      39.387  63.456   3.237  0.00  0.00     0.028 H 
ATOM    233  H92 LEU d   1      38.134  62.207   3.546  0.00  0.00     0.028 H 
ENDBRANCH 224 230
ENDBRANCH 221 224
ENDBRANCH 146 221
ENDBRANCH 144 146
ENDBRANCH 140 142
BRANCH 140 234
ATOM    234  CB  ALA d   1      36.152  61.622  -2.633  0.00  0.00    -0.049 C 
ATOM    235  H79 ALA d   1      36.871  61.925  -3.408  0.00  0.00     0.030 H 
ATOM    236  H80 ALA d   1      35.529  62.484  -2.354  0.00  0.00     0.030 H 
ATOM    237  H81 ALA d   1      35.511  60.817  -3.022  0.00  0.00     0.030 H 
ENDBRANCH 140 234
ENDBRANCH 138 140
ENDBRANCH 134 136
BRANCH 134 238
ATOM    238  CB  VAL d   1      35.500  59.191   2.832  0.00  0.00    -0.033 C 
ATOM    239  H70 VAL d   1      36.339  58.486   2.926  0.00  0.00     0.042 H 
BRANCH 238 240
ATOM    240  CG1 VAL d   1      35.971  60.550   3.305  0.00  0.00    -0.071 C 
ATOM    241  H71 VAL d   1      36.274  60.486   4.361  0.00  0.00     0.028 H 
ATOM    242  H72 VAL d   1      35.153  61.278   3.202  0.00  0.00     0.028 H 
ATOM    243  H73 VAL d   1      36.828  60.873   2.696  0.00  0.00     0.028 H 
ENDBRANCH 238 240
BRANCH 238 244
ATOM    244  CG2 VAL d   1      34.354  58.681   3.665  0.00  0.00    -0.071 C 
ATOM    245  H74 VAL d   1      34.040  57.695   3.292  0.00  0.00     0.028 H 
ATOM    246  H75 VAL d   1      33.510  59.384   3.598  0.00  0.00     0.028 H 
ATOM    247  H76 VAL d   1      34.674  58.592   4.714  0.00  0.00     0.028 H 
ENDBRANCH 238 244
ENDBRANCH 134 238
ENDBRANCH 132 134
ENDBRANCH   1 130
BRANCH   1 248
ATOM    248  CB  THR d   1      34.750  55.982  -1.345  0.00  0.00     0.060 C 
ATOM    249  H63 THR d   1      35.667  56.074  -0.745  0.00  0.00     0.086 H 
BRANCH 248 250
ATOM    250  OG1 THR d   1      34.785  56.894  -2.402  0.00  0.00    -0.393 OA
ATOM    251  H64 THR d   1      33.980  56.828  -2.903  0.00  0.00     0.210 HD
ENDBRANCH 248 250
BRANCH 248 252
ATOM    252  CG2 THR d   1      34.669  54.497  -1.930  0.00  0.00    -0.050 C 
ATOM    253  H65 THR d   1      35.557  54.297  -2.547  0.00  0.00     0.031 H 
ATOM    254  H66 THR d   1      33.764  54.395  -2.547  0.00  0.00     0.031 H 
ATOM    255  H67 THR d   1      34.630  53.777  -1.099  0.00  0.00     0.031 H 
ENDBRANCH 248 252
ENDBRANCH   1 248
TORSDOF 65
