REMARK WARNING: 32 MAX_TORS EXCEEDED!!!
REMARK  35 active torsions:
REMARK  status: ('A' for Active; 'I' for Inactive)
REMARK    1  A    between atoms: CA_2  and  N_1 
REMARK    2  A    between atoms: CA_8  and  CB_11 
REMARK    3  A    between atoms: CB_11  and  CG_12 
REMARK    4  A    between atoms: CG_12  and  CD_13 
REMARK       I    between atoms: CD_13  and  NE2_15 
REMARK    5  A    between atoms: CA_17  and  CB_20 
REMARK    6  A    between atoms: CB_20  and  CG_21 
REMARK    7  A    between atoms: CA_28  and  CB_31 
REMARK    8  A    between atoms: CB_31  and  CG_32 
REMARK    9  A    between atoms: CB_39  and  CA_38 
REMARK   10  A    between atoms: CG_40  and  CB_39 
REMARK   11  A    between atoms: CB_39  and  CAO_47 
REMARK   12  A    between atoms: CA_53  and  CB_56 
REMARK   13  A    between atoms: CB_56  and  OG_57 
REMARK   14  A    between atoms: CA_59  and  CB_62 
REMARK   15  A    between atoms: CB_62  and  OG1_63 
REMARK   16  A    between atoms: CB_62  and  CG2_64 
REMARK   17  A    between atoms: CA_66  and  CB_69 
REMARK   18  A    between atoms: CB_69  and  CG_70 
REMARK   19  A    between atoms: CG_70  and  CD_71 
REMARK   20  A    between atoms: CD_71  and  NE_72 
REMARK       I    between atoms: NE_72  and  CZ_73 
REMARK       I    between atoms: CZ_73  and  NH1_74 
REMARK       I    between atoms: CZ_73  and  NH2_75 
REMARK   21  A    between atoms: CA_77  and  CB_80 
REMARK   22  A    between atoms: CB_80  and  CG_81 
REMARK   23  A    between atoms: CG_81  and  CD_82 
REMARK   24  A    between atoms: CD_82  and  NE_83 
REMARK       I    between atoms: NE_83  and  CZ_84 
REMARK       I    between atoms: CZ_84  and  NH1_85 
REMARK   25  A    between atoms: CZ_84  and  NH2_86 
REMARK   26  A    between atoms: CA_88  and  CB_91 
REMARK   27  A    between atoms: CB_91  and  CG_92 
REMARK   28  A    between atoms: CG_92  and  CD1_93 
REMARK   29  A    between atoms: CG_92  and  CD2_94 
REMARK   30  A    between atoms: CA_96  and  CB_99 
REMARK   31  A    between atoms: CB_99  and  CG_100 
REMARK   32  A    between atoms: CG_100  and  CD_101 
REMARK   33  A    between atoms: CD_101  and  CE_102 
REMARK   34  A    between atoms: CE_102  and  NZ_103 
REMARK   35  A    between atoms: CA_105  and  C_106 
ROOT
ATOM      1  CA  CYS d   1     -16.457  33.053 -28.540  0.00  0.00     0.184 C 
ATOM      2  C   CYS d   1     -17.071  34.420 -28.313  0.00  0.00     0.249 C 
ATOM      3  O   CYS d   1     -16.620  35.178 -27.454  0.00  0.00    -0.271 OA
ATOM      4  CB  CYS d   1     -17.257  32.012 -27.767  0.00  0.00     0.021 C 
ATOM      5  SG  CYS d   1     -17.408  30.432 -28.605  0.00  0.00    -0.095 SA
ATOM      6  N   CYS d   1     -18.442  31.054 -32.401  0.00  0.00    -0.344 N 
ATOM      7  CA  CYS d   1     -17.054  30.744 -32.096  0.00  0.00     0.105 C 
ATOM      8  CB  CYS d   1     -16.980  29.413 -31.356  0.00  0.00     0.015 C 
ATOM      9  SG  CYS d   1     -18.224  29.260 -30.037  0.00  0.00    -0.095 SA
ATOM     10  H4  CYS d   1     -16.520  32.819 -29.613  0.00  0.00     0.100 H 
ATOM     11  H5  CYS d   1     -18.268  32.410 -27.596  0.00  0.00     0.054 H 
ATOM     12  H6  CYS d   1     -16.761  31.844 -26.800  0.00  0.00     0.054 H 
ATOM     13 3H10 CYS d   1     -19.015  30.373 -32.858  0.00  0.00     0.163 HD
ATOM     14 4H10 CYS d   1     -16.664  31.530 -31.433  0.00  0.00     0.090 H 
ATOM     15 5H10 CYS d   1     -15.980  29.317 -30.907  0.00  0.00     0.054 H 
ATOM     16 6H10 CYS d   1     -17.136  28.600 -32.081  0.00  0.00     0.054 H 
ATOM     17  N   GLN d   1     -18.110  34.729 -29.082  0.00  0.00    -0.346 N 
ATOM     18  CA  GLN d   1     -18.786  36.007 -28.948  0.00  0.00     0.090 C 
ATOM     19  C   GLN d   1     -20.270  35.894 -29.194  0.00  0.00     0.241 C 
ATOM     20  O   GLN d   1     -20.712  35.161 -30.083  0.00  0.00    -0.271 OA
ATOM     21  H7  GLN d   1     -18.431  34.071 -29.763  0.00  0.00     0.163 HD
ATOM     22  H8  GLN d   1     -18.635  36.362 -27.918  0.00  0.00     0.087 H 
ATOM     23  N   PHE d   1     -21.030  36.629 -28.389  0.00  0.00    -0.346 N 
ATOM     24  CA  PHE d   1     -22.470  36.733 -28.553  0.00  0.00     0.093 C 
ATOM     25  C   PHE d   1     -22.777  37.402 -29.878  0.00  0.00     0.241 C 
ATOM     26  O   PHE d   1     -22.152  38.396 -30.232  0.00  0.00    -0.271 OA
ATOM     27  H15 PHE d   1     -20.594  37.130 -27.641  0.00  0.00     0.163 HD
ATOM     28  H16 PHE d   1     -22.915  35.727 -28.537  0.00  0.00     0.088 H 
ATOM     29  N   ASP d   1     -23.734  36.846 -30.611  0.00  0.00    -0.345 N 
ATOM     30  CA  ASP d   1     -24.148  37.399 -31.894  0.00  0.00     0.098 C 
ATOM     31  C   ASP d   1     -25.613  37.781 -31.811  0.00  0.00     0.241 C 
ATOM     32  O   ASP d   1     -26.444  36.944 -31.462  0.00  0.00    -0.271 OA
ATOM     33  H24 ASP d   1     -24.186  36.021 -30.272  0.00  0.00     0.163 HD
ATOM     34  H25 ASP d   1     -23.545  38.291 -32.118  0.00  0.00     0.088 H 
ATOM     35  C   2GX d   1     -28.223  38.726 -32.929  0.00  0.00     0.242 C 
ATOM     36  N   2GX d   1     -25.928  39.034 -32.134  0.00  0.00    -0.345 N 
ATOM     37  O   2GX d   1     -29.352  38.416 -32.528  0.00  0.00    -0.271 OA
ATOM     38  CA  2GX d   1     -27.297  39.509 -32.061  0.00  0.00     0.100 C 
ATOM     39  H28 2GX d   1     -25.207  39.660 -32.433  0.00  0.00     0.163 HD
ATOM     40  H29 2GX d   1     -27.623  39.410 -31.015  0.00  0.00     0.089 H 
ATOM     41  N   SER d   1     -27.777  38.437 -34.143  0.00  0.00    -0.344 N 
ATOM     42  CA  SER d   1     -28.615  37.818 -35.168  0.00  0.00     0.109 C 
ATOM     43  C   SER d   1     -29.358  36.590 -34.661  0.00  0.00     0.243 C 
ATOM     44  O   SER d   1     -30.552  36.428 -34.910  0.00  0.00    -0.271 OA
ATOM     45  H41 SER d   1     -26.826  38.652 -34.367  0.00  0.00     0.163 HD
ATOM     46  H42 SER d   1     -29.366  38.558 -35.482  0.00  0.00     0.090 H 
ATOM     47  N   THR d   1     -28.648  35.751 -33.914  0.00  0.00    -0.344 N 
ATOM     48  CA  THR d   1     -29.200  34.494 -33.422  0.00  0.00     0.113 C 
ATOM     49  C   THR d   1     -29.389  34.501 -31.905  0.00  0.00     0.243 C 
ATOM     50  O   THR d   1     -29.999  33.592 -31.335  0.00  0.00    -0.271 OA
ATOM     51  H46 THR d   1     -27.705  35.989 -33.682  0.00  0.00     0.163 HD
ATOM     52  H47 THR d   1     -30.181  34.343 -33.896  0.00  0.00     0.091 H 
ATOM     53  N   ARG d   1     -28.858  35.532 -31.257  0.00  0.00    -0.346 N 
ATOM     54  CA  ARG d   1     -28.718  35.554 -29.802  0.00  0.00     0.089 C 
ATOM     55  C   ARG d   1     -27.987  34.303 -29.320  0.00  0.00     0.241 C 
ATOM     56  O   ARG d   1     -28.308  33.743 -28.274  0.00  0.00    -0.271 OA
ATOM     57  N   ARG d   1     -26.999  33.873 -30.095  0.00  0.00    -0.346 N 
ATOM     58  CA  ARG d   1     -26.207  32.719 -29.734  0.00  0.00     0.089 C 
ATOM     59  C   ARG d   1     -24.726  33.064 -29.766  0.00  0.00     0.241 C 
ATOM     60  O   ARG d   1     -24.314  34.045 -30.394  0.00  0.00    -0.271 OA
ATOM     61  H53 ARG d   1     -28.543  36.322 -31.784  0.00  0.00     0.163 HD
ATOM     62  H54 ARG d   1     -28.108  36.430 -29.535  0.00  0.00     0.087 H 
ATOM     63  H66 ARG d   1     -26.798  34.358 -30.947  0.00  0.00     0.163 HD
ATOM     64  H67 ARG d   1     -26.473  32.412 -28.712  0.00  0.00     0.087 H 
ATOM     65  N   LEU d   1     -23.926  32.270 -29.070  0.00  0.00    -0.346 N 
ATOM     66  CA  LEU d   1     -22.486  32.435 -29.143  0.00  0.00     0.089 C 
ATOM     67  C   LEU d   1     -21.982  31.986 -30.509  0.00  0.00     0.241 C 
ATOM     68  O   LEU d   1     -22.400  30.944 -31.016  0.00  0.00    -0.271 OA
ATOM     69  H79 LEU d   1     -24.316  31.554 -28.492  0.00  0.00     0.163 HD
ATOM     70  H80 LEU d   1     -22.244  33.500 -29.008  0.00  0.00     0.087 H 
ATOM     71  N   LYS d   1     -21.102  32.786 -31.106  0.00  0.00    -0.346 N 
ATOM     72  CA  LYS d   1     -20.431  32.416 -32.349  0.00  0.00     0.089 C 
ATOM     73  C   LYS d   1     -18.952  32.232 -32.078  0.00  0.00     0.241 C 
ATOM     74  O   LYS d   1     -18.280  33.136 -31.583  0.00  0.00    -0.271 OA
ATOM     75  H90 LYS d   1     -20.893  33.671 -30.689  0.00  0.00     0.163 HD
ATOM     76  H91 LYS d   1     -20.853  31.466 -32.708  0.00  0.00     0.087 H 
ENDROOT
BRANCH  38  77
ATOM     77  CB  2GX d   1     -27.452  40.941 -32.477  0.00  0.00     0.025 C 
ATOM     78  H30 2GX d   1     -27.017  41.037 -33.483  0.00  0.00     0.058 H 
BRANCH  77  79
ATOM     79  CG  2GX d   1     -28.927  41.281 -32.582  0.00  0.00    -0.047 A 
ATOM     80  CD1 2GX d   1     -29.712  41.429 -31.412  0.00  0.00    -0.076 A 
ATOM     81  CE1 2GX d   1     -31.087  41.704 -31.496  0.00  0.00    -0.082 A 
ATOM     82  H37 2GX d   1     -29.245  41.329 -30.439  0.00  0.00     0.084 H 
ATOM     83  CZ  2GX d   1     -31.692  41.813 -32.746  0.00  0.00    -0.083 A 
ATOM     84  H39 2GX d   1     -31.674  41.831 -30.593  0.00  0.00     0.083 H 
ATOM     85  CE2 2GX d   1     -30.925  41.647 -33.920  0.00  0.00    -0.082 A 
ATOM     86  H31 2GX d   1     -32.753  42.025 -32.818  0.00  0.00     0.083 H 
ATOM     87  CD2 2GX d   1     -29.552  41.381 -33.837  0.00  0.00    -0.076 A 
ATOM     88  H40 2GX d   1     -31.401  41.726 -34.891  0.00  0.00     0.083 H 
ATOM     89  H38 2GX d   1     -28.970  41.252 -34.743  0.00  0.00     0.084 H 
ENDBRANCH  77  79
BRANCH  77  90
ATOM     90  CAO 2GX d   1     -26.713  41.914 -31.588  0.00  0.00    -0.047 A 
ATOM     91  CAL 2GX d   1     -26.030  42.981 -32.146  0.00  0.00    -0.076 A 
ATOM     92  CAH 2GX d   1     -25.338  43.868 -31.320  0.00  0.00    -0.082 A 
ATOM     93  H35 2GX d   1     -26.033  43.127 -33.220  0.00  0.00     0.084 H 
ATOM     94  CAE 2GX d   1     -25.327  43.686 -29.941  0.00  0.00    -0.083 A 
ATOM     95  H33 2GX d   1     -24.805  44.705 -31.756  0.00  0.00     0.083 H 
ATOM     96  CAI 2GX d   1     -25.994  42.611 -29.380  0.00  0.00    -0.082 A 
ATOM     97  H32 2GX d   1     -24.796  44.386 -29.306  0.00  0.00     0.083 H 
ATOM     98  CAM 2GX d   1     -26.676  41.727 -30.204  0.00  0.00    -0.076 A 
ATOM     99  H34 2GX d   1     -25.984  42.461 -28.306  0.00  0.00     0.083 H 
ATOM    100  H36 2GX d   1     -27.188  40.878 -29.767  0.00  0.00     0.084 H 
ENDBRANCH  77  90
ENDBRANCH  38  77
BRANCH  42 101
ATOM    101  CB  SER d   1     -27.755  37.456 -36.385  0.00  0.00     0.044 C 
ATOM    102  H43 SER d   1     -28.415  37.234 -37.237  0.00  0.00     0.077 H 
ATOM    103  H44 SER d   1     -27.153  36.567 -36.147  0.00  0.00     0.077 H 
BRANCH 101 104
ATOM    104  OG  SER d   1     -26.882  38.528 -36.739  0.00  0.00    -0.398 OA
ATOM    105  H45 SER d   1     -26.363  38.276 -37.494  0.00  0.00     0.209 HD
ENDBRANCH 101 104
ENDBRANCH  42 101
BRANCH  30 106
ATOM    106  CB  ASP d   1     -23.958  36.367 -33.009  0.00  0.00     0.043 C 
ATOM    107  H26 ASP d   1     -24.611  35.505 -32.806  0.00  0.00     0.052 H 
ATOM    108  H27 ASP d   1     -22.908  36.039 -33.010  0.00  0.00     0.052 H 
BRANCH 106 109
ATOM    109  CG  ASP d   1     -24.296  36.920 -34.386  0.00  0.00     0.175 C 
ATOM    110  OD1 ASP d   1     -23.688  37.935 -34.787  0.00  0.00    -0.648 OA
ATOM    111  OD2 ASP d   1     -25.165  36.339 -35.073  0.00  0.00    -0.648 OA
ENDBRANCH 106 109
ENDBRANCH  30 106
BRANCH  48 112
ATOM    112  CB  THR d   1     -28.281  33.314 -33.794  0.00  0.00     0.060 C 
ATOM    113  H48 THR d   1     -28.672  32.392 -33.339  0.00  0.00     0.086 H 
BRANCH 112 114
ATOM    114  OG1 THR d   1     -26.957  33.566 -33.304  0.00  0.00    -0.393 OA
ATOM    115  H49 THR d   1     -26.392  32.838 -33.534  0.00  0.00     0.210 HD
ENDBRANCH 112 114
BRANCH 112 116
ATOM    116  CG2 THR d   1     -28.223  33.144 -35.311  0.00  0.00    -0.050 C 
ATOM    117  H50 THR d   1     -27.564  32.299 -35.560  0.00  0.00     0.031 H 
ATOM    118  H51 THR d   1     -27.829  34.064 -35.768  0.00  0.00     0.031 H 
ATOM    119  H52 THR d   1     -29.234  32.947 -35.697  0.00  0.00     0.031 H 
ENDBRANCH 112 116
ENDBRANCH  48 112
BRANCH  24 120
ATOM    120  CB  PHE d   1     -23.056  37.568 -27.416  0.00  0.00    -0.014 C 
ATOM    121  H17 PHE d   1     -22.652  38.588 -27.492  0.00  0.00     0.043 H 
ATOM    122  H18 PHE d   1     -22.744  37.120 -26.461  0.00  0.00     0.043 H 
BRANCH 120 123
ATOM    123  CG  PHE d   1     -24.559  37.652 -27.431  0.00  0.00    -0.056 A 
ATOM    124  CD1 PHE d   1     -25.333  36.535 -27.143  0.00  0.00    -0.077 A 
ATOM    125  CE1 PHE d   1     -26.721  36.611 -27.150  0.00  0.00    -0.082 A 
ATOM    126  H19 PHE d   1     -24.849  35.593 -26.910  0.00  0.00     0.084 H 
ATOM    127  CZ  PHE d   1     -27.353  37.806 -27.442  0.00  0.00    -0.083 A 
ATOM    128  H21 PHE d   1     -27.311  35.730 -26.926  0.00  0.00     0.083 H 
ATOM    129  CE2 PHE d   1     -26.592  38.930 -27.733  0.00  0.00    -0.082 A 
ATOM    130  H23 PHE d   1     -28.435  37.865 -27.444  0.00  0.00     0.083 H 
ATOM    131  CD2 PHE d   1     -25.200  38.848 -27.725  0.00  0.00    -0.077 A 
ATOM    132  H22 PHE d   1     -27.079  39.870 -27.966  0.00  0.00     0.083 H 
ATOM    133  H20 PHE d   1     -24.611  39.729 -27.951  0.00  0.00     0.084 H 
ENDBRANCH 120 123
ENDBRANCH  24 120
BRANCH  54 134
ATOM    134  CB  ARG d   1     -30.067  35.695 -29.101  0.00  0.00    -0.036 C 
ATOM    135  H55 ARG d   1     -29.905  35.627 -28.015  0.00  0.00     0.036 H 
ATOM    136  H56 ARG d   1     -30.718  34.870 -29.427  0.00  0.00     0.036 H 
BRANCH 134 137
ATOM    137  CG  ARG d   1     -30.764  37.003 -29.401  0.00  0.00    -0.048 C 
ATOM    138  H57 ARG d   1     -31.167  36.974 -30.424  0.00  0.00     0.035 H 
ATOM    139  H58 ARG d   1     -30.042  37.828 -29.315  0.00  0.00     0.035 H 
BRANCH 137 140
ATOM    140  CD  ARG d   1     -31.889  37.225 -28.431  0.00  0.00     0.009 C 
ATOM    141  H59 ARG d   1     -31.468  37.433 -27.436  0.00  0.00     0.064 H 
ATOM    142  H60 ARG d   1     -32.506  36.315 -28.385  0.00  0.00     0.064 H 
BRANCH 140 143
ATOM    143  NE  ARG d   1     -32.726  38.343 -28.832  0.00  0.00    -0.227 N 
ATOM    144  CZ  ARG d   1     -33.716  38.815 -28.083  0.00  0.00     0.665 C 
ATOM    145  NH1 ARG d   1     -33.973  38.259 -26.902  0.00  0.00    -0.235 N 
ATOM    146  NH2 ARG d   1     -34.445  39.843 -28.502  0.00  0.00    -0.235 N 
ATOM    147  H62 ARG d   1     -34.740  38.622 -26.318  0.00  0.00     0.174 HD
ATOM    148  H63 ARG d   1     -33.405  37.466 -26.572  0.00  0.00     0.174 HD
ATOM    149  H64 ARG d   1     -34.248  40.275 -29.416  0.00  0.00     0.174 HD
ATOM    150  H65 ARG d   1     -35.207  40.208 -27.913  0.00  0.00     0.174 HD
ATOM    151  H61 ARG d   1     -32.543  38.791 -29.741  0.00  0.00     0.177 HD
ENDBRANCH 140 143
ENDBRANCH 137 140
ENDBRANCH 134 137
ENDBRANCH  54 134
BRANCH  18 152
ATOM    152  CB  GLN d   1     -18.200  37.036 -29.901  0.00  0.00    -0.030 C 
ATOM    153  H9  GLN d   1     -18.948  37.824 -30.072  0.00  0.00     0.037 H 
ATOM    154  H10 GLN d   1     -17.966  36.540 -30.854  0.00  0.00     0.037 H 
BRANCH 152 155
ATOM    155  CG  GLN d   1     -16.946  37.671 -29.369  0.00  0.00     0.011 C 
ATOM    156  H11 GLN d   1     -16.134  36.929 -29.382  0.00  0.00     0.047 H 
ATOM    157  H12 GLN d   1     -17.122  38.003 -28.335  0.00  0.00     0.047 H 
BRANCH 155 158
ATOM    158  CD  GLN d   1     -16.543  38.850 -30.199  0.00  0.00     0.215 C 
ATOM    159  OE1 GLN d   1     -17.071  39.053 -31.296  0.00  0.00    -0.274 OA
ATOM    160  NE2 GLN d   1     -15.612  39.647 -29.687  0.00  0.00    -0.370 N 
ATOM    161  H13 GLN d   1     -15.305  40.450 -30.198  0.00  0.00     0.159 HD
ATOM    162  H14 GLN d   1     -15.218  39.444 -28.790  0.00  0.00     0.159 HD
ENDBRANCH 155 158
ENDBRANCH 152 155
ENDBRANCH  18 152
BRANCH  58 163
ATOM    163  CB  ARG d   1     -26.520  31.569 -30.687  0.00  0.00    -0.036 C 
ATOM    164  H68 ARG d   1     -25.875  30.716 -30.431  0.00  0.00     0.036 H 
ATOM    165  H69 ARG d   1     -26.304  31.896 -31.715  0.00  0.00     0.036 H 
BRANCH 163 166
ATOM    166  CG  ARG d   1     -27.971  31.118 -30.616  0.00  0.00    -0.048 C 
ATOM    167  H70 ARG d   1     -28.160  30.403 -31.430  0.00  0.00     0.035 H 
ATOM    168  H71 ARG d   1     -28.622  31.996 -30.740  0.00  0.00     0.035 H 
BRANCH 166 169
ATOM    169  CD  ARG d   1     -28.302  30.441 -29.274  0.00  0.00     0.009 C 
ATOM    170  H72 ARG d   1     -29.256  29.902 -29.366  0.00  0.00     0.064 H 
ATOM    171  H73 ARG d   1     -28.389  31.210 -28.492  0.00  0.00     0.064 H 
BRANCH 169 172
ATOM    172  NE  ARG d   1     -27.253  29.500 -28.906  0.00  0.00    -0.227 N 
ATOM    173  CZ  ARG d   1     -27.077  28.314 -29.483  0.00  0.00     0.665 C 
ATOM    174  NH1 ARG d   1     -27.897  27.906 -30.449  0.00  0.00    -0.235 N 
ATOM    175  H75 ARG d   1     -27.755  26.987 -30.891  0.00  0.00     0.174 HD
ATOM    176  H76 ARG d   1     -28.674  28.510 -30.754  0.00  0.00     0.174 HD
ATOM    177  H74 ARG d   1     -26.606  29.770 -28.151  0.00  0.00     0.177 HD
BRANCH 173 178
ATOM    178  NH2 ARG d   1     -26.078  27.539 -29.092  0.00  0.00    -0.235 N 
ATOM    179  H77 ARG d   1     -25.444  27.855 -28.345  0.00  0.00     0.174 HD
ATOM    180  H78 ARG d   1     -25.935  26.620 -29.535  0.00  0.00     0.174 HD
ENDBRANCH 173 178
ENDBRANCH 169 172
ENDBRANCH 166 169
ENDBRANCH 163 166
ENDBRANCH  58 163
BRANCH   1 181
ATOM    181  N   CYS d   1     -15.054  33.011 -28.149  0.00  0.00    -0.066 N 
ATOM    182  H1  CYS d   1     -14.686  32.087 -28.316  0.00  0.00     0.275 HD
ATOM    183  H2  CYS d   1     -14.971  33.234 -27.169  0.00  0.00     0.275 HD
ATOM    184  H3  CYS d   1     -14.534  33.683 -28.691  0.00  0.00     0.275 HD
ENDBRANCH   1 181
BRANCH  66 185
ATOM    185  CB  LEU d   1     -21.804  31.635 -28.038  0.00  0.00    -0.035 C 
ATOM    186  H81 LEU d   1     -20.719  31.679 -28.212  0.00  0.00     0.037 H 
ATOM    187  H82 LEU d   1     -22.146  30.593 -28.118  0.00  0.00     0.037 H 
BRANCH 185 188
ATOM    188  CG  LEU d   1     -22.067  32.105 -26.607  0.00  0.00    -0.059 C 
ATOM    189  H83 LEU d   1     -23.154  32.136 -26.445  0.00  0.00     0.038 H 
BRANCH 188 190
ATOM    190  CD1 LEU d   1     -21.462  31.131 -25.619  0.00  0.00    -0.073 C 
ATOM    191  H84 LEU d   1     -21.657  31.479 -24.594  0.00  0.00     0.028 H 
ATOM    192  H85 LEU d   1     -20.376  31.068 -25.784  0.00  0.00     0.028 H 
ATOM    193  H86 LEU d   1     -21.913  30.138 -25.761  0.00  0.00     0.028 H 
ENDBRANCH 188 190
BRANCH 188 194
ATOM    194  CD2 LEU d   1     -21.512  33.499 -26.390  0.00  0.00    -0.073 C 
ATOM    195  H87 LEU d   1     -21.963  34.191 -27.117  0.00  0.00     0.028 H 
ATOM    196  H88 LEU d   1     -20.421  33.485 -26.527  0.00  0.00     0.028 H 
ATOM    197  H89 LEU d   1     -21.749  33.833 -25.369  0.00  0.00     0.028 H 
ENDBRANCH 188 194
ENDBRANCH 185 188
ENDBRANCH  66 185
BRANCH   7 198
ATOM    198  C   CYS d   1     -16.190  30.721 -33.358  0.00  0.00     0.197 C 
ATOM    199  O   CYS d   1     -16.593  30.180 -34.389  0.00  0.00    -0.646 OA
ATOM    200  OXT CYS d   1     -15.076  31.250 -33.379  0.00  0.00    -0.646 OA
ENDBRANCH   7 198
BRANCH  72 201
ATOM    201  CB  LYS d   1     -20.625  33.478 -33.434  0.00  0.00    -0.038 C 
ATOM    202  H92 LYS d   1     -19.918  33.267 -34.250  0.00  0.00     0.036 H 
ATOM    203  H93 LYS d   1     -20.397  34.461 -32.996  0.00  0.00     0.036 H 
BRANCH 201 204
ATOM    204  CG  LYS d   1     -22.026  33.536 -34.025  0.00  0.00    -0.061 C 
ATOM    205  H94 LYS d   1     -22.693  34.049 -33.317  0.00  0.00     0.033 H 
ATOM    206  H95 LYS d   1     -22.388  32.511 -34.193  0.00  0.00     0.033 H 
BRANCH 204 207
ATOM    207  CD  LYS d   1     -22.034  34.288 -35.349  0.00  0.00    -0.043 C 
ATOM    208  H96 LYS d   1     -21.495  35.239 -35.225  0.00  0.00     0.035 H 
ATOM    209  H97 LYS d   1     -23.075  34.492 -35.640  0.00  0.00     0.035 H 
BRANCH 207 210
ATOM    210  CE  LYS d   1     -21.362  33.475 -36.447  0.00  0.00     0.080 C 
ATOM    211  H98 LYS d   1     -22.044  32.673 -36.766  0.00  0.00     0.075 H 
ATOM    212  H99 LYS d   1     -20.436  33.033 -36.049  0.00  0.00     0.075 H 
BRANCH 210 213
ATOM    213  NZ  LYS d   1     -21.028  34.319 -37.621  0.00  0.00    -0.079 N 
ATOM    214 0H10 LYS d   1     -20.586  33.752 -38.328  0.00  0.00     0.274 HD
ATOM    215 1H10 LYS d   1     -20.399  35.054 -37.338  0.00  0.00     0.274 HD
ATOM    216 2H10 LYS d   1     -21.872  34.724 -37.995  0.00  0.00     0.274 HD
ENDBRANCH 210 213
ENDBRANCH 207 210
ENDBRANCH 204 207
ENDBRANCH 201 204
ENDBRANCH  72 201
TORSDOF 35
