REMARK WARNING: 32 MAX_TORS EXCEEDED!!!
REMARK  37 active torsions:
REMARK  status: ('A' for Active; 'I' for Inactive)
REMARK    1  A    between atoms: CA_2  and  N_1 
REMARK    2  A    between atoms: CA_8  and  CB_11 
REMARK    3  A    between atoms: CB_11  and  CG_12 
REMARK    4  A    between atoms: CG_12  and  CD_13 
REMARK       I    between atoms: CD_13  and  NE2_15 
REMARK    5  A    between atoms: CB_20  and  CA_19 
REMARK    6  A    between atoms: CG_21  and  CB_20 
REMARK    7  A    between atoms: CB_20  and  CAO_28 
REMARK    8  A    between atoms: CA_34  and  CB_37 
REMARK    9  A    between atoms: CB_37  and  CG_38 
REMARK   10  A    between atoms: CA_42  and  CB_45 
REMARK   11  A    between atoms: CB_45  and  CG_46 
REMARK   12  A    between atoms: CG_46  and  CD1_47 
REMARK   13  A    between atoms: CG_46  and  CD2_48 
REMARK   14  A    between atoms: CA_50  and  CB_53 
REMARK   15  A    between atoms: CB_53  and  OG_54 
REMARK   16  A    between atoms: CA_56  and  CB_59 
REMARK   17  A    between atoms: CB_59  and  OG1_60 
REMARK   18  A    between atoms: CB_59  and  CG2_61 
REMARK   19  A    between atoms: CA_63  and  CB_66 
REMARK   20  A    between atoms: CB_66  and  CG_67 
REMARK   21  A    between atoms: CG_67  and  CD_68 
REMARK   22  A    between atoms: CD_68  and  NE_69 
REMARK       I    between atoms: NE_69  and  CZ_70 
REMARK       I    between atoms: CZ_70  and  NH1_71 
REMARK       I    between atoms: CZ_70  and  NH2_72 
REMARK   23  A    between atoms: CA_74  and  CB_77 
REMARK   24  A    between atoms: CB_77  and  CG_78 
REMARK   25  A    between atoms: CG_78  and  CD_79 
REMARK   26  A    between atoms: CD_79  and  NE_80 
REMARK       I    between atoms: NE_80  and  CZ_81 
REMARK       I    between atoms: CZ_81  and  NH1_82 
REMARK   27  A    between atoms: CZ_81  and  NH2_83 
REMARK   28  A    between atoms: CA_85  and  CB_88 
REMARK   29  A    between atoms: CB_88  and  CG_89 
REMARK   30  A    between atoms: CG_89  and  CD1_90 
REMARK   31  A    between atoms: CG_89  and  CD2_91 
REMARK   32  A    between atoms: CA_93  and  CB_96 
REMARK   33  A    between atoms: CB_96  and  CG_97 
REMARK   34  A    between atoms: CG_97  and  CD_98 
REMARK   35  A    between atoms: CD_98  and  CE_99 
REMARK   36  A    between atoms: CE_99  and  NZ_100 
REMARK   37  A    between atoms: CA_102  and  C_103 
ROOT
ATOM      1  CA  CYS d   1      15.185  33.247  29.436  0.00  0.00     0.184 C 
ATOM      2  C   CYS d   1      15.764  34.650  29.551  0.00  0.00     0.249 C 
ATOM      3  O   CYS d   1      15.194  35.624  29.059  0.00  0.00    -0.271 OA
ATOM      4  CB  CYS d   1      16.302  32.271  29.775  0.00  0.00     0.021 C 
ATOM      5  SG  CYS d   1      16.077  30.612  29.153  0.00  0.00    -0.095 SA
ATOM      6  N   CYS d   1      18.388  30.603  32.749  0.00  0.00    -0.344 N 
ATOM      7  CA  CYS d   1      16.987  30.223  32.590  0.00  0.00     0.105 C 
ATOM      8  CB  CYS d   1      16.863  29.048  31.627  0.00  0.00     0.015 C 
ATOM      9  SG  CYS d   1      17.487  29.404  29.976  0.00  0.00    -0.095 SA
ATOM     10  H4  CYS d   1      14.368  33.138  30.164  0.00  0.00     0.100 H 
ATOM     11  H5  CYS d   1      16.384  32.215  30.870  0.00  0.00     0.054 H 
ATOM     12  H6  CYS d   1      17.239  32.667  29.356  0.00  0.00     0.054 H 
ATOM     13 5H10 CYS d   1      19.049  29.909  33.034  0.00  0.00     0.163 HD
ATOM     14 6H10 CYS d   1      16.437  31.081  32.176  0.00  0.00     0.090 H 
ATOM     15 7H10 CYS d   1      15.801  28.775  31.546  0.00  0.00     0.054 H 
ATOM     16 8H10 CYS d   1      17.430  28.200  32.038  0.00  0.00     0.054 H 
ATOM     17  N   GLN d   1      16.907  34.734  30.220  0.00  0.00    -0.346 N 
ATOM     18  CA  GLN d   1      17.690  35.961  30.271  0.00  0.00     0.090 C 
ATOM     19  C   GLN d   1      19.132  35.736  29.791  0.00  0.00     0.241 C 
ATOM     20  O   GLN d   1      19.715  34.664  29.987  0.00  0.00    -0.271 OA
ATOM     21  H7  GLN d   1      17.242  33.927  30.706  0.00  0.00     0.163 HD
ATOM     22  H8  GLN d   1      17.210  36.699  29.611  0.00  0.00     0.087 H 
ATOM     23  C   2GX d   1      21.748  37.522  30.018  0.00  0.00     0.242 C 
ATOM     24  N   2GX d   1      19.707  36.757  29.168  0.00  0.00    -0.345 N 
ATOM     25  O   2GX d   1      21.408  38.685  30.224  0.00  0.00    -0.271 OA
ATOM     26  CA  2GX d   1      21.121  36.765  28.912  0.00  0.00     0.100 C 
ATOM     27  H15 2GX d   1      19.148  37.532  28.872  0.00  0.00     0.163 HD
ATOM     28  H16 2GX d   1      21.490  35.729  28.892  0.00  0.00     0.089 H 
ATOM     29  N   ASP d   1      22.685  36.899  30.730  0.00  0.00    -0.345 N 
ATOM     30  CA  ASP d   1      23.244  37.510  31.931  0.00  0.00     0.098 C 
ATOM     31  C   ASP d   1      24.612  38.124  31.668  0.00  0.00     0.241 C 
ATOM     32  O   ASP d   1      25.540  37.423  31.266  0.00  0.00    -0.271 OA
ATOM     33  H28 ASP d   1      23.010  36.000  30.437  0.00  0.00     0.163 HD
ATOM     34  H29 ASP d   1      22.566  38.310  32.262  0.00  0.00     0.088 H 
ATOM     35  N   LEU d   1      24.733  39.431  31.908  0.00  0.00    -0.346 N 
ATOM     36  CA  LEU d   1      25.962  40.172  31.607  0.00  0.00     0.089 C 
ATOM     37  C   LEU d   1      27.163  39.750  32.427  0.00  0.00     0.241 C 
ATOM     38  O   LEU d   1      28.294  39.822  31.945  0.00  0.00    -0.271 OA
ATOM     39  N   LEU d   1      23.345  32.172  29.105  0.00  0.00    -0.346 N 
ATOM     40  CA  LEU d   1      21.909  32.044  29.270  0.00  0.00     0.089 C 
ATOM     41  C   LEU d   1      21.640  31.650  30.699  0.00  0.00     0.241 C 
ATOM     42  O   LEU d   1      22.261  30.735  31.247  0.00  0.00    -0.271 OA
ATOM     43  H32 LEU d   1      23.959  39.922  32.307  0.00  0.00     0.163 HD
ATOM     44  H33 LEU d   1      26.201  39.984  30.550  0.00  0.00     0.087 H 
ATOM     45  H81 LEU d   1      23.814  31.606  28.427  0.00  0.00     0.163 HD
ATOM     46  H82 LEU d   1      21.433  33.013  29.061  0.00  0.00     0.087 H 
ATOM     47  N   SER d   1      26.919  39.335  33.668  0.00  0.00    -0.344 N 
ATOM     48  CA  SER d   1      27.994  38.918  34.570  0.00  0.00     0.109 C 
ATOM     49  C   SER d   1      28.724  37.681  34.069  0.00  0.00     0.243 C 
ATOM     50  O   SER d   1      29.948  37.625  34.121  0.00  0.00    -0.271 OA
ATOM     51  H43 SER d   1      25.974  39.307  33.994  0.00  0.00     0.163 HD
ATOM     52  H44 SER d   1      28.720  39.742  34.633  0.00  0.00     0.090 H 
ATOM     53  N   THR d   1      27.973  36.700  33.573  0.00  0.00    -0.344 N 
ATOM     54  CA  THR d   1      28.551  35.406  33.202  0.00  0.00     0.113 C 
ATOM     55  C   THR d   1      28.666  35.185  31.697  0.00  0.00     0.243 C 
ATOM     56  O   THR d   1      29.374  34.277  31.244  0.00  0.00    -0.271 OA
ATOM     57  H48 THR d   1      26.992  36.850  33.451  0.00  0.00     0.163 HD
ATOM     58  H49 THR d   1      29.562  35.359  33.633  0.00  0.00     0.091 H 
ATOM     59  N   ARG d   1      27.965  36.014  30.934  0.00  0.00    -0.346 N 
ATOM     60  CA  ARG d   1      27.848  35.837  29.488  0.00  0.00     0.089 C 
ATOM     61  C   ARG d   1      27.194  34.501  29.168  0.00  0.00     0.241 C 
ATOM     62  O   ARG d   1      27.560  33.838  28.208  0.00  0.00    -0.271 OA
ATOM     63  N   ARG d   1      26.222  34.111  29.983  0.00  0.00    -0.346 N 
ATOM     64  CA  ARG d   1      25.543  32.850  29.780  0.00  0.00     0.089 C 
ATOM     65  C   ARG d   1      24.048  33.029  29.839  0.00  0.00     0.241 C 
ATOM     66  O   ARG d   1      23.541  33.923  30.526  0.00  0.00    -0.271 OA
ATOM     67  H55 ARG d   1      27.500  36.788  31.364  0.00  0.00     0.163 HD
ATOM     68  H56 ARG d   1      27.201  36.637  29.100  0.00  0.00     0.087 H 
ATOM     69  H68 ARG d   1      25.955  34.697  30.748  0.00  0.00     0.163 HD
ATOM     70  H69 ARG d   1      25.812  32.469  28.784  0.00  0.00     0.087 H 
ATOM     71  N   LYS d   1      20.736  32.388  31.317  0.00  0.00    -0.346 N 
ATOM     72  CA  LYS d   1      20.300  32.080  32.658  0.00  0.00     0.089 C 
ATOM     73  C   LYS d   1      18.810  31.843  32.526  0.00  0.00     0.241 C 
ATOM     74  O   LYS d   1      18.066  32.757  32.185  0.00  0.00    -0.271 OA
ATOM     75  H92 LYS d   1      20.345  33.178  30.845  0.00  0.00     0.163 HD
ATOM     76  H93 LYS d   1      20.799  31.172  33.026  0.00  0.00     0.087 H 
ENDROOT
BRANCH  26  77
ATOM     77  CB  2GX d   1      21.512  37.449  27.644  0.00  0.00     0.025 C 
ATOM     78  H17 2GX d   1      21.122  38.472  27.755  0.00  0.00     0.058 H 
BRANCH  77  79
ATOM     79  CG  2GX d   1      23.011  37.621  27.524  0.00  0.00    -0.047 A 
ATOM     80  CD1 2GX d   1      23.859  36.482  27.452  0.00  0.00    -0.076 A 
ATOM     81  CE1 2GX d   1      25.258  36.642  27.365  0.00  0.00    -0.082 A 
ATOM     82  H24 2GX d   1      23.429  35.487  27.464  0.00  0.00     0.084 H 
ATOM     83  CZ  2GX d   1      25.821  37.929  27.378  0.00  0.00    -0.083 A 
ATOM     84  H26 2GX d   1      25.899  35.771  27.288  0.00  0.00     0.083 H 
ATOM     85  CE2 2GX d   1      24.975  39.064  27.474  0.00  0.00    -0.082 A 
ATOM     86  H18 2GX d   1      26.896  38.054  27.315  0.00  0.00     0.083 H 
ATOM     87  CD2 2GX d   1      23.577  38.902  27.555  0.00  0.00    -0.076 A 
ATOM     88  H27 2GX d   1      25.405  40.059  27.485  0.00  0.00     0.083 H 
ATOM     89  H25 2GX d   1      22.937  39.773  27.642  0.00  0.00     0.084 H 
ENDBRANCH  77  79
BRANCH  77  90
ATOM     90  CAO 2GX d   1      20.841  36.935  26.381  0.00  0.00    -0.047 A 
ATOM     91  CAL 2GX d   1      19.928  37.748  25.720  0.00  0.00    -0.076 A 
ATOM     92  CAH 2GX d   1      19.295  37.296  24.578  0.00  0.00    -0.082 A 
ATOM     93  H22 2GX d   1      19.712  38.739  26.101  0.00  0.00     0.084 H 
ATOM     94  CAE 2GX d   1      19.577  36.023  24.092  0.00  0.00    -0.083 A 
ATOM     95  H20 2GX d   1      18.582  37.930  24.063  0.00  0.00     0.083 H 
ATOM     96  CAI 2GX d   1      20.475  35.204  24.760  0.00  0.00    -0.082 A 
ATOM     97  H19 2GX d   1      19.093  35.670  23.188  0.00  0.00     0.083 H 
ATOM     98  CAM 2GX d   1      21.099  35.654  25.909  0.00  0.00    -0.076 A 
ATOM     99  H21 2GX d   1      20.688  34.211  24.381  0.00  0.00     0.083 H 
ATOM    100  H23 2GX d   1      21.788  35.008  26.441  0.00  0.00     0.084 H 
ENDBRANCH  77  90
ENDBRANCH  26  77
BRANCH  30 101
ATOM    101  CB  ASP d   1      23.338  36.459  33.034  0.00  0.00     0.043 C 
ATOM    102  H30 ASP d   1      24.037  35.673  32.712  0.00  0.00     0.052 H 
ATOM    103  H31 ASP d   1      22.341  36.022  33.189  0.00  0.00     0.052 H 
BRANCH 101 104
ATOM    104  CG  ASP d   1      23.821  37.026  34.339  0.00  0.00     0.175 C 
ATOM    105  OD1 ASP d   1      23.720  38.257  34.533  0.00  0.00    -0.648 OA
ATOM    106  OD2 ASP d   1      24.286  36.230  35.173  0.00  0.00    -0.648 OA
ENDBRANCH 101 104
ENDBRANCH  30 101
BRANCH  18 107
ATOM    107  CB  GLN d   1      17.744  36.531  31.684  0.00  0.00    -0.030 C 
ATOM    108  H9  GLN d   1      18.280  37.491  31.638  0.00  0.00     0.037 H 
ATOM    109  H10 GLN d   1      18.310  35.825  32.309  0.00  0.00     0.037 H 
BRANCH 107 110
ATOM    110  CG  GLN d   1      16.409  36.779  32.360  0.00  0.00     0.011 C 
ATOM    111  H11 GLN d   1      15.744  35.925  32.163  0.00  0.00     0.047 H 
ATOM    112  H12 GLN d   1      15.963  37.695  31.946  0.00  0.00     0.047 H 
BRANCH 110 113
ATOM    113  CD  GLN d   1      16.570  36.944  33.869  0.00  0.00     0.215 C 
ATOM    114  OE1 GLN d   1      17.583  36.525  34.449  0.00  0.00    -0.274 OA
ATOM    115  NE2 GLN d   1      15.577  37.561  34.511  0.00  0.00    -0.370 N 
ATOM    116  H13 GLN d   1      15.629  37.697  35.500  0.00  0.00     0.159 HD
ATOM    117  H14 GLN d   1      14.780  37.888  34.003  0.00  0.00     0.159 HD
ENDBRANCH 110 113
ENDBRANCH 107 110
ENDBRANCH  18 107
BRANCH  36 118
ATOM    118  CB  LEU d   1      25.755  41.671  31.788  0.00  0.00    -0.035 C 
ATOM    119  H34 LEU d   1      26.738  42.165  31.770  0.00  0.00     0.037 H 
ATOM    120  H35 LEU d   1      25.276  41.843  32.763  0.00  0.00     0.037 H 
BRANCH 118 121
ATOM    121  CG  LEU d   1      24.886  42.286  30.707  0.00  0.00    -0.059 C 
ATOM    122  H36 LEU d   1      23.959  41.701  30.621  0.00  0.00     0.038 H 
BRANCH 121 123
ATOM    123  CD1 LEU d   1      24.516  43.716  31.074  0.00  0.00    -0.073 C 
ATOM    124  H37 LEU d   1      23.887  44.147  30.281  0.00  0.00     0.028 H 
ATOM    125  H38 LEU d   1      25.432  44.316  31.182  0.00  0.00     0.028 H 
ATOM    126  H39 LEU d   1      23.962  43.719  32.024  0.00  0.00     0.028 H 
ENDBRANCH 121 123
BRANCH 121 127
ATOM    127  CD2 LEU d   1      25.628  42.219  29.373  0.00  0.00    -0.073 C 
ATOM    128  H40 LEU d   1      25.877  41.172  29.144  0.00  0.00     0.028 H 
ATOM    129  H41 LEU d   1      26.553  42.810  29.438  0.00  0.00     0.028 H 
ATOM    130  H42 LEU d   1      24.988  42.626  28.576  0.00  0.00     0.028 H 
ENDBRANCH 121 127
ENDBRANCH 118 121
ENDBRANCH  36 118
BRANCH   1 131
ATOM    131  N   CYS d   1      14.656  32.954  28.102  0.00  0.00    -0.066 N 
ATOM    132  H1  CYS d   1      14.288  32.016  28.085  0.00  0.00     0.275 HD
ATOM    133  H2  CYS d   1      15.395  33.037  27.422  0.00  0.00     0.275 HD
ATOM    134  H3  CYS d   1      13.921  33.608  27.881  0.00  0.00     0.275 HD
ENDBRANCH   1 131
BRANCH  48 135
ATOM    135  CB  SER d   1      27.452  38.643  35.971  0.00  0.00     0.044 C 
ATOM    136  H45 SER d   1      28.284  38.351  36.629  0.00  0.00     0.077 H 
ATOM    137  H46 SER d   1      26.720  37.824  35.920  0.00  0.00     0.077 H 
BRANCH 135 138
ATOM    138  OG  SER d   1      26.824  39.795  36.500  0.00  0.00    -0.398 OA
ATOM    139  H47 SER d   1      27.454  40.504  36.548  0.00  0.00     0.209 HD
ENDBRANCH 135 138
ENDBRANCH  48 135
BRANCH   7 140
ATOM    140  C   CYS d   1      16.369  29.848  33.926  0.00  0.00     0.197 C 
ATOM    141  O   CYS d   1      17.062  29.354  34.822  0.00  0.00    -0.646 OA
ATOM    142  OXT CYS d   1      15.165  30.022  34.126  0.00  0.00    -0.646 OA
ENDBRANCH   7 140
BRANCH  54 143
ATOM    143  CB  THR d   1      27.715  34.257  33.774  0.00  0.00     0.060 C 
ATOM    144  H50 THR d   1      28.122  33.299  33.419  0.00  0.00     0.086 H 
BRANCH 143 145
ATOM    145  OG1 THR d   1      26.360  34.398  33.330  0.00  0.00    -0.393 OA
ATOM    146  H51 THR d   1      26.013  35.229  33.634  0.00  0.00     0.210 HD
ENDBRANCH 143 145
BRANCH 143 147
ATOM    147  CG2 THR d   1      27.747  34.285  35.301  0.00  0.00    -0.050 C 
ATOM    148  H52 THR d   1      27.143  33.455  35.696  0.00  0.00     0.031 H 
ATOM    149  H53 THR d   1      27.336  35.240  35.659  0.00  0.00     0.031 H 
ATOM    150  H54 THR d   1      28.785  34.180  35.648  0.00  0.00     0.031 H 
ENDBRANCH 143 147
ENDBRANCH  54 143
BRANCH  72 151
ATOM    151  CB  LYS d   1      20.609  33.241  33.611  0.00  0.00    -0.038 C 
ATOM    152  H94 LYS d   1      20.070  34.132  33.257  0.00  0.00     0.036 H 
ATOM    153  H95 LYS d   1      21.692  33.433  33.583  0.00  0.00     0.036 H 
BRANCH 151 154
ATOM    154  CG  LYS d   1      20.204  32.978  35.061  0.00  0.00    -0.061 C 
ATOM    155  H96 LYS d   1      20.358  31.912  35.286  0.00  0.00     0.033 H 
ATOM    156  H97 LYS d   1      19.140  33.229  35.185  0.00  0.00     0.033 H 
BRANCH 154 157
ATOM    157  CD  LYS d   1      21.027  33.814  36.037  0.00  0.00    -0.043 C 
ATOM    158  H98 LYS d   1      20.690  34.860  35.994  0.00  0.00     0.035 H 
ATOM    159  H99 LYS d   1      22.089  33.759  35.757  0.00  0.00     0.035 H 
BRANCH 157 160
ATOM    160  CE  LYS d   1      20.853  33.291  37.439  0.00  0.00     0.080 C 
ATOM    161 0H10 LYS d   1      21.288  32.283  37.503  0.00  0.00     0.075 H 
ATOM    162 1H10 LYS d   1      19.779  33.243  37.673  0.00  0.00     0.075 H 
BRANCH 160 163
ATOM    163  NZ  LYS d   1      21.525  34.171  38.426  0.00  0.00    -0.079 N 
ATOM    164 2H10 LYS d   1      21.393  33.798  39.353  0.00  0.00     0.274 HD
ATOM    165 3H10 LYS d   1      21.128  35.096  38.376  0.00  0.00     0.274 HD
ATOM    166 4H10 LYS d   1      22.511  34.216  38.219  0.00  0.00     0.274 HD
ENDBRANCH 160 163
ENDBRANCH 157 160
ENDBRANCH 154 157
ENDBRANCH 151 154
ENDBRANCH  72 151
BRANCH  60 167
ATOM    167  CB  ARG d   1      29.209  35.951  28.790  0.00  0.00    -0.036 C 
ATOM    168  H57 ARG d   1      29.039  35.996  27.704  0.00  0.00     0.036 H 
ATOM    169  H58 ARG d   1      29.799  35.055  29.032  0.00  0.00     0.036 H 
BRANCH 167 170
ATOM    170  CG  ARG d   1      30.007  37.175  29.201  0.00  0.00    -0.048 C 
ATOM    171  H59 ARG d   1      30.421  37.013  30.207  0.00  0.00     0.035 H 
ATOM    172  H60 ARG d   1      29.341  38.051  29.215  0.00  0.00     0.035 H 
BRANCH 170 173
ATOM    173  CD  ARG d   1      31.132  37.429  28.242  0.00  0.00     0.009 C 
ATOM    174  H61 ARG d   1      30.715  37.613  27.241  0.00  0.00     0.064 H 
ATOM    175  H62 ARG d   1      31.784  36.543  28.211  0.00  0.00     0.064 H 
BRANCH 173 176
ATOM    176  NE  ARG d   1      31.920  38.584  28.647  0.00  0.00    -0.227 N 
ATOM    177  CZ  ARG d   1      33.028  38.982  28.031  0.00  0.00     0.665 C 
ATOM    178  NH1 ARG d   1      33.465  38.305  26.985  0.00  0.00    -0.235 N 
ATOM    179  NH2 ARG d   1      33.697  40.051  28.465  0.00  0.00    -0.235 N 
ATOM    180  H64 ARG d   1      34.323  38.604  26.500  0.00  0.00     0.174 HD
ATOM    181  H65 ARG d   1      32.948  37.478  26.654  0.00  0.00     0.174 HD
ATOM    182  H66 ARG d   1      33.354  40.577  29.281  0.00  0.00     0.174 HD
ATOM    183  H67 ARG d   1      34.557  40.350  27.984  0.00  0.00     0.174 HD
ATOM    184  H63 ARG d   1      31.599  39.126  29.462  0.00  0.00     0.177 HD
ENDBRANCH 173 176
ENDBRANCH 170 173
ENDBRANCH 167 170
ENDBRANCH  60 167
BRANCH  40 185
ATOM    185  CB  LEU d   1      21.332  30.999  28.321  0.00  0.00    -0.035 C 
ATOM    186  H83 LEU d   1      20.364  30.662  28.720  0.00  0.00     0.037 H 
ATOM    187  H84 LEU d   1      22.027  30.148  28.276  0.00  0.00     0.037 H 
BRANCH 185 188
ATOM    188  CG  LEU d   1      21.115  31.522  26.905  0.00  0.00    -0.059 C 
ATOM    189  H85 LEU d   1      21.989  32.121  26.608  0.00  0.00     0.038 H 
BRANCH 188 190
ATOM    190  CD1 LEU d   1      20.944  30.392  25.903  0.00  0.00    -0.073 C 
ATOM    191  H86 LEU d   1      20.791  30.813  24.898  0.00  0.00     0.028 H 
ATOM    192  H87 LEU d   1      20.072  29.783  26.182  0.00  0.00     0.028 H 
ATOM    193  H88 LEU d   1      21.846  29.762  25.903  0.00  0.00     0.028 H 
ENDBRANCH 188 190
BRANCH 188 194
ATOM    194  CD2 LEU d   1      19.889  32.404  26.917  0.00  0.00    -0.073 C 
ATOM    195  H89 LEU d   1      20.028  33.216  27.646  0.00  0.00     0.028 H 
ATOM    196  H90 LEU d   1      19.010  31.806  27.198  0.00  0.00     0.028 H 
ATOM    197  H91 LEU d   1      19.736  32.833  25.916  0.00  0.00     0.028 H 
ENDBRANCH 188 194
ENDBRANCH 185 188
ENDBRANCH  40 185
BRANCH  64 198
ATOM    198  CB  ARG d   1      25.976  31.820  30.832  0.00  0.00    -0.036 C 
ATOM    199  H70 ARG d   1      25.337  30.930  30.731  0.00  0.00     0.036 H 
ATOM    200  H71 ARG d   1      25.834  32.261  31.829  0.00  0.00     0.036 H 
BRANCH 198 201
ATOM    201  CG  ARG d   1      27.410  31.392  30.702  0.00  0.00    -0.048 C 
ATOM    202  H72 ARG d   1      27.650  30.696  31.520  0.00  0.00     0.035 H 
ATOM    203  H73 ARG d   1      28.055  32.280  30.774  0.00  0.00     0.035 H 
BRANCH 201 204
ATOM    204  CD  ARG d   1      27.671  30.698  29.369  0.00  0.00     0.009 C 
ATOM    205  H74 ARG d   1      28.691  30.286  29.373  0.00  0.00     0.064 H 
ATOM    206  H75 ARG d   1      27.577  31.434  28.557  0.00  0.00     0.064 H 
BRANCH 204 207
ATOM    207  NE  ARG d   1      26.724  29.617  29.140  0.00  0.00    -0.227 N 
ATOM    208  CZ  ARG d   1      26.736  28.445  29.773  0.00  0.00     0.665 C 
ATOM    209  NH1 ARG d   1      27.649  28.180  30.702  0.00  0.00    -0.235 N 
ATOM    210  H77 ARG d   1      27.645  27.269  31.183  0.00  0.00     0.174 HD
ATOM    211  H78 ARG d   1      28.360  28.886  30.941  0.00  0.00     0.174 HD
ATOM    212  H76 ARG d   1      25.989  29.770  28.435  0.00  0.00     0.177 HD
BRANCH 208 213
ATOM    213  NH2 ARG d   1      25.816  27.534  29.478  0.00  0.00    -0.235 N 
ATOM    214  H79 ARG d   1      25.106  27.733  28.759  0.00  0.00     0.174 HD
ATOM    215  H80 ARG d   1      25.813  26.628  29.968  0.00  0.00     0.174 HD
ENDBRANCH 208 213
ENDBRANCH 204 207
ENDBRANCH 201 204
ENDBRANCH 198 201
ENDBRANCH  64 198
TORSDOF 37
