REMARK WARNING: 32 MAX_TORS EXCEEDED!!!
REMARK  36 active torsions:
REMARK  status: ('A' for Active; 'I' for Inactive)
REMARK    1  A    between atoms: N_1  and  CA_2 
REMARK    2  A    between atoms: CA_8  and  CB_11 
REMARK    3  A    between atoms: CB_11  and  CG_12 
REMARK    4  A    between atoms: CG_12  and  CD_13 
REMARK       I    between atoms: CD_13  and  NE2_15 
REMARK    5  A    between atoms: CA_17  and  CB_20 
REMARK    6  A    between atoms: CB_20  and  CG_21 
REMARK    7  A    between atoms: CZ_26  and  OH_27 
REMARK    8  A    between atoms: CA_29  and  CB_32 
REMARK    9  A    between atoms: CB_32  and  CG_33 
REMARK   10  A    between atoms: CA_37  and  CB_40 
REMARK   11  A    between atoms: CB_40  and  CG_41 
REMARK   12  A    between atoms: CG_41  and  CD1_42 
REMARK   13  A    between atoms: CG_41  and  CD2_43 
REMARK   14  A    between atoms: CA_45  and  CB_48 
REMARK   15  A    between atoms: CB_48  and  OG_49 
REMARK   16  A    between atoms: CA_51  and  CB_54 
REMARK   17  A    between atoms: CB_54  and  OG1_55 
REMARK   18  A    between atoms: CB_54  and  CG2_56 
REMARK   19  A    between atoms: CA_58  and  CB_61 
REMARK   20  A    between atoms: CB_61  and  CG_62 
REMARK   21  A    between atoms: CG_62  and  CD_63 
REMARK   22  A    between atoms: CD_63  and  NE_64 
REMARK       I    between atoms: NE_64  and  CZ_65 
REMARK       I    between atoms: CZ_65  and  NH1_66 
REMARK       I    between atoms: CZ_65  and  NH2_67 
REMARK   23  A    between atoms: CA_69  and  CB_72 
REMARK   24  A    between atoms: CB_72  and  CG_73 
REMARK   25  A    between atoms: CG_73  and  CD_74 
REMARK   26  A    between atoms: CD_74  and  NE_75 
REMARK       I    between atoms: NE_75  and  CZ_76 
REMARK       I    between atoms: CZ_76  and  NH1_77 
REMARK   27  A    between atoms: CA_80  and  CB_83 
REMARK   28  A    between atoms: CB_83  and  CG_84 
REMARK   29  A    between atoms: CG_84  and  CD1_85 
REMARK   30  A    between atoms: CG_84  and  CD2_86 
REMARK   31  A    between atoms: CA_88  and  CB_91 
REMARK   32  A    between atoms: CB_91  and  CG_92 
REMARK   33  A    between atoms: CG_92  and  CD_93 
REMARK   34  A    between atoms: CD_93  and  CE_94 
REMARK   35  A    between atoms: CE_94  and  NZ_95 
REMARK   36  A    between atoms: CA_97  and  C_98 
ROOT
ATOM      1  CA  CYS d   1      16.502 -32.610 -27.808  0.00  0.00     0.184 C 
ATOM      2  C   CYS d   1      16.937 -34.023 -27.422  0.00  0.00     0.249 C 
ATOM      3  O   CYS d   1      16.349 -34.658 -26.537  0.00  0.00    -0.271 OA
ATOM      4  CB  CYS d   1      17.445 -31.600 -27.139  0.00  0.00     0.021 C 
ATOM      5  SG  CYS d   1      17.340 -29.891 -27.733  0.00  0.00    -0.095 SA
ATOM      6  N   CYS d   1      18.484 -30.702 -31.854  0.00  0.00    -0.344 N 
ATOM      7  CA  CYS d   1      17.151 -30.223 -31.497  0.00  0.00     0.105 C 
ATOM      8  CB  CYS d   1      17.248 -28.867 -30.797  0.00  0.00     0.015 C 
ATOM      9  SG  CYS d   1      18.237 -28.928 -29.278  0.00  0.00    -0.095 SA
ATOM     10  H4  CYS d   1      16.605 -32.509 -28.898  0.00  0.00     0.100 H 
ATOM     11  H5  CYS d   1      18.476 -31.948 -27.298  0.00  0.00     0.054 H 
ATOM     12  H6  CYS d   1      17.222 -31.595 -26.062  0.00  0.00     0.054 H 
ATOM     13 1H10 CYS d   1      19.077 -30.129 -32.420  0.00  0.00     0.163 HD
ATOM     14 2H10 CYS d   1      16.720 -30.941 -30.784  0.00  0.00     0.090 H 
ATOM     15 3H10 CYS d   1      16.233 -28.530 -30.542  0.00  0.00     0.054 H 
ATOM     16 4H10 CYS d   1      17.710 -28.147 -31.488  0.00  0.00     0.054 H 
ATOM     17  N   GLN d   1      17.964 -34.511 -28.107  0.00  0.00    -0.346 N 
ATOM     18  CA  GLN d   1      18.667 -35.725 -27.702  0.00  0.00     0.090 C 
ATOM     19  C   GLN d   1      20.078 -35.754 -28.293  0.00  0.00     0.241 C 
ATOM     20  O   GLN d   1      20.340 -35.153 -29.341  0.00  0.00    -0.271 OA
ATOM     21  H7  GLN d   1      18.267 -34.030 -28.930  0.00  0.00     0.163 HD
ATOM     22  H8  GLN d   1      18.762 -35.708 -26.606  0.00  0.00     0.087 H 
ATOM     23  N   TYR d   1      20.989 -36.435 -27.608  0.00  0.00    -0.346 N 
ATOM     24  CA  TYR d   1      22.366 -36.539 -28.069  0.00  0.00     0.093 C 
ATOM     25  C   TYR d   1      22.439 -37.315 -29.376  0.00  0.00     0.241 C 
ATOM     26  O   TYR d   1      21.800 -38.357 -29.527  0.00  0.00    -0.271 OA
ATOM     27  H15 TYR d   1      20.723 -36.887 -26.756  0.00  0.00     0.163 HD
ATOM     28  H16 TYR d   1      22.759 -35.526 -28.238  0.00  0.00     0.088 H 
ATOM     29  N   ASP d   1      23.225 -36.796 -30.316  0.00  0.00    -0.345 N 
ATOM     30  CA  ASP d   1      23.396 -37.416 -31.614  0.00  0.00     0.098 C 
ATOM     31  C   ASP d   1      24.790 -38.038 -31.661  0.00  0.00     0.241 C 
ATOM     32  O   ASP d   1      25.790 -37.347 -31.484  0.00  0.00    -0.271 OA
ATOM     33  H24 ASP d   1      23.715 -35.947 -30.119  0.00  0.00     0.163 HD
ATOM     34  H25 ASP d   1      22.639 -38.201 -31.758  0.00  0.00     0.088 H 
ATOM     35  N   LEU d   1      24.860 -39.344 -31.881  0.00  0.00    -0.346 N 
ATOM     36  CA  LEU d   1      26.143 -40.038 -31.913  0.00  0.00     0.089 C 
ATOM     37  C   LEU d   1      27.015 -39.734 -33.137  0.00  0.00     0.241 C 
ATOM     38  O   LEU d   1      28.192 -40.064 -33.135  0.00  0.00    -0.271 OA
ATOM     39  N   LEU d   1      24.062 -32.374 -28.779  0.00  0.00    -0.346 N 
ATOM     40  CA  LEU d   1      22.611 -32.451 -28.783  0.00  0.00     0.089 C 
ATOM     41  C   LEU d   1      22.108 -32.055 -30.175  0.00  0.00     0.241 C 
ATOM     42  O   LEU d   1      22.728 -31.250 -30.877  0.00  0.00    -0.271 OA
ATOM     43  H28 LEU d   1      24.018 -39.863 -32.028  0.00  0.00     0.163 HD
ATOM     44  H29 LEU d   1      26.705 -39.707 -31.027  0.00  0.00     0.087 H 
ATOM     45  H77 LEU d   1      24.532 -31.740 -28.165  0.00  0.00     0.163 HD
ATOM     46  H78 LEU d   1      22.308 -33.487 -28.573  0.00  0.00     0.087 H 
ATOM     47  N   SER d   1      26.448 -39.119 -34.174  0.00  0.00    -0.344 N 
ATOM     48  CA  SER d   1      27.218 -38.771 -35.375  0.00  0.00     0.109 C 
ATOM     49  C   SER d   1      27.792 -37.373 -35.273  0.00  0.00     0.243 C 
ATOM     50  O   SER d   1      28.927 -37.129 -35.671  0.00  0.00    -0.271 OA
ATOM     51  H39 SER d   1      25.476 -38.889 -34.133  0.00  0.00     0.163 HD
ATOM     52  H40 SER d   1      28.048 -39.487 -35.467  0.00  0.00     0.090 H 
ATOM     53  N   THR d   1      26.994 -36.451 -34.751  0.00  0.00    -0.344 N 
ATOM     54  CA  THR d   1      27.418 -35.067 -34.609  0.00  0.00     0.113 C 
ATOM     55  C   THR d   1      28.136 -34.865 -33.293  0.00  0.00     0.243 C 
ATOM     56  O   THR d   1      28.880 -33.901 -33.147  0.00  0.00    -0.271 OA
ATOM     57  H44 THR d   1      26.078 -36.714 -34.448  0.00  0.00     0.163 HD
ATOM     58  H45 THR d   1      28.099 -34.825 -35.438  0.00  0.00     0.091 H 
ATOM     59  N   ARG d   1      27.896 -35.769 -32.340  0.00  0.00    -0.346 N 
ATOM     60  CA  ARG d   1      28.451 -35.662 -30.982  0.00  0.00     0.089 C 
ATOM     61  C   ARG d   1      28.075 -34.358 -30.277  0.00  0.00     0.241 C 
ATOM     62  O   ARG d   1      28.920 -33.688 -29.679  0.00  0.00    -0.271 OA
ATOM     63  N   ARG d   1      26.802 -34.004 -30.381  0.00  0.00    -0.346 N 
ATOM     64  CA  ARG d   1      26.228 -32.827 -29.757  0.00  0.00     0.089 C 
ATOM     65  C   ARG d   1      24.758 -33.152 -29.597  0.00  0.00     0.241 C 
ATOM     66  O   ARG d   1      24.254 -34.106 -30.214  0.00  0.00    -0.271 OA
ATOM     67  H51 ARG d   1      27.314 -36.552 -32.559  0.00  0.00     0.163 HD
ATOM     68  H52 ARG d   1      28.032 -36.489 -30.391  0.00  0.00     0.087 H 
ATOM     69  H64 ARG d   1      26.198 -34.586 -30.925  0.00  0.00     0.163 HD
ATOM     70  H65 ARG d   1      26.707 -32.623 -28.788  0.00  0.00     0.087 H 
ATOM     71  N   LYS d   1      21.012 -32.663 -30.594  0.00  0.00    -0.346 N 
ATOM     72  CA  LYS d   1      20.350 -32.254 -31.814  0.00  0.00     0.089 C 
ATOM     73  C   LYS d   1      18.921 -31.885 -31.440  0.00  0.00     0.241 C 
ATOM     74  O   LYS d   1      18.239 -32.651 -30.765  0.00  0.00    -0.271 OA
ATOM     75  H88 LYS d   1      20.634 -33.418 -30.059  0.00  0.00     0.163 HD
ATOM     76  H89 LYS d   1      20.860 -31.375 -32.235  0.00  0.00     0.087 H 
ENDROOT
BRANCH  60  77
ATOM     77  CB  ARG d   1      29.964 -35.822 -31.006  0.00  0.00    -0.036 C 
ATOM     78  H53 ARG d   1      30.333 -35.809 -29.970  0.00  0.00     0.036 H 
ATOM     79  H54 ARG d   1      30.396 -34.975 -31.560  0.00  0.00     0.036 H 
BRANCH  77  80
ATOM     80  CG  ARG d   1      30.418 -37.104 -31.660  0.00  0.00    -0.048 C 
ATOM     81  H55 ARG d   1      31.500 -37.046 -31.846  0.00  0.00     0.035 H 
ATOM     82  H56 ARG d   1      29.887 -37.225 -32.616  0.00  0.00     0.035 H 
BRANCH  80  83
ATOM     83  CD  ARG d   1      30.135 -38.300 -30.789  0.00  0.00     0.009 C 
ATOM     84  H57 ARG d   1      29.052 -38.489 -30.775  0.00  0.00     0.064 H 
ATOM     85  H58 ARG d   1      30.485 -38.094 -29.767  0.00  0.00     0.064 H 
BRANCH  83  86
ATOM     86  NE  ARG d   1      30.822 -39.481 -31.303  0.00  0.00    -0.227 N 
ATOM     87  CZ  ARG d   1      32.065 -39.832 -30.977  0.00  0.00     0.665 C 
ATOM     88  NH1 ARG d   1      32.765 -39.098 -30.115  0.00  0.00    -0.235 N 
ATOM     89  NH2 ARG d   1      32.604 -40.925 -31.509  0.00  0.00    -0.235 N 
ATOM     90  H60 ARG d   1      33.726 -39.373 -29.866  0.00  0.00     0.174 HD
ATOM     91  H61 ARG d   1      32.346 -38.255 -29.697  0.00  0.00     0.174 HD
ATOM     92  H62 ARG d   1      32.063 -41.494 -32.176  0.00  0.00     0.174 HD
ATOM     93  H63 ARG d   1      33.562 -41.203 -31.254  0.00  0.00     0.174 HD
ATOM     94  H59 ARG d   1      30.311 -40.084 -31.963  0.00  0.00     0.177 HD
ENDBRANCH  83  86
ENDBRANCH  80  83
ENDBRANCH  77  80
ENDBRANCH  60  77
BRANCH  54  95
ATOM     95  CB  THR d   1      26.221 -34.087 -34.634  0.00  0.00     0.060 C 
ATOM     96  H46 THR d   1      26.610 -33.058 -34.645  0.00  0.00     0.086 H 
BRANCH  95  97
ATOM     97  OG1 THR d   1      25.432 -34.271 -33.451  0.00  0.00    -0.393 OA
ATOM     98  H47 THR d   1      24.697 -33.670 -33.465  0.00  0.00     0.210 HD
ENDBRANCH  95  97
BRANCH  95  99
ATOM     99  CG2 THR d   1      25.359 -34.292 -35.880  0.00  0.00    -0.050 C 
ATOM    100  H48 THR d   1      24.520 -33.581 -35.866  0.00  0.00     0.031 H 
ATOM    101  H49 THR d   1      24.969 -35.320 -35.891  0.00  0.00     0.031 H 
ATOM    102  H50 THR d   1      25.969 -34.122 -36.780  0.00  0.00     0.031 H 
ENDBRANCH  95  99
ENDBRANCH  54  95
BRANCH  64 103
ATOM    103  CB  ARG d   1      26.336 -31.605 -30.671  0.00  0.00    -0.036 C 
ATOM    104  H66 ARG d   1      25.518 -30.917 -30.413  0.00  0.00     0.036 H 
ATOM    105  H67 ARG d   1      26.213 -31.948 -31.709  0.00  0.00     0.036 H 
BRANCH 103 106
ATOM    106  CG  ARG d   1      27.631 -30.835 -30.589  0.00  0.00    -0.048 C 
ATOM    107  H68 ARG d   1      27.618 -30.051 -31.360  0.00  0.00     0.035 H 
ATOM    108  H69 ARG d   1      28.461 -31.529 -30.787  0.00  0.00     0.035 H 
BRANCH 106 109
ATOM    109  CD  ARG d   1      27.869 -30.173 -29.232  0.00  0.00     0.009 C 
ATOM    110  H70 ARG d   1      28.885 -29.752 -29.227  0.00  0.00     0.064 H 
ATOM    111  H71 ARG d   1      27.788 -30.945 -28.453  0.00  0.00     0.064 H 
BRANCH 109 112
ATOM    112  NE  ARG d   1      26.927 -29.099 -28.912  0.00  0.00    -0.227 N 
ATOM    113  CZ  ARG d   1      26.957 -27.868 -29.425  0.00  0.00     0.665 C 
ATOM    114  NH1 ARG d   1      27.873 -27.526 -30.327  0.00  0.00    -0.235 N 
ATOM    115  NH2 ARG d   1      26.057 -26.974 -29.037  0.00  0.00    -0.235 N 
ATOM    116  H73 ARG d   1      27.883 -26.572 -30.714  0.00  0.00     0.174 HD
ATOM    117  H74 ARG d   1      28.572 -28.216 -30.638  0.00  0.00     0.174 HD
ATOM    118  H75 ARG d   1      25.344 -27.230 -28.339  0.00  0.00     0.174 HD
ATOM    119  H76 ARG d   1      26.071 -26.023 -29.434  0.00  0.00     0.174 HD
ATOM    120  H72 ARG d   1      26.180 -29.311 -28.235  0.00  0.00     0.177 HD
ENDBRANCH 109 112
ENDBRANCH 106 109
ENDBRANCH 103 106
ENDBRANCH  64 103
BRANCH  48 121
ATOM    121  CB  SER d   1      26.361 -38.851 -36.641  0.00  0.00     0.044 C 
ATOM    122  H41 SER d   1      26.897 -38.360 -37.467  0.00  0.00     0.077 H 
ATOM    123  H42 SER d   1      25.409 -38.331 -36.462  0.00  0.00     0.077 H 
BRANCH 121 124
ATOM    124  OG  SER d   1      26.092 -40.192 -37.000  0.00  0.00    -0.398 OA
ATOM    125  H43 SER d   1      26.911 -40.646 -37.161  0.00  0.00     0.209 HD
ENDBRANCH 121 124
ENDBRANCH  48 121
BRANCH  40 126
ATOM    126  CB  LEU d   1      22.009 -31.543 -27.712  0.00  0.00    -0.035 C 
ATOM    127  H79 LEU d   1      20.931 -31.456 -27.914  0.00  0.00     0.037 H 
ATOM    128  H80 LEU d   1      22.481 -30.554 -27.808  0.00  0.00     0.037 H 
BRANCH 126 129
ATOM    129  CG  LEU d   1      22.176 -32.000 -26.264  0.00  0.00    -0.059 C 
ATOM    130  H81 LEU d   1      23.243 -32.207 -26.094  0.00  0.00     0.038 H 
BRANCH 129 131
ATOM    131  CD1 LEU d   1      21.751 -30.895 -25.317  0.00  0.00    -0.073 C 
ATOM    132  H82 LEU d   1      21.875 -31.235 -24.278  0.00  0.00     0.028 H 
ATOM    133  H83 LEU d   1      20.695 -30.644 -25.497  0.00  0.00     0.028 H 
ATOM    134  H84 LEU d   1      22.374 -30.005 -25.489  0.00  0.00     0.028 H 
ENDBRANCH 129 131
BRANCH 129 135
ATOM    135  CD2 LEU d   1      21.397 -33.288 -25.982  0.00  0.00    -0.073 C 
ATOM    136  H85 LEU d   1      21.722 -34.073 -26.680  0.00  0.00     0.028 H 
ATOM    137  H86 LEU d   1      20.321 -33.102 -26.114  0.00  0.00     0.028 H 
ATOM    138  H87 LEU d   1      21.588 -33.614 -24.949  0.00  0.00     0.028 H 
ENDBRANCH 129 135
ENDBRANCH 126 129
ENDBRANCH  40 126
BRANCH  36 139
ATOM    139  CB  LEU d   1      25.942 -41.545 -31.804  0.00  0.00    -0.035 C 
ATOM    140  H30 LEU d   1      26.935 -42.017 -31.846  0.00  0.00     0.037 H 
ATOM    141  H31 LEU d   1      25.347 -41.865 -32.672  0.00  0.00     0.037 H 
BRANCH 139 142
ATOM    142  CG  LEU d   1      25.241 -42.055 -30.550  0.00  0.00    -0.059 C 
ATOM    143  H32 LEU d   1      24.234 -41.615 -30.503  0.00  0.00     0.038 H 
BRANCH 142 144
ATOM    144  CD1 LEU d   1      25.108 -43.568 -30.628  0.00  0.00    -0.073 C 
ATOM    145  H33 LEU d   1      24.602 -43.939 -29.724  0.00  0.00     0.028 H 
ATOM    146  H34 LEU d   1      26.108 -44.021 -30.701  0.00  0.00     0.028 H 
ATOM    147  H35 LEU d   1      24.517 -43.839 -31.516  0.00  0.00     0.028 H 
ENDBRANCH 142 144
BRANCH 142 148
ATOM    148  CD2 LEU d   1      26.007 -41.634 -29.305  0.00  0.00    -0.073 C 
ATOM    149  H36 LEU d   1      26.087 -40.537 -29.277  0.00  0.00     0.028 H 
ATOM    150  H37 LEU d   1      27.015 -42.074 -29.328  0.00  0.00     0.028 H 
ATOM    151  H38 LEU d   1      25.474 -41.986 -28.410  0.00  0.00     0.028 H 
ENDBRANCH 142 148
ENDBRANCH 139 142
ENDBRANCH  36 139
BRANCH  72 152
ATOM    152  CB  LYS d   1      20.371 -33.378 -32.846  0.00  0.00    -0.038 C 
ATOM    153  H90 LYS d   1      19.933 -34.276 -32.386  0.00  0.00     0.036 H 
ATOM    154  H91 LYS d   1      21.418 -33.578 -33.116  0.00  0.00     0.036 H 
BRANCH 152 155
ATOM    155  CG  LYS d   1      19.594 -33.070 -34.133  0.00  0.00    -0.061 C 
ATOM    156  H92 LYS d   1      20.071 -32.224 -34.649  0.00  0.00     0.033 H 
ATOM    157  H93 LYS d   1      18.558 -32.806 -33.875  0.00  0.00     0.033 H 
BRANCH 155 158
ATOM    158  CD  LYS d   1      19.587 -34.283 -35.059  0.00  0.00    -0.043 C 
ATOM    159  H94 LYS d   1      19.436 -35.189 -34.454  0.00  0.00     0.035 H 
ATOM    160  H95 LYS d   1      20.558 -34.342 -35.572  0.00  0.00     0.035 H 
BRANCH 158 161
ATOM    161  CE  LYS d   1      18.478 -34.201 -36.110  0.00  0.00     0.080 C 
ATOM    162  H96 LYS d   1      18.823 -33.569 -36.942  0.00  0.00     0.075 H 
ATOM    163  H97 LYS d   1      17.586 -33.749 -35.651  0.00  0.00     0.075 H 
BRANCH 161 164
ATOM    164  NZ  LYS d   1      18.114 -35.555 -36.647  0.00  0.00    -0.079 N 
ATOM    165  H98 LYS d   1      17.383 -35.459 -37.334  0.00  0.00     0.274 HD
ATOM    166  H99 LYS d   1      17.791 -36.140 -35.892  0.00  0.00     0.274 HD
ATOM    167 0H10 LYS d   1      18.924 -35.975 -37.075  0.00  0.00     0.274 HD
ENDBRANCH 161 164
ENDBRANCH 158 161
ENDBRANCH 155 158
ENDBRANCH 152 155
ENDBRANCH  72 152
BRANCH  30 168
ATOM    168  CB  ASP d   1      23.232 -36.348 -32.697  0.00  0.00     0.043 C 
ATOM    169  H26 ASP d   1      24.098 -35.671 -32.655  0.00  0.00     0.052 H 
ATOM    170  H27 ASP d   1      22.313 -35.780 -32.492  0.00  0.00     0.052 H 
BRANCH 168 171
ATOM    171  CG  ASP d   1      23.140 -36.923 -34.089  0.00  0.00     0.175 C 
ATOM    172  OD1 ASP d   1      24.171 -37.409 -34.588  0.00  0.00    -0.648 OA
ATOM    173  OD2 ASP d   1      22.045 -36.863 -34.692  0.00  0.00    -0.648 OA
ENDBRANCH 168 171
ENDBRANCH  30 168
BRANCH   7 174
ATOM    174  C   CYS d   1      16.211 -30.152 -32.700  0.00  0.00     0.197 C 
ATOM    175  O   CYS d   1      16.601 -29.693 -33.774  0.00  0.00    -0.646 OA
ATOM    176  OXT CYS d   1      15.047 -30.563 -32.622  0.00  0.00    -0.646 OA
ENDBRANCH   7 174
BRANCH  24 177
ATOM    177  CB  TYR d   1      23.214 -37.226 -27.011  0.00  0.00    -0.014 C 
ATOM    178  H17 TYR d   1      22.927 -38.287 -26.980  0.00  0.00     0.043 H 
ATOM    179  H18 TYR d   1      22.994 -36.758 -26.040  0.00  0.00     0.043 H 
BRANCH 177 180
ATOM    180  CG  TYR d   1      24.704 -37.151 -27.240  0.00  0.00    -0.056 A 
ATOM    181  CD1 TYR d   1      25.406 -35.958 -27.051  0.00  0.00    -0.074 A 
ATOM    182  CE1 TYR d   1      26.790 -35.904 -27.248  0.00  0.00    -0.051 A 
ATOM    183  H19 TYR d   1      24.872 -35.064 -26.748  0.00  0.00     0.084 H 
ATOM    184  CZ  TYR d   1      27.471 -37.054 -27.619  0.00  0.00     0.065 A 
ATOM    185  H21 TYR d   1      27.326 -34.971 -27.112  0.00  0.00     0.087 H 
ATOM    186  CE2 TYR d   1      26.800 -38.240 -27.792  0.00  0.00    -0.051 A 
ATOM    187  CD2 TYR d   1      25.424 -38.287 -27.596  0.00  0.00    -0.074 A 
ATOM    188  H22 TYR d   1      27.340 -39.135 -28.080  0.00  0.00     0.087 H 
ATOM    189  H20 TYR d   1      24.902 -39.228 -27.723  0.00  0.00     0.084 H 
BRANCH 184 190
ATOM    190  OH  TYR d   1      28.823 -37.031 -27.816  0.00  0.00    -0.361 OA
ATOM    191  H23 TYR d   1      29.149 -36.152 -27.662  0.00  0.00     0.217 HD
ENDBRANCH 184 190
ENDBRANCH 177 180
ENDBRANCH  24 177
BRANCH   1 192
ATOM    192  N   CYS d   1      15.104 -32.335 -27.470  0.00  0.00    -0.066 N 
ATOM    193  H1  CYS d   1      14.871 -31.394 -27.745  0.00  0.00     0.275 HD
ATOM    194  H2  CYS d   1      14.972 -32.437 -26.476  0.00  0.00     0.275 HD
ATOM    195  H3  CYS d   1      14.507 -32.985 -27.957  0.00  0.00     0.275 HD
ENDBRANCH   1 192
BRANCH  18 196
ATOM    196  CB  GLN d   1      17.880 -36.983 -28.079  0.00  0.00    -0.030 C 
ATOM    197  H9  GLN d   1      16.917 -36.954 -27.548  0.00  0.00     0.037 H 
ATOM    198  H10 GLN d   1      18.457 -37.858 -27.745  0.00  0.00     0.037 H 
BRANCH 196 199
ATOM    199  CG  GLN d   1      17.596 -37.146 -29.551  0.00  0.00     0.011 C 
ATOM    200  H11 GLN d   1      18.551 -37.236 -30.089  0.00  0.00     0.047 H 
ATOM    201  H12 GLN d   1      17.056 -36.257 -29.909  0.00  0.00     0.047 H 
BRANCH 199 202
ATOM    202  CD  GLN d   1      16.752 -38.383 -29.837  0.00  0.00     0.215 C 
ATOM    203  OE1 GLN d   1      16.954 -39.065 -30.846  0.00  0.00    -0.274 OA
ATOM    204  NE2 GLN d   1      15.797 -38.677 -28.947  0.00  0.00    -0.370 N 
ATOM    205  H13 GLN d   1      15.214 -39.478 -29.085  0.00  0.00     0.159 HD
ATOM    206  H14 GLN d   1      15.666 -38.096 -28.143  0.00  0.00     0.159 HD
ENDBRANCH 199 202
ENDBRANCH 196 199
ENDBRANCH  18 196
TORSDOF 36
