REMARK  11 active torsions:
REMARK  status: ('A' for Active; 'I' for Inactive)
REMARK    1  A    between atoms: C03_3  and  C11_11 
REMARK    2  A    between atoms: C04_4  and  C12_12 
REMARK    3  A    between atoms: C08_8  and  C13_13 
REMARK    4  A    between atoms: C12_12  and  C21_21 
REMARK    5  A    between atoms: C15_15  and  C19_19 
REMARK    6  A    between atoms: C17_17  and  C20_20 
REMARK    7  A    between atoms: C21_21  and  C22_22 
REMARK    8  A    between atoms: C22_22  and  C23_23 
REMARK    9  A    between atoms: C23_23  and  N24_24 
REMARK   10  A    between atoms: N24_24  and  C25_25 
REMARK   11  A    between atoms: C29_29  and  O31_31 
ROOT
ATOM      1  N01 76Q d   1      31.199   4.575  -7.890  0.00  0.00    -0.259 NA
ATOM      2  C02 76Q d   1      30.441   4.801  -6.843  0.00  0.00     0.014 A 
ATOM      3  C03 76Q d   1      29.961   6.009  -6.364  0.00  0.00    -0.001 A 
ATOM      4  C04 76Q d   1      30.376   7.235  -7.182  0.00  0.00    -0.033 A 
ATOM      5  C05 76Q d   1      31.219   6.983  -8.339  0.00  0.00     0.001 A 
ATOM      6  C06 76Q d   1      31.634   5.653  -8.608  0.00  0.00     0.067 A 
ATOM      7  C07 76Q d   1      31.662   8.023  -9.230  0.00  0.00    -0.059 A 
ATOM      8  C08 76Q d   1      32.512   7.751 -10.314  0.00  0.00    -0.024 A 
ATOM      9  C09 76Q d   1      32.890   6.424 -10.533  0.00  0.00    -0.070 A 
ATOM     10  C10 76Q d   1      32.490   5.412  -9.709  0.00  0.00    -0.053 A 
ATOM     11  H1  76Q d   1      30.151   3.924  -6.276  0.00  0.00     0.116 H 
ATOM     12  H2  76Q d   1      31.331   9.041  -9.060  0.00  0.00     0.086 H 
ATOM     13  H3  76Q d   1      33.520   6.191 -11.383  0.00  0.00     0.084 H 
ATOM     14  H4  76Q d   1      32.835   4.403  -9.902  0.00  0.00     0.087 H 
ENDROOT
BRANCH   4  15
ATOM     15  C12 76Q d   1      29.967   8.686  -6.898  0.00  0.00    -0.039 C 
ATOM     16  H5  76Q d   1      29.055   8.910  -7.470  0.00  0.00     0.040 H 
ATOM     17  H6  76Q d   1      30.780   9.349  -7.229  0.00  0.00     0.040 H 
BRANCH  15  18
ATOM     18  C21 76Q d   1      29.693   8.955  -5.428  0.00  0.00    -0.060 C 
ATOM     19  H16 76Q d   1      30.159   8.135  -4.862  0.00  0.00     0.033 H 
ATOM     20  H17 76Q d   1      28.602   8.918  -5.295  0.00  0.00     0.033 H 
BRANCH  18  21
ATOM     21  C22 76Q d   1      30.161  10.228  -4.809  0.00  0.00    -0.042 C 
ATOM     22  H18 76Q d   1      30.896  10.695  -5.481  0.00  0.00     0.035 H 
ATOM     23  H19 76Q d   1      30.641   9.994  -3.847  0.00  0.00     0.035 H 
BRANCH  21  24
ATOM     24  C23 76Q d   1      29.041  11.211  -4.562  0.00  0.00     0.081 C 
ATOM     25  H20 76Q d   1      28.676  11.599  -5.524  0.00  0.00     0.075 H 
ATOM     26  H21 76Q d   1      29.415  12.044  -3.949  0.00  0.00     0.075 H 
BRANCH  24  27
ATOM     27  N24 76Q d   1      27.921  10.529  -3.844  0.00  0.00    -0.079 N 
ATOM     28  H22 76Q d   1      28.309  10.015  -3.069  0.00  0.00     0.276 HD
ATOM     29  H23 76Q d   1      27.478   9.889  -4.484  0.00  0.00     0.276 HD
BRANCH  27  30
ATOM     30  C25 76Q d   1      26.898  11.442  -3.325  0.00  0.00     0.065 C 
ATOM     31  H24 76Q d   1      26.115  10.863  -2.814  0.00  0.00     0.067 H 
ATOM     32  H25 76Q d   1      26.453  12.005  -4.158  0.00  0.00     0.067 H 
ATOM     33  H26 76Q d   1      27.359  12.143  -2.614  0.00  0.00     0.067 H 
ENDBRANCH  27  30
ENDBRANCH  24  27
ENDBRANCH  21  24
ENDBRANCH  18  21
ENDBRANCH  15  18
ENDBRANCH   4  15
BRANCH   3  34
ATOM     34  C11 76Q d   1      29.063   6.008  -5.168  0.00  0.00    -0.023 C 
ATOM     35  C14 76Q d   1      27.783   6.548  -5.252  0.00  0.00    -0.066 C 
ATOM     36  C15 76Q d   1      26.932   6.590  -4.153  0.00  0.00    -0.061 C 
ATOM     37  H7  76Q d   1      27.440   6.947  -6.200  0.00  0.00     0.085 H 
ATOM     38  C16 76Q d   1      27.336   5.985  -2.986  0.00  0.00    -0.071 C 
ATOM     39  C17 76Q d   1      28.560   5.372  -2.868  0.00  0.00    -0.061 C 
ATOM     40  H8  76Q d   1      26.668   5.992  -2.132  0.00  0.00     0.085 H 
ATOM     41  C18 76Q d   1      29.396   5.339  -3.985  0.00  0.00    -0.066 C 
ATOM     42  H9  76Q d   1      30.325   4.782  -3.935  0.00  0.00     0.085 H 
BRANCH  36  43
ATOM     43  C19 76Q d   1      25.594   7.265  -4.230  0.00  0.00    -0.051 C 
ATOM     44  H10 76Q d   1      25.453   7.686  -5.236  0.00  0.00     0.033 H 
ATOM     45  H11 76Q d   1      25.547   8.073  -3.485  0.00  0.00     0.033 H 
ATOM     46  H12 76Q d   1      24.801   6.531  -4.026  0.00  0.00     0.033 H 
ENDBRANCH  36  43
BRANCH  39  47
ATOM     47  C20 76Q d   1      28.981   4.784  -1.550  0.00  0.00    -0.051 C 
ATOM     48  H13 76Q d   1      28.175   4.919  -0.814  0.00  0.00     0.033 H 
ATOM     49  H14 76Q d   1      29.890   5.292  -1.196  0.00  0.00     0.033 H 
ATOM     50  H15 76Q d   1      29.186   3.711  -1.676  0.00  0.00     0.033 H 
ENDBRANCH  39  47
ENDBRANCH   3  34
BRANCH   8  51
ATOM     51  C13 76Q d   1      33.011   8.853 -11.201  0.00  0.00    -0.006 A 
ATOM     52  C26 76Q d   1      32.235   9.964 -11.510  0.00  0.00     0.013 A 
ATOM     53  N27 76Q d   1      32.637  10.966 -12.299  0.00  0.00    -0.269 NA
ATOM     54  H27 76Q d   1      31.240  10.022 -11.084  0.00  0.00     0.116 H 
ATOM     55  C28 76Q d   1      33.860  10.884 -12.834  0.00  0.00     0.034 A 
ATOM     56  C29 76Q d   1      34.722   9.811 -12.612  0.00  0.00     0.084 A 
ATOM     57  H28 76Q d   1      34.198  11.692 -13.472  0.00  0.00     0.119 H 
ATOM     58  C30 76Q d   1      34.285   8.788 -11.778  0.00  0.00    -0.037 A 
ATOM     59  H29 76Q d   1      34.930   7.941 -11.575  0.00  0.00     0.089 H 
BRANCH  56  60
ATOM     60  O31 76Q d   1      35.976   9.775 -13.172  0.00  0.00    -0.359 OA
ATOM     61  H30 76Q d   1      36.104  10.548 -13.709  0.00  0.00     0.217 HD
ENDBRANCH  56  60
ENDBRANCH   8  51
TORSDOF 11
