REMARK  6 active torsions:
REMARK  status: ('A' for Active; 'I' for Inactive)
REMARK    1  A    between atoms: C04_4  and  O11_11 
REMARK    2  A    between atoms: C08_8  and  N12_12 
REMARK    3  A    between atoms: O11_11  and  C13_13 
REMARK    4  A    between atoms: C16_16  and  N19_19 
REMARK    5  A    between atoms: N19_19  and  C20_20 
REMARK    6  A    between atoms: N19_19  and  C21_21 
ROOT
ATOM      1  C13 76P d   1      28.682   9.291  -6.657  0.00  0.00     0.047 C 
ATOM      2  C14 76P d   1      29.620   9.631  -5.519  0.00  0.00    -0.038 C 
ATOM      3  C15 76P d   1      28.840  10.112  -4.297  0.00  0.00    -0.036 C 
ATOM      4  C16 76P d   1      27.967  11.303  -4.676  0.00  0.00     0.103 C 
ATOM      5  C17 76P d   1      27.047  10.996  -5.865  0.00  0.00    -0.036 C 
ATOM      6  C18 76P d   1      27.845  10.482  -7.062  0.00  0.00    -0.038 C 
ATOM      7  H5  76P d   1      28.036   8.447  -6.372  0.00  0.00     0.084 H 
ATOM      8  H6  76P d   1      30.307  10.426  -5.844  0.00  0.00     0.036 H 
ATOM      9  H7  76P d   1      30.198   8.735  -5.248  0.00  0.00     0.036 H 
ATOM     10  H8  76P d   1      29.546  10.413  -3.509  0.00  0.00     0.036 H 
ATOM     11  H9  76P d   1      28.203   9.296  -3.926  0.00  0.00     0.036 H 
ATOM     12  H10 76P d   1      28.627  12.135  -4.964  0.00  0.00     0.084 H 
ATOM     13  H11 76P d   1      26.517  11.915  -6.155  0.00  0.00     0.036 H 
ATOM     14  H12 76P d   1      26.317  10.230  -5.565  0.00  0.00     0.036 H 
ATOM     15  H13 76P d   1      27.150  10.183  -7.861  0.00  0.00     0.036 H 
ATOM     16  H14 76P d   1      28.505  11.282  -7.430  0.00  0.00     0.036 H 
ENDROOT
BRANCH   1  17
ATOM     17  O11 76P d   1      29.494   8.963  -7.827  0.00  0.00    -0.328 OA
BRANCH  17  18
ATOM     18  C04 76P d   1      30.005   7.718  -7.969  0.00  0.00     0.178 A 
ATOM     19  N03 76P d   1      29.679   6.701  -7.142  0.00  0.00    -0.217 NA
ATOM     20  C02 76P d   1      30.210   5.509  -7.425  0.00  0.00     0.090 A 
ATOM     21  N01 76P d   1      31.064   5.195  -8.386  0.00  0.00    -0.241 NA
ATOM     22  H1  76P d   1      29.901   4.691  -6.784  0.00  0.00     0.146 H 
ATOM     23  C06 76P d   1      31.460   6.235  -9.184  0.00  0.00     0.072 A 
ATOM     24  C05 76P d   1      30.941   7.550  -9.047  0.00  0.00     0.048 A 
ATOM     25  C10 76P d   1      32.422   5.979 -10.183  0.00  0.00    -0.052 A 
ATOM     26  C07 76P d   1      31.402   8.556  -9.911  0.00  0.00    -0.035 A 
ATOM     27  C08 76P d   1      32.326   8.239 -10.862  0.00  0.00     0.103 A 
ATOM     28  H2  76P d   1      31.029   9.570  -9.823  0.00  0.00     0.088 H 
ATOM     29  C09 76P d   1      32.848   6.967 -11.018  0.00  0.00    -0.049 A 
ATOM     30  H3  76P d   1      33.581   6.761 -11.789  0.00  0.00     0.087 H 
ATOM     31  H4  76P d   1      32.829   4.980 -10.288  0.00  0.00     0.087 H 
BRANCH  27  32
ATOM     32  N12 76P d   1      32.819   9.305 -11.730  0.00  0.00    -0.116 N 
ATOM     33  O22 76P d   1      33.930   9.175 -12.229  0.00  0.00    -0.532 OA
ATOM     34  O23 76P d   1      32.127  10.308 -11.870  0.00  0.00    -0.532 OA
ENDBRANCH  27  32
ENDBRANCH  17  18
ENDBRANCH   1  17
BRANCH   4  35
ATOM     35  N19 76P d   1      27.140  11.735  -3.448  0.00  0.00    -0.074 N 
ATOM     36  H15 76P d   1      27.804  11.680  -2.692  0.00  0.00     0.279 HD
BRANCH  35  37
ATOM     37  C20 76P d   1      26.730  13.145  -3.476  0.00  0.00     0.066 C 
ATOM     38  H16 76P d   1      26.148  13.376  -2.572  0.00  0.00     0.068 H 
ATOM     39  H17 76P d   1      26.112  13.330  -4.367  0.00  0.00     0.068 H 
ATOM     40  H18 76P d   1      27.623  13.786  -3.510  0.00  0.00     0.068 H 
ENDBRANCH  35  37
BRANCH  35  41
ATOM     41  C21 76P d   1      26.042  10.863  -3.010  0.00  0.00     0.066 C 
ATOM     42  H19 76P d   1      26.385   9.818  -3.001  0.00  0.00     0.068 H 
ATOM     43  H20 76P d   1      25.194  10.965  -3.703  0.00  0.00     0.068 H 
ATOM     44  H21 76P d   1      25.725  11.153  -1.998  0.00  0.00     0.068 H 
ENDBRANCH  35  41
ENDBRANCH   4  35
TORSDOF 6
