REMARK  6 active torsions:
REMARK  status: ('A' for Active; 'I' for Inactive)
REMARK    1  A    between atoms: C1_1  and  C2_2 
REMARK    2  A    between atoms: C2_2  and  C6_9 
REMARK    3  A    between atoms: C8_11  and  C12_17 
REMARK    4  A    between atoms: C12_17  and  N3_18 
REMARK    5  A    between atoms: N3_18  and  C13_19 
REMARK    6  A    between atoms: C13_19  and  C16_22 
ROOT
ATOM      1  C6  P6U d   1      18.381 -39.185   8.683  0.00  0.00     0.009 A 
ATOM      2  C7  P6U d   1      18.726 -39.687   7.422  0.00  0.00    -0.061 A 
ATOM      3  C8  P6U d   1      20.062 -39.828   7.045  0.00  0.00     0.007 A 
ATOM      4  C9  P6U d   1      21.037 -39.455   7.947  0.00  0.00     0.127 A 
ATOM      5  C10 P6U d   1      20.758 -38.983   9.195  0.00  0.00    -0.007 A 
ATOM      6  C11 P6U d   1      19.432 -38.867   9.536  0.00  0.00     0.128 A 
ATOM      7  F1  P6U d   1      19.143 -38.459  10.802  0.00  0.00    -0.205 F 
ATOM      8  F2  P6U d   1      22.335 -39.547   7.548  0.00  0.00    -0.205 F 
ATOM      9  H11 P6U d   1      17.943 -39.970   6.728  0.00  0.00     0.085 H 
ATOM     10  H12 P6U d   1      21.547 -38.711   9.887  0.00  0.00     0.093 H 
ENDROOT
BRANCH   1  11
ATOM     11  C2  P6U d   1      16.921 -38.977   9.064  0.00  0.00     0.059 C 
ATOM     12  C3  P6U d   1      16.569 -39.977  10.188  0.00  0.00    -0.029 C 
ATOM     13  C4  P6U d   1      16.720 -41.429   9.769  0.00  0.00    -0.014 C 
ATOM     14  H4  P6U d   1      15.525 -39.808  10.492  0.00  0.00     0.038 H 
ATOM     15  H5  P6U d   1      17.235 -39.789  11.043  0.00  0.00     0.038 H 
ATOM     16  S1  P6U d   1      15.577 -41.847   8.368  0.00  0.00    -0.095 SA
ATOM     17  H6  P6U d   1      16.487 -42.076  10.627  0.00  0.00     0.049 H 
ATOM     18  H7  P6U d   1      17.758 -41.604   9.449  0.00  0.00     0.049 H 
ATOM     19  C5  P6U d   1      15.512 -40.289   7.560  0.00  0.00     0.134 C 
ATOM     20  N1  P6U d   1      16.043 -39.214   7.897  0.00  0.00    -0.358 N 
ATOM     21  N2  P6U d   1      14.728 -40.341   6.452  0.00  0.00    -0.380 N 
ATOM     22  H8  P6U d   1      15.849 -38.400   7.297  0.00  0.00     0.162 HD
ATOM     23  H9  P6U d   1      14.596 -39.498   5.875  0.00  0.00     0.158 HD
ATOM     24  H10 P6U d   1      14.266 -41.223   6.189  0.00  0.00     0.158 HD
BRANCH  11  25
ATOM     25  C1  P6U d   1      16.692 -37.546   9.535  0.00  0.00    -0.049 C 
ATOM     26  H1  P6U d   1      17.333 -37.339  10.405  0.00  0.00     0.031 H 
ATOM     27  H2  P6U d   1      15.637 -37.418   9.819  0.00  0.00     0.031 H 
ATOM     28  H3  P6U d   1      16.941 -36.848   8.722  0.00  0.00     0.031 H 
ENDBRANCH  11  25
ENDBRANCH   1  11
BRANCH   3  29
ATOM     29  C12 P6U d   1      20.446 -40.362   5.687  0.00  0.00     0.109 C 
ATOM     30  H13 P6U d   1      21.345 -39.843   5.323  0.00  0.00     0.083 H 
ATOM     31  H14 P6U d   1      19.620 -40.206   4.978  0.00  0.00     0.083 H 
BRANCH  29  32
ATOM     32  N3  P6U d   1      20.722 -41.801   5.821  0.00  0.00    -0.053 N 
ATOM     33  H15 P6U d   1      19.839 -42.285   5.865  0.00  0.00     0.278 HD
ATOM     34  H16 P6U d   1      21.226 -41.943   6.682  0.00  0.00     0.278 HD
BRANCH  32  35
ATOM     35  C13 P6U d   1      21.513 -42.395   4.727  0.00  0.00     0.222 A 
ATOM     36  C14 P6U d   1      22.961 -41.992   4.748  0.00  0.00    -0.023 A 
ATOM     37  C15 P6U d   1      22.551 -43.411   5.074  0.00  0.00    -0.023 A 
ATOM     38  H17 P6U d   1      23.338 -41.331   5.542  0.00  0.00     0.037 H 
ATOM     39  H18 P6U d   1      23.486 -41.772   3.807  0.00  0.00     0.037 H 
ATOM     40  H19 P6U d   1      22.780 -44.225   4.371  0.00  0.00     0.037 H 
ATOM     41  H20 P6U d   1      22.633 -43.784   6.106  0.00  0.00     0.037 H 
BRANCH  35  42
ATOM     42  C16 P6U d   1      20.847 -42.493   3.391  0.00  0.00     0.420 C 
ATOM     43  F3  P6U d   1      21.654 -42.952   2.470  0.00  0.00    -0.168 F 
ATOM     44  F4  P6U d   1      19.794 -43.312   3.422  0.00  0.00    -0.168 F 
ATOM     45  F5  P6U d   1      20.422 -41.305   2.954  0.00  0.00    -0.168 F 
ENDBRANCH  35  42
ENDBRANCH  32  35
ENDBRANCH  29  32
ENDBRANCH   3  29
TORSDOF 6
