REMARK  6 active torsions:
REMARK  status: ('A' for Active; 'I' for Inactive)
REMARK    1  A    between atoms: C15_24  and  C2_2 
REMARK    2  A    between atoms: C6_6  and  C7_7 
REMARK    3  A    between atoms: C16_11  and  C17_12 
REMARK    4  A    between atoms: N3_25  and  C16_11 
REMARK    5  A    between atoms: C9_16  and  C14_13 
REMARK    6  A    between atoms: C15_24  and  N3_25 
ROOT
ATOM      1  O1  74B d   1      16.329 -36.410   9.619  0.00  0.00    -0.381 OA
ATOM      2  C7  74B d   1      17.918 -37.992   8.555  0.00  0.00     0.088 C 
ATOM      3  C10 74B d   1      16.282 -38.654  10.492  0.00  0.00    -0.032 C 
ATOM      4  C12 74B d   1      17.570 -40.459   9.242  0.00  0.00    -0.010 C 
ATOM      5  C13 74B d   1      16.378 -39.140   7.053  0.00  0.00     0.134 C 
ATOM      6  C8  74B d   1      17.610 -36.512   8.985  0.00  0.00     0.048 C 
ATOM      7  C9  74B d   1      16.215 -37.175  10.815  0.00  0.00     0.064 C 
ATOM      8  C11 74B d   1      17.563 -39.010   9.723  0.00  0.00    -0.012 C 
ATOM      9  S1  74B d   1      16.473 -40.750   7.836  0.00  0.00    -0.094 SA
ATOM     10  N1  74B d   1      17.026 -38.058   7.386  0.00  0.00    -0.355 N 
ATOM     11  N2  74B d   1      15.562 -39.172   5.999  0.00  0.00    -0.380 N 
ATOM     12  H2  74B d   1      15.411 -38.925   9.878  0.00  0.00     0.037 H 
ATOM     13  H3  74B d   1      16.260 -39.225  11.432  0.00  0.00     0.037 H 
ATOM     14  H4  74B d   1      17.251 -41.105  10.073  0.00  0.00     0.050 H 
ATOM     15  H5  74B d   1      18.596 -40.724   8.945  0.00  0.00     0.050 H 
ATOM     16  H10 74B d   1      18.386 -36.174   9.688  0.00  0.00     0.078 H 
ATOM     17  H11 74B d   1      17.620 -35.870   8.092  0.00  0.00     0.078 H 
ATOM     18  H13 74B d   1      16.983 -36.907  11.556  0.00  0.00     0.087 H 
ATOM     19  H14 74B d   1      18.382 -38.927  10.453  0.00  0.00     0.045 H 
ATOM     20  H15 74B d   1      16.909 -37.215   6.807  0.00  0.00     0.162 HD
ATOM     21  H16 74B d   1      15.404 -38.319   5.444  0.00  0.00     0.158 HD
ATOM     22  H17 74B d   1      15.089 -40.050   5.740  0.00  0.00     0.158 HD
ENDROOT
BRANCH   2  23
ATOM     23  C6  74B d   1      19.428 -38.134   8.245  0.00  0.00     0.012 A 
ATOM     24  C5  74B d   1      20.398 -37.846   9.196  0.00  0.00     0.128 A 
ATOM     25  C4  74B d   1      21.735 -38.087   9.019  0.00  0.00    -0.007 A 
ATOM     26  F2  74B d   1      20.015 -37.235  10.341  0.00  0.00    -0.205 F 
ATOM     27  C3  74B d   1      22.122 -38.627   7.821  0.00  0.00     0.127 A 
ATOM     28  H1  74B d   1      22.457 -37.860   9.795  0.00  0.00     0.093 H 
ATOM     29  C2  74B d   1      21.228 -38.901   6.806  0.00  0.00     0.007 A 
ATOM     30  F3  74B d   1      23.421 -38.979   7.651  0.00  0.00    -0.205 F 
ATOM     31  C1  74B d   1      19.876 -38.642   7.026  0.00  0.00    -0.061 A 
ATOM     32  H12 74B d   1      19.160 -38.839   6.236  0.00  0.00     0.085 H 
BRANCH  29  33
ATOM     33  C15 74B d   1      21.700 -39.541   5.528  0.00  0.00     0.108 C 
ATOM     34  H18 74B d   1      22.672 -40.020   5.716  0.00  0.00     0.083 H 
ATOM     35  H19 74B d   1      21.820 -38.755   4.768  0.00  0.00     0.083 H 
BRANCH  33  36
ATOM     36  N3  74B d   1      20.779 -40.550   5.009  0.00  0.00    -0.063 N 
ATOM     37  H20 74B d   1      19.918 -40.467   5.526  0.00  0.00     0.277 HD
ATOM     38  H21 74B d   1      20.611 -40.334   4.039  0.00  0.00     0.277 HD
BRANCH  36  39
ATOM     39  C16 74B d   1      21.198 -41.946   5.080  0.00  0.00     0.171 C 
ATOM     40  H6  74B d   1      21.754 -42.137   6.010  0.00  0.00     0.089 H 
ATOM     41  H7  74B d   1      20.327 -42.616   5.029  0.00  0.00     0.089 H 
BRANCH  39  42
ATOM     42  C17 74B d   1      22.120 -42.146   3.835  0.00  0.00     0.411 C 
ATOM     43  F4  74B d   1      23.275 -41.506   3.974  0.00  0.00    -0.169 F 
ATOM     44  F5  74B d   1      22.423 -43.419   3.635  0.00  0.00    -0.169 F 
ATOM     45  F6  74B d   1      21.537 -41.721   2.706  0.00  0.00    -0.169 F 
ENDBRANCH  39  42
ENDBRANCH  36  39
ENDBRANCH  33  36
ENDBRANCH  29  33
ENDBRANCH   2  23
BRANCH   7  46
ATOM     46  C14 74B d   1      14.816 -36.801  11.276  0.00  0.00     0.082 C 
ATOM     47  F1  74B d   1      14.869 -35.480  11.621  0.00  0.00    -0.253 F 
ATOM     48  H8  74B d   1      14.525 -37.410  12.144  0.00  0.00     0.086 H 
ATOM     49  H9  74B d   1      14.092 -36.954  10.462  0.00  0.00     0.086 H 
ENDBRANCH   7  46
TORSDOF 6
