REMARK  6 active torsions:
REMARK  status: ('A' for Active; 'I' for Inactive)
REMARK    1  A    between atoms: C9_6  and  N26_17 
REMARK    2  A    between atoms: C10_7  and  N29_18 
REMARK    3  A    between atoms: C19_14  and  C12_9 
REMARK    4  A    between atoms: C19_14  and  C17_22 
REMARK    5  A    between atoms: C19_14  and  N28_29 
REMARK    6  A    between atoms: N27_28  and  C18_23 
ROOT
ATOM      1  C8  74F d   1     -48.471  15.324 -30.525  0.00  0.00     0.126 A 
ATOM      2  C9  74F d   1     -46.393  14.494 -30.366  0.00  0.00     0.195 A 
ATOM      3  C10 74F d   1     -46.873  13.388 -29.688  0.00  0.00     0.169 A 
ATOM      4  C11 74F d   1     -49.394  16.332 -30.977  0.00  0.00     0.201 A 
ATOM      5  C12 74F d   1     -50.135  18.018 -32.000  0.00  0.00     0.155 A 
ATOM      6  N23 74F d   1     -49.016  17.357 -31.807  0.00  0.00    -0.208 NA
ATOM      7  C5  74F d   1     -48.954  14.228 -29.848  0.00  0.00     0.036 A 
ATOM      8  N20 74F d   1     -48.173  13.238 -29.415  0.00  0.00    -0.238 NA
ATOM      9  N22 74F d   1     -47.174  15.489 -30.805  0.00  0.00    -0.221 NA
ATOM     10  N24 74F d   1     -50.690  16.328 -30.645  0.00  0.00    -0.149 NA
ATOM     11  N27 74F d   1     -51.133  17.407 -31.300  0.00  0.00    -0.256 N 
ATOM     12  H16 74F d   1     -50.019  14.166 -29.658  0.00  0.00     0.118 H 
ENDROOT
BRANCH   5  13
ATOM     13  C19 74F d   1     -50.338  19.227 -32.814  0.00  0.00     0.158 C 
ATOM     14  H12 74F d   1     -51.390  19.539 -32.734  0.00  0.00     0.096 H 
BRANCH  13  15
ATOM     15  C17 74F d   1     -50.055  18.922 -34.270  0.00  0.00    -0.043 C 
ATOM     16  H17 74F d   1     -50.720  18.115 -34.611  0.00  0.00     0.030 H 
ATOM     17  H18 74F d   1     -49.007  18.606 -34.382  0.00  0.00     0.030 H 
ATOM     18  H19 74F d   1     -50.232  19.824 -34.875  0.00  0.00     0.030 H 
ENDBRANCH  13  15
BRANCH  13  19
ATOM     19  N28 74F d   1     -49.505  20.289 -32.261  0.00  0.00    -0.056 N 
ATOM     20  C13 74F d   1     -50.381  21.124 -31.449  0.00  0.00     0.104 C 
ATOM     21  C15 74F d   1     -49.538  22.187 -30.783  0.00  0.00     0.042 C 
ATOM     22  H4  74F d   1     -51.141  21.598 -32.088  0.00  0.00     0.079 H 
ATOM     23  H5  74F d   1     -50.877  20.509 -30.684  0.00  0.00     0.079 H 
ATOM     24  O30 74F d   1     -48.942  22.988 -31.800  0.00  0.00    -0.388 OA
ATOM     25  H8  74F d   1     -48.753  21.713 -30.175  0.00  0.00     0.076 H 
ATOM     26  H9  74F d   1     -50.171  22.814 -30.139  0.00  0.00     0.076 H 
ATOM     27  C16 74F d   1     -48.074  22.181 -32.596  0.00  0.00     0.042 C 
ATOM     28  C14 74F d   1     -48.895  21.118 -33.292  0.00  0.00     0.104 C 
ATOM     29  H10 74F d   1     -47.571  22.809 -33.346  0.00  0.00     0.076 H 
ATOM     30  H11 74F d   1     -47.321  21.703 -31.952  0.00  0.00     0.076 H 
ATOM     31  H6  74F d   1     -48.247  20.503 -33.933  0.00  0.00     0.079 H 
ATOM     32  H7  74F d   1     -49.677  21.589 -33.906  0.00  0.00     0.079 H 
ATOM     33  H23 74F d   1     -48.779  19.885 -31.691  0.00  0.00     0.281 HD
ENDBRANCH  13  19
ENDBRANCH   5  13
BRANCH  11  34
ATOM     34  C18 74F d   1     -52.528  17.787 -31.221  0.00  0.00     0.004 C 
ATOM     35  H20 74F d   1     -53.064  17.081 -30.570  0.00  0.00     0.059 H 
ATOM     36  H21 74F d   1     -52.971  17.766 -32.227  0.00  0.00     0.059 H 
ATOM     37  H22 74F d   1     -52.608  18.802 -30.806  0.00  0.00     0.059 H 
ENDBRANCH  11  34
BRANCH   2  38
ATOM     38  N26 74F d   1     -45.012  14.569 -30.619  0.00  0.00    -0.215 N 
ATOM     39  C7  74F d   1     -44.391  15.206 -31.659  0.00  0.00     0.086 A 
ATOM     40  C4  74F d   1     -44.820  16.172 -32.542  0.00  0.00    -0.053 A 
ATOM     41  C6  74F d   1     -43.124  14.665 -31.683  0.00  0.00     0.103 A 
ATOM     42  C2  74F d   1     -43.878  16.564 -33.468  0.00  0.00    -0.081 A 
ATOM     43  H15 74F d   1     -45.819  16.591 -32.511  0.00  0.00     0.087 H 
ATOM     44  C1  74F d   1     -42.608  16.033 -33.507  0.00  0.00    -0.081 A 
ATOM     45  H2  74F d   1     -44.148  17.321 -34.195  0.00  0.00     0.083 H 
ATOM     46  C3  74F d   1     -42.189  15.069 -32.618  0.00  0.00    -0.051 A 
ATOM     47  H1  74F d   1     -41.915  16.386 -34.263  0.00  0.00     0.083 H 
ATOM     48  H3  74F d   1     -41.189  14.653 -32.649  0.00  0.00     0.087 H 
ATOM     49  N21 74F d   1     -43.007  13.740 -30.686  0.00  0.00    -0.157 NA
ATOM     50  N25 74F d   1     -44.167  13.697 -30.049  0.00  0.00     0.012 NA
ENDBRANCH   2  38
BRANCH   3  51
ATOM     51  N29 74F d   1     -45.989  12.392 -29.267  0.00  0.00    -0.381 N 
ATOM     52  H13 74F d   1     -46.345  11.568 -28.762  0.00  0.00     0.157 HD
ATOM     53  H14 74F d   1     -44.981  12.482 -29.462  0.00  0.00     0.157 HD
ENDBRANCH   3  51
TORSDOF 6
