REMARK  7 active torsions:
REMARK  status: ('A' for Active; 'I' for Inactive)
REMARK    1  A    between atoms: C11_8  and  C8_5 
REMARK    2  A    between atoms: C9_6  and  N26_17 
REMARK    3  A    between atoms: C10_7  and  N29_18 
REMARK    4  A    between atoms: C19_14  and  C12_9 
REMARK    5  A    between atoms: C19_14  and  C17_22 
REMARK    6  A    between atoms: C19_14  and  N28_29 
REMARK    7  A    between atoms: N27_28  and  C18_23 
ROOT
ATOM      1  C11 74F d   1     -11.645   3.885  25.124  0.00  0.00     0.201 A 
ATOM      2  C12 74F d   1     -13.350   3.208  24.045  0.00  0.00     0.155 A 
ATOM      3  N23 74F d   1     -12.594   4.269  24.213  0.00  0.00    -0.208 NA
ATOM      4  N24 74F d   1     -11.777   2.622  25.539  0.00  0.00    -0.149 NA
ATOM      5  N27 74F d   1     -12.862   2.218  24.864  0.00  0.00    -0.256 N 
ENDROOT
BRANCH   1   6
ATOM      6  C8  74F d   1     -10.564   4.771  25.507  0.00  0.00     0.126 A 
ATOM      7  C5  74F d   1      -9.469   4.317  26.203  0.00  0.00     0.036 A 
ATOM      8  N20 74F d   1      -8.444   5.115  26.520  0.00  0.00    -0.238 NA
ATOM      9  H16 74F d   1      -9.435   3.276  26.505  0.00  0.00     0.118 H 
ATOM     10  C10 74F d   1      -8.511   6.387  26.116  0.00  0.00     0.169 A 
ATOM     11  C9  74F d   1      -9.624   6.841  25.425  0.00  0.00     0.195 A 
ATOM     12  N22 74F d   1     -10.652   6.045  25.114  0.00  0.00    -0.221 NA
BRANCH  10  13
ATOM     13  N29 74F d   1      -7.420   7.211  26.430  0.00  0.00    -0.381 N 
ATOM     14  H13 74F d   1      -6.616   6.826  26.946  0.00  0.00     0.157 HD
ATOM     15  H14 74F d   1      -7.423   8.201  26.145  0.00  0.00     0.157 HD
ENDBRANCH  10  13
BRANCH  11  16
ATOM     16  N26 74F d   1      -9.705   8.160  24.925  0.00  0.00    -0.215 N 
ATOM     17  C7  74F d   1     -10.166   8.546  23.691  0.00  0.00     0.086 A 
ATOM     18  C4  74F d   1     -10.846   7.882  22.694  0.00  0.00    -0.053 A 
ATOM     19  C6  74F d   1      -9.795   9.871  23.581  0.00  0.00     0.103 A 
ATOM     20  C2  74F d   1     -11.148   8.644  21.583  0.00  0.00    -0.081 A 
ATOM     21  H15 74F d   1     -11.124   6.837  22.776  0.00  0.00     0.087 H 
ATOM     22  C1  74F d   1     -10.791   9.967  21.457  0.00  0.00    -0.081 A 
ATOM     23  H2  74F d   1     -11.693   8.177  20.770  0.00  0.00     0.083 H 
ATOM     24  C3  74F d   1     -10.099  10.618  22.455  0.00  0.00    -0.051 A 
ATOM     25  H1  74F d   1     -11.059  10.507  20.556  0.00  0.00     0.083 H 
ATOM     26  H3  74F d   1      -9.808  11.658  22.364  0.00  0.00     0.087 H 
ATOM     27  N21 74F d   1      -9.130  10.244  24.713  0.00  0.00    -0.157 NA
ATOM     28  N25 74F d   1      -9.085   9.193  25.518  0.00  0.00     0.012 NA
ENDBRANCH  11  16
ENDBRANCH   1   6
BRANCH   2  29
ATOM     29  C19 74F d   1     -14.509   3.189  23.097  0.00  0.00     0.158 C 
ATOM     30  H12 74F d   1     -14.557   4.200  22.665  0.00  0.00     0.096 H 
BRANCH  29  31
ATOM     31  C17 74F d   1     -15.799   3.028  23.880  0.00  0.00    -0.043 C 
ATOM     32  H17 74F d   1     -15.811   3.741  24.718  0.00  0.00     0.030 H 
ATOM     33  H18 74F d   1     -15.865   2.002  24.271  0.00  0.00     0.030 H 
ATOM     34  H19 74F d   1     -16.656   3.225  23.219  0.00  0.00     0.030 H 
ENDBRANCH  29  31
BRANCH  29  35
ATOM     35  N28 74F d   1     -14.327   2.297  21.923  0.00  0.00    -0.056 N 
ATOM     36  C13 74F d   1     -15.013   0.992  21.930  0.00  0.00     0.104 C 
ATOM     37  C15 74F d   1     -14.802   0.277  20.606  0.00  0.00     0.042 C 
ATOM     38  H4  74F d   1     -14.608   0.374  22.745  0.00  0.00     0.079 H 
ATOM     39  H5  74F d   1     -16.090   1.149  22.090  0.00  0.00     0.079 H 
ATOM     40  O30 74F d   1     -13.400   0.184  20.347  0.00  0.00    -0.388 OA
ATOM     41  H8  74F d   1     -15.290   0.844  19.799  0.00  0.00     0.076 H 
ATOM     42  H9  74F d   1     -15.235  -0.733  20.659  0.00  0.00     0.076 H 
ATOM     43  C16 74F d   1     -12.876   1.487  20.133  0.00  0.00     0.042 C 
ATOM     44  C14 74F d   1     -12.935   2.201  21.465  0.00  0.00     0.104 C 
ATOM     45  H10 74F d   1     -11.835   1.425  19.782  0.00  0.00     0.076 H 
ATOM     46  H11 74F d   1     -13.483   2.022  19.388  0.00  0.00     0.076 H 
ATOM     47  H6  74F d   1     -12.517   3.213  21.355  0.00  0.00     0.079 H 
ATOM     48  H7  74F d   1     -12.346   1.640  22.205  0.00  0.00     0.079 H 
ATOM     49  H23 74F d   1     -14.794   2.798  21.183  0.00  0.00     0.281 HD
ENDBRANCH  29  35
ENDBRANCH   2  29
BRANCH   5  50
ATOM     50  C18 74F d   1     -13.297   0.847  25.054  0.00  0.00     0.004 C 
ATOM     51  H20 74F d   1     -12.654   0.358  25.800  0.00  0.00     0.059 H 
ATOM     52  H21 74F d   1     -13.228   0.305  24.099  0.00  0.00     0.059 H 
ATOM     53  H22 74F d   1     -14.339   0.838  25.406  0.00  0.00     0.059 H 
ENDBRANCH   5  50
TORSDOF 7
