REMARK  6 active torsions:
REMARK  status: ('A' for Active; 'I' for Inactive)
REMARK    1  A    between atoms: C21_16  and  C11_8 
REMARK    2  A    between atoms: C17_25  and  C14_11 
REMARK    3  A    between atoms: C15_12  and  N29_21 
REMARK    4  A    between atoms: C16_13  and  N31_31 
REMARK    5  A    between atoms: C18_26  and  C21_16 
REMARK    6  A    between atoms: N30_30  and  C22_17 
ROOT
ATOM      1  N26 74Q d   1      12.878  -4.490  24.005  0.00  0.00    -0.209 NA
ATOM      2  C17 74Q d   1      11.883  -4.070  24.855  0.00  0.00     0.201 A 
ATOM      3  C18 74Q d   1      13.635  -3.424  23.848  0.00  0.00     0.138 A 
ATOM      4  N27 74Q d   1      11.988  -2.787  25.227  0.00  0.00    -0.149 NA
ATOM      5  N30 74Q d   1      13.099  -2.403  24.584  0.00  0.00    -0.257 N 
ENDROOT
BRANCH   2   6
ATOM      6  C14 74Q d   1      10.794  -4.927  25.269  0.00  0.00     0.126 A 
ATOM      7  C10 74Q d   1       9.756  -4.413  26.011  0.00  0.00     0.036 A 
ATOM      8  N23 74Q d   1       8.700  -5.137  26.389  0.00  0.00    -0.238 NA
ATOM      9  H7  74Q d   1       9.797  -3.370  26.303  0.00  0.00     0.118 H 
ATOM     10  C16 74Q d   1       8.692  -6.413  25.995  0.00  0.00     0.169 A 
ATOM     11  C15 74Q d   1       9.743  -6.943  25.257  0.00  0.00     0.195 A 
ATOM     12  N25 74Q d   1      10.805  -6.208  24.882  0.00  0.00    -0.221 NA
BRANCH  10  13
ATOM     13  N31 74Q d   1       7.579  -7.159  26.370  0.00  0.00    -0.381 N 
ATOM     14  H18 74Q d   1       6.825  -6.720  26.918  0.00  0.00     0.157 HD
ATOM     15  H19 74Q d   1       7.509  -8.150  26.100  0.00  0.00     0.157 HD
ENDBRANCH  10  13
BRANCH  11  16
ATOM     16  N29 74Q d   1       9.711  -8.288  24.819  0.00  0.00    -0.215 N 
ATOM     17  C13 74Q d   1      10.297  -8.823  23.700  0.00  0.00     0.086 A 
ATOM     18  C9  74Q d   1      11.067  -8.278  22.695  0.00  0.00    -0.053 A 
ATOM     19  C12 74Q d   1       9.957 -10.163  23.744  0.00  0.00     0.103 A 
ATOM     20  C5  74Q d   1      11.487  -9.172  21.731  0.00  0.00    -0.081 A 
ATOM     21  H6  74Q d   1      11.324  -7.225  22.664  0.00  0.00     0.087 H 
ATOM     22  C4  74Q d   1      11.155 -10.507  21.758  0.00  0.00    -0.081 A 
ATOM     23  H16 74Q d   1      12.104  -8.807  20.918  0.00  0.00     0.083 H 
ATOM     24  C8  74Q d   1      10.379 -11.044  22.763  0.00  0.00    -0.051 A 
ATOM     25  H15 74Q d   1      11.514 -11.155  20.966  0.00  0.00     0.083 H 
ATOM     26  H5  74Q d   1      10.115 -12.095  22.784  0.00  0.00     0.087 H 
ATOM     27  N24 74Q d   1       9.200 -10.409  24.855  0.00  0.00    -0.157 NA
ATOM     28  N28 74Q d   1       9.069  -9.256  25.495  0.00  0.00     0.012 NA
ENDBRANCH  11  16
ENDBRANCH   2   6
BRANCH   3  29
ATOM     29  C21 74Q d   1      14.900  -3.387  22.948  0.00  0.00     0.049 A 
ATOM     30  C19 74Q d   1      15.907  -4.484  23.184  0.00  0.00    -0.046 A 
ATOM     31  C20 74Q d   1      16.221  -3.088  23.612  0.00  0.00    -0.046 A 
ATOM     32  H8  74Q d   1      15.708  -5.258  23.940  0.00  0.00     0.035 H 
ATOM     33  H9  74Q d   1      16.442  -4.931  22.333  0.00  0.00     0.035 H 
ATOM     34  H10 74Q d   1      16.986  -2.508  23.076  0.00  0.00     0.035 H 
ATOM     35  H11 74Q d   1      16.253  -2.836  24.682  0.00  0.00     0.035 H 
BRANCH  29  36
ATOM     36  C11 74Q d   1      14.642  -2.916  21.557  0.00  0.00    -0.042 A 
ATOM     37  C7  74Q d   1      15.575  -3.032  20.542  0.00  0.00    -0.076 A 
ATOM     38  C3  74Q d   1      15.311  -2.593  19.262  0.00  0.00    -0.082 A 
ATOM     39  H4  74Q d   1      16.538  -3.479  20.759  0.00  0.00     0.084 H 
ATOM     40  C1  74Q d   1      14.097  -2.015  18.958  0.00  0.00    -0.083 A 
ATOM     41  H3  74Q d   1      16.063  -2.703  18.489  0.00  0.00     0.083 H 
ATOM     42  C2  74Q d   1      13.148  -1.880  19.944  0.00  0.00    -0.082 A 
ATOM     43  H1  74Q d   1      13.892  -1.670  17.951  0.00  0.00     0.083 H 
ATOM     44  C6  74Q d   1      13.432  -2.332  21.216  0.00  0.00    -0.076 A 
ATOM     45  H2  74Q d   1      12.189  -1.424  19.725  0.00  0.00     0.083 H 
ATOM     46  H17 74Q d   1      12.674  -2.226  21.984  0.00  0.00     0.084 H 
ENDBRANCH  29  36
ENDBRANCH   3  29
BRANCH   5  47
ATOM     47  C22 74Q d   1      13.545  -1.028  24.709  0.00  0.00     0.004 C 
ATOM     48  H12 74Q d   1      12.872  -0.485  25.388  0.00  0.00     0.059 H 
ATOM     49  H13 74Q d   1      13.534  -0.547  23.720  0.00  0.00     0.059 H 
ATOM     50  H14 74Q d   1      14.568  -1.010  25.114  0.00  0.00     0.059 H 
ENDBRANCH   5  47
TORSDOF 6
