REMARK  6 active torsions:
REMARK  status: ('A' for Active; 'I' for Inactive)
REMARK    1  A    between atoms: C12_9  and  C9_6 
REMARK    2  A    between atoms: C18_22  and  C10_7 
REMARK    3  A    between atoms: C14_11  and  C11_8 
REMARK    4  A    between atoms: C13_10  and  N27_27 
REMARK    5  A    between atoms: C18_22  and  C15_12 
REMARK    6  A    between atoms: N26_17  and  C19_14 
ROOT
ATOM      1  C14 74O d   1      -4.108 -49.196  24.682  0.00  0.00     0.201 A 
ATOM      2  C15 74O d   1      -3.628 -50.926  23.579  0.00  0.00     0.138 A 
ATOM      3  N23 74O d   1      -4.647 -50.141  23.853  0.00  0.00    -0.209 NA
ATOM      4  N26 74O d   1      -2.529 -50.478  24.253  0.00  0.00    -0.257 N 
ATOM      5  N24 74O d   1      -2.807 -49.371  24.956  0.00  0.00    -0.149 NA
ENDROOT
BRANCH   1   6
ATOM      6  C11 74O d   1      -4.903 -48.081  25.124  0.00  0.00     0.124 A 
ATOM      7  C7  74O d   1      -4.338 -47.040  25.820  0.00  0.00     0.036 A 
ATOM      8  N20 74O d   1      -5.044 -45.972  26.193  0.00  0.00    -0.239 NA
ATOM      9  H4  74O d   1      -3.285 -47.088  26.074  0.00  0.00     0.118 H 
ATOM     10  C13 74O d   1      -6.341 -45.959  25.839  0.00  0.00     0.150 A 
ATOM     11  C12 74O d   1      -6.908 -47.019  25.156  0.00  0.00     0.116 A 
ATOM     12  N22 74O d   1      -6.198 -48.087  24.781  0.00  0.00    -0.239 NA
BRANCH  10  13
ATOM     13  N27 74O d   1      -7.103 -44.849  26.209  0.00  0.00    -0.382 N 
ATOM     14  H17 74O d   1      -6.663 -44.069  26.718  0.00  0.00     0.157 HD
ATOM     15  H18 74O d   1      -8.105 -44.810  25.973  0.00  0.00     0.157 HD
ENDBRANCH  10  13
BRANCH  11  16
ATOM     16  C9  74O d   1      -8.287 -47.035  24.713  0.00  0.00     0.033 A 
ATOM     17  C8  74O d   1      -8.812 -48.015  23.898  0.00  0.00     0.035 A 
ATOM     18  N25 74O d   1     -10.119 -47.673  23.691  0.00  0.00    -0.187 NA
ATOM     19  H5  74O d   1      -8.291 -48.885  23.500  0.00  0.00     0.118 H 
ATOM     20  N21 74O d   1     -10.481 -46.529  24.287  0.00  0.00    -0.289 N 
ATOM     21  C6  74O d   1      -9.365 -46.140  24.914  0.00  0.00     0.009 A 
ATOM     22  H16 74O d   1     -11.398 -46.061  24.267  0.00  0.00     0.188 HD
ATOM     23  H13 74O d   1      -9.294 -45.234  25.514  0.00  0.00     0.115 H 
ENDBRANCH  11  16
ENDBRANCH   1   6
BRANCH   2  24
ATOM     24  C18 74O d   1      -3.724 -52.141  22.646  0.00  0.00     0.049 A 
ATOM     25  C16 74O d   1      -4.910 -53.056  22.799  0.00  0.00    -0.046 A 
ATOM     26  C17 74O d   1      -3.578 -53.459  23.357  0.00  0.00    -0.046 A 
ATOM     27  H6  74O d   1      -5.731 -52.783  23.479  0.00  0.00     0.035 H 
ATOM     28  H7  74O d   1      -5.319 -53.578  21.921  0.00  0.00     0.035 H 
ATOM     29  H14 74O d   1      -3.010 -54.276  22.888  0.00  0.00     0.035 H 
ATOM     30  H15 74O d   1      -3.422 -53.482  24.446  0.00  0.00     0.035 H 
BRANCH  24  31
ATOM     31  C10 74O d   1      -3.197 -51.908  21.269  0.00  0.00    -0.042 A 
ATOM     32  C4  74O d   1      -2.808 -50.640  20.861  0.00  0.00    -0.076 A 
ATOM     33  C2  74O d   1      -2.313 -50.390  19.598  0.00  0.00    -0.082 A 
ATOM     34  H11 74O d   1      -2.896 -49.816  21.560  0.00  0.00     0.084 H 
ATOM     35  C1  74O d   1      -2.190 -51.417  18.688  0.00  0.00    -0.083 A 
ATOM     36  H2  74O d   1      -2.020 -49.384  19.321  0.00  0.00     0.083 H 
ATOM     37  C3  74O d   1      -2.557 -52.692  19.067  0.00  0.00    -0.082 A 
ATOM     38  H1  74O d   1      -1.811 -51.227  17.690  0.00  0.00     0.083 H 
ATOM     39  C5  74O d   1      -3.050 -52.926  20.337  0.00  0.00    -0.076 A 
ATOM     40  H3  74O d   1      -2.458 -53.513  18.366  0.00  0.00     0.083 H 
ATOM     41  H12 74O d   1      -3.330 -53.936  20.614  0.00  0.00     0.084 H 
ENDBRANCH  24  31
ENDBRANCH   2  24
BRANCH   4  42
ATOM     42  C19 74O d   1      -1.170 -50.995  24.242  0.00  0.00     0.004 C 
ATOM     43  H8  74O d   1      -0.540 -50.385  24.907  0.00  0.00     0.059 H 
ATOM     44  H9  74O d   1      -0.770 -50.953  23.218  0.00  0.00     0.059 H 
ATOM     45  H10 74O d   1      -1.171 -52.038  24.593  0.00  0.00     0.059 H 
ENDBRANCH   4  42
TORSDOF 6
