REMARK  10 active torsions:
REMARK  status: ('A' for Active; 'I' for Inactive)
REMARK    1  A    between atoms: N2_16  and  C1_1 
REMARK    2  A    between atoms: C25_30  and  C3_2 
REMARK    3  A    between atoms: C5_18  and  C7_4 
REMARK    4  A    between atoms: C10_6  and  N24_29 
REMARK    5  A    between atoms: C11_7  and  C13_8 
REMARK    6  A    between atoms: N21_27  and  C22_10 
REMARK    7  A    between atoms: N16_22  and  S18_24 
REMARK    8  A    between atoms: S18_24  and  N21_27 
REMARK    9  A    between atoms: N21_27  and  C23_28 
REMARK   10  A    between atoms: C25_30  and  C28_32 
ROOT
ATOM      1  C7  74L d   1      10.597  -5.012  25.355  0.00  0.00     0.124 A 
ATOM      2  C8  74L d   1       9.520  -4.538  26.112  0.00  0.00     0.036 A 
ATOM      3  C10 74L d   1       8.465  -6.594  25.951  0.00  0.00     0.150 A 
ATOM      4  C11 74L d   1       9.542  -7.090  25.164  0.00  0.00     0.116 A 
ATOM      5  N9  74L d   1       8.505  -5.346  26.403  0.00  0.00    -0.239 NA
ATOM      6  N12 74L d   1      10.553  -6.265  24.888  0.00  0.00    -0.239 NA
ATOM      7  H4  74L d   1       9.513  -3.512  26.461  0.00  0.00     0.118 H 
ENDROOT
BRANCH   1   8
ATOM      8  C5  74L d   1      11.736  -4.132  24.959  0.00  0.00     0.201 A 
ATOM      9  N6  74L d   1      11.914  -2.868  25.279  0.00  0.00    -0.149 NA
ATOM     10  N2  74L d   1      13.087  -2.431  24.637  0.00  0.00    -0.257 N 
ATOM     11  C3  74L d   1      13.562  -3.499  23.938  0.00  0.00     0.138 A 
ATOM     12  N4  74L d   1      12.730  -4.490  24.129  0.00  0.00    -0.209 NA
BRANCH  10  13
ATOM     13  C1  74L d   1      13.619  -1.065  24.736  0.00  0.00     0.004 C 
ATOM     14  H1  74L d   1      12.972  -0.466  25.394  0.00  0.00     0.059 H 
ATOM     15  H2  74L d   1      13.647  -0.609  23.735  0.00  0.00     0.059 H 
ATOM     16  H3  74L d   1      14.636  -1.097  25.153  0.00  0.00     0.059 H 
ENDBRANCH  10  13
BRANCH  11  17
ATOM     17  C25 74L d   1      14.767  -3.592  23.013  0.00  0.00     0.049 A 
ATOM     18  C27 74L d   1      15.695  -4.798  23.238  0.00  0.00    -0.046 A 
ATOM     19  C26 74L d   1      16.181  -3.398  23.589  0.00  0.00    -0.046 A 
ATOM     20  H9  74L d   1      16.125  -5.328  22.375  0.00  0.00     0.035 H 
ATOM     21  H10 74L d   1      15.474  -5.519  24.039  0.00  0.00     0.035 H 
ATOM     22  H21 74L d   1      16.961  -2.919  22.980  0.00  0.00     0.035 H 
ATOM     23  H22 74L d   1      16.310  -3.110  24.643  0.00  0.00     0.035 H 
BRANCH  17  24
ATOM     24  C28 74L d   1      14.487  -3.146  21.588  0.00  0.00    -0.042 A 
ATOM     25  C33 74L d   1      13.238  -2.606  21.258  0.00  0.00    -0.076 A 
ATOM     26  C32 74L d   1      12.946  -2.163  19.966  0.00  0.00    -0.082 A 
ATOM     27  H14 74L d   1      12.477  -2.530  22.026  0.00  0.00     0.084 H 
ATOM     28  C31 74L d   1      13.897  -2.302  18.969  0.00  0.00    -0.083 A 
ATOM     29  H13 74L d   1      11.984  -1.715  19.746  0.00  0.00     0.083 H 
ATOM     30  C30 74L d   1      15.142  -2.845  19.277  0.00  0.00    -0.082 A 
ATOM     31  H12 74L d   1      13.674  -1.990  17.955  0.00  0.00     0.083 H 
ATOM     32  C29 74L d   1      15.438  -3.261  20.575  0.00  0.00    -0.076 A 
ATOM     33  H11 74L d   1      15.890  -2.946  18.499  0.00  0.00     0.083 H 
ATOM     34  H23 74L d   1      16.414  -3.677  20.798  0.00  0.00     0.084 H 
ENDBRANCH  17  24
ENDBRANCH  11  17
ENDBRANCH   1   8
BRANCH   4  35
ATOM     35  C13 74L d   1       9.606  -8.463  24.574  0.00  0.00     0.034 A 
ATOM     36  C14 74L d   1       9.049  -9.657  25.080  0.00  0.00     0.036 A 
ATOM     37  N15 74L d   1       9.324 -10.635  24.260  0.00  0.00    -0.168 NA
ATOM     38  H5  74L d   1       8.482  -9.748  26.005  0.00  0.00     0.118 H 
ATOM     39  N16 74L d   1      10.095 -10.127  23.207  0.00  0.00    -0.152 N 
ATOM     40  C17 74L d   1      10.243  -8.799  23.406  0.00  0.00     0.031 A 
ATOM     41  H15 74L d   1      10.777  -8.112  22.751  0.00  0.00     0.117 H 
BRANCH  39  42
ATOM     42  S18 74L d   1      10.667 -11.028  21.931  0.00  0.00     0.341 S 
ATOM     43  O19 74L d   1      10.143 -10.453  20.737  0.00  0.00    -0.180 OA
ATOM     44  O20 74L d   1      10.364 -12.381  22.294  0.00  0.00    -0.180 OA
BRANCH  42  45
ATOM     45  N21 74L d   1      12.326 -10.916  21.862  0.00  0.00    -0.301 N 
BRANCH  45  46
ATOM     46  C22 74L d   1      13.158 -11.598  22.860  0.00  0.00    -0.008 C 
ATOM     47  H6  74L d   1      14.220 -11.405  22.646  0.00  0.00     0.057 H 
ATOM     48  H7  74L d   1      12.967 -12.680  22.819  0.00  0.00     0.057 H 
ATOM     49  H8  74L d   1      12.912 -11.220  23.863  0.00  0.00     0.057 H 
ENDBRANCH  45  46
BRANCH  45  50
ATOM     50  C23 74L d   1      12.985 -10.180  20.777  0.00  0.00    -0.008 C 
ATOM     51  H16 74L d   1      14.076 -10.225  20.913  0.00  0.00     0.057 H 
ATOM     52  H17 74L d   1      12.656  -9.130  20.794  0.00  0.00     0.057 H 
ATOM     53  H18 74L d   1      12.717 -10.633  19.811  0.00  0.00     0.057 H 
ENDBRANCH  45  50
ENDBRANCH  42  45
ENDBRANCH  39  42
ENDBRANCH   4  35
BRANCH   3  54
ATOM     54  N24 74L d   1       7.353  -7.350  26.277  0.00  0.00    -0.382 N 
ATOM     55  H19 74L d   1       6.602  -6.940  26.850  0.00  0.00     0.157 HD
ATOM     56  H20 74L d   1       7.276  -8.322  25.946  0.00  0.00     0.157 HD
ENDBRANCH   3  54
TORSDOF 10
