REMARK  6 active torsions:
REMARK  status: ('A' for Active; 'I' for Inactive)
REMARK    1  A    between atoms: C14_9  and  C2_2 
REMARK    2  A    between atoms: C2_2  and  C18_27 
REMARK    3  A    between atoms: C7_5  and  N10_22 
REMARK    4  A    between atoms: C8_6  and  C11_7 
REMARK    5  A    between atoms: C4_19  and  C12_8 
REMARK       I    between atoms: N25_15  and  C28_29 
REMARK       I    between atoms: C28_29  and  N29_18 
REMARK    6  A    between atoms: N15_24  and  C17_26 
ROOT
ATOM      1  C12 74K d   1      11.548  -4.081  24.741  0.00  0.00     0.201 A 
ATOM      2  C14 74K d   1      13.355  -3.476  23.711  0.00  0.00     0.138 A 
ATOM      3  N13 74K d   1      12.523  -4.456  23.904  0.00  0.00    -0.209 NA
ATOM      4  N15 74K d   1      12.933  -2.413  24.441  0.00  0.00    -0.257 N 
ATOM      5  N16 74K d   1      11.760  -2.830  25.088  0.00  0.00    -0.149 NA
ENDROOT
BRANCH   1   6
ATOM      6  C4  74K d   1      10.424  -4.964  25.173  0.00  0.00     0.124 A 
ATOM      7  C5  74K d   1       9.367  -4.470  25.938  0.00  0.00     0.036 A 
ATOM      8  N6  74K d   1       8.389  -5.293  26.287  0.00  0.00    -0.239 NA
ATOM      9  H13 74K d   1       9.346  -3.430  26.242  0.00  0.00     0.118 H 
ATOM     10  C7  74K d   1       8.392  -6.571  25.931  0.00  0.00     0.150 A 
ATOM     11  C8  74K d   1       9.478  -7.105  25.181  0.00  0.00     0.116 A 
ATOM     12  N9  74K d   1      10.438  -6.256  24.814  0.00  0.00    -0.239 NA
BRANCH  10  13
ATOM     13  N10 74K d   1       7.317  -7.317  26.342  0.00  0.00    -0.382 N 
ATOM     14  H14 74K d   1       7.260  -8.316  26.098  0.00  0.00     0.157 HD
ATOM     15  H15 74K d   1       6.567  -6.878  26.895  0.00  0.00     0.157 HD
ENDBRANCH  10  13
BRANCH  11  16
ATOM     16  C11 74K d   1       9.538  -8.493  24.621  0.00  0.00     0.033 A 
ATOM     17  C24 74K d   1      10.235  -8.868  23.498  0.00  0.00     0.023 A 
ATOM     18  N25 74K d   1      10.031 -10.202  23.268  0.00  0.00    -0.194 N 
ATOM     19  H9  74K d   1      10.851  -8.209  22.888  0.00  0.00     0.116 H 
ATOM     20  N26 74K d   1       9.154 -10.645  24.270  0.00  0.00    -0.175 NA
ATOM     21  C28 74K d   1      10.559 -10.985  22.269  0.00  0.00     0.340 C 
ATOM     22  C27 74K d   1       8.860  -9.648  25.064  0.00  0.00     0.036 A 
ATOM     23  H10 74K d   1       8.199  -9.701  25.928  0.00  0.00     0.118 H 
ATOM     24  N29 74K d   1      10.235 -12.292  22.206  0.00  0.00    -0.350 N 
ATOM     25  O30 74K d   1      11.347 -10.579  21.430  0.00  0.00    -0.245 OA
ATOM     26  H11 74K d   1      10.616 -12.867  21.482  0.00  0.00     0.160 HD
ATOM     27  H12 74K d   1       9.614 -12.686  22.883  0.00  0.00     0.160 HD
ENDBRANCH  11  16
ENDBRANCH   1   6
BRANCH   2  28
ATOM     28  C2  74K d   1      14.562  -3.589  22.806  0.00  0.00     0.049 A 
ATOM     29  C1  74K d   1      15.942  -3.391  23.456  0.00  0.00    -0.046 A 
ATOM     30  C3  74K d   1      15.482  -4.795  23.060  0.00  0.00    -0.046 A 
ATOM     31  H1  74K d   1      16.015  -3.116  24.518  0.00  0.00     0.035 H 
ATOM     32  H2  74K d   1      16.749  -2.898  22.894  0.00  0.00     0.035 H 
ATOM     33  H3  74K d   1      15.224  -5.529  23.838  0.00  0.00     0.035 H 
ATOM     34  H4  74K d   1      15.958  -5.311  22.213  0.00  0.00     0.035 H 
BRANCH  28  35
ATOM     35  C18 74K d   1      14.316  -3.150  21.372  0.00  0.00    -0.042 A 
ATOM     36  C19 74K d   1      13.052  -2.669  21.016  0.00  0.00    -0.076 A 
ATOM     37  C20 74K d   1      12.796  -2.244  19.716  0.00  0.00    -0.082 A 
ATOM     38  H5  74K d   1      12.264  -2.627  21.760  0.00  0.00     0.084 H 
ATOM     39  C21 74K d   1      13.792  -2.324  18.745  0.00  0.00    -0.083 A 
ATOM     40  H6  74K d   1      11.820  -1.850  19.458  0.00  0.00     0.083 H 
ATOM     41  C22 74K d   1      15.061  -2.794  19.087  0.00  0.00    -0.082 A 
ATOM     42  H7  74K d   1      13.582  -2.022  17.726  0.00  0.00     0.083 H 
ATOM     43  C23 74K d   1      15.322  -3.208  20.392  0.00  0.00    -0.076 A 
ATOM     44  H8  74K d   1      15.843  -2.837  18.338  0.00  0.00     0.083 H 
ATOM     45  H19 74K d   1      16.307  -3.577  20.653  0.00  0.00     0.084 H 
ENDBRANCH  28  35
ENDBRANCH   2  28
BRANCH   4  46
ATOM     46  C17 74K d   1      13.518  -1.071  24.557  0.00  0.00     0.004 C 
ATOM     47  H16 74K d   1      12.908  -0.463  25.241  0.00  0.00     0.059 H 
ATOM     48  H17 74K d   1      13.543  -0.595  23.566  0.00  0.00     0.059 H 
ATOM     49  H18 74K d   1      14.542  -1.150  24.952  0.00  0.00     0.059 H 
ENDBRANCH   4  46
TORSDOF 6
