REMARK  7 active torsions:
REMARK  status: ('A' for Active; 'I' for Inactive)
REMARK    1  A    between atoms: C9_6  and  C16_13 
REMARK    2  A    between atoms: C19_14  and  C10_7 
REMARK    3  A    between atoms: C14_11  and  C11_8 
REMARK    4  A    between atoms: C12_9  and  N26_18 
REMARK    5  A    between atoms: C13_10  and  N28_29 
REMARK    6  A    between atoms: C15_12  and  C19_14 
REMARK       I    between atoms: C16_13  and  N29_19 
REMARK    7  A    between atoms: N27_28  and  C20_15 
ROOT
ATOM      1  C14 74J d   1      11.767  -4.020  24.983  0.00  0.00     0.201 A 
ATOM      2  C15 74J d   1      13.505  -3.473  23.925  0.00  0.00     0.138 A 
ATOM      3  N25 74J d   1      11.902  -2.732  25.315  0.00  0.00    -0.149 NA
ATOM      4  N24 74J d   1      12.731  -4.511  24.141  0.00  0.00    -0.209 NA
ATOM      5  N27 74J d   1      13.012  -2.411  24.639  0.00  0.00    -0.257 N 
ENDROOT
BRANCH   1   6
ATOM      6  C11 74J d   1      10.652  -4.834  25.407  0.00  0.00     0.126 A 
ATOM      7  C7  74J d   1       9.602  -4.285  26.105  0.00  0.00     0.036 A 
ATOM      8  N21 74J d   1       8.547  -4.999  26.479  0.00  0.00    -0.238 NA
ATOM      9  H4  74J d   1       9.637  -3.232  26.359  0.00  0.00     0.118 H 
ATOM     10  C13 74J d   1       8.551  -6.295  26.142  0.00  0.00     0.169 A 
ATOM     11  C12 74J d   1       9.614  -6.840  25.437  0.00  0.00     0.197 A 
ATOM     12  N23 74J d   1      10.667  -6.118  25.049  0.00  0.00    -0.221 NA
BRANCH  10  13
ATOM     13  N28 74J d   1       7.443  -7.053  26.527  0.00  0.00    -0.381 N 
ATOM     14  H18 74J d   1       6.673  -6.611  27.050  0.00  0.00     0.157 HD
ATOM     15  H19 74J d   1       7.396  -8.054  26.288  0.00  0.00     0.157 HD
ENDBRANCH  10  13
BRANCH  11  16
ATOM     16  N26 74J d   1       9.664  -8.184  25.039  0.00  0.00    -0.223 N 
ATOM     17  C8  74J d   1      10.538  -8.664  24.104  0.00  0.00     0.023 A 
ATOM     18  C9  74J d   1      10.175  -9.961  23.840  0.00  0.00     0.068 A 
ATOM     19  H5  74J d   1      11.367  -8.120  23.653  0.00  0.00     0.116 H 
ATOM     20  C6  74J d   1       9.055 -10.193  24.667  0.00  0.00     0.039 A 
ATOM     21  N22 74J d   1       8.760  -9.116  25.398  0.00  0.00    -0.178 NA
ATOM     22  H13 74J d   1       8.502 -11.131  24.704  0.00  0.00     0.119 H 
BRANCH  18  23
ATOM     23  C16 74J d   1      10.833 -10.851  22.923  0.00  0.00     0.252 C 
ATOM     24  N29 74J d   1      10.471 -12.159  23.140  0.00  0.00    -0.366 N 
ATOM     25  H9  74J d   1      10.856 -12.885  22.571  0.00  0.00     0.159 HD
ATOM     26  H10 74J d   1       9.823 -12.384  23.867  0.00  0.00     0.159 HD
ATOM     27  O30 74J d   1      11.617 -10.453  22.069  0.00  0.00    -0.268 OA
ENDBRANCH  18  23
ENDBRANCH  11  16
ENDBRANCH   1   6
BRANCH   5  28
ATOM     28  C20 74J d   1      13.471  -1.032  24.672  0.00  0.00     0.004 C 
ATOM     29  H6  74J d   1      12.838  -0.451  25.358  0.00  0.00     0.059 H 
ATOM     30  H7  74J d   1      13.409  -0.601  23.662  0.00  0.00     0.059 H 
ATOM     31  H8  74J d   1      14.514  -1.001  25.020  0.00  0.00     0.059 H 
ENDBRANCH   5  28
BRANCH   2  32
ATOM     32  C19 74J d   1      14.746  -3.515  22.993  0.00  0.00     0.049 A 
ATOM     33  C17 74J d   1      15.780  -4.593  23.252  0.00  0.00    -0.046 A 
ATOM     34  C18 74J d   1      16.076  -3.168  23.612  0.00  0.00    -0.046 A 
ATOM     35  H14 74J d   1      16.303  -5.067  22.409  0.00  0.00     0.035 H 
ATOM     36  H15 74J d   1      15.612  -5.337  24.045  0.00  0.00     0.035 H 
ATOM     37  H16 74J d   1      16.128  -2.869  24.669  0.00  0.00     0.035 H 
ATOM     38  H17 74J d   1      16.819  -2.599  23.033  0.00  0.00     0.035 H 
BRANCH  32  39
ATOM     39  C10 74J d   1      14.456  -3.096  21.598  0.00  0.00    -0.042 A 
ATOM     40  C4  74J d   1      13.224  -2.557  21.252  0.00  0.00    -0.076 A 
ATOM     41  C2  74J d   1      12.922  -2.133  19.973  0.00  0.00    -0.082 A 
ATOM     42  H11 74J d   1      12.465  -2.465  22.020  0.00  0.00     0.084 H 
ATOM     43  C1  74J d   1      13.864  -2.253  18.980  0.00  0.00    -0.083 A 
ATOM     44  H2  74J d   1      11.949  -1.709  19.754  0.00  0.00     0.083 H 
ATOM     45  C3  74J d   1      15.097  -2.792  19.284  0.00  0.00    -0.082 A 
ATOM     46  H1  74J d   1      13.641  -1.928  17.970  0.00  0.00     0.083 H 
ATOM     47  C5  74J d   1      15.384  -3.202  20.572  0.00  0.00    -0.076 A 
ATOM     48  H3  74J d   1      15.846  -2.895  18.507  0.00  0.00     0.083 H 
ATOM     49  H12 74J d   1      16.362  -3.618  20.787  0.00  0.00     0.084 H 
ENDBRANCH  32  39
ENDBRANCH   2  32
TORSDOF 7
