REMARK  7 active torsions:
REMARK  status: ('A' for Active; 'I' for Inactive)
REMARK    1  A    between atoms: C19_14  and  C9_6 
REMARK    2  A    between atoms: C14_11  and  C10_7 
REMARK    3  A    between atoms: C11_8  and  C16_13 
REMARK    4  A    between atoms: C12_9  and  N26_18 
REMARK    5  A    between atoms: C13_10  and  N28_29 
REMARK    6  A    between atoms: C15_12  and  C19_14 
REMARK       I    between atoms: C16_13  and  N29_19 
REMARK    7  A    between atoms: N27_28  and  C20_15 
ROOT
ATOM      1  C14 74H d   1      43.570  -3.908  24.741  0.00  0.00     0.201 A 
ATOM      2  C15 74H d   1      45.327  -3.216  23.763  0.00  0.00     0.138 A 
ATOM      3  N25 74H d   1      43.641  -2.623  25.116  0.00  0.00    -0.149 NA
ATOM      4  N24 74H d   1      44.601  -4.302  23.919  0.00  0.00    -0.209 NA
ATOM      5  N27 74H d   1      44.758  -2.208  24.496  0.00  0.00    -0.257 N 
ENDROOT
BRANCH   1   6
ATOM      6  C10 74H d   1      42.486  -4.807  25.104  0.00  0.00     0.126 A 
ATOM      7  C7  74H d   1      41.404  -4.410  25.862  0.00  0.00     0.036 A 
ATOM      8  N21 74H d   1      40.412  -5.244  26.207  0.00  0.00    -0.238 NA
ATOM      9  H4  74H d   1      41.353  -3.379  26.193  0.00  0.00     0.118 H 
ATOM     10  C13 74H d   1      40.494  -6.504  25.756  0.00  0.00     0.169 A 
ATOM     11  C12 74H d   1      41.578  -6.894  24.984  0.00  0.00     0.197 A 
ATOM     12  N22 74H d   1      42.576  -6.065  24.652  0.00  0.00    -0.221 NA
BRANCH  10  13
ATOM     13  N28 74H d   1      39.453  -7.375  26.079  0.00  0.00    -0.381 N 
ATOM     14  H18 74H d   1      38.666  -7.045  26.655  0.00  0.00     0.157 HD
ATOM     15  H19 74H d   1      39.472  -8.348  25.741  0.00  0.00     0.157 HD
ENDBRANCH  10  13
BRANCH  11  16
ATOM     16  N26 74H d   1      41.708  -8.160  24.407  0.00  0.00    -0.223 N 
ATOM     17  C8  74H d   1      42.527  -8.402  23.337  0.00  0.00     0.009 A 
ATOM     18  C6  74H d   1      42.391  -9.730  23.027  0.00  0.00    -0.031 A 
ATOM     19  H5  74H d   1      43.164  -7.679  22.830  0.00  0.00     0.115 H 
ATOM     20  C11 74H d   1      41.455 -10.233  23.959  0.00  0.00     0.146 A 
ATOM     21  H13 74H d   1      42.895 -10.279  22.233  0.00  0.00     0.089 H 
ATOM     22  N23 74H d   1      41.052  -9.264  24.796  0.00  0.00    -0.161 NA
BRANCH  20  23
ATOM     23  C16 74H d   1      40.968 -11.593  24.033  0.00  0.00     0.269 C 
ATOM     24  N29 74H d   1      40.057 -11.833  25.027  0.00  0.00    -0.365 N 
ATOM     25  H9  74H d   1      39.673 -12.749  25.143  0.00  0.00     0.159 HD
ATOM     26  H10 74H d   1      39.776 -11.092  25.637  0.00  0.00     0.159 HD
ATOM     27  O30 74H d   1      41.329 -12.452  23.249  0.00  0.00    -0.266 OA
ENDBRANCH  20  23
ENDBRANCH  11  16
ENDBRANCH   1   6
BRANCH   5  28
ATOM     28  C20 74H d   1      45.177  -0.825  24.645  0.00  0.00     0.004 C 
ATOM     29  H6  74H d   1      44.479  -0.300  25.314  0.00  0.00     0.059 H 
ATOM     30  H7  74H d   1      45.180  -0.335  23.660  0.00  0.00     0.059 H 
ATOM     31  H8  74H d   1      46.189  -0.793  25.074  0.00  0.00     0.059 H 
ENDBRANCH   5  28
BRANCH   2  32
ATOM     32  C19 74H d   1      46.595  -3.160  22.874  0.00  0.00     0.049 A 
ATOM     33  C17 74H d   1      47.620  -4.237  23.118  0.00  0.00    -0.046 A 
ATOM     34  C18 74H d   1      47.900  -2.836  23.557  0.00  0.00    -0.046 A 
ATOM     35  H14 74H d   1      48.175  -4.669  22.272  0.00  0.00     0.035 H 
ATOM     36  H15 74H d   1      47.427  -5.019  23.867  0.00  0.00     0.035 H 
ATOM     37  H16 74H d   1      47.913  -2.588  24.629  0.00  0.00     0.035 H 
ATOM     38  H17 74H d   1      48.660  -2.238  23.034  0.00  0.00     0.035 H 
BRANCH  32  39
ATOM     39  C9  74H d   1      46.340  -2.767  21.457  0.00  0.00    -0.042 A 
ATOM     40  C4  74H d   1      45.068  -2.413  21.027  0.00  0.00    -0.076 A 
ATOM     41  C2  74H d   1      44.770  -2.068  19.722  0.00  0.00    -0.082 A 
ATOM     42  H11 74H d   1      44.265  -2.407  21.755  0.00  0.00     0.084 H 
ATOM     43  C1  74H d   1      45.786  -2.063  18.793  0.00  0.00    -0.083 A 
ATOM     44  H2  74H d   1      43.758  -1.807  19.436  0.00  0.00     0.083 H 
ATOM     45  C3  74H d   1      47.069  -2.392  19.187  0.00  0.00    -0.082 A 
ATOM     46  H1  74H d   1      45.581  -1.803  17.761  0.00  0.00     0.083 H 
ATOM     47  C5  74H d   1      47.336  -2.739  20.495  0.00  0.00    -0.076 A 
ATOM     48  H3  74H d   1      47.874  -2.377  18.461  0.00  0.00     0.083 H 
ATOM     49  H12 74H d   1      48.351  -2.996  20.777  0.00  0.00     0.084 H 
ENDBRANCH  32  39
ENDBRANCH   2  32
TORSDOF 7
