REMARK  7 active torsions:
REMARK  status: ('A' for Active; 'I' for Inactive)
REMARK    1  A    between atoms: N2_17  and  C1_1 
REMARK    2  A    between atoms: C23_27  and  C3_2 
REMARK    3  A    between atoms: C5_19  and  C7_4 
REMARK    4  A    between atoms: C10_6  and  N22_26 
REMARK    5  A    between atoms: C11_7  and  C13_8 
REMARK    6  A    between atoms: C16_11  and  C19_12 
REMARK       I    between atoms: C19_12  and  N21_25 
REMARK    7  A    between atoms: C23_27  and  C26_29 
ROOT
ATOM      1  C3  74N d   1      13.577   3.136 -23.691  0.00  0.00     0.138 A 
ATOM      2  N6  74N d   1      11.972   2.557 -25.096  0.00  0.00    -0.149 NA
ATOM      3  N2  74N d   1      13.110   2.092 -24.416  0.00  0.00    -0.257 N 
ATOM      4  N4  74N d   1      12.768   4.144 -23.890  0.00  0.00    -0.209 NA
ATOM      5  C5  74N d   1      11.806   3.820 -24.763  0.00  0.00     0.201 A 
ENDROOT
BRANCH   5   6
ATOM      6  C7  74N d   1      10.688   4.714 -25.173  0.00  0.00     0.124 A 
ATOM      7  C8  74N d   1       9.623   4.216 -25.937  0.00  0.00     0.036 A 
ATOM      8  N9  74N d   1       8.611   5.018 -26.237  0.00  0.00    -0.239 NA
ATOM      9  H4  74N d   1       9.627   3.187 -26.278  0.00  0.00     0.118 H 
ATOM     10  C10 74N d   1       8.573   6.283 -25.815  0.00  0.00     0.150 A 
ATOM     11  C11 74N d   1       9.631   6.807 -25.017  0.00  0.00     0.113 A 
ATOM     12  N12 74N d   1      10.640   5.977 -24.722  0.00  0.00    -0.239 NA
BRANCH  10  13
ATOM     13  N22 74N d   1       7.470   7.035 -26.180  0.00  0.00    -0.382 N 
ATOM     14  H16 74N d   1       6.729   6.615 -26.758  0.00  0.00     0.157 HD
ATOM     15  H17 74N d   1       7.391   8.015 -25.873  0.00  0.00     0.157 HD
ENDBRANCH  10  13
BRANCH  11  16
ATOM     16  C13 74N d   1       9.657   8.214 -24.483  0.00  0.00    -0.004 A 
ATOM     17  C14 74N d   1       9.035   9.267 -25.186  0.00  0.00    -0.070 A 
ATOM     18  C15 74N d   1       9.043  10.568 -24.709  0.00  0.00    -0.067 A 
ATOM     19  H5  74N d   1       8.537   9.053 -26.125  0.00  0.00     0.084 H 
ATOM     20  C16 74N d   1       9.697  10.876 -23.501  0.00  0.00     0.031 A 
ATOM     21  H6  74N d   1       8.544  11.351 -25.268  0.00  0.00     0.085 H 
ATOM     22  C17 74N d   1      10.334   9.834 -22.783  0.00  0.00    -0.067 A 
ATOM     23  C18 74N d   1      10.308   8.525 -23.263  0.00  0.00    -0.070 A 
ATOM     24  H12 74N d   1      10.845  10.056 -21.853  0.00  0.00     0.085 H 
ATOM     25  H13 74N d   1      10.791   7.737 -22.697  0.00  0.00     0.084 H 
BRANCH  20  26
ATOM     26  C19 74N d   1       9.703  12.290 -23.025  0.00  0.00     0.249 C 
ATOM     27  O20 74N d   1      10.725  12.819 -22.635  0.00  0.00    -0.268 OA
ATOM     28  N21 74N d   1       8.579  13.030 -23.036  0.00  0.00    -0.366 N 
ATOM     29  H14 74N d   1       8.600  13.976 -22.713  0.00  0.00     0.159 HD
ATOM     30  H15 74N d   1       7.723  12.633 -23.367  0.00  0.00     0.159 HD
ENDBRANCH  20  26
ENDBRANCH  11  16
ENDBRANCH   5   6
BRANCH   3  31
ATOM     31  C1  74N d   1      13.643   0.728 -24.526  0.00  0.00     0.004 C 
ATOM     32  H1  74N d   1      13.009   0.140 -25.206  0.00  0.00     0.059 H 
ATOM     33  H2  74N d   1      13.651   0.256 -23.532  0.00  0.00     0.059 H 
ATOM     34  H3  74N d   1      14.668   0.766 -24.922  0.00  0.00     0.059 H 
ENDBRANCH   3  31
BRANCH   1  35
ATOM     35  C23 74N d   1      14.768   3.186 -22.747  0.00  0.00     0.049 A 
ATOM     36  C24 74N d   1      16.157   2.886 -23.337  0.00  0.00    -0.046 A 
ATOM     37  C25 74N d   1      15.778   4.323 -22.987  0.00  0.00    -0.046 A 
ATOM     38  H7  74N d   1      16.253   2.584 -24.390  0.00  0.00     0.035 H 
ATOM     39  H8  74N d   1      16.907   2.353 -22.733  0.00  0.00     0.035 H 
ATOM     40  H18 74N d   1      15.601   5.055 -23.789  0.00  0.00     0.035 H 
ATOM     41  H19 74N d   1      16.255   4.824 -22.132  0.00  0.00     0.035 H 
BRANCH  35  42
ATOM     42  C26 74N d   1      14.461   2.813 -21.296  0.00  0.00    -0.042 A 
ATOM     43  C27 74N d   1      15.449   2.805 -20.305  0.00  0.00    -0.076 A 
ATOM     44  C28 74N d   1      15.144   2.461 -18.992  0.00  0.00    -0.082 A 
ATOM     45  H9  74N d   1      16.467   3.071 -20.564  0.00  0.00     0.084 H 
ATOM     46  C29 74N d   1      13.841   2.128 -18.651  0.00  0.00    -0.083 A 
ATOM     47  H20 74N d   1      15.922   2.453 -18.237  0.00  0.00     0.083 H 
ATOM     48  C30 74N d   1      12.846   2.124 -19.614  0.00  0.00    -0.082 A 
ATOM     49  H21 74N d   1      13.601   1.870 -17.626  0.00  0.00     0.083 H 
ATOM     50  C31 74N d   1      13.157   2.472 -20.923  0.00  0.00    -0.076 A 
ATOM     51  H10 74N d   1      11.831   1.851 -19.349  0.00  0.00     0.083 H 
ATOM     52  H11 74N d   1      12.372   2.479 -21.671  0.00  0.00     0.084 H 
ENDBRANCH  35  42
ENDBRANCH   1  35
TORSDOF 7
