REMARK  5 active torsions:
REMARK  status: ('A' for Active; 'I' for Inactive)
REMARK    1  A    between atoms: N09_17  and  C10_1 
REMARK    2  A    between atoms: C25_7  and  O28_28 
REMARK    3  A    between atoms: S19_24  and  C04_12 
REMARK    4  A    between atoms: C06_14  and  C07_15 
REMARK       I    between atoms: C07_15  and  N09_17 
REMARK    5  A    between atoms: S19_24  and  N22_26 
ROOT
ATOM      1  C01 K89 d   1      10.661  26.653  -4.965  0.00  0.00    -0.065 A 
ATOM      2  C02 K89 d   1       9.699  26.862  -3.977  0.00  0.00    -0.043 A 
ATOM      3  C03 K89 d   1       9.695  26.011  -2.862  0.00  0.00     0.139 A 
ATOM      4  C04 K89 d   1      10.587  24.984  -2.665  0.00  0.00     0.119 A 
ATOM      5  C05 K89 d   1      11.512  24.822  -3.663  0.00  0.00    -0.042 A 
ATOM      6  C06 K89 d   1      11.598  25.649  -4.836  0.00  0.00     0.034 A 
ATOM      7  F29 K89 d   1       8.781  26.247  -1.925  0.00  0.00    -0.204 F 
ATOM      8  H9  K89 d   1      10.672  27.287  -5.844  0.00  0.00     0.085 H 
ATOM      9  H10 K89 d   1       8.973  27.662  -4.069  0.00  0.00     0.088 H 
ATOM     10  H11 K89 d   1      12.228  24.015  -3.561  0.00  0.00     0.087 H 
ENDROOT
BRANCH   4  11
ATOM     11  S19 K89 d   1      10.577  23.911  -1.274  0.00  0.00     0.263 S 
ATOM     12  O20 K89 d   1      10.310  24.676  -0.117  0.00  0.00    -0.200 OA
ATOM     13  O21 K89 d   1      11.819  23.207  -1.312  0.00  0.00    -0.200 OA
BRANCH  11  14
ATOM     14  N22 K89 d   1       9.382  22.787  -1.472  0.00  0.00    -0.306 N 
ATOM     15  C23 K89 d   1       7.943  23.027  -1.058  0.00  0.00     0.007 C 
ATOM     16  C24 K89 d   1       7.019  21.773  -0.993  0.00  0.00    -0.025 C 
ATOM     17  H2  K89 d   1       7.955  23.485  -0.058  0.00  0.00     0.065 H 
ATOM     18  H3  K89 d   1       7.501  23.731  -1.779  0.00  0.00     0.065 H 
ATOM     19  C25 K89 d   1       7.140  20.823  -2.184  0.00  0.00     0.038 C 
ATOM     20  H4  K89 d   1       5.976  22.119  -0.936  0.00  0.00     0.039 H 
ATOM     21  H5  K89 d   1       7.269  21.211  -0.081  0.00  0.00     0.039 H 
ATOM     22  C26 K89 d   1       8.608  20.493  -2.345  0.00  0.00    -0.025 C 
ATOM     23  H6  K89 d   1       6.765  21.314  -3.094  0.00  0.00     0.083 H 
ATOM     24  C27 K89 d   1       9.482  21.738  -2.519  0.00  0.00     0.007 C 
ATOM     25  H14 K89 d   1       8.729  19.852  -3.231  0.00  0.00     0.039 H 
ATOM     26  H15 K89 d   1       8.946  19.949  -1.451  0.00  0.00     0.039 H 
ATOM     27  H7  K89 d   1      10.530  21.405  -2.555  0.00  0.00     0.065 H 
ATOM     28  H8  K89 d   1       9.211  22.201  -3.479  0.00  0.00     0.065 H 
BRANCH  19  29
ATOM     29  O28 K89 d   1       6.394  19.644  -1.947  0.00  0.00    -0.395 OA
ATOM     30  H16 K89 d   1       5.476  19.866  -1.848  0.00  0.00     0.210 HD
ENDBRANCH  19  29
ENDBRANCH  11  14
ENDBRANCH   4  11
BRANCH   6  31
ATOM     31  C07 K89 d   1      12.610  25.341  -5.799  0.00  0.00     0.256 C 
ATOM     32  O08 K89 d   1      12.441  25.583  -6.997  0.00  0.00    -0.267 OA
ATOM     33  N09 K89 d   1      13.783  24.740  -5.380  0.00  0.00    -0.323 N 
ATOM     34  H12 K89 d   1      13.878  24.670  -4.387  0.00  0.00     0.169 HD
BRANCH  33  35
ATOM     35  C10 K89 d   1      14.848  24.219  -6.093  0.00  0.00     0.041 A 
ATOM     36  C15 K89 d   1      14.709  23.762  -7.397  0.00  0.00    -0.017 A 
ATOM     37  C14 K89 d   1      15.795  23.159  -8.049  0.00  0.00     0.160 A 
ATOM     38  H1  K89 d   1      13.761  23.871  -7.911  0.00  0.00     0.091 H 
ATOM     39  C13 K89 d   1      17.045  22.994  -7.409  0.00  0.00     0.193 A 
ATOM     40  F16 K89 d   1      15.669  22.728  -9.309  0.00  0.00    -0.203 F 
ATOM     41  C12 K89 d   1      17.151  23.444  -6.106  0.00  0.00     0.160 A 
ATOM     42  F17 K89 d   1      18.114  22.429  -7.990  0.00  0.00    -0.200 F 
ATOM     43  C11 K89 d   1      16.068  24.056  -5.461  0.00  0.00    -0.017 A 
ATOM     44  F18 K89 d   1      18.302  23.328  -5.453  0.00  0.00    -0.203 F 
ATOM     45  H13 K89 d   1      16.189  24.410  -4.444  0.00  0.00     0.091 H 
ENDBRANCH  33  35
ENDBRANCH   6  31
TORSDOF 5
