REMARK  8 active torsions:
REMARK  status: ('A' for Active; 'I' for Inactive)
REMARK    1  A    between atoms: C16_7  and  C15_8 
REMARK    2  A    between atoms: C15_8  and  C11_9 
REMARK    3  A    between atoms: C11_9  and  C14_12 
REMARK    4  A    between atoms: C14_12  and  C22_14 
REMARK    5  A    between atoms: C23_15  and  O28_16 
REMARK    6  A    between atoms: C23_15  and  C24_17 
REMARK    7  A    between atoms: N8_22  and  C7_23 
REMARK    8  A    between atoms: C7_23  and  C2_24 
ROOT
ATOM      1  C11 0N8 d   1     -89.306 -37.489   8.928  0.00  0.00     0.031 C 
ATOM      2  C10 0N8 d   1     -88.614 -38.637   9.608  0.00  0.00    -0.028 C 
ATOM      3  C9  0N8 d   1     -87.103 -38.360   9.804  0.00  0.00     0.085 C 
ATOM      4  C12 0N8 d   1     -89.029 -36.304   9.750  0.00  0.00    -0.028 C 
ATOM      5  C13 0N8 d   1     -87.543 -35.956   9.721  0.00  0.00     0.085 C 
ATOM      6  N8  0N8 d   1     -86.755 -37.053  10.353  0.00  0.00    -0.067 N 
ATOM      7  H7  0N8 d   1     -88.734 -39.541   8.992  0.00  0.00     0.037 H 
ATOM      8  H8  0N8 d   1     -89.077 -38.800  10.592  0.00  0.00     0.037 H 
ATOM      9  H9  0N8 d   1     -86.614 -38.453   8.823  0.00  0.00     0.076 H 
ATOM     10  H10 0N8 d   1     -86.707 -39.127  10.486  0.00  0.00     0.076 H 
ATOM     11  H13 0N8 d   1     -89.331 -36.507  10.788  0.00  0.00     0.037 H 
ATOM     12  H14 0N8 d   1     -89.606 -35.452   9.360  0.00  0.00     0.037 H 
ATOM     13  H15 0N8 d   1     -87.376 -35.020  10.275  0.00  0.00     0.076 H 
ATOM     14  H16 0N8 d   1     -87.218 -35.827   8.678  0.00  0.00     0.076 H 
ATOM     15  H17 0N8 d   1     -85.781 -36.902  10.144  0.00  0.00     0.280 HD
ENDROOT
BRANCH   1  16
ATOM     16  C15 0N8 d   1     -90.866 -37.608   8.707  0.00  0.00    -0.027 C 
ATOM     17  H5  0N8 d   1     -91.321 -37.984   9.635  0.00  0.00     0.042 H 
ATOM     18  H6  0N8 d   1     -91.263 -36.607   8.483  0.00  0.00     0.042 H 
BRANCH  16  19
ATOM     19  C16 0N8 d   1     -91.268 -38.586   7.517  0.00  0.00    -0.057 A 
ATOM     20  C17 0N8 d   1     -91.741 -38.107   6.332  0.00  0.00    -0.075 A 
ATOM     21  C18 0N8 d   1     -92.102 -38.992   5.320  0.00  0.00    -0.061 A 
ATOM     22  H2  0N8 d   1     -91.836 -37.038   6.178  0.00  0.00     0.084 H 
ATOM     23  C19 0N8 d   1     -91.987 -40.326   5.516  0.00  0.00     0.034 A 
ATOM     24  H1  0N8 d   1     -92.475 -38.613   4.375  0.00  0.00     0.086 H 
ATOM     25 CL2  0N8 d   1     -92.431 -41.448   4.223  0.00  0.00    -0.084 Cl
ATOM     26  C20 0N8 d   1     -91.515 -40.800   6.720  0.00  0.00    -0.061 A 
ATOM     27  C21 0N8 d   1     -91.166 -39.937   7.708  0.00  0.00    -0.075 A 
ATOM     28  H3  0N8 d   1     -91.422 -41.868   6.880  0.00  0.00     0.086 H 
ATOM     29  H4  0N8 d   1     -90.804 -40.321   8.655  0.00  0.00     0.084 H 
ENDBRANCH  16  19
ENDBRANCH   1  16
BRANCH   1  30
ATOM     30  C14 0N8 d   1     -88.790 -37.296   7.421  0.00  0.00     0.161 C 
ATOM     31  O27 0N8 d   1     -88.126 -38.102   6.811  0.00  0.00    -0.292 OA
BRANCH  30  32
ATOM     32  C22 0N8 d   1     -89.156 -35.938   6.783  0.00  0.00     0.001 C 
ATOM     33  C23 0N8 d   1     -88.901 -35.608   5.496  0.00  0.00     0.146 C 
ATOM     34  H11 0N8 d   1     -89.651 -35.198   7.410  0.00  0.00     0.093 H 
BRANCH  33  35
ATOM     35  O28 0N8 d   1     -88.286 -36.516   4.562  0.00  0.00    -0.355 OA
ATOM     36  H12 0N8 d   1     -88.198 -36.089   3.718  0.00  0.00     0.218 HD
ENDBRANCH  33  35
BRANCH  33  37
ATOM     37  C24 0N8 d   1     -89.259 -34.256   4.915  0.00  0.00     0.233 C 
ATOM     38  O26 0N8 d   1     -89.534 -33.202   5.683  0.00  0.00    -0.642 OA
ATOM     39  O25 0N8 d   1     -89.209 -34.379   3.630  0.00  0.00    -0.642 OA
ENDBRANCH  33  37
ENDBRANCH  30  32
ENDBRANCH   1  30
BRANCH   6  40
ATOM     40  C7  0N8 d   1     -86.917 -36.929  11.768  0.00  0.00     0.107 C 
ATOM     41  H18 0N8 d   1     -87.921 -37.284  12.044  0.00  0.00     0.083 H 
ATOM     42  H19 0N8 d   1     -86.813 -35.870  12.047  0.00  0.00     0.083 H 
BRANCH  40  43
ATOM     43  C2  0N8 d   1     -85.841 -37.773  12.556  0.00  0.00    -0.033 A 
ATOM     44  C3  0N8 d   1     -84.579 -37.249  12.855  0.00  0.00    -0.075 A 
ATOM     45  C4  0N8 d   1     -83.665 -38.035  13.562  0.00  0.00    -0.082 A 
ATOM     46  H20 0N8 d   1     -84.313 -36.246  12.542  0.00  0.00     0.084 H 
ATOM     47  C5  0N8 d   1     -84.018 -39.315  13.958  0.00  0.00    -0.083 A 
ATOM     48  H21 0N8 d   1     -82.682 -37.644  13.800  0.00  0.00     0.083 H 
ATOM     49  C6  0N8 d   1     -85.273 -39.825  13.656  0.00  0.00    -0.082 A 
ATOM     50  H22 0N8 d   1     -83.308 -39.923  14.508  0.00  0.00     0.083 H 
ATOM     51  C1  0N8 d   1     -86.189 -39.048  12.957  0.00  0.00    -0.075 A 
ATOM     52  H23 0N8 d   1     -85.539 -40.829  13.965  0.00  0.00     0.083 H 
ATOM     53  H24 0N8 d   1     -87.173 -39.441  12.727  0.00  0.00     0.084 H 
ENDBRANCH  40  43
ENDBRANCH   6  40
TORSDOF 8
