REMARK  7 active torsions:
REMARK  status: ('A' for Active; 'I' for Inactive)
REMARK    1  A    between atoms: C1_1  and  C_13 
REMARK    2  A    between atoms: C2_2  and  C3_3 
REMARK    3  A    between atoms: C6_6  and  N_12 
REMARK    4  A    between atoms: N_12  and  C7_7 
REMARK    5  A    between atoms: C8_8  and  C9_16 
REMARK    6  A    between atoms: C9_16  and  C10_17 
REMARK    7  A    between atoms: C10_17  and  C11_18 
ROOT
ATOM      1  C1  753 d   1      51.389 106.206  -7.639  0.00  0.00    -0.021 A 
ATOM      2  C2  753 d   1      51.747 105.198  -6.775  0.00  0.00     0.090 A 
ATOM      3  C4  753 d   1      52.307 104.616  -9.136  0.00  0.00     0.115 A 
ATOM      4  C5  753 d   1      51.715 105.879  -9.031  0.00  0.00     0.053 A 
ATOM      5  C6  753 d   1      51.576 106.482 -10.384  0.00  0.00     0.139 A 
ATOM      6  C8  753 d   1      52.495 104.651 -11.413  0.00  0.00     0.130 A 
ATOM      7  N1  753 d   1      51.965 105.875 -11.525  0.00  0.00    -0.215 NA
ATOM      8  N2  753 d   1      52.691 104.003 -10.264  0.00  0.00    -0.225 NA
ATOM      9  S   753 d   1      52.478 103.843  -7.584  0.00  0.00    -0.062 SA
ENDROOT
BRANCH   6  10
ATOM     10  C9  753 d   1      52.893 103.865 -12.625  0.00  0.00    -0.004 C 
ATOM     11  H8  753 d   1      53.480 102.995 -12.296  0.00  0.00     0.045 H 
ATOM     12  H9  753 d   1      53.516 104.507 -13.265  0.00  0.00     0.045 H 
BRANCH  10  13
ATOM     13  C10 753 d   1      51.653 103.340 -13.491  0.00  0.00    -0.035 C 
ATOM     14  H10 753 d   1      51.177 104.209 -13.968  0.00  0.00     0.040 H 
ATOM     15  H11 753 d   1      50.938 102.860 -12.807  0.00  0.00     0.040 H 
BRANCH  13  16
ATOM     16  C11 753 d   1      52.007 102.345 -14.574  0.00  0.00    -0.058 A 
ATOM     17  C16 753 d   1      52.097 102.739 -15.903  0.00  0.00    -0.077 A 
ATOM     18  C15 753 d   1      52.390 101.819 -16.896  0.00  0.00    -0.082 A 
ATOM     19  H12 753 d   1      51.936 103.778 -16.166  0.00  0.00     0.084 H 
ATOM     20  C14 753 d   1      52.588 100.495 -16.576  0.00  0.00    -0.083 A 
ATOM     21  H13 753 d   1      52.464 102.142 -17.928  0.00  0.00     0.083 H 
ATOM     22  C13 753 d   1      52.502 100.088 -15.260  0.00  0.00    -0.082 A 
ATOM     23  H14 753 d   1      52.811  99.775 -17.355  0.00  0.00     0.083 H 
ATOM     24  C12 753 d   1      52.215 101.007 -14.265  0.00  0.00    -0.077 A 
ATOM     25  H15 753 d   1      52.660  99.046 -15.005  0.00  0.00     0.083 H 
ATOM     26  H16 753 d   1      52.152 100.679 -13.234  0.00  0.00     0.084 H 
ENDBRANCH  13  16
ENDBRANCH  10  13
ENDBRANCH   6  10
BRANCH   5  27
ATOM     27  N   753 d   1      51.008 107.683 -10.543  0.00  0.00    -0.378 N 
ATOM     28  H4  753 d   1      50.672 108.177  -9.704  0.00  0.00     0.160 HD
BRANCH  27  29
ATOM     29  C7  753 d   1      50.840 108.326 -11.828  0.00  0.00    -0.020 C 
ATOM     30  H1  753 d   1      50.349 109.300 -11.689  0.00  0.00     0.056 H 
ATOM     31  H2  753 d   1      50.219 107.692 -12.477  0.00  0.00     0.056 H 
ATOM     32  H3  753 d   1      51.825 108.475 -12.295  0.00  0.00     0.056 H 
ENDBRANCH  27  29
ENDBRANCH   5  27
BRANCH   1  33
ATOM     33  C   753 d   1      50.744 107.493  -7.205  0.00  0.00    -0.049 C 
ATOM     34  H5  753 d   1      50.609 107.486  -6.113  0.00  0.00     0.033 H 
ATOM     35  H6  753 d   1      49.764 107.596  -7.695  0.00  0.00     0.033 H 
ATOM     36  H7  753 d   1      51.386 108.339  -7.489  0.00  0.00     0.033 H 
ENDBRANCH   1  33
BRANCH   2  37
ATOM     37  C3  753 d   1      51.661 105.081  -5.291  0.00  0.00     0.217 C 
ATOM     38  O1  753 d   1      51.097 105.793  -4.462  0.00  0.00    -0.643 OA
ATOM     39  O   753 d   1      52.268 103.941  -5.000  0.00  0.00    -0.643 OA
ENDBRANCH   2  37
TORSDOF 7
