REMARK  5 active torsions:
REMARK  status: ('A' for Active; 'I' for Inactive)
REMARK    1  A    between atoms: C13_13  and  C14_1 
REMARK    2  A    between atoms: C16_3  and  C18_5 
REMARK    3  A    between atoms: C16_3  and  C19_6 
REMARK    4  A    between atoms: C6_12  and  C13_13 
REMARK    5  A    between atoms: C6_12  and  C7_19 
ROOT
ATOM      1  C15 75F d   1     -18.723  26.393  -4.198  0.00  0.00    -0.021 C 
ATOM      2  C16 75F d   1     -17.329  26.956  -4.190  0.00  0.00    -0.036 C 
ATOM      3  C17 75F d   1     -16.337  26.111  -4.949  0.00  0.00    -0.002 C 
ATOM      4  N2  75F d   1     -20.879  22.590  -2.271  0.00  0.00    -0.261 N 
ATOM      5  O   75F d   1     -15.325  24.048  -4.481  0.00  0.00    -0.297 OA
ATOM      6  C   75F d   1     -16.356  24.660  -4.586  0.00  0.00     0.138 C 
ATOM      7  C1  75F d   1     -17.673  23.997  -4.438  0.00  0.00     0.058 C 
ATOM      8  C2  75F d   1     -18.704  24.950  -3.850  0.00  0.00     0.028 C 
ATOM      9  C6  75F d   1     -17.591  22.592  -3.781  0.00  0.00     0.034 C 
ATOM     10  C4  75F d   1     -18.894  22.252  -3.144  0.00  0.00     0.023 A 
ATOM     11  C5  75F d   1     -19.330  21.012  -2.800  0.00  0.00     0.033 A 
ATOM     12  N1  75F d   1     -20.555  21.227  -2.262  0.00  0.00    -0.185 NA
ATOM     13  C3  75F d   1     -19.828  23.157  -2.813  0.00  0.00     0.152 A 
ATOM     14  N   75F d   1     -19.613  24.494  -3.076  0.00  0.00    -0.237 NA
ATOM     15  H4  75F d   1     -19.158  26.518  -5.201  0.00  0.00     0.043 H 
ATOM     16  H5  75F d   1     -19.336  26.934  -3.462  0.00  0.00     0.043 H 
ATOM     17  H6  75F d   1     -15.328  26.502  -4.750  0.00  0.00     0.045 H 
ATOM     18  H7  75F d   1     -16.560  26.200  -6.023  0.00  0.00     0.045 H 
ATOM     19  H14 75F d   1     -21.741  23.041  -1.931  0.00  0.00     0.191 HD
ATOM     20  H15 75F d   1     -18.019  23.801  -5.463  0.00  0.00     0.063 H 
ATOM     21  H18 75F d   1     -18.813  20.062  -2.928  0.00  0.00     0.118 H 
ENDROOT
BRANCH   9  22
ATOM     22  C13 75F d   1     -17.248  21.568  -4.839  0.00  0.00    -0.052 C 
ATOM     23  H16 75F d   1     -16.184  21.676  -5.097  0.00  0.00     0.034 H 
ATOM     24  H17 75F d   1     -17.425  20.565  -4.424  0.00  0.00     0.034 H 
BRANCH  22  25
ATOM     25  C14 75F d   1     -18.061  21.714  -6.096  0.00  0.00    -0.075 C 
ATOM     26  H1  75F d   1     -17.761  20.941  -6.819  0.00  0.00     0.027 H 
ATOM     27  H2  75F d   1     -17.888  22.709  -6.531  0.00  0.00     0.027 H 
ATOM     28  H3  75F d   1     -19.129  21.598  -5.858  0.00  0.00     0.027 H 
ENDBRANCH  22  25
ENDBRANCH   9  22
BRANCH   9  29
ATOM     29  C7  75F d   1     -16.625  22.556  -2.650  0.00  0.00    -0.044 A 
ATOM     30  C8  75F d   1     -15.883  21.432  -2.350  0.00  0.00    -0.076 A 
ATOM     31  C9  75F d   1     -15.005  21.421  -1.294  0.00  0.00    -0.082 A 
ATOM     32  H19 75F d   1     -15.995  20.542  -2.959  0.00  0.00     0.084 H 
ATOM     33  C10 75F d   1     -14.875  22.540  -0.516  0.00  0.00    -0.083 A 
ATOM     34  H20 75F d   1     -14.420  20.534  -1.078  0.00  0.00     0.083 H 
ATOM     35  C11 75F d   1     -15.616  23.657  -0.800  0.00  0.00    -0.082 A 
ATOM     36  H21 75F d   1     -14.188  22.542   0.322  0.00  0.00     0.083 H 
ATOM     37  C12 75F d   1     -16.494  23.664  -1.861  0.00  0.00    -0.076 A 
ATOM     38  H22 75F d   1     -15.510  24.543  -0.184  0.00  0.00     0.083 H 
ATOM     39  H23 75F d   1     -17.082  24.550  -2.071  0.00  0.00     0.084 H 
ENDBRANCH   9  29
BRANCH   2  40
ATOM     40  C18 75F d   1     -17.421  28.290  -4.869  0.00  0.00    -0.069 C 
ATOM     41  H8  75F d   1     -18.140  28.926  -4.332  0.00  0.00     0.028 H 
ATOM     42  H9  75F d   1     -17.758  28.151  -5.907  0.00  0.00     0.028 H 
ATOM     43  H10 75F d   1     -16.432  28.772  -4.866  0.00  0.00     0.028 H 
ENDBRANCH   2  40
BRANCH   2  44
ATOM     44  C19 75F d   1     -16.864  27.163  -2.773  0.00  0.00    -0.069 C 
ATOM     45  H11 75F d   1     -16.793  26.190  -2.265  0.00  0.00     0.028 H 
ATOM     46  H12 75F d   1     -17.583  27.803  -2.241  0.00  0.00     0.028 H 
ATOM     47  H13 75F d   1     -15.876  27.647  -2.778  0.00  0.00     0.028 H 
ENDBRANCH   2  44
TORSDOF 5
