REMARK  29 active torsions:
REMARK  status: ('A' for Active; 'I' for Inactive)
REMARK    1  A    between atoms: CAA_1  and  CBZ_2 
REMARK    2  A    between atoms: CCH_6  and  CCF_7 
REMARK    3  A    between atoms: CCA_12  and  CBC_13 
REMARK    4  A    between atoms: CBC_13  and  NBM_14 
REMARK       I    between atoms: NBM_14  and  C_15 
REMARK    5  A    between atoms: C_15  and  CA_17 
REMARK    6  A    between atoms: CG_19  and  OD1_20 
REMARK       I    between atoms: N_22  and  CBW_23 
REMARK    7  A    between atoms: CBW_23  and  CCN_25 
REMARK    8  A    between atoms: CCN_25  and  CCQ_26 
REMARK    9  A    between atoms: CCN_25  and  NBN_30 
REMARK   10  A    between atoms: CCQ_26  and  CAF_27 
REMARK   11  A    between atoms: CCQ_26  and  CAG_28 
REMARK   12  A    between atoms: CCQ_26  and  CAE_29 
REMARK       I    between atoms: NBN_30  and  CBT_31 
REMARK   13  A    between atoms: CBT_31  and  CBD_33 
REMARK   14  A    between atoms: CBD_33  and  OBQ_34 
REMARK   15  A    between atoms: OBQ_34  and  CBB_35 
REMARK   16  A    between atoms: CBB_35  and  CBA_36 
REMARK   17  A    between atoms: CBA_36  and  OBP_37 
REMARK   18  A    between atoms: OBP_37  and  CAZ_38 
REMARK   19  A    between atoms: CAZ_38  and  CAY_39 
REMARK   20  A    between atoms: CAY_39  and  OBO_40 
REMARK   21  A    between atoms: OBO_40  and  CAX_41 
REMARK   22  A    between atoms: CAX_41  and  CAW_42 
REMARK   23  A    between atoms: CAW_42  and  NBL_43 
REMARK       I    between atoms: NBL_43  and  CBU_44 
REMARK   24  A    between atoms: CBU_44  and  CBE_46 
REMARK   25  A    between atoms: CBE_46  and  CCL_47 
REMARK   26  A    between atoms: CCB_52  and  CAB_53 
REMARK   27  A    between atoms: CCC_57  and  CAC_58 
REMARK   28  A    between atoms: CCD_59  and  CAD_60 
REMARK   29  A    between atoms: CBX_62  and  CCE_63 
ROOT
ATOM      1  OBQ 759 d   1      27.513 -26.597 -15.974  0.00  0.00    -0.380 OA
ENDROOT
BRANCH   1   2
ATOM      2  CBD 759 d   1      27.355 -26.578 -14.540  0.00  0.00     0.093 C 
ATOM      3  H30 759 d   1      26.666 -27.361 -14.189  0.00  0.00     0.089 H 
ATOM      4  H31 759 d   1      28.317 -26.675 -14.016  0.00  0.00     0.089 H 
BRANCH   2   5
ATOM      5  CBT 759 d   1      26.759 -25.180 -14.392  0.00  0.00     0.242 C 
ATOM      6  NBN 759 d   1      25.631 -25.053 -15.098  0.00  0.00    -0.345 N 
ATOM      7  H29 759 d   1      25.337 -25.844 -15.634  0.00  0.00     0.163 HD
ATOM      8  OAH 759 d   1      27.325 -24.272 -13.771  0.00  0.00    -0.271 OA
BRANCH   6   9
ATOM      9  CCN 759 d   1      24.791 -23.861 -15.155  0.00  0.00     0.096 C 
ATOM     10  H19 759 d   1      25.220 -23.036 -14.568  0.00  0.00     0.088 H 
BRANCH   9  11
ATOM     11  CBW 759 d   1      23.490 -24.353 -14.506  0.00  0.00     0.244 C 
ATOM     12  N   759 d   1      22.869 -23.553 -13.617  0.00  0.00    -0.334 N 
ATOM     13  CA  759 d   1      21.622 -24.014 -12.859  0.00  0.00     0.094 C 
ATOM     14  CD2 759 d   1      23.254 -22.188 -13.148  0.00  0.00     0.022 C 
ATOM     15  CB  759 d   1      21.212 -22.814 -12.006  0.00  0.00    -0.012 C 
ATOM     16  H12 759 d   1      21.901 -24.855 -12.207  0.00  0.00     0.088 H 
ATOM     17  CG  759 d   1      22.483 -21.995 -11.841  0.00  0.00     0.053 C 
ATOM     18  H13 759 d   1      20.836 -23.146 -11.027  0.00  0.00     0.040 H 
ATOM     19  H14 759 d   1      20.436 -22.224 -12.516  0.00  0.00     0.040 H 
ATOM     20  H15 759 d   1      22.243 -20.933 -11.681  0.00  0.00     0.085 H 
ATOM     21  H17 759 d   1      24.338 -22.130 -12.971  0.00  0.00     0.068 H 
ATOM     22  H18 759 d   1      22.962 -21.427 -13.887  0.00  0.00     0.068 H 
ATOM     23  OAK 759 d   1      23.097 -25.492 -14.761  0.00  0.00    -0.271 OA
BRANCH  13  24
ATOM     24  C   759 d   1      20.526 -24.439 -13.664  0.00  0.00     0.241 C 
ATOM     25  NBM 759 d   1      19.691 -25.324 -13.065  0.00  0.00    -0.355 N 
ATOM     26  H11 759 d   1      19.920 -25.632 -12.142  0.00  0.00     0.162 HD
ATOM     27  O   759 d   1      20.361 -24.010 -14.811  0.00  0.00    -0.271 OA
BRANCH  25  28
ATOM     28  CBC 759 d   1      18.457 -25.866 -13.693  0.00  0.00     0.019 C 
ATOM     29  H9  759 d   1      18.584 -25.891 -14.785  0.00  0.00     0.071 H 
ATOM     30  H10 759 d   1      18.276 -26.885 -13.321  0.00  0.00     0.071 H 
BRANCH  28  31
ATOM     31  CCA 759 d   1      17.369 -25.057 -13.373  0.00  0.00    -0.040 A 
ATOM     32  CAQ 759 d   1      17.269 -24.424 -12.127  0.00  0.00    -0.074 A 
ATOM     33  CAU 759 d   1      16.173 -23.624 -11.798  0.00  0.00    -0.071 A 
ATOM     34  H6  759 d   1      18.062 -24.559 -11.400  0.00  0.00     0.084 H 
ATOM     35  CCF 759 d   1      15.121 -23.432 -12.695  0.00  0.00    -0.017 A 
ATOM     36  H5  759 d   1      16.138 -23.143 -10.827  0.00  0.00     0.084 H 
ATOM     37  CAT 759 d   1      15.207 -24.071 -13.946  0.00  0.00    -0.071 A 
ATOM     38  CAP 759 d   1      16.310 -24.876 -14.275  0.00  0.00    -0.074 A 
ATOM     39  H7  759 d   1      14.409 -23.940 -14.668  0.00  0.00     0.084 H 
ATOM     40  H8  759 d   1      16.343 -25.365 -15.242  0.00  0.00     0.084 H 
BRANCH  35  41
ATOM     41  CCH 759 d   1      14.088 -22.649 -12.309  0.00  0.00     0.040 A 
ATOM     42  CBZ 759 d   1      12.780 -22.874 -12.467  0.00  0.00     0.049 A 
ATOM     43  NBI 759 d   1      11.974 -21.922 -11.944  0.00  0.00    -0.258 NA
ATOM     44  CAV 759 d   1      12.591 -20.893 -11.358  0.00  0.00     0.041 A 
ATOM     45  SBR 759 d   1      14.202 -21.167 -11.474  0.00  0.00    -0.080 SA
ATOM     46  H4  759 d   1      12.113 -20.033 -10.891  0.00  0.00     0.126 H 
BRANCH  42  47
ATOM     47  CAA 759 d   1      12.190 -24.097 -13.186  0.00  0.00    -0.034 C 
ATOM     48  H1  759 d   1      13.007 -24.746 -13.535  0.00  0.00     0.035 H 
ATOM     49  H2  759 d   1      11.593 -23.763 -14.048  0.00  0.00     0.035 H 
ATOM     50  H3  759 d   1      11.548 -24.657 -12.490  0.00  0.00     0.035 H 
ENDBRANCH  42  47
ENDBRANCH  35  41
ENDBRANCH  28  31
ENDBRANCH  25  28
ENDBRANCH  13  24
BRANCH  17  51
ATOM     51  OD1 759 d   1      23.265 -22.490 -10.738  0.00  0.00    -0.394 OA
ATOM     52  H16 759 d   1      22.755 -22.432  -9.939  0.00  0.00     0.210 HD
ENDBRANCH  17  51
ENDBRANCH   9  11
BRANCH   9  53
ATOM     53  CCQ 759 d   1      24.661 -23.410 -16.637  0.00  0.00    -0.022 C 
BRANCH  53  54
ATOM     54  CAF 759 d   1      26.073 -23.315 -17.225  0.00  0.00    -0.067 C 
ATOM     55  H20 759 d   1      26.012 -22.997 -18.276  0.00  0.00     0.028 H 
ATOM     56  H21 759 d   1      26.561 -24.299 -17.168  0.00  0.00     0.028 H 
ATOM     57  H22 759 d   1      26.660 -22.581 -16.653  0.00  0.00     0.028 H 
ENDBRANCH  53  54
BRANCH  53  58
ATOM     58  CAG 759 d   1      23.828 -24.370 -17.495  0.00  0.00    -0.067 C 
ATOM     59  H23 759 d   1      22.812 -24.445 -17.080  0.00  0.00     0.028 H 
ATOM     60  H24 759 d   1      24.298 -25.364 -17.494  0.00  0.00     0.028 H 
ATOM     61  H25 759 d   1      23.776 -23.989 -18.526  0.00  0.00     0.028 H 
ENDBRANCH  53  58
BRANCH  53  62
ATOM     62  CAE 759 d   1      24.003 -22.033 -16.737  0.00  0.00    -0.067 C 
ATOM     63  H26 759 d   1      24.572 -21.310 -16.133  0.00  0.00     0.028 H 
ATOM     64  H27 759 d   1      22.971 -22.092 -16.362  0.00  0.00     0.028 H 
ATOM     65  H28 759 d   1      23.994 -21.706 -17.787  0.00  0.00     0.028 H 
ENDBRANCH  53  62
ENDBRANCH   9  53
ENDBRANCH   6   9
ENDBRANCH   2   5
ENDBRANCH   1   2
BRANCH   1  66
ATOM     66  CBB 759 d   1      27.451 -27.797 -16.709  0.00  0.00     0.040 C 
ATOM     67  H32 759 d   1      27.098 -28.622 -16.073  0.00  0.00     0.077 H 
ATOM     68  H33 759 d   1      28.439 -28.049 -17.122  0.00  0.00     0.077 H 
BRANCH  66  69
ATOM     69  CBA 759 d   1      26.447 -27.518 -17.841  0.00  0.00     0.039 C 
ATOM     70  H34 759 d   1      26.970 -27.570 -18.807  0.00  0.00     0.077 H 
ATOM     71  H35 759 d   1      26.024 -26.511 -17.707  0.00  0.00     0.077 H 
BRANCH  69  72
ATOM     72  OBP 759 d   1      25.378 -28.482 -17.832  0.00  0.00    -0.387 OA
BRANCH  72  73
ATOM     73  CAZ 759 d   1      24.328 -28.187 -16.931  0.00  0.00     0.039 C 
ATOM     74  H36 759 d   1      24.081 -27.116 -16.974  0.00  0.00     0.077 H 
ATOM     75  H37 759 d   1      24.623 -28.454 -15.905  0.00  0.00     0.077 H 
BRANCH  73  76
ATOM     76  CAY 759 d   1      23.116 -29.028 -17.370  0.00  0.00     0.039 C 
ATOM     77  H38 759 d   1      22.202 -28.569 -16.964  0.00  0.00     0.077 H 
ATOM     78  H39 759 d   1      23.227 -30.045 -16.965  0.00  0.00     0.077 H 
BRANCH  76  79
ATOM     79  OBO 759 d   1      22.993 -29.112 -18.814  0.00  0.00    -0.387 OA
BRANCH  79  80
ATOM     80  CAX 759 d   1      21.787 -28.558 -19.267  0.00  0.00     0.034 C 
ATOM     81  H40 759 d   1      21.866 -28.345 -20.343  0.00  0.00     0.076 H 
ATOM     82  H41 759 d   1      21.589 -27.623 -18.722  0.00  0.00     0.076 H 
BRANCH  80  83
ATOM     83  CAW 759 d   1      20.626 -29.543 -19.027  0.00  0.00     0.015 C 
ATOM     84  H42 759 d   1      19.978 -29.522 -19.915  0.00  0.00     0.067 H 
ATOM     85  H43 759 d   1      20.060 -29.190 -18.152  0.00  0.00     0.067 H 
BRANCH  83  86
ATOM     86  NBL 759 d   1      21.013 -30.956 -18.779  0.00  0.00    -0.359 N 
ATOM     87  CBU 759 d   1      20.900 -31.597 -17.575  0.00  0.00     0.220 C 
ATOM     88  OAI 759 d   1      20.537 -31.054 -16.529  0.00  0.00    -0.274 OA
ATOM     89  H44 759 d   1      21.383 -31.477 -19.548  0.00  0.00     0.162 HD
BRANCH  87  90
ATOM     90  CBE 759 d   1      21.289 -33.103 -17.587  0.00  0.00     0.036 C 
ATOM     91  H45 759 d   1      22.188 -33.232 -18.208  0.00  0.00     0.051 H 
ATOM     92  H46 759 d   1      20.458 -33.680 -18.020  0.00  0.00     0.051 H 
BRANCH  90  93
ATOM     93  CCL 759 d   1      21.582 -33.640 -16.175  0.00  0.00     0.100 C 
ATOM     94  NBH 759 d   1      22.860 -33.097 -15.675  0.00  0.00    -0.275 NA
ATOM     95  CBX 759 d   1      23.402 -33.295 -14.471  0.00  0.00     0.075 C 
ATOM     96  CCI 759 d   1      22.826 -34.053 -13.518  0.00  0.00     0.035 A 
ATOM     97  CCJ 759 d   1      22.180 -35.204 -13.775  0.00  0.00     0.097 A 
ATOM     98  CCD 759 d   1      22.815 -33.743 -12.192  0.00  0.00    -0.034 A 
ATOM     99  NCP 759 d   1      21.970 -35.762 -14.974  0.00  0.00    -0.275 N 
ATOM    100  SBS 759 d   1      21.584 -35.854 -12.289  0.00  0.00    -0.075 SA
ATOM    101  CCG 759 d   1      21.682 -35.052 -16.073  0.00  0.00     0.161 A 
ATOM    102  CCB 759 d   1      21.940 -37.028 -15.358  0.00  0.00     0.131 A 
ATOM    103  NBK 759 d   1      21.511 -35.910 -17.084  0.00  0.00    -0.132 NA
ATOM    104  NBJ 759 d   1      21.665 -37.086 -16.659  0.00  0.00    -0.135 NA
ATOM    105  CCC 759 d   1      22.187 -34.630 -11.397  0.00  0.00    -0.012 A 
ATOM    106  H47 759 d   1      20.765 -33.305 -15.519  0.00  0.00     0.089 H 
BRANCH  95 107
ATOM    107  CCE 759 d   1      24.643 -32.687 -14.291  0.00  0.00    -0.007 A 
ATOM    108  CAR 759 d   1      25.730 -33.377 -13.756  0.00  0.00    -0.069 A 
ATOM    109  CAN 759 d   1      26.962 -32.739 -13.583  0.00  0.00    -0.061 A 
ATOM    110  H57 759 d   1      25.619 -34.417 -13.472  0.00  0.00     0.085 H 
ATOM    111  CBY 759 d   1      27.125 -31.408 -13.950  0.00  0.00     0.034 A 
ATOM    112  H58 759 d   1      27.796 -33.286 -13.159  0.00  0.00     0.086 H 
ATOM    113 CL1  759 d   1      28.680 -30.578 -13.729  0.00  0.00    -0.084 Cl
ATOM    114  CAO 759 d   1      26.041 -30.730 -14.495  0.00  0.00    -0.061 A 
ATOM    115  CAS 759 d   1      24.811 -31.362 -14.665  0.00  0.00    -0.069 A 
ATOM    116  H59 759 d   1      26.154 -29.694 -14.792  0.00  0.00     0.086 H 
ATOM    117  H60 759 d   1      23.979 -30.814 -15.093  0.00  0.00     0.085 H 
ENDBRANCH  95 107
BRANCH 102 118
ATOM    118  CAB 759 d   1      22.182 -38.240 -14.461  0.00  0.00    -0.019 C 
ATOM    119  H48 759 d   1      22.093 -39.160 -15.056  0.00  0.00     0.037 H 
ATOM    120  H49 759 d   1      21.436 -38.252 -13.652  0.00  0.00     0.037 H 
ATOM    121  H50 759 d   1      23.191 -38.180 -14.028  0.00  0.00     0.037 H 
ENDBRANCH 102 118
BRANCH 105 122
ATOM    122  CAC 759 d   1      22.046 -34.523  -9.872  0.00  0.00    -0.045 C 
ATOM    123  H51 759 d   1      22.541 -33.605  -9.522  0.00  0.00     0.034 H 
ATOM    124  H52 759 d   1      22.517 -35.397  -9.398  0.00  0.00     0.034 H 
ATOM    125  H53 759 d   1      20.980 -34.490  -9.604  0.00  0.00     0.034 H 
ENDBRANCH 105 122
BRANCH  98 126
ATOM    126  CAD 759 d   1      23.474 -32.495 -11.582  0.00  0.00    -0.049 C 
ATOM    127  H54 759 d   1      23.314 -32.491 -10.494  0.00  0.00     0.033 H 
ATOM    128  H55 759 d   1      23.026 -31.592 -12.021  0.00  0.00     0.033 H 
ATOM    129  H56 759 d   1      24.553 -32.509 -11.794  0.00  0.00     0.033 H 
ENDBRANCH  98 126
ENDBRANCH  90  93
ENDBRANCH  87  90
ENDBRANCH  83  86
ENDBRANCH  80  83
ENDBRANCH  79  80
ENDBRANCH  76  79
ENDBRANCH  73  76
ENDBRANCH  72  73
ENDBRANCH  69  72
ENDBRANCH  66  69
ENDBRANCH   1  66
TORSDOF 29
