REMARK  9 active torsions:
REMARK  status: ('A' for Active; 'I' for Inactive)
REMARK    1  A    between atoms: C5_7  and  C7_2 
REMARK    2  A    between atoms: C5_7  and  C6_4 
REMARK    3  A    between atoms: N1_6  and  C11_15 
REMARK    4  A    between atoms: C10_19  and  N1_6 
REMARK    5  A    between atoms: C4_8  and  C5_7 
REMARK    6  A    between atoms: C5_7  and  C8_24 
REMARK       I    between atoms: N_22  and  C4_8 
REMARK    7  A    between atoms: C3_9  and  N_22 
REMARK    8  A    between atoms: C16_16  and  C17_17 
REMARK    9  A    between atoms: C10_19  and  C9_20 
ROOT
ATOM      1  C1  755 d   1      11.102  13.532  34.155  0.00  0.00    -0.063 C 
ATOM      2  C3  755 d   1      10.250  15.158  32.514  0.00  0.00     0.017 C 
ATOM      3  C2  755 d   1       9.858  13.948  33.370  0.00  0.00    -0.046 C 
ATOM      4  C9  755 d   1      11.735  15.439  32.825  0.00  0.00    -0.019 C 
ATOM      5  C   755 d   1      12.277  14.120  33.381  0.00  0.00    -0.058 C 
ATOM      6  H7  755 d   1      11.180  12.436  34.201  0.00  0.00     0.033 H 
ATOM      7  H8  755 d   1      11.069  13.941  35.176  0.00  0.00     0.033 H 
ATOM      8  H10 755 d   1       9.645  16.031  32.801  0.00  0.00     0.073 H 
ATOM      9  H11 755 d   1       9.049  14.222  34.063  0.00  0.00     0.036 H 
ATOM     10  H12 755 d   1       9.525  13.122  32.725  0.00  0.00     0.036 H 
ATOM     11  H18 755 d   1      11.779  16.195  33.623  0.00  0.00     0.045 H 
ATOM     12  H19 755 d   1      12.582  13.448  32.565  0.00  0.00     0.033 H 
ATOM     13  H20 755 d   1      13.133  14.300  34.048  0.00  0.00     0.033 H 
ENDROOT
BRANCH   4  14
ATOM     14  C10 755 d   1      12.546  15.998  31.659  0.00  0.00    -0.002 C 
ATOM     15  H16 755 d   1      12.536  15.258  30.845  0.00  0.00     0.064 H 
ATOM     16  H17 755 d   1      12.065  16.926  31.317  0.00  0.00     0.064 H 
BRANCH  14  17
ATOM     17  N1  755 d   1      13.908  16.291  31.982  0.00  0.00    -0.389 N 
ATOM     18  H9  755 d   1      14.193  16.237  32.970  0.00  0.00     0.159 HD
BRANCH  17  19
ATOM     19  C11 755 d   1      14.880  16.648  31.034  0.00  0.00     0.046 A 
ATOM     20  C12 755 d   1      14.651  16.346  29.684  0.00  0.00    -0.035 A 
ATOM     21  C13 755 d   1      15.592  16.683  28.708  0.00  0.00     0.036 A 
ATOM     22  H14 755 d   1      13.734  15.846  29.395  0.00  0.00     0.089 H 
ATOM     23 CL   755 d   1      15.289  16.302  27.057  0.00  0.00    -0.084 Cl
ATOM     24  C14 755 d   1      16.776  17.329  29.074  0.00  0.00    -0.061 A 
ATOM     25  C15 755 d   1      17.010  17.634  30.419  0.00  0.00    -0.063 A 
ATOM     26  H13 755 d   1      17.509  17.592  28.320  0.00  0.00     0.086 H 
ATOM     27  C16 755 d   1      16.070  17.297  31.402  0.00  0.00     0.067 A 
ATOM     28  H15 755 d   1      17.928  18.136  30.704  0.00  0.00     0.085 H 
BRANCH  27  29
ATOM     29  C17 755 d   1      16.375  17.646  32.808  0.00  0.00     0.211 C 
ATOM     30  O1  755 d   1      15.810  16.983  33.754  0.00  0.00    -0.644 OA
ATOM     31  O2  755 d   1      17.227  18.581  33.046  0.00  0.00    -0.644 OA
ENDBRANCH  27  29
ENDBRANCH  17  19
ENDBRANCH  14  17
ENDBRANCH   4  14
BRANCH   2  32
ATOM     32  N   755 d   1      10.017  14.876  31.106  0.00  0.00    -0.355 N 
ATOM     33  C4  755 d   1       9.460  15.788  30.211  0.00  0.00     0.225 C 
ATOM     34  O   755 d   1       9.107  16.924  30.542  0.00  0.00    -0.273 OA
ATOM     35  H21 755 d   1      10.272  13.973  30.759  0.00  0.00     0.162 HD
BRANCH  33  36
ATOM     36  C5  755 d   1       9.317  15.272  28.756  0.00  0.00     0.030 C 
BRANCH  36  37
ATOM     37  C7  755 d   1      10.700  14.883  28.200  0.00  0.00    -0.061 C 
ATOM     38  H1  755 d   1      10.591  14.518  27.168  0.00  0.00     0.029 H 
ATOM     39  H2  755 d   1      11.137  14.090  28.825  0.00  0.00     0.029 H 
ATOM     40  H3  755 d   1      11.360  15.763  28.210  0.00  0.00     0.029 H 
ENDBRANCH  36  37
BRANCH  36  41
ATOM     41  C6  755 d   1       8.409  14.033  28.702  0.00  0.00    -0.061 C 
ATOM     42  H4  755 d   1       7.414  14.290  29.095  0.00  0.00     0.029 H 
ATOM     43  H5  755 d   1       8.848  13.230  29.312  0.00  0.00     0.029 H 
ATOM     44  H6  755 d   1       8.315  13.693  27.660  0.00  0.00     0.029 H 
ENDBRANCH  36  41
BRANCH  36  45
ATOM     45  C8  755 d   1       8.737  16.360  27.836  0.00  0.00    -0.061 C 
ATOM     46  H22 755 d   1       9.382  17.250  27.869  0.00  0.00     0.029 H 
ATOM     47  H23 755 d   1       7.726  16.627  28.176  0.00  0.00     0.029 H 
ATOM     48  H24 755 d   1       8.689  15.981  26.805  0.00  0.00     0.029 H 
ENDBRANCH  36  45
ENDBRANCH  33  36
ENDBRANCH   2  32
TORSDOF 9
