REMARK  8 active torsions:
REMARK  status: ('A' for Active; 'I' for Inactive)
REMARK    1  A    between atoms: C15_15  and  C7_1 
REMARK    2  A    between atoms: C6_2  and  C10_10 
REMARK    3  A    between atoms: N19_19  and  C9_9 
REMARK       I    between atoms: C10_10  and  N19_19 
REMARK    4  A    between atoms: C11_11  and  C16_16 
REMARK       I    between atoms: N20_20  and  C11_11 
REMARK    5  A    between atoms: C16_16  and  C12_12 
REMARK    6  A    between atoms: C16_16  and  C13_13 
REMARK    7  A    between atoms: C16_16  and  C14_14 
REMARK    8  A    between atoms: C15_15  and  N20_20 
ROOT
ATOM      1  C7  758 d   1      10.773  14.419  33.006  0.00  0.00    -0.039 A 
ATOM      2  C6  758 d   1      13.142  14.862  33.205  0.00  0.00     0.055 A 
ATOM      3  C1  758 d   1      10.895  13.347  33.892  0.00  0.00    -0.074 A 
ATOM      4  C3  758 d   1      11.895  15.175  32.664  0.00  0.00    -0.058 A 
ATOM      5  C2  758 d   1      12.142  13.033  34.435  0.00  0.00    -0.060 A 
ATOM      6  C8  758 d   1      13.264  13.791  34.094  0.00  0.00     0.049 A 
ATOM      7 CL23 758 d   1      14.783  13.355  34.796  0.00  0.00    -0.083 Cl
ATOM      8  H1  758 d   1      10.023  12.760  34.158  0.00  0.00     0.084 H 
ATOM      9  H4  758 d   1      11.797  16.007  31.976  0.00  0.00     0.086 H 
ATOM     10  H5  758 d   1      12.239  12.200  35.122  0.00  0.00     0.086 H 
ENDROOT
BRANCH   1  11
ATOM     11  C15 758 d   1       9.436  14.759  32.414  0.00  0.00     0.019 C 
ATOM     12  H15 758 d   1       9.175  15.789  32.698  0.00  0.00     0.071 H 
ATOM     13  H16 758 d   1       8.684  14.065  32.817  0.00  0.00     0.071 H 
BRANCH  11  14
ATOM     14  N20 758 d   1       9.434  14.660  30.970  0.00  0.00    -0.356 N 
ATOM     15  C11 758 d   1       8.974  15.699  30.174  0.00  0.00     0.225 C 
ATOM     16  O22 758 d   1       8.544  16.753  30.635  0.00  0.00    -0.273 OA
ATOM     17  H19 758 d   1       9.772  13.824  30.537  0.00  0.00     0.162 HD
BRANCH  15  18
ATOM     18  C16 758 d   1       9.034  15.441  28.651  0.00  0.00     0.030 C 
BRANCH  18  19
ATOM     19  C12 758 d   1      10.449  15.012  28.232  0.00  0.00    -0.061 C 
ATOM     20  H6  758 d   1      10.472  14.833  27.147  0.00  0.00     0.029 H 
ATOM     21  H7  758 d   1      10.724  14.088  28.762  0.00  0.00     0.029 H 
ATOM     22  H8  758 d   1      11.164  15.808  28.488  0.00  0.00     0.029 H 
ENDBRANCH  18  19
BRANCH  18  23
ATOM     23  C13 758 d   1       8.045  14.321  28.283  0.00  0.00    -0.061 C 
ATOM     24  H9  758 d   1       7.028  14.618  28.579  0.00  0.00     0.029 H 
ATOM     25  H10 758 d   1       8.325  13.397  28.810  0.00  0.00     0.029 H 
ATOM     26  H11 758 d   1       8.075  14.148  27.197  0.00  0.00     0.029 H 
ENDBRANCH  18  23
BRANCH  18  27
ATOM     27  C14 758 d   1       8.622  16.711  27.889  0.00  0.00    -0.061 C 
ATOM     28  H12 758 d   1       9.316  17.528  28.136  0.00  0.00     0.029 H 
ATOM     29  H13 758 d   1       7.600  16.997  28.179  0.00  0.00     0.029 H 
ATOM     30  H14 758 d   1       8.655  16.516  26.807  0.00  0.00     0.029 H 
ENDBRANCH  18  27
ENDBRANCH  15  18
ENDBRANCH  11  14
ENDBRANCH   1  11
BRANCH   2  31
ATOM     31  C10 758 d   1      14.271  15.700  32.810  0.00  0.00     0.271 C 
ATOM     32  N19 758 d   1      14.434  15.881  31.428  0.00  0.00    -0.153 N 
ATOM     33  H18 758 d   1      13.768  15.416  30.845  0.00  0.00     0.187 HD
ATOM     34  O21 758 d   1      15.014  16.220  33.652  0.00  0.00    -0.267 OA
BRANCH  32  35
ATOM     35  C9  758 d   1      15.425  16.641  30.753  0.00  0.00     0.707 A 
ATOM     36  N17 758 d   1      15.572  16.799  29.455  0.00  0.00    -0.199 N 
ATOM     37  C4  758 d   1      16.670  17.616  29.325  0.00  0.00     0.012 A 
ATOM     38  H17 758 d   1      14.993  16.399  28.703  0.00  0.00     0.183 HD
ATOM     39  C5  758 d   1      17.188  17.951  30.554  0.00  0.00     0.036 A 
ATOM     40  H3  758 d   1      17.076  17.954  28.373  0.00  0.00     0.114 H 
ATOM     41  N18 758 d   1      16.381  17.322  31.459  0.00  0.00    -0.075 NA
ATOM     42  H2  758 d   1      18.052  18.580  30.761  0.00  0.00     0.117 H 
ENDBRANCH  32  35
ENDBRANCH   2  31
TORSDOF 8
