REMARK  7 active torsions:
REMARK  status: ('A' for Active; 'I' for Inactive)
REMARK    1  A    between atoms: C1_1  and  C23_23 
REMARK    2  A    between atoms: C25_25  and  C2_2 
REMARK    3  A    between atoms: C10_10  and  C24_24 
REMARK    4  A    between atoms: C26_26  and  C12_12 
REMARK    5  A    between atoms: C22_22  and  N35_35 
REMARK    6  A    between atoms: N30_30  and  C25_25 
REMARK    7  A    between atoms: C26_26  and  N33_33 
ROOT
ATOM      1  C9  75N d   1      38.436  48.614  39.366  0.00  0.00     0.169 A 
ATOM      2  C11 75N d   1      39.549  49.306  39.757  0.00  0.00     0.202 A 
ATOM      3  C13 75N d   1      39.709  49.283  37.652  0.00  0.00     0.708 A 
ATOM      4  C14 75N d   1      37.413  48.098  40.253  0.00  0.00     0.293 A 
ATOM      5  C15 75N d   1      38.856  48.991  42.046  0.00  0.00     0.717 A 
ATOM      6  C16 75N d   1      41.315  51.610  36.325  0.00  0.00    -0.048 C 
ATOM      7  C17 75N d   1      40.291  52.201  35.363  0.00  0.00    -0.036 C 
ATOM      8  C18 75N d   1      41.408  50.086  36.166  0.00  0.00     0.012 C 
ATOM      9  C19 75N d   1      40.960  50.007  41.820  0.00  0.00     0.022 C 
ATOM     10  C20 75N d   1      39.083  50.025  35.432  0.00  0.00     0.038 C 
ATOM     11  C21 75N d   1      40.572  49.908  43.293  0.00  0.00     0.037 C 
ATOM     12  C22 75N d   1      38.952  51.537  35.597  0.00  0.00     0.116 C 
ATOM     13  N29 75N d   1      40.339  49.729  38.721  0.00  0.00    -0.043 NA
ATOM     14  N30 75N d   1      38.543  48.615  37.997  0.00  0.00    -0.161 N 
ATOM     15  N31 75N d   1      39.764  49.517  41.152  0.00  0.00    -0.135 N 
ATOM     16  N32 75N d   1      40.089  49.475  36.361  0.00  0.00    -0.214 N 
ATOM     17  N33 75N d   1      37.702  48.351  41.635  0.00  0.00    -0.136 N 
ATOM     18  N34 75N d   1      39.262  49.234  43.328  0.00  0.00    -0.075 NA
ATOM     19  O36 75N d   1      36.343  47.617  39.921  0.00  0.00    -0.265 OA
ATOM     20  H5  75N d   1      41.016  51.846  37.357  0.00  0.00     0.035 H 
ATOM     21  H6  75N d   1      42.300  52.053  36.118  0.00  0.00     0.035 H 
ATOM     22  H7  75N d   1      40.614  52.024  34.327  0.00  0.00     0.036 H 
ATOM     23  H8  75N d   1      40.201  53.283  35.539  0.00  0.00     0.036 H 
ATOM     24  H9  75N d   1      42.108  49.685  36.913  0.00  0.00     0.065 H 
ATOM     25  H10 75N d   1      41.773  49.848  35.156  0.00  0.00     0.065 H 
ATOM     26  H11 75N d   1      41.894  50.355  41.381  0.00  0.00     0.115 H 
ATOM     27  H12 75N d   1      39.388  49.801  34.399  0.00  0.00     0.068 H 
ATOM     28  H13 75N d   1      38.110  49.555  35.637  0.00  0.00     0.068 H 
ATOM     29  H14 75N d   1      41.148  50.264  44.146  0.00  0.00     0.117 H 
ATOM     30  H15 75N d   1      38.614  51.757  36.620  0.00  0.00     0.086 H 
ENDROOT
BRANCH  17  31
ATOM     31  C26 75N d   1      36.738  47.955  42.674  0.00  0.00     0.076 C 
ATOM     32  H24 75N d   1      35.925  47.382  42.204  0.00  0.00     0.078 H 
ATOM     33  H25 75N d   1      37.252  47.323  43.413  0.00  0.00     0.078 H 
BRANCH  31  34
ATOM     34  C12 75N d   1      36.149  49.143  43.378  0.00  0.00     0.145 A 
ATOM     35  N27 75N d   1      35.905  50.242  42.654  0.00  0.00    -0.231 NA
ATOM     36  C8  75N d   1      35.340  51.279  43.289  0.00  0.00     0.071 A 
ATOM     37  C6  75N d   1      34.991  52.414  42.575  0.00  0.00    -0.054 A 
ATOM     38  C7  75N d   1      35.074  51.233  44.653  0.00  0.00     0.017 A 
ATOM     39  C4  75N d   1      34.382  53.482  43.205  0.00  0.00    -0.081 A 
ATOM     40  H4  75N d   1      35.198  52.464  41.512  0.00  0.00     0.087 H 
ATOM     41  C3  75N d   1      34.126  53.423  44.562  0.00  0.00    -0.082 A 
ATOM     42  H2  75N d   1      34.106  54.363  42.637  0.00  0.00     0.083 H 
ATOM     43  C5  75N d   1      34.477  52.303  45.298  0.00  0.00    -0.069 A 
ATOM     44  H1  75N d   1      33.646  54.261  45.055  0.00  0.00     0.083 H 
ATOM     45  H3  75N d   1      34.287  52.265  46.364  0.00  0.00     0.085 H 
ATOM     46  C10 75N d   1      35.406  50.069  45.324  0.00  0.00     0.045 A 
ATOM     47  N28 75N d   1      35.928  49.004  44.689  0.00  0.00    -0.236 NA
BRANCH  46  48
ATOM     48  C24 75N d   1      35.120  49.903  46.794  0.00  0.00    -0.035 C 
ATOM     49  H19 75N d   1      35.462  48.911  47.124  0.00  0.00     0.035 H 
ATOM     50  H20 75N d   1      34.038  49.995  46.970  0.00  0.00     0.035 H 
ATOM     51  H21 75N d   1      35.652  50.681  47.361  0.00  0.00     0.035 H 
ENDBRANCH  46  48
ENDBRANCH  31  34
ENDBRANCH  17  31
BRANCH  14  52
ATOM     52  C25 75N d   1      37.830  47.695  37.100  0.00  0.00     0.072 C 
ATOM     53  H22 75N d   1      38.428  47.622  36.179  0.00  0.00     0.085 H 
ATOM     54  H23 75N d   1      37.807  46.716  37.601  0.00  0.00     0.085 H 
BRANCH  52  55
ATOM     55  C2  75N d   1      36.456  47.992  36.690  0.00  0.00    -0.086 C 
ATOM     56  C1  75N d   1      35.341  48.187  36.292  0.00  0.00    -0.109 C 
BRANCH  56  57
ATOM     57  C23 75N d   1      33.976  48.391  35.793  0.00  0.00    -0.021 C 
ATOM     58  H16 75N d   1      33.657  49.421  36.009  0.00  0.00     0.044 H 
ATOM     59  H17 75N d   1      33.295  47.684  36.289  0.00  0.00     0.044 H 
ATOM     60  H18 75N d   1      33.953  48.221  34.706  0.00  0.00     0.044 H 
ENDBRANCH  56  57
ENDBRANCH  52  55
ENDBRANCH  14  52
BRANCH  12  61
ATOM     61  N35 75N d   1      37.958  52.077  34.629  0.00  0.00    -0.073 N 
ATOM     62  H26 75N d   1      37.881  53.075  34.748  0.00  0.00     0.274 HD
ATOM     63  H27 75N d   1      37.061  51.649  34.795  0.00  0.00     0.274 HD
ATOM     64  H28 75N d   1      38.259  51.873  33.689  0.00  0.00     0.274 HD
ENDBRANCH  12  61
TORSDOF 7
