REMARK  8 active torsions:
REMARK  status: ('A' for Active; 'I' for Inactive)
REMARK    1  A    between atoms: C15_7  and  C16_8 
REMARK    2  A    between atoms: N9_19  and  C15_7 
REMARK    3  A    between atoms: C17_9  and  C18_10 
REMARK    4  A    between atoms: C8_18  and  N19_22 
REMARK    5  A    between atoms: N11_21  and  C26_26 
REMARK    6  A    between atoms: C21_23  and  N25_25 
REMARK    7  A    between atoms: C26_26  and  C27_27 
REMARK    8  A    between atoms: C29_29  and  C37_37 
ROOT
ATOM      1  C2  75L d   1      38.968  49.120  42.100  0.00  0.00     0.687 A 
ATOM      2  C4  75L d   1      39.704  49.534  39.902  0.00  0.00     0.197 A 
ATOM      3  N1  75L d   1      37.880  48.452  41.654  0.00  0.00    -0.154 N 
ATOM      4  C12 75L d   1      40.400  50.022  43.989  0.00  0.00     0.013 C 
ATOM      5  C13 75L d   1      40.832  51.140  43.004  0.00  0.00    -0.034 C 
ATOM      6  C14 75L d   1      41.172  50.410  41.712  0.00  0.00     0.020 C 
ATOM      7  N3  75L d   1      39.935  49.701  41.244  0.00  0.00    -0.163 N 
ATOM      8  C6  75L d   1      37.617  48.279  40.330  0.00  0.00     0.291 A 
ATOM      9  C5  75L d   1      38.608  48.831  39.430  0.00  0.00     0.168 A 
ATOM     10  N7  75L d   1      40.513  49.985  38.895  0.00  0.00    -0.043 NA
ATOM     11  C8  75L d   1      39.932  49.533  37.778  0.00  0.00     0.708 A 
ATOM     12  N9  75L d   1      38.755  48.808  38.068  0.00  0.00    -0.161 N 
ATOM     13  O10 75L d   1      36.645  47.692  39.950  0.00  0.00    -0.265 OA
ATOM     14  N11 75L d   1      39.233  49.280  43.446  0.00  0.00    -0.210 N 
ATOM     15  H1  75L d   1      37.243  48.070  42.324  0.00  0.00     0.187 HD
ATOM     16  H2  75L d   1      40.126  50.474  44.954  0.00  0.00     0.065 H 
ATOM     17  H3  75L d   1      41.237  49.324  44.136  0.00  0.00     0.065 H 
ATOM     18  H4  75L d   1      41.712  51.677  43.389  0.00  0.00     0.037 H 
ATOM     19  H5  75L d   1      40.010  51.852  42.842  0.00  0.00     0.037 H 
ATOM     20  H6  75L d   1      41.974  49.680  41.895  0.00  0.00     0.066 H 
ATOM     21  H7  75L d   1      41.500  51.132  40.950  0.00  0.00     0.066 H 
ENDROOT
BRANCH  14  22
ATOM     22  C26 75L d   1      38.309  48.625  44.404  0.00  0.00     0.068 C 
ATOM     23  H25 75L d   1      38.917  48.132  45.177  0.00  0.00     0.077 H 
ATOM     24  H26 75L d   1      37.732  47.868  43.853  0.00  0.00     0.077 H 
BRANCH  22  25
ATOM     25  C27 75L d   1      37.357  49.514  45.079  0.00  0.00     0.145 A 
ATOM     26  N28 75L d   1      37.217  49.202  46.388  0.00  0.00    -0.231 NA
ATOM     27  C32 75L d   1      36.330  49.970  47.121  0.00  0.00     0.071 A 
ATOM     28  C31 75L d   1      35.597  51.048  46.537  0.00  0.00     0.017 A 
ATOM     29  C33 75L d   1      36.165  49.659  48.493  0.00  0.00    -0.054 A 
ATOM     30  C29 75L d   1      35.837  51.277  45.160  0.00  0.00     0.045 A 
ATOM     31  C36 75L d   1      34.700  51.817  47.346  0.00  0.00    -0.069 A 
ATOM     32  N30 75L d   1      36.712  50.506  44.421  0.00  0.00    -0.236 NA
ATOM     33  C35 75L d   1      34.545  51.487  48.685  0.00  0.00    -0.082 A 
ATOM     34  H30 75L d   1      34.149  52.647  46.918  0.00  0.00     0.085 H 
ATOM     35  C34 75L d   1      35.269  50.417  49.275  0.00  0.00    -0.081 A 
ATOM     36  H29 75L d   1      33.855  52.059  49.295  0.00  0.00     0.083 H 
ATOM     37  H28 75L d   1      35.133  50.183  50.325  0.00  0.00     0.083 H 
ATOM     38  H27 75L d   1      36.724  48.844  48.939  0.00  0.00     0.087 H 
BRANCH  30  39
ATOM     39  C37 75L d   1      35.158  52.405  44.420  0.00  0.00    -0.035 C 
ATOM     40  H31 75L d   1      34.490  52.944  45.107  0.00  0.00     0.035 H 
ATOM     41  H32 75L d   1      34.572  51.995  43.585  0.00  0.00     0.035 H 
ATOM     42  H33 75L d   1      35.918  53.097  44.029  0.00  0.00     0.035 H 
ENDBRANCH  30  39
ENDBRANCH  22  25
ENDBRANCH  14  22
BRANCH  12  43
ATOM     43  C15 75L d   1      38.110  47.821  37.152  0.00  0.00     0.072 C 
ATOM     44  H8  75L d   1      38.712  47.750  36.234  0.00  0.00     0.085 H 
ATOM     45  H9  75L d   1      38.087  46.842  37.652  0.00  0.00     0.085 H 
BRANCH  43  46
ATOM     46  C16 75L d   1      36.720  48.195  36.780  0.00  0.00    -0.086 C 
ATOM     47  C17 75L d   1      35.625  48.459  36.418  0.00  0.00    -0.109 C 
BRANCH  47  48
ATOM     48  C18 75L d   1      34.235  48.692  35.948  0.00  0.00    -0.021 C 
ATOM     49  H10 75L d   1      34.013  49.769  35.980  0.00  0.00     0.044 H 
ATOM     50  H11 75L d   1      33.532  48.154  36.601  0.00  0.00     0.044 H 
ATOM     51  H12 75L d   1      34.131  48.326  34.916  0.00  0.00     0.044 H 
ENDBRANCH  47  48
ENDBRANCH  43  46
ENDBRANCH  12  43
BRANCH  11  52
ATOM     52  N19 75L d   1      40.378  49.744  36.513  0.00  0.00    -0.214 N 
ATOM     53  C20 75L d   1      39.379  50.286  35.537  0.00  0.00     0.038 C 
ATOM     54  C21 75L d   1      39.220  51.821  35.686  0.00  0.00     0.116 C 
ATOM     55  H13 75L d   1      38.406  49.806  35.717  0.00  0.00     0.068 H 
ATOM     56  H14 75L d   1      39.717  50.059  34.515  0.00  0.00     0.068 H 
ATOM     57  C22 75L d   1      40.599  52.500  35.546  0.00  0.00    -0.036 C 
ATOM     58  H19 75L d   1      38.858  52.036  36.702  0.00  0.00     0.086 H 
ATOM     59  C23 75L d   1      41.641  51.878  36.544  0.00  0.00    -0.048 C 
ATOM     60  H15 75L d   1      40.963  52.365  34.517  0.00  0.00     0.036 H 
ATOM     61  H16 75L d   1      40.494  53.574  35.760  0.00  0.00     0.036 H 
ATOM     62  C24 75L d   1      41.737  50.305  36.356  0.00  0.00     0.012 C 
ATOM     63  H17 75L d   1      41.328  52.099  37.575  0.00  0.00     0.035 H 
ATOM     64  H18 75L d   1      42.629  52.324  36.357  0.00  0.00     0.035 H 
ATOM     65  H20 75L d   1      42.407  49.878  37.116  0.00  0.00     0.065 H 
ATOM     66  H21 75L d   1      42.124  50.072  35.353  0.00  0.00     0.065 H 
BRANCH  54  67
ATOM     67  N25 75L d   1      38.166  52.286  34.734  0.00  0.00    -0.073 N 
ATOM     68  H22 75L d   1      37.310  51.783  34.909  0.00  0.00     0.274 HD
ATOM     69  H23 75L d   1      38.469  52.115  33.788  0.00  0.00     0.274 HD
ATOM     70  H24 75L d   1      38.008  53.273  34.864  0.00  0.00     0.274 HD
ENDBRANCH  54  67
ENDBRANCH  11  52
TORSDOF 8
