REMARK  7 active torsions:
REMARK  status: ('A' for Active; 'I' for Inactive)
REMARK    1  A    between atoms: N1_3  and  C25_25 
REMARK    2  A    between atoms: C6_4  and  N18_18 
REMARK    3  A    between atoms: N7_7  and  C14_14 
REMARK    4  A    between atoms: C14_14  and  C15_15 
REMARK    5  A    between atoms: C16_16  and  C17_17 
REMARK    6  A    between atoms: C20_20  and  N24_24 
REMARK    7  A    between atoms: C25_25  and  C26_26 
ROOT
ATOM      1  C26 75M d   1      36.330  49.182  43.604  0.00  0.00    -0.039 A 
ATOM      2  C27 75M d   1      36.253  49.151  45.015  0.00  0.00    -0.074 A 
ATOM      3  C28 75M d   1      35.700  50.255  45.721  0.00  0.00    -0.062 A 
ATOM      4  C29 75M d   1      35.331  51.396  45.014  0.00  0.00     0.044 A 
ATOM      5  C30 75M d   1      35.446  51.467  43.580  0.00  0.00    -0.062 A 
ATOM      6  C31 75M d   1      35.932  50.350  42.897  0.00  0.00    -0.074 A 
ATOM      7  C32 75M d   1      34.801  52.478  45.793  0.00  0.00     0.099 C 
ATOM      8  N33 75M d   1      34.375  53.346  46.418  0.00  0.00    -0.191 NA
ATOM      9  H25 75M d   1      36.615  48.286  45.559  0.00  0.00     0.084 H 
ATOM     10  H26 75M d   1      35.568  50.209  46.796  0.00  0.00     0.085 H 
ATOM     11  H27 75M d   1      35.162  52.365  43.044  0.00  0.00     0.085 H 
ATOM     12  H28 75M d   1      36.007  50.373  41.816  0.00  0.00     0.084 H 
ENDROOT
BRANCH   1  13
ATOM     13  C25 75M d   1      36.909  47.954  42.915  0.00  0.00     0.044 C 
ATOM     14  H23 75M d   1      37.439  47.331  43.650  0.00  0.00     0.073 H 
ATOM     15  H24 75M d   1      36.099  47.370  42.455  0.00  0.00     0.073 H 
BRANCH  13  16
ATOM     16  N1  75M d   1      37.871  48.416  41.852  0.00  0.00    -0.141 N 
ATOM     17  C2  75M d   1      37.550  48.234  40.445  0.00  0.00     0.293 A 
ATOM     18  C3  75M d   1      38.577  48.749  39.532  0.00  0.00     0.168 A 
ATOM     19  O13 75M d   1      36.510  47.736  40.112  0.00  0.00    -0.265 OA
ATOM     20  C4  75M d   1      39.749  49.374  39.960  0.00  0.00     0.197 A 
ATOM     21  N7  75M d   1      38.666  48.751  38.153  0.00  0.00    -0.161 N 
ATOM     22  N5  75M d   1      40.523  49.821  38.972  0.00  0.00    -0.043 NA
ATOM     23  N8  75M d   1      40.032  49.490  41.356  0.00  0.00    -0.162 N 
ATOM     24  C6  75M d   1      39.906  49.409  37.861  0.00  0.00     0.708 A 
ATOM     25  C9  75M d   1      39.084  49.013  42.267  0.00  0.00     0.687 A 
ATOM     26  C12 75M d   1      41.202  50.067  42.029  0.00  0.00     0.034 A 
ATOM     27  N10 75M d   1      39.490  49.212  43.526  0.00  0.00    -0.224 N 
ATOM     28  C11 75M d   1      40.856  49.847  43.521  0.00  0.00     0.025 A 
ATOM     29  H1  75M d   1      38.951  48.968  44.369  0.00  0.00     0.177 HD
ATOM     30  H2  75M d   1      41.592  49.179  43.992  0.00  0.00     0.067 H 
ATOM     31  H3  75M d   1      40.836  50.807  44.057  0.00  0.00     0.067 H 
ATOM     32  H4  75M d   1      41.309  51.137  41.797  0.00  0.00     0.068 H 
ATOM     33  H5  75M d   1      42.125  49.537  41.751  0.00  0.00     0.068 H 
BRANCH  24  34
ATOM     34  N18 75M d   1      40.351  49.602  36.566  0.00  0.00    -0.214 N 
ATOM     35  C19 75M d   1      39.351  50.108  35.568  0.00  0.00     0.038 C 
ATOM     36  C20 75M d   1      39.188  51.646  35.678  0.00  0.00     0.116 C 
ATOM     37  H11 75M d   1      38.379  49.629  35.757  0.00  0.00     0.068 H 
ATOM     38  H12 75M d   1      39.694  49.854  34.554  0.00  0.00     0.068 H 
ATOM     39  C21 75M d   1      40.547  52.350  35.531  0.00  0.00    -0.036 C 
ATOM     40  H13 75M d   1      38.813  51.873  36.687  0.00  0.00     0.086 H 
ATOM     41  C22 75M d   1      41.653  51.731  36.467  0.00  0.00    -0.048 C 
ATOM     42  H14 75M d   1      40.423  53.413  35.787  0.00  0.00     0.036 H 
ATOM     43  H15 75M d   1      40.879  52.261  34.486  0.00  0.00     0.036 H 
ATOM     44  C23 75M d   1      41.737  50.148  36.359  0.00  0.00     0.012 C 
ATOM     45  H16 75M d   1      41.423  52.000  37.508  0.00  0.00     0.035 H 
ATOM     46  H17 75M d   1      42.629  52.154  36.186  0.00  0.00     0.035 H 
ATOM     47  H18 75M d   1      42.109  49.859  35.365  0.00  0.00     0.065 H 
ATOM     48  H19 75M d   1      42.414  49.755  37.132  0.00  0.00     0.065 H 
BRANCH  36  49
ATOM     49  N24 75M d   1      38.151  52.132  34.696  0.00  0.00    -0.073 N 
ATOM     50  H20 75M d   1      37.288  51.633  34.845  0.00  0.00     0.274 HD
ATOM     51  H21 75M d   1      38.476  51.969  33.756  0.00  0.00     0.274 HD
ATOM     52  H22 75M d   1      37.996  53.119  34.831  0.00  0.00     0.274 HD
ENDBRANCH  36  49
ENDBRANCH  24  34
BRANCH  21  53
ATOM     53  C14 75M d   1      38.108  47.673  37.264  0.00  0.00     0.072 C 
ATOM     54  H6  75M d   1      38.101  46.726  37.824  0.00  0.00     0.085 H 
ATOM     55  H7  75M d   1      38.759  47.574  36.383  0.00  0.00     0.085 H 
BRANCH  53  56
ATOM     56  C15 75M d   1      36.726  47.959  36.801  0.00  0.00    -0.086 C 
ATOM     57  C16 75M d   1      35.628  48.212  36.377  0.00  0.00    -0.109 C 
BRANCH  57  58
ATOM     58  C17 75M d   1      34.213  48.466  35.945  0.00  0.00    -0.021 C 
ATOM     59  H8  75M d   1      34.213  49.052  35.014  0.00  0.00     0.044 H 
ATOM     60  H9  75M d   1      33.685  49.026  36.731  0.00  0.00     0.044 H 
ATOM     61  H10 75M d   1      33.704  47.506  35.773  0.00  0.00     0.044 H 
ENDBRANCH  57  58
ENDBRANCH  53  56
ENDBRANCH  21  53
ENDBRANCH  13  16
ENDBRANCH   1  13
TORSDOF 7
