REMARK  7 active torsions:
REMARK  status: ('A' for Active; 'I' for Inactive)
REMARK    1  A    between atoms: C7_18  and  C5_5 
REMARK    2  A    between atoms: N20_25  and  C21_13 
REMARK    3  A    between atoms: C21_13  and  C29_29 
REMARK    4  A    between atoms: C24_15  and  N28_28 
REMARK    5  A    between atoms: N8_19  and  C7_18 
REMARK    6  A    between atoms: C19_24  and  N22_26 
REMARK    7  A    between atoms: C30_30  and  C31_31 
ROOT
ATOM      1  C1  75J d   1      35.194  51.267  45.069  0.00  0.00    -0.082 A 
ATOM      2  C2  75J d   1      35.705  50.244  45.808  0.00  0.00    -0.062 A 
ATOM      3  C3  75J d   1      35.305  51.304  43.636  0.00  0.00    -0.082 A 
ATOM      4  C4  75J d   1      36.023  50.310  42.966  0.00  0.00    -0.074 A 
ATOM      5  C5  75J d   1      36.563  49.227  43.681  0.00  0.00    -0.018 A 
ATOM      6  C6  75J d   1      36.396  49.215  45.110  0.00  0.00     0.052 A 
ATOM      7  C32 75J d   1      36.942  48.104  45.840  0.00  0.00     0.100 C 
ATOM      8  N33 75J d   1      37.369  47.234  46.410  0.00  0.00    -0.191 NA
ATOM      9  H1  75J d   1      34.687  52.079  45.577  0.00  0.00     0.083 H 
ATOM     10  H2  75J d   1      35.590  50.215  46.886  0.00  0.00     0.085 H 
ATOM     11  H3  75J d   1      34.832  52.102  43.076  0.00  0.00     0.083 H 
ATOM     12  H4  75J d   1      36.164  50.374  41.893  0.00  0.00     0.084 H 
ENDROOT
BRANCH   5  13
ATOM     13  C7  75J d   1      37.258  48.098  42.967  0.00  0.00     0.045 C 
ATOM     14  H16 75J d   1      36.499  47.428  42.537  0.00  0.00     0.073 H 
ATOM     15  H17 75J d   1      37.870  47.541  43.692  0.00  0.00     0.073 H 
BRANCH  13  16
ATOM     16  N8  75J d   1      38.136  48.594  41.876  0.00  0.00    -0.139 N 
ATOM     17  C13 75J d   1      37.757  48.366  40.476  0.00  0.00     0.293 A 
ATOM     18  C12 75J d   1      38.737  48.874  39.509  0.00  0.00     0.169 A 
ATOM     19  O14 75J d   1      36.723  47.800  40.225  0.00  0.00    -0.265 OA
ATOM     20  C11 75J d   1      39.890  49.513  39.871  0.00  0.00     0.202 A 
ATOM     21  N20 75J d   1      38.817  48.880  38.101  0.00  0.00    -0.161 N 
ATOM     22  N10 75J d   1      40.201  49.641  41.248  0.00  0.00    -0.135 N 
ATOM     23  N18 75J d   1      40.638  49.957  38.857  0.00  0.00    -0.043 NA
ATOM     24  C17 75J d   1      41.378  50.226  41.849  0.00  0.00     0.022 A 
ATOM     25  C9  75J d   1      39.331  49.201  42.224  0.00  0.00     0.717 A 
ATOM     26  C16 75J d   1      41.137  50.068  43.323  0.00  0.00     0.037 A 
ATOM     27  H6  75J d   1      42.236  50.675  41.351  0.00  0.00     0.115 H 
ATOM     28  N15 75J d   1      39.823  49.439  43.453  0.00  0.00    -0.075 NA
ATOM     29  H5  75J d   1      41.805  50.362  44.131  0.00  0.00     0.117 H 
ATOM     30  C19 75J d   1      39.972  49.568  37.746  0.00  0.00     0.708 A 
BRANCH  30  31
ATOM     31  N22 75J d   1      40.341  49.795  36.428  0.00  0.00    -0.214 N 
ATOM     32  C23 75J d   1      39.276  50.336  35.531  0.00  0.00     0.038 C 
ATOM     33  C24 75J d   1      39.049  51.858  35.733  0.00  0.00     0.116 C 
ATOM     34  H9  75J d   1      39.570  50.158  34.486  0.00  0.00     0.068 H 
ATOM     35  H10 75J d   1      38.335  49.807  35.742  0.00  0.00     0.068 H 
ATOM     36  C25 75J d   1      40.362  52.611  35.491  0.00  0.00    -0.036 C 
ATOM     37  H11 75J d   1      38.690  52.058  36.753  0.00  0.00     0.086 H 
ATOM     38  C26 75J d   1      41.484  51.971  36.315  0.00  0.00    -0.048 C 
ATOM     39  H18 75J d   1      40.242  53.662  35.792  0.00  0.00     0.036 H 
ATOM     40  H19 75J d   1      40.620  52.563  34.423  0.00  0.00     0.036 H 
ATOM     41  C27 75J d   1      41.636  50.451  36.185  0.00  0.00     0.012 C 
ATOM     42  H12 75J d   1      42.433  52.431  36.004  0.00  0.00     0.035 H 
ATOM     43  H13 75J d   1      41.295  52.200  37.374  0.00  0.00     0.035 H 
ATOM     44  H14 75J d   1      42.370  50.093  36.922  0.00  0.00     0.065 H 
ATOM     45  H15 75J d   1      41.985  50.205  35.171  0.00  0.00     0.065 H 
BRANCH  33  46
ATOM     46  N28 75J d   1      38.034  52.280  34.742  0.00  0.00    -0.073 N 
ATOM     47  H20 75J d   1      37.174  51.781  34.908  0.00  0.00     0.274 HD
ATOM     48  H21 75J d   1      38.367  52.076  33.813  0.00  0.00     0.274 HD
ATOM     49  H22 75J d   1      37.870  53.270  34.831  0.00  0.00     0.274 HD
ENDBRANCH  33  46
ENDBRANCH  30  31
BRANCH  21  50
ATOM     50  C21 75J d   1      38.078  47.954  37.241  0.00  0.00     0.072 C 
ATOM     51  H7  75J d   1      37.997  46.994  37.772  0.00  0.00     0.085 H 
ATOM     52  H8  75J d   1      38.661  47.814  36.319  0.00  0.00     0.085 H 
BRANCH  50  53
ATOM     53  C29 75J d   1      36.734  48.367  36.860  0.00  0.00    -0.086 C 
ATOM     54  C30 75J d   1      35.607  48.644  36.527  0.00  0.00    -0.109 C 
BRANCH  54  55
ATOM     55  C31 75J d   1      34.206  48.911  36.186  0.00  0.00    -0.021 C 
ATOM     56  H23 75J d   1      34.158  49.709  35.430  0.00  0.00     0.044 H 
ATOM     57  H24 75J d   1      33.663  49.228  37.089  0.00  0.00     0.044 H 
ATOM     58  H25 75J d   1      33.746  47.997  35.783  0.00  0.00     0.044 H 
ENDBRANCH  54  55
ENDBRANCH  50  53
ENDBRANCH  21  50
ENDBRANCH  13  16
ENDBRANCH   5  13
TORSDOF 7
