REMARK  1 active torsions:
REMARK  status: ('A' for Active; 'I' for Inactive)
REMARK    1  A    between atoms: CAH_1  and  NAC_2 
ROOT
ATOM      1  NAC 12Q d   1       6.871  13.275  14.069  0.00  0.00    -0.318 N 
ATOM      2  CAA 12Q d   1       6.384  12.947  15.312  0.00  0.00     0.047 A 
ATOM      3  CAD 12Q d   1       5.972  13.932  16.196  0.00  0.00    -0.056 A 
ATOM      4  CAI 12Q d   1       5.470  13.574  17.447  0.00  0.00    -0.081 A 
ATOM      5  CAK 12Q d   1       5.376  12.242  17.804  0.00  0.00    -0.082 A 
ATOM      6  CAF 12Q d   1       5.784  11.236  16.943  0.00  0.00    -0.071 A 
ATOM      7  CAB 12Q d   1       6.293  11.593  15.690  0.00  0.00    -0.009 A 
ATOM      8  CAE 12Q d   1       6.699  10.597  14.820  0.00  0.00    -0.066 A 
ATOM      9  CAJ 12Q d   1       7.195  10.972  13.589  0.00  0.00    -0.016 A 
ATOM     10  CAG 12Q d   1       7.279  12.322  13.235  0.00  0.00     0.247 A 
ATOM     11  OAL 12Q d   1       7.754  12.581  12.107  0.00  0.00    -0.268 OA
ATOM     12  H4  12Q d   1       6.040  14.977  15.916  0.00  0.00     0.087 H 
ATOM     13  H5  12Q d   1       5.152  14.343  18.142  0.00  0.00     0.083 H 
ATOM     14  H6  12Q d   1       4.975  11.979  18.776  0.00  0.00     0.083 H 
ATOM     15  H7  12Q d   1       5.710  10.194  17.234  0.00  0.00     0.084 H 
ATOM     16  H8  12Q d   1       6.629   9.547  15.099  0.00  0.00     0.085 H 
ATOM     17  H9  12Q d   1       7.525  10.209  12.886  0.00  0.00     0.092 H 
ENDROOT
BRANCH   1  18
ATOM     18  CAH 12Q d   1       6.964  14.680  13.693  0.00  0.00    -0.011 C 
ATOM     19  H1  12Q d   1       6.579  15.305  14.512  0.00  0.00     0.057 H 
ATOM     20  H2  12Q d   1       6.368  14.857  12.785  0.00  0.00     0.057 H 
ATOM     21  H3  12Q d   1       8.015  14.939  13.498  0.00  0.00     0.057 H 
ENDBRANCH   1  18
TORSDOF 1
