REMARK  7 active torsions:
REMARK  status: ('A' for Active; 'I' for Inactive)
REMARK    1  A    between atoms: C12_4  and  C18_5 
REMARK    2  A    between atoms: N2_6  and  C15_7 
REMARK    3  A    between atoms: C1_10  and  O_11 
REMARK    4  A    between atoms: O_11  and  C_12 
REMARK    5  A    between atoms: C2_15  and  N_16 
REMARK    6  A    between atoms: N_16  and  S_17 
REMARK    7  A    between atoms: S_17  and  C3_20 
ROOT
ATOM      1  C3  N48 d   1      -6.241 -19.729 -10.401  0.00  0.00     0.080 A 
ATOM      2  C8  N48 d   1      -7.051 -18.700 -10.837  0.00  0.00    -0.059 A 
ATOM      3  C7  N48 d   1      -7.841 -18.881 -11.956  0.00  0.00    -0.061 A 
ATOM      4  C6  N48 d   1      -7.836 -20.096 -12.633  0.00  0.00     0.044 A 
ATOM      5  C9  N48 d   1      -8.632 -20.255 -13.816  0.00  0.00     0.099 C 
ATOM      6  N1  N48 d   1      -9.266 -20.336 -14.759  0.00  0.00    -0.191 NA
ATOM      7  C5  N48 d   1      -7.018 -21.114 -12.200  0.00  0.00    -0.061 A 
ATOM      8  C4  N48 d   1      -6.210 -20.936 -11.086  0.00  0.00    -0.059 A 
ATOM      9  H14 N48 d   1      -7.067 -17.756 -10.305  0.00  0.00     0.086 H 
ATOM     10  H15 N48 d   1      -8.469 -18.071 -12.309  0.00  0.00     0.085 H 
ATOM     11  H16 N48 d   1      -7.005 -22.059 -12.731  0.00  0.00     0.085 H 
ATOM     12  H17 N48 d   1      -5.558 -21.735 -10.752  0.00  0.00     0.086 H 
ENDROOT
BRANCH   1  13
ATOM     13  S   N48 d   1      -5.211 -19.493  -8.984  0.00  0.00     0.263 S 
ATOM     14  O1  N48 d   1      -4.101 -20.384  -9.122  0.00  0.00    -0.200 OA
ATOM     15  O2  N48 d   1      -6.035 -19.573  -7.814  0.00  0.00    -0.200 OA
BRANCH  13  16
ATOM     16  N   N48 d   1      -4.719 -17.929  -8.941  0.00  0.00    -0.278 N 
ATOM     17  H13 N48 d   1      -4.963 -17.402  -8.127  0.00  0.00     0.179 HD
BRANCH  16  18
ATOM     18  C2  N48 d   1      -3.965 -17.234  -9.967  0.00  0.00     0.076 A 
ATOM     19  C1  N48 d   1      -4.142 -15.865 -10.195  0.00  0.00     0.097 A 
ATOM     20  C17 N48 d   1      -3.407 -15.203 -11.173  0.00  0.00    -0.022 A 
ATOM     21  C16 N48 d   1      -2.487 -15.916 -11.932  0.00  0.00     0.050 A 
ATOM     22  H8  N48 d   1      -3.550 -14.142 -11.341  0.00  0.00     0.091 H 
ATOM     23  N2  N48 d   1      -1.698 -15.241 -12.906  0.00  0.00    -0.318 N 
ATOM     24  C11 N48 d   1      -2.309 -17.296 -11.731  0.00  0.00    -0.001 A 
ATOM     25  C14 N48 d   1      -0.720 -15.891 -13.646  0.00  0.00     0.248 A 
ATOM     26  O3  N48 d   1      -0.075 -15.278 -14.484  0.00  0.00    -0.268 OA
ATOM     27  C13 N48 d   1      -0.597 -17.270 -13.398  0.00  0.00    -0.011 A 
ATOM     28  C12 N48 d   1      -1.339 -17.986 -12.542  0.00  0.00    -0.044 A 
ATOM     29  H1  N48 d   1       0.172 -17.805 -13.953  0.00  0.00     0.092 H 
ATOM     30  C10 N48 d   1      -3.048 -17.936 -10.731  0.00  0.00    -0.041 A 
ATOM     31  H12 N48 d   1      -2.901 -18.995 -10.552  0.00  0.00     0.088 H 
BRANCH  19  32
ATOM     32  O   N48 d   1      -5.024 -15.241  -9.357  0.00  0.00    -0.354 OA
BRANCH  32  33
ATOM     33  C   N48 d   1      -4.772 -13.869  -9.055  0.00  0.00     0.010 C 
ATOM     34  H9  N48 d   1      -5.552 -13.494  -8.376  0.00  0.00     0.066 H 
ATOM     35  H10 N48 d   1      -4.782 -13.281  -9.985  0.00  0.00     0.066 H 
ATOM     36  H11 N48 d   1      -3.788 -13.775  -8.572  0.00  0.00     0.066 H 
ENDBRANCH  32  33
ENDBRANCH  19  32
BRANCH  23  37
ATOM     37  C15 N48 d   1      -1.908 -13.822 -13.180  0.00  0.00    -0.011 C 
ATOM     38  H5  N48 d   1      -1.204 -13.491 -13.958  0.00  0.00     0.057 H 
ATOM     39  H6  N48 d   1      -1.738 -13.242 -12.261  0.00  0.00     0.057 H 
ATOM     40  H7  N48 d   1      -2.940 -13.664 -13.527  0.00  0.00     0.057 H 
ENDBRANCH  23  37
BRANCH  28  41
ATOM     41  C18 N48 d   1      -1.168 -19.473 -12.424  0.00  0.00    -0.050 C 
ATOM     42  H2  N48 d   1      -0.386 -19.808 -13.120  0.00  0.00     0.033 H 
ATOM     43  H3  N48 d   1      -2.117 -19.972 -12.671  0.00  0.00     0.033 H 
ATOM     44  H4  N48 d   1      -0.876 -19.728 -11.395  0.00  0.00     0.033 H 
ENDBRANCH  28  41
ENDBRANCH  16  18
ENDBRANCH  13  16
ENDBRANCH   1  13
TORSDOF 7
