REMARK  7 active torsions:
REMARK  status: ('A' for Active; 'I' for Inactive)
REMARK    1  A    between atoms: C1_2  and  O1_3 
REMARK    2  A    between atoms: C2_4  and  N2_5 
REMARK       I    between atoms: N2_5  and  C7_13 
REMARK    3  A    between atoms: C3_6  and  O3_7 
REMARK    4  A    between atoms: C4_8  and  O4_9 
REMARK    5  A    between atoms: C5_10  and  C6_11 
REMARK    6  A    between atoms: C6_11  and  O6_12 
REMARK    7  A    between atoms: C7_13  and  C8_15 
ROOT
ATOM      1  O   A2G d   1     -12.104  33.567   1.209  0.00  0.00    -0.349 OA
ATOM      2  C1  A2G d   1     -13.236  32.887   1.815  0.00  0.00     0.151 C 
ATOM      3  C2  A2G d   1     -12.817  31.890   2.910  0.00  0.00     0.086 C 
ATOM      4  C3  A2G d   1     -11.777  32.476   3.918  0.00  0.00     0.086 C 
ATOM      5  C4  A2G d   1     -10.639  33.122   3.108  0.00  0.00     0.089 C 
ATOM      6  C5  A2G d   1     -11.224  34.167   2.211  0.00  0.00     0.089 C 
ATOM      7  H1  A2G d   1     -13.775  32.344   1.024  0.00  0.00     0.132 H 
ATOM      8  H3  A2G d   1     -12.319  31.050   2.404  0.00  0.00     0.084 H 
ATOM      9  H5  A2G d   1     -12.243  33.247   4.548  0.00  0.00     0.090 H 
ATOM     10  H7  A2G d   1      -9.932  33.598   3.804  0.00  0.00     0.091 H 
ATOM     11  H9  A2G d   1     -11.820  34.846   2.838  0.00  0.00     0.090 H 
ENDROOT
BRANCH   3  12
ATOM     12  N2  A2G d   1     -13.988  31.354   3.565  0.00  0.00    -0.349 N 
ATOM     13  C7  A2G d   1     -14.177  30.060   3.772  0.00  0.00     0.214 C 
ATOM     14  O7  A2G d   1     -13.363  29.211   3.383  0.00  0.00    -0.274 OA
ATOM     15  H4  A2G d   1     -14.691  31.992   3.878  0.00  0.00     0.163 HD
BRANCH  13  16
ATOM     16  C8  A2G d   1     -15.408  29.636   4.500  0.00  0.00    -0.003 C 
ATOM     17  H13 A2G d   1     -15.420  28.540   4.592  0.00  0.00     0.040 H 
ATOM     18  H14 A2G d   1     -16.296  29.967   3.942  0.00  0.00     0.040 H 
ATOM     19  H15 A2G d   1     -15.415  30.088   5.503  0.00  0.00     0.040 H 
ENDBRANCH  13  16
ENDBRANCH   3  12
BRANCH   2  20
ATOM     20  O1  A2G d   1     -14.109  33.821   2.425  0.00  0.00    -0.369 OA
ATOM     21  H2  A2G d   1     -13.639  34.299   3.099  0.00  0.00     0.212 HD
ENDBRANCH   2  20
BRANCH   4  22
ATOM     22  O3  A2G d   1     -11.366  31.359   4.755  0.00  0.00    -0.391 OA
ATOM     23  H6  A2G d   1     -10.729  31.660   5.392  0.00  0.00     0.210 HD
ENDBRANCH   4  22
BRANCH   5  24
ATOM     24  O4  A2G d   1      -9.944  32.165   2.346  0.00  0.00    -0.390 OA
ATOM     25  H8  A2G d   1      -9.569  31.512   2.925  0.00  0.00     0.210 HD
ENDBRANCH   5  24
BRANCH   6  26
ATOM     26  C6  A2G d   1     -10.167  34.999   1.479  0.00  0.00     0.043 C 
ATOM     27  H10 A2G d   1      -9.481  34.331   0.938  0.00  0.00     0.078 H 
ATOM     28  H11 A2G d   1      -9.598  35.597   2.207  0.00  0.00     0.078 H 
BRANCH  26  29
ATOM     29  O6  A2G d   1     -10.830  35.879   0.540  0.00  0.00    -0.398 OA
ATOM     30  H12 A2G d   1     -11.422  36.454   1.010  0.00  0.00     0.209 HD
ENDBRANCH  26  29
ENDBRANCH   6  26
TORSDOF 7
