REMARK  18 active torsions:
REMARK  status: ('A' for Active; 'I' for Inactive)
REMARK    1  A    between atoms: O1_3  and  C1_2 
REMARK    2  A    between atoms: C3_18  and  O1_3 
REMARK    3  A    between atoms: C2_4  and  N2_5 
REMARK       I    between atoms: N2_5  and  C7_13 
REMARK    4  A    between atoms: C3_6  and  O3_7 
REMARK    5  A    between atoms: C4_8  and  O4_9 
REMARK    6  A    between atoms: C5_10  and  C6_11 
REMARK    7  A    between atoms: C6_11  and  O6_12 
REMARK    8  A    between atoms: C7_13  and  C8_15 
REMARK    9  A    between atoms: C1_16  and  O1_22 
REMARK   10  A    between atoms: C2_17  and  O2_23 
REMARK   11  A    between atoms: C4_19  and  O4_24 
REMARK   12  A    between atoms: C5_20  and  C6_21 
REMARK   13  A    between atoms: C6_21  and  O6_26 
REMARK   14  A    between atoms: O2_23  and  C1_27 
REMARK   15  A    between atoms: C2_28  and  O2_33 
REMARK   16  A    between atoms: C3_29  and  O3_34 
REMARK   17  A    between atoms: C4_30  and  O4_35 
REMARK   18  A    between atoms: C5_31  and  C6_32 
ROOT
ATOM      1  H15 A2G d   1     -12.674  49.294  10.466  0.00  0.00     0.133 H 
ATOM      2  H16 A2G d   1     -11.422  48.833  12.481  0.00  0.00     0.095 H 
ATOM      3  H17 A2G d   1     -12.377  45.974  12.160  0.00  0.00     0.091 H 
ATOM      4  H18 A2G d   1     -13.758  46.298  14.109  0.00  0.00     0.091 H 
ATOM      5  H19 A2G d   1     -14.898  46.799  11.997  0.00  0.00     0.090 H 
ATOM      6  C1  GLA d   1     -12.948  48.409  11.059  0.00  0.00     0.156 C 
ATOM      7  C2  GLA d   1     -11.774  47.978  11.885  0.00  0.00     0.116 C 
ATOM      8  C3  GLA d   1     -12.170  46.851  12.791  0.00  0.00     0.098 C 
ATOM      9  C4  GLA d   1     -13.436  47.175  13.528  0.00  0.00     0.090 C 
ATOM     10  C5  GLA d   1     -14.578  47.624  12.651  0.00  0.00     0.089 C 
ATOM     11  O5  GLA d   1     -14.099  48.729  11.870  0.00  0.00    -0.349 OA
ENDROOT
BRANCH   8  12
ATOM     12  O1  A2G d   1     -11.070  46.491  13.684  0.00  0.00    -0.348 OA
BRANCH  12  13
ATOM     13  C1  A2G d   1     -11.254  45.589  14.740  0.00  0.00     0.154 C 
ATOM     14  O   A2G d   1     -11.989  44.431  14.369  0.00  0.00    -0.349 OA
ATOM     15  C5  A2G d   1     -11.310  43.639  13.402  0.00  0.00     0.089 C 
ATOM     16  C4  A2G d   1     -10.034  43.145  14.069  0.00  0.00     0.089 C 
ATOM     17  H8  A2G d   1     -11.063  44.235  12.511  0.00  0.00     0.090 H 
ATOM     18  C3  A2G d   1      -9.142  44.350  14.386  0.00  0.00     0.086 C 
ATOM     19  H6  A2G d   1      -9.489  42.517  13.349  0.00  0.00     0.091 H 
ATOM     20  C2  A2G d   1      -9.881  45.260  15.324  0.00  0.00     0.087 C 
ATOM     21  H4  A2G d   1      -8.903  44.876  13.450  0.00  0.00     0.090 H 
ATOM     22  H2  A2G d   1     -10.021  44.713  16.268  0.00  0.00     0.084 H 
ATOM     23  H1  A2G d   1     -11.838  46.100  15.520  0.00  0.00     0.132 H 
BRANCH  15  24
ATOM     24  C6  A2G d   1     -12.227  42.488  13.014  0.00  0.00     0.043 C 
ATOM     25  H9  A2G d   1     -12.546  41.943  13.915  0.00  0.00     0.078 H 
ATOM     26  H10 A2G d   1     -11.699  41.800  12.337  0.00  0.00     0.078 H 
BRANCH  24  27
ATOM     27  O6  A2G d   1     -13.391  43.056  12.337  0.00  0.00    -0.398 OA
ATOM     28  H11 A2G d   1     -13.107  43.528  11.563  0.00  0.00     0.209 HD
ENDBRANCH  24  27
ENDBRANCH  15  24
BRANCH  16  29
ATOM     29  O4  A2G d   1     -10.361  42.306  15.199  0.00  0.00    -0.390 OA
ATOM     30  H7  A2G d   1     -10.823  42.820  15.851  0.00  0.00     0.210 HD
ENDBRANCH  16  29
BRANCH  18  31
ATOM     31  O3  A2G d   1      -7.924  43.986  15.058  0.00  0.00    -0.391 OA
ATOM     32  H5  A2G d   1      -7.418  43.406  14.501  0.00  0.00     0.210 HD
ENDBRANCH  18  31
BRANCH  20  33
ATOM     33  N2  A2G d   1      -9.218  46.494  15.633  0.00  0.00    -0.349 N 
ATOM     34  C7  A2G d   1      -8.511  46.639  16.729  0.00  0.00     0.214 C 
ATOM     35  O7  A2G d   1      -8.451  45.756  17.604  0.00  0.00    -0.274 OA
ATOM     36  H3  A2G d   1      -9.296  47.262  14.998  0.00  0.00     0.163 HD
BRANCH  34  37
ATOM     37  C8  A2G d   1      -7.715  47.922  16.871  0.00  0.00    -0.003 C 
ATOM     38  H12 A2G d   1      -7.173  47.913  17.828  0.00  0.00     0.040 H 
ATOM     39  H13 A2G d   1      -8.399  48.783  16.845  0.00  0.00     0.040 H 
ATOM     40  H14 A2G d   1      -6.995  48.001  16.043  0.00  0.00     0.040 H 
ENDBRANCH  34  37
ENDBRANCH  20  33
ENDBRANCH  12  13
ENDBRANCH   8  12
BRANCH   7  41
ATOM     41  O2  GLA d   1     -10.701  47.490  11.060  0.00  0.00    -0.346 OA
BRANCH  41  42
ATOM     42  C1  FUC d   1      -9.757  48.560  10.869  0.00  0.00     0.159 C 
ATOM     43  C2  FUC d   1      -8.393  48.049  10.441  0.00  0.00     0.110 C 
ATOM     44  C3  FUC d   1      -8.402  47.498   9.016  0.00  0.00     0.092 C 
ATOM     45  H26 A2G d   1      -7.697  48.901  10.446  0.00  0.00     0.094 H 
ATOM     46  C4  FUC d   1      -9.041  48.495   8.025  0.00  0.00     0.087 C 
ATOM     47  H27 A2G d   1      -8.944  46.542   8.983  0.00  0.00     0.091 H 
ATOM     48  C5  FUC d   1     -10.377  48.861   8.623  0.00  0.00     0.065 C 
ATOM     49  H28 A2G d   1      -9.198  48.025   7.043  0.00  0.00     0.091 H 
ATOM     50  O5  FUC d   1     -10.181  49.513   9.874  0.00  0.00    -0.351 OA
ATOM     51  H29 A2G d   1     -10.944  47.934   8.797  0.00  0.00     0.086 H 
ATOM     52  H25 A2G d   1      -9.651  49.083  11.831  0.00  0.00     0.133 H 
BRANCH  43  53
ATOM     53  O2  FUC d   1      -7.927  47.098  11.441  0.00  0.00    -0.388 OA
ATOM     54  H33 A2G d   1      -7.948  47.506  12.299  0.00  0.00     0.210 HD
ENDBRANCH  43  53
BRANCH  44  55
ATOM     55  O3  FUC d   1      -7.043  47.320   8.650  0.00  0.00    -0.390 OA
ATOM     56  H34 A2G d   1      -6.632  46.708   9.250  0.00  0.00     0.210 HD
ENDBRANCH  44  55
BRANCH  46  57
ATOM     57  O4  FUC d   1      -8.137  49.584   7.878  0.00  0.00    -0.390 OA
ATOM     58  H35 A2G d   1      -7.962  49.966   8.730  0.00  0.00     0.210 HD
ENDBRANCH  46  57
BRANCH  48  59
ATOM     59  C6  FUC d   1     -11.199  49.758   7.667  0.00  0.00    -0.050 C 
ATOM     60  H30 A2G d   1     -12.164  50.004   8.134  0.00  0.00     0.031 H 
ATOM     61  H31 A2G d   1     -11.375  49.222   6.723  0.00  0.00     0.031 H 
ATOM     62  H32 A2G d   1     -10.642  50.685   7.465  0.00  0.00     0.031 H 
ENDBRANCH  48  59
ENDBRANCH  41  42
ENDBRANCH   7  41
BRANCH   9  63
ATOM     63  O4  GLA d   1     -13.087  48.235  14.376  0.00  0.00    -0.390 OA
ATOM     64  H23 A2G d   1     -12.368  47.968  14.936  0.00  0.00     0.210 HD
ENDBRANCH   9  63
BRANCH   6  65
ATOM     65  O1  GLA d   1     -13.258  47.327  10.199  0.00  0.00    -0.369 OA
ATOM     66  H22 A2G d   1     -13.984  47.569   9.636  0.00  0.00     0.212 HD
ENDBRANCH   6  65
BRANCH  10  67
ATOM     67  C6  GLA d   1     -15.770  48.108  13.501  0.00  0.00     0.043 C 
ATOM     68  H20 A2G d   1     -15.537  49.055  14.010  0.00  0.00     0.078 H 
ATOM     69  H21 A2G d   1     -16.059  47.353  14.246  0.00  0.00     0.078 H 
BRANCH  67  70
ATOM     70  O6  GLA d   1     -16.808  48.289  12.512  0.00  0.00    -0.398 OA
ATOM     71  H24 A2G d   1     -16.526  48.932  11.873  0.00  0.00     0.209 HD
ENDBRANCH  67  70
ENDBRANCH  10  67
TORSDOF 18
