REMARK  4 active torsions:
REMARK  status: ('A' for Active; 'I' for Inactive)
REMARK    1  A    between atoms: O01_1  and  B02_2 
REMARK    2  A    between atoms: C07_7  and  N08_8 
REMARK       I    between atoms: N08_8  and  C09_9 
REMARK    3  A    between atoms: C09_9  and  C11_11 
REMARK    4  A    between atoms: C20_20  and  C21_21 
ROOT
ATOM      1  B02 C6S d   1     -41.327   5.294  20.850  0.00  0.00     0.522 B 
ATOM      2  O03 C6S d   1     -39.983   5.459  20.889  0.00  0.00    -0.386 OA
ATOM      3  C04 C6S d   1     -39.173   4.312  20.605  0.00  0.00     0.075 A 
ATOM      4  C05 C6S d   1     -39.562   3.060  21.082  0.00  0.00    -0.024 A 
ATOM      5  C06 C6S d   1     -40.869   3.006  21.899  0.00  0.00    -0.022 C 
ATOM      6  C07 C6S d   1     -41.867   3.875  21.212  0.00  0.00     0.050 C 
ATOM      7  C17 C6S d   1     -38.789   1.934  20.797  0.00  0.00    -0.074 A 
ATOM      8  C18 C6S d   1     -37.619   2.075  20.045  0.00  0.00    -0.081 A 
ATOM      9  C19 C6S d   1     -37.224   3.352  19.570  0.00  0.00    -0.064 A 
ATOM     10  C20 C6S d   1     -37.998   4.458  19.843  0.00  0.00     0.073 A 
ATOM     11  H   C6S d   1     -40.696   3.357  22.916  0.00  0.00     0.042 H 
ATOM     12  H   C6S d   1     -41.236   1.982  21.961  0.00  0.00     0.042 H 
ATOM     13  H   C6S d   1     -42.723   4.028  21.870  0.00  0.00     0.065 H 
ATOM     14  H   C6S d   1     -39.095   0.952  21.158  0.00  0.00     0.084 H 
ATOM     15  H   C6S d   1     -37.008   1.200  19.823  0.00  0.00     0.083 H 
ATOM     16  H   C6S d   1     -36.308   3.458  18.989  0.00  0.00     0.085 H 
ENDROOT
BRANCH   6  17
ATOM     17  N08 C6S d   1     -42.158   3.171  19.932  0.00  0.00    -0.359 N 
ATOM     18  C09 C6S d   1     -42.794   1.813  19.901  0.00  0.00     0.221 C 
ATOM     19  O10 C6S d   1     -43.111   1.227  20.909  0.00  0.00    -0.273 OA
ATOM     20  H   C6S d   1     -41.918   3.626  19.051  0.00  0.00     0.162 HD
BRANCH  18  21
ATOM     21  C11 C6S d   1     -43.014   1.180  18.465  0.00  0.00     0.024 C 
ATOM     22  C12 C6S d   1     -44.196   0.187  18.445  0.00  0.00    -0.054 C 
ATOM     23  C13 C6S d   1     -44.357  -0.369  17.057  0.00  0.00    -0.064 C 
ATOM     24  H   C6S d   1     -45.110   0.703  18.739  0.00  0.00     0.034 H 
ATOM     25  H   C6S d   1     -44.000  -0.627  19.143  0.00  0.00     0.034 H 
ATOM     26  C14 C6S d   1     -43.080  -1.027  16.563  0.00  0.00    -0.065 C 
ATOM     27  H   C6S d   1     -44.602   0.453  16.384  0.00  0.00     0.033 H 
ATOM     28  H   C6S d   1     -45.145  -1.122  17.078  0.00  0.00     0.033 H 
ATOM     29  C15 C6S d   1     -41.834  -0.123  16.710  0.00  0.00    -0.064 C 
ATOM     30  H   C6S d   1     -43.208  -1.243  15.502  0.00  0.00     0.033 H 
ATOM     31  H   C6S d   1     -42.914  -1.920  17.166  0.00  0.00     0.033 H 
ATOM     32  C16 C6S d   1     -41.728   0.490  18.079  0.00  0.00    -0.054 C 
ATOM     33  H   C6S d   1     -41.917   0.686  15.984  0.00  0.00     0.033 H 
ATOM     34  H   C6S d   1     -40.950  -0.739  16.547  0.00  0.00     0.033 H 
ATOM     35  H   C6S d   1     -41.526  -0.301  18.801  0.00  0.00     0.034 H 
ATOM     36  H   C6S d   1     -40.925   1.227  18.070  0.00  0.00     0.034 H 
ATOM     37  H   C6S d   1     -43.266   1.964  17.751  0.00  0.00     0.054 H 
ENDBRANCH  18  21
ENDBRANCH   6  17
BRANCH   1  38
ATOM     38  O01 C6S d   1     -41.754   5.603  19.600  0.00  0.00    -0.436 OA
ATOM     39  H   C6S d   1     -41.330   5.021  18.965  0.00  0.00     0.185 HD
ENDBRANCH   1  38
BRANCH  10  40
ATOM     40  C21 C6S d   1     -37.569   5.848  19.341  0.00  0.00     0.212 C 
ATOM     41  O22 C6S d   1     -37.455   6.093  18.124  0.00  0.00    -0.644 OA
ATOM     42  O23 C6S d   1     -37.332   6.730  20.182  0.00  0.00    -0.644 OA
ENDBRANCH  10  40
TORSDOF 4
