REMARK  5 active torsions:
REMARK  status: ('A' for Active; 'I' for Inactive)
REMARK    1  A    between atoms: N19_22  and  C2_9 
REMARK    2  A    between atoms: C9_11  and  C24_17 
REMARK    3  A    between atoms: N20_23  and  C15_12 
REMARK    4  A    between atoms: C13_13  and  N19_22 
REMARK    5  A    between atoms: C21_16  and  N20_23 
ROOT
ATOM      1  C18 77V d   1      23.983   2.606 -10.734  0.00  0.00    -0.030 A 
ATOM      2  C17 77V d   1      24.830   3.255 -11.599  0.00  0.00     0.022 A 
ATOM      3  C11 77V d   1      24.659   1.420 -10.349  0.00  0.00     0.115 A 
ATOM      4  C10 77V d   1      25.876   1.420 -10.996  0.00  0.00     0.150 A 
ATOM      5  C15 77V d   1      26.772   0.382 -10.848  0.00  0.00     0.179 A 
ATOM      6  C13 77V d   1      25.190  -0.575  -9.409  0.00  0.00     0.729 A 
ATOM      7  N12 77V d   1      24.299   0.420  -9.519  0.00  0.00    -0.060 NA
ATOM      8  N14 77V d   1      26.368  -0.606 -10.039  0.00  0.00    -0.042 NA
ATOM      9  O16 77V d   1      25.979   2.541 -11.762  0.00  0.00    -0.316 OA
ATOM     10  H3  77V d   1      22.996   2.934 -10.411  0.00  0.00     0.090 H 
ATOM     11  H5  77V d   1      24.614   4.205 -12.085  0.00  0.00     0.123 H 
ENDROOT
BRANCH   6  12
ATOM     12  N19 77V d   1      24.875  -1.621  -8.525  0.00  0.00    -0.188 N 
ATOM     13  H15 77V d   1      24.164  -1.406  -7.811  0.00  0.00     0.184 HD
BRANCH  12  14
ATOM     14  C2  77V d   1      25.404  -2.922  -8.489  0.00  0.00     0.051 A 
ATOM     15  C1  77V d   1      24.735  -3.811  -7.674  0.00  0.00    -0.056 A 
ATOM     16  C6  77V d   1      25.098  -5.133  -7.539  0.00  0.00    -0.067 A 
ATOM     17  H2  77V d   1      23.881  -3.451  -7.112  0.00  0.00     0.087 H 
ATOM     18  C5  77V d   1      26.209  -5.540  -8.263  0.00  0.00     0.018 A 
ATOM     19  H1  77V d   1      24.547  -5.816  -6.903  0.00  0.00     0.085 H 
ATOM     20  C4  77V d   1      26.894  -4.639  -9.052  0.00  0.00     0.091 A 
ATOM     21  C9  77V d   1      26.896  -6.769  -8.432  0.00  0.00     0.036 A 
ATOM     22  C3  77V d   1      26.526  -3.319  -9.197  0.00  0.00    -0.026 A 
ATOM     23  N7  77V d   1      27.920  -5.357  -9.602  0.00  0.00    -0.174 NA
ATOM     24  H4  77V d   1      27.081  -2.633  -9.827  0.00  0.00     0.090 H 
ATOM     25  N8  77V d   1      27.941  -6.659  -9.261  0.00  0.00    -0.281 N 
ATOM     26  H14 77V d   1      28.599  -7.391  -9.564  0.00  0.00     0.189 HD
BRANCH  21  27
ATOM     27  C24 77V d   1      26.550  -8.060  -7.815  0.00  0.00    -0.035 C 
ATOM     28  H11 77V d   1      27.271  -8.826  -8.138  0.00  0.00     0.035 H 
ATOM     29  H12 77V d   1      25.537  -8.355  -8.126  0.00  0.00     0.035 H 
ATOM     30  H13 77V d   1      26.584  -7.964  -6.720  0.00  0.00     0.035 H 
ENDBRANCH  21  27
ENDBRANCH  12  14
ENDBRANCH   6  12
BRANCH   5  31
ATOM     31  N20 77V d   1      28.015   0.300 -11.496  0.00  0.00    -0.367 N 
ATOM     32  H16 77V d   1      28.497   1.128 -11.873  0.00  0.00     0.161 HD
BRANCH  31  33
ATOM     33  C21 77V d   1      28.580  -1.059 -11.597  0.00  0.00     0.011 A 
ATOM     34  C22 77V d   1      29.305  -1.558 -12.812  0.00  0.00    -0.044 A 
ATOM     35  C23 77V d   1      27.972  -2.139 -12.450  0.00  0.00    -0.044 A 
ATOM     36  H6  77V d   1      29.401  -0.913 -13.698  0.00  0.00     0.036 H 
ATOM     37  H7  77V d   1      30.217  -2.162 -12.698  0.00  0.00     0.036 H 
ATOM     38  H8  77V d   1      27.906  -3.169 -12.069  0.00  0.00     0.036 H 
ATOM     39  H9  77V d   1      27.090  -1.920 -13.069  0.00  0.00     0.036 H 
ATOM     40  H10 77V d   1      28.970  -1.331 -10.605  0.00  0.00     0.072 H 
ENDBRANCH  31  33
ENDBRANCH   5  31
TORSDOF 5
