REMARK  17 active torsions:
REMARK  status: ('A' for Active; 'I' for Inactive)
REMARK    1  A    between atoms: O02_30  and  C01_1 
REMARK    2  A    between atoms: C03_2  and  O02_30 
REMARK    3  A    between atoms: O07_31  and  C06_5 
REMARK    4  A    between atoms: C09_7  and  C08_6 
REMARK    5  A    between atoms: C08_6  and  O07_31 
REMARK    6  A    between atoms: C10_8  and  C09_7 
REMARK    7  A    between atoms: S11_37  and  C10_8 
REMARK    8  A    between atoms: C13_9  and  C14_10 
REMARK    9  A    between atoms: C13_9  and  C21_17 
REMARK   10  A    between atoms: N12_27  and  C13_9 
REMARK   11  A    between atoms: C14_10  and  C15_11 
REMARK       I    between atoms: C21_17  and  N22_28 
REMARK   12  A    between atoms: C23_18  and  C24_19 
REMARK   13  A    between atoms: C23_18  and  C31_24 
REMARK   14  A    between atoms: N22_28  and  C23_18 
REMARK   15  A    between atoms: C24_19  and  C25_20 
REMARK   16  A    between atoms: C31_24  and  O32_33 
REMARK   17  A    between atoms: N12_27  and  S11_37 
ROOT
ATOM      1  C13 N38 d   1       6.034  69.294  -6.444  0.00  0.00     0.097 C 
ATOM      2  H12 N38 d   1       6.354  68.246  -6.346  0.00  0.00     0.088 H 
ENDROOT
BRANCH   1   3
ATOM      3  C14 N38 d   1       7.159  70.160  -6.917  0.00  0.00    -0.034 C 
ATOM      4  H13 N38 d   1       7.855  70.312  -6.079  0.00  0.00     0.037 H 
ATOM      5  H14 N38 d   1       6.743  71.129  -7.228  0.00  0.00     0.037 H 
BRANCH   3   6
ATOM      6  C15 N38 d   1       7.946  69.569  -8.100  0.00  0.00    -0.052 C 
ATOM      7  C16 N38 d   1       8.623  68.302  -7.599  0.00  0.00    -0.062 C 
ATOM      8  C17 N38 d   1       9.697  67.794  -8.539  0.00  0.00    -0.065 C 
ATOM      9  H16 N38 d   1       7.859  67.519  -7.483  0.00  0.00     0.033 H 
ATOM     10  H17 N38 d   1       9.083  68.513  -6.622  0.00  0.00     0.033 H 
ATOM     11  C18 N38 d   1      10.706  68.887  -8.874  0.00  0.00    -0.065 C 
ATOM     12  H18 N38 d   1       9.223  67.447  -9.469  0.00  0.00     0.033 H 
ATOM     13  H19 N38 d   1      10.224  66.955  -8.061  0.00  0.00     0.033 H 
ATOM     14  C19 N38 d   1      10.023  70.151  -9.397  0.00  0.00    -0.065 C 
ATOM     15  H20 N38 d   1      11.396  68.511  -9.644  0.00  0.00     0.033 H 
ATOM     16  H21 N38 d   1      11.273  69.139  -7.965  0.00  0.00     0.033 H 
ATOM     17  C20 N38 d   1       8.954  70.652  -8.453  0.00  0.00    -0.062 C 
ATOM     18  H22 N38 d   1       9.561  69.928 -10.370  0.00  0.00     0.033 H 
ATOM     19  H23 N38 d   1      10.781  70.938  -9.523  0.00  0.00     0.033 H 
ATOM     20  H24 N38 d   1       9.435  71.004  -7.528  0.00  0.00     0.033 H 
ATOM     21  H25 N38 d   1       8.423  71.488  -8.931  0.00  0.00     0.033 H 
ATOM     22  H15 N38 d   1       7.294  69.343  -8.957  0.00  0.00     0.040 H 
ENDBRANCH   3   6
ENDBRANCH   1   3
BRANCH   1  23
ATOM     23  C21 N38 d   1       5.591  69.852  -5.076  0.00  0.00     0.241 C 
ATOM     24  N22 N38 d   1       6.117  69.232  -3.842  0.00  0.00    -0.353 N 
ATOM     25  H39 N38 d   1       6.749  68.460  -3.905  0.00  0.00     0.163 HD
ATOM     26  O33 N38 d   1       4.876  70.790  -5.038  0.00  0.00    -0.271 OA
BRANCH  24  27
ATOM     27  C23 N38 d   1       5.720  69.740  -2.529  0.00  0.00     0.033 C 
ATOM     28  H26 N38 d   1       5.068  70.619  -2.643  0.00  0.00     0.075 H 
BRANCH  27  29
ATOM     29  C24 N38 d   1       4.957  68.631  -1.759  0.00  0.00    -0.033 C 
ATOM     30  H27 N38 d   1       4.767  68.990  -0.737  0.00  0.00     0.037 H 
ATOM     31  H28 N38 d   1       5.596  67.736  -1.721  0.00  0.00     0.037 H 
BRANCH  29  32
ATOM     32  C25 N38 d   1       3.595  68.231  -2.397  0.00  0.00     0.027 C 
ATOM     33  C26 N38 d   1       2.887  67.376  -1.704  0.00  0.00     0.221 C 
ATOM     34  N27 N38 d   1       1.379  67.865  -1.790  0.00  0.00    -0.361 N 
ATOM     35  O30 N38 d   1       3.230  66.383  -1.155  0.00  0.00    -0.273 OA
ATOM     36  C28 N38 d   1       1.431  69.171  -2.635  0.00  0.00    -0.004 C 
ATOM     37  H40 N38 d   1       0.573  67.430  -1.389  0.00  0.00     0.162 HD
ATOM     38  C29 N38 d   1       2.651  69.590  -2.542  0.00  0.00    -0.039 C 
ATOM     39  H30 N38 d   1       1.175  68.962  -3.684  0.00  0.00     0.064 H 
ATOM     40  H31 N38 d   1       0.735  69.920  -2.230  0.00  0.00     0.064 H 
ATOM     41  H32 N38 d   1       2.930  70.155  -3.444  0.00  0.00     0.036 H 
ATOM     42  H33 N38 d   1       2.768  70.232  -1.657  0.00  0.00     0.036 H 
ATOM     43  H29 N38 d   1       3.794  67.802  -3.390  0.00  0.00     0.054 H 
ENDBRANCH  29  32
ENDBRANCH  27  29
BRANCH  27  44
ATOM     44  C31 N38 d   1       7.004  70.138  -1.800  0.00  0.00     0.035 C 
ATOM     45  H34 N38 d   1       7.694  69.282  -1.766  0.00  0.00     0.077 H 
ATOM     46  H35 N38 d   1       6.767  70.459  -0.775  0.00  0.00     0.077 H 
BRANCH  44  47
ATOM     47  O32 N38 d   1       7.592  71.193  -2.502  0.00  0.00    -0.399 OA
ATOM     48  H41 N38 d   1       7.791  70.911  -3.387  0.00  0.00     0.209 HD
ENDBRANCH  44  47
ENDBRANCH  27  44
ENDBRANCH  24  27
ENDBRANCH   1  23
BRANCH   1  49
ATOM     49  N12 N38 d   1       4.964  69.404  -7.412  0.00  0.00    -0.306 N 
ATOM     50  H38 N38 d   1       5.046  70.048  -8.173  0.00  0.00     0.173 HD
BRANCH  49  51
ATOM     51  S11 N38 d   1       3.554  68.435  -7.262  0.00  0.00     0.227 S 
ATOM     52  O34 N38 d   1       3.736  67.452  -6.195  0.00  0.00    -0.206 OA
ATOM     53  O35 N38 d   1       2.384  69.224  -6.910  0.00  0.00    -0.206 OA
BRANCH  51  54
ATOM     54  C10 N38 d   1       3.242  67.567  -8.821  0.00  0.00     0.048 C 
ATOM     55  H10 N38 d   1       3.096  68.305  -9.624  0.00  0.00     0.059 H 
ATOM     56  H11 N38 d   1       4.106  66.930  -9.061  0.00  0.00     0.059 H 
BRANCH  54  57
ATOM     57  C09 N38 d   1       1.986  66.692  -8.702  0.00  0.00    -0.031 C 
ATOM     58  H8  N38 d   1       1.885  66.336  -7.666  0.00  0.00     0.037 H 
ATOM     59  H9  N38 d   1       1.100  67.285  -8.974  0.00  0.00     0.037 H 
BRANCH  57  60
ATOM     60  C08 N38 d   1       2.104  65.489  -9.646  0.00  0.00     0.027 C 
ATOM     61  H6  N38 d   1       2.717  65.762 -10.517  0.00  0.00     0.075 H 
ATOM     62  H7  N38 d   1       1.102  65.186  -9.984  0.00  0.00     0.075 H 
BRANCH  60  63
ATOM     63  O07 N38 d   1       2.715  64.419  -8.953  0.00  0.00    -0.351 OA
BRANCH  63  64
ATOM     64  C06 N38 d   1       3.305  63.394  -9.750  0.00  0.00     0.068 A 
ATOM     65  C05 N38 d   1       3.387  63.493 -11.134  0.00  0.00    -0.048 A 
ATOM     66  C04 N38 d   1       3.978  62.478 -11.879  0.00  0.00    -0.048 A 
ATOM     67  H5  N38 d   1       2.988  64.367 -11.636  0.00  0.00     0.087 H 
ATOM     68  C03 N38 d   1       4.475  61.339 -11.257  0.00  0.00     0.068 A 
ATOM     69  H4  N38 d   1       4.052  62.576 -12.956  0.00  0.00     0.087 H 
ATOM     70  C37 N38 d   1       4.392  61.230  -9.881  0.00  0.00    -0.048 A 
ATOM     71  C36 N38 d   1       3.812  62.259  -9.140  0.00  0.00    -0.048 A 
ATOM     72  H37 N38 d   1       4.776  60.349  -9.381  0.00  0.00     0.087 H 
ATOM     73  H36 N38 d   1       3.757  62.168  -8.061  0.00  0.00     0.087 H 
BRANCH  68  74
ATOM     74  O02 N38 d   1       5.088  60.317 -12.019  0.00  0.00    -0.356 OA
BRANCH  74  75
ATOM     75  C01 N38 d   1       4.339  59.786 -13.080  0.00  0.00     0.010 C 
ATOM     76  H1  N38 d   1       4.925  59.006 -13.588  0.00  0.00     0.066 H 
ATOM     77  H2  N38 d   1       4.097  60.587 -13.795  0.00  0.00     0.066 H 
ATOM     78  H3  N38 d   1       3.408  59.349 -12.689  0.00  0.00     0.066 H 
ENDBRANCH  74  75
ENDBRANCH  68  74
ENDBRANCH  63  64
ENDBRANCH  60  63
ENDBRANCH  57  60
ENDBRANCH  54  57
ENDBRANCH  51  54
ENDBRANCH  49  51
ENDBRANCH   1  49
TORSDOF 17
