REMARK  18 active torsions:
REMARK  status: ('A' for Active; 'I' for Inactive)
REMARK    1  A    between atoms: C03_1  and  C04_2 
REMARK    2  A    between atoms: S02_33  and  C03_1 
REMARK    3  A    between atoms: C04_2  and  C05_3 
REMARK    4  A    between atoms: C05_3  and  C06_4 
REMARK    5  A    between atoms: C06_4  and  C07_5 
REMARK    6  A    between atoms: C07_5  and  C08_6 
REMARK    7  A    between atoms: C08_6  and  C09_7 
REMARK    8  A    between atoms: C09_7  and  C10_8 
REMARK    9  A    between atoms: C12_9  and  C13_10 
REMARK   10  A    between atoms: C12_9  and  C20_17 
REMARK   11  A    between atoms: N11_25  and  C12_9 
REMARK   12  A    between atoms: C13_10  and  C14_11 
REMARK       I    between atoms: C20_17  and  N21_26 
REMARK   13  A    between atoms: C22_18  and  C23_19 
REMARK   14  A    between atoms: C22_18  and  C30_24 
REMARK   15  A    between atoms: N21_26  and  C22_18 
REMARK   16  A    between atoms: C23_19  and  C24_20 
REMARK   17  A    between atoms: C30_24  and  O31_30 
REMARK   18  A    between atoms: N11_25  and  S02_33 
ROOT
ATOM      1  C12 N40 d   1       9.599  11.907  -8.572  0.00  0.00     0.097 C 
ATOM      2  H18 N40 d   1       8.593  11.720  -8.975  0.00  0.00     0.088 H 
ENDROOT
BRANCH   1   3
ATOM      3  C13 N40 d   1       9.469  12.717  -7.296  0.00  0.00    -0.034 C 
ATOM      4  H19 N40 d   1       9.073  13.710  -7.554  0.00  0.00     0.037 H 
ATOM      5  H20 N40 d   1      10.469  12.826  -6.850  0.00  0.00     0.037 H 
BRANCH   3   6
ATOM      6  C14 N40 d   1       8.550  12.087  -6.265  0.00  0.00    -0.052 C 
ATOM      7  C15 N40 d   1       7.142  12.010  -6.852  0.00  0.00    -0.062 C 
ATOM      8  C16 N40 d   1       6.090  11.633  -5.805  0.00  0.00    -0.065 C 
ATOM      9  H22 N40 d   1       7.133  11.252  -7.649  0.00  0.00     0.033 H 
ATOM     10  H23 N40 d   1       6.882  12.991  -7.276  0.00  0.00     0.033 H 
ATOM     11  C17 N40 d   1       6.186  12.502  -4.550  0.00  0.00    -0.065 C 
ATOM     12  H24 N40 d   1       6.236  10.581  -5.519  0.00  0.00     0.033 H 
ATOM     13  H25 N40 d   1       5.090  11.758  -6.247  0.00  0.00     0.033 H 
ATOM     14  C18 N40 d   1       7.594  12.531  -3.967  0.00  0.00    -0.065 C 
ATOM     15  H26 N40 d   1       5.498  12.102  -3.791  0.00  0.00     0.033 H 
ATOM     16  H27 N40 d   1       5.890  13.529  -4.809  0.00  0.00     0.033 H 
ATOM     17  C19 N40 d   1       8.628  12.955  -5.001  0.00  0.00    -0.062 C 
ATOM     18  H28 N40 d   1       7.848  11.525  -3.602  0.00  0.00     0.033 H 
ATOM     19  H29 N40 d   1       7.617  13.243  -3.128  0.00  0.00     0.033 H 
ATOM     20  H30 N40 d   1       8.448  14.005  -5.277  0.00  0.00     0.033 H 
ATOM     21  H31 N40 d   1       9.632  12.858  -4.562  0.00  0.00     0.033 H 
ATOM     22  H21 N40 d   1       8.892  11.069  -6.026  0.00  0.00     0.040 H 
ENDBRANCH   3   6
ENDBRANCH   1   3
BRANCH   1  23
ATOM     23  C20 N40 d   1      10.380  12.742  -9.572  0.00  0.00     0.241 C 
ATOM     24  N21 N40 d   1       9.594  13.584 -10.453  0.00  0.00    -0.353 N 
ATOM     25  H43 N40 d   1       8.597  13.604 -10.373  0.00  0.00     0.163 HD
ATOM     26  O32 N40 d   1      11.561  12.705  -9.629  0.00  0.00    -0.271 OA
BRANCH  24  27
ATOM     27  C22 N40 d   1      10.261  14.393 -11.447  0.00  0.00     0.033 C 
ATOM     28  H32 N40 d   1      11.351  14.292 -11.334  0.00  0.00     0.075 H 
BRANCH  27  29
ATOM     29  C23 N40 d   1       9.827  13.886 -12.831  0.00  0.00    -0.033 C 
ATOM     30  H33 N40 d   1      10.339  14.493 -13.592  0.00  0.00     0.037 H 
ATOM     31  H34 N40 d   1       8.740  14.028 -12.919  0.00  0.00     0.037 H 
BRANCH  29  32
ATOM     32  C24 N40 d   1      10.137  12.411 -13.115  0.00  0.00     0.027 C 
ATOM     33  C25 N40 d   1       9.952  12.104 -14.536  0.00  0.00     0.221 C 
ATOM     34  N26 N40 d   1      11.075  11.181 -14.961  0.00  0.00    -0.361 N 
ATOM     35  O29 N40 d   1       9.069  12.522 -15.215  0.00  0.00    -0.273 OA
ATOM     36  C27 N40 d   1      11.934  10.946 -13.830  0.00  0.00    -0.004 C 
ATOM     37  H44 N40 d   1      11.199  10.798 -15.876  0.00  0.00     0.162 HD
ATOM     38  C28 N40 d   1      11.573  12.041 -12.788  0.00  0.00    -0.039 C 
ATOM     39  H36 N40 d   1      11.752   9.945 -13.412  0.00  0.00     0.064 H 
ATOM     40  H37 N40 d   1      12.990  11.033 -14.127  0.00  0.00     0.064 H 
ATOM     41  H38 N40 d   1      11.650  11.646 -11.764  0.00  0.00     0.036 H 
ATOM     42  H39 N40 d   1      12.234  12.914 -12.895  0.00  0.00     0.036 H 
ATOM     43  H35 N40 d   1       9.457  11.792 -12.512  0.00  0.00     0.054 H 
ENDBRANCH  29  32
ENDBRANCH  27  29
BRANCH  27  44
ATOM     44  C30 N40 d   1       9.872  15.865 -11.311  0.00  0.00     0.035 C 
ATOM     45  H40 N40 d   1       8.776  15.961 -11.323  0.00  0.00     0.077 H 
ATOM     46  H41 N40 d   1      10.299  16.439 -12.146  0.00  0.00     0.077 H 
BRANCH  44  47
ATOM     47  O31 N40 d   1      10.371  16.349 -10.107  0.00  0.00    -0.399 OA
ATOM     48  H45 N40 d   1      10.001  15.849  -9.389  0.00  0.00     0.209 HD
ENDBRANCH  44  47
ENDBRANCH  27  44
ENDBRANCH  24  27
ENDBRANCH   1  23
BRANCH   1  49
ATOM     49  N11 N40 d   1      10.233  10.626  -8.342  0.00  0.00    -0.306 N 
ATOM     50  H42 N40 d   1      10.716  10.441  -7.486  0.00  0.00     0.173 HD
BRANCH  49  51
ATOM     51  S02 N40 d   1      10.137   9.444  -9.561  0.00  0.00     0.227 S 
ATOM     52  O01 N40 d   1       9.318   9.930 -10.670  0.00  0.00    -0.206 OA
ATOM     53  O33 N40 d   1      11.430   9.273 -10.183  0.00  0.00    -0.206 OA
BRANCH  51  54
ATOM     54  C03 N40 d   1       9.619   7.859  -8.846  0.00  0.00     0.046 C 
ATOM     55  H1  N40 d   1      10.485   7.409  -8.339  0.00  0.00     0.058 H 
ATOM     56  H2  N40 d   1       8.824   8.054  -8.111  0.00  0.00     0.058 H 
BRANCH  54  57
ATOM     57  C04 N40 d   1       9.090   6.860  -9.870  0.00  0.00    -0.051 C 
ATOM     58  H3  N40 d   1       9.264   5.843  -9.490  0.00  0.00     0.034 H 
ATOM     59  H4  N40 d   1       9.641   6.999 -10.812  0.00  0.00     0.034 H 
BRANCH  57  60
ATOM     60  C05 N40 d   1       7.604   7.026 -10.148  0.00  0.00    -0.064 C 
ATOM     61  H5  N40 d   1       7.487   7.593 -11.083  0.00  0.00     0.033 H 
ATOM     62  H6  N40 d   1       7.156   7.592  -9.318  0.00  0.00     0.033 H 
BRANCH  60  63
ATOM     63  C06 N40 d   1       6.856   5.702 -10.289  0.00  0.00    -0.065 C 
ATOM     64  H7  N40 d   1       6.865   5.181  -9.320  0.00  0.00     0.033 H 
ATOM     65  H8  N40 d   1       7.364   5.083 -11.043  0.00  0.00     0.033 H 
BRANCH  63  66
ATOM     66  C07 N40 d   1       5.397   5.922 -10.724  0.00  0.00    -0.065 C 
ATOM     67  H9  N40 d   1       5.394   6.244 -11.776  0.00  0.00     0.033 H 
ATOM     68  H10 N40 d   1       4.964   6.715 -10.096  0.00  0.00     0.033 H 
BRANCH  66  69
ATOM     69  C08 N40 d   1       4.521   4.679 -10.600  0.00  0.00    -0.065 C 
ATOM     70  H11 N40 d   1       4.283   4.513  -9.539  0.00  0.00     0.033 H 
ATOM     71  H12 N40 d   1       5.072   3.812 -10.992  0.00  0.00     0.033 H 
BRANCH  69  72
ATOM     72  C09 N40 d   1       3.224   4.836 -11.380  0.00  0.00    -0.069 C 
ATOM     73  H13 N40 d   1       3.446   4.729 -12.452  0.00  0.00     0.032 H 
ATOM     74  H14 N40 d   1       2.820   5.841 -11.187  0.00  0.00     0.032 H 
BRANCH  72  75
ATOM     75  C10 N40 d   1       2.167   3.807 -10.999  0.00  0.00    -0.077 C 
ATOM     76  H15 N40 d   1       1.259   3.976 -11.597  0.00  0.00     0.027 H 
ATOM     77  H16 N40 d   1       1.926   3.907  -9.930  0.00  0.00     0.027 H 
ATOM     78  H17 N40 d   1       2.552   2.796 -11.195  0.00  0.00     0.027 H 
ENDBRANCH  72  75
ENDBRANCH  69  72
ENDBRANCH  66  69
ENDBRANCH  63  66
ENDBRANCH  60  63
ENDBRANCH  57  60
ENDBRANCH  54  57
ENDBRANCH  51  54
ENDBRANCH  49  51
ENDBRANCH   1  49
TORSDOF 18
