REMARK WARNING: 32 MAX_TORS EXCEEDED!!!
REMARK  59 active torsions:
REMARK  status: ('A' for Active; 'I' for Inactive)
REMARK    1  A    between atoms: N_1  and  CA_2 
REMARK    2  A    between atoms: CA_2  and  C_3 
REMARK    3  A    between atoms: CA_2  and  CB_5 
REMARK       I    between atoms: C_3  and  N_10 
REMARK    4  A    between atoms: CB_5  and  CG_6 
REMARK    5  A    between atoms: CG_6  and  CD_7 
REMARK       I    between atoms: CD_7  and  NE2_9 
REMARK    6  A    between atoms: N_10  and  CA_11 
REMARK    7  A    between atoms: CA_11  and  C_12 
REMARK    8  A    between atoms: CA_11  and  CB_14 
REMARK       I    between atoms: C_12  and  N_19 
REMARK    9  A    between atoms: CB_14  and  CG_15 
REMARK   10  A    between atoms: CG_15  and  CD_16 
REMARK       I    between atoms: CD_16  and  NE2_18 
REMARK   11  A    between atoms: N_19  and  CA_20 
REMARK   12  A    between atoms: CA_20  and  C_21 
REMARK   13  A    between atoms: CA_20  and  CB_23 
REMARK       I    between atoms: C_21  and  N_27 
REMARK   14  A    between atoms: CB_23  and  CG_24 
REMARK   15  A    between atoms: CG_24  and  CD1_25 
REMARK   16  A    between atoms: CG_24  and  CD2_26 
REMARK   17  A    between atoms: N_27  and  CA_28 
REMARK   18  A    between atoms: CA_28  and  C_29 
REMARK   19  A    between atoms: CA_28  and  CB_31 
REMARK       I    between atoms: C_29  and  N_35 
REMARK   20  A    between atoms: CB_31  and  CG_32 
REMARK   21  A    between atoms: CG_32  and  CD1_33 
REMARK   22  A    between atoms: CG_32  and  CD2_34 
REMARK   23  A    between atoms: N_35  and  CA_36 
REMARK   24  A    between atoms: CA_36  and  C_37 
REMARK   25  A    between atoms: CA_36  and  CB_39 
REMARK       I    between atoms: C_37  and  N_44 
REMARK   26  A    between atoms: CB_39  and  CG_40 
REMARK   27  A    between atoms: CG_40  and  CD_41 
REMARK   28  A    between atoms: CD_41  and  CE_42 
REMARK   29  A    between atoms: CE_42  and  NZ_43 
REMARK   30  A    between atoms: N_44  and  CA_45 
REMARK   31  A    between atoms: CA_45  and  C_46 
REMARK       I    between atoms: C_46  and  N_48 
REMARK   32  A    between atoms: N_48  and  CA_49 
REMARK   33  A    between atoms: CA_49  and  C_50 
REMARK   34  A    between atoms: CA_49  and  CB_52 
REMARK       I    between atoms: C_50  and  N_56 
REMARK   35  A    between atoms: CB_52  and  CG_53 
REMARK   36  A    between atoms: CG_53  and  CD1_54 
REMARK   37  A    between atoms: CG_53  and  CD2_55 
REMARK   38  A    between atoms: N_56  and  CA_57 
REMARK   39  A    between atoms: CA_57  and  C_58 
REMARK   40  A    between atoms: CA_57  and  CB_60 
REMARK       I    between atoms: C_58  and  N_62 
REMARK   41  A    between atoms: CB_60  and  OG_61 
REMARK   42  A    between atoms: N_62  and  CA_63 
REMARK   43  A    between atoms: CA_63  and  C_64 
REMARK   44  A    between atoms: CA_63  and  CB_66 
REMARK       I    between atoms: C_64  and  N_70 
REMARK   45  A    between atoms: CB_66  and  CG_67 
REMARK   46  A    between atoms: CG_67  and  CD1_68 
REMARK   47  A    between atoms: CG_67  and  CD2_69 
REMARK   48  A    between atoms: N_70  and  CA_71 
REMARK   49  A    between atoms: CA_71  and  C_72 
REMARK   50  A    between atoms: CA_71  and  CB_74 
REMARK       I    between atoms: C_72  and  N_76 
REMARK   51  A    between atoms: CB_74  and  OG_75 
REMARK   52  A    between atoms: N_76  and  CA_77 
REMARK   53  A    between atoms: CA_77  and  C_78 
REMARK   54  A    between atoms: CA_77  and  CB_80 
REMARK       I    between atoms: C_78  and  N_87 
REMARK   55  A    between atoms: CB_80  and  CG_81 
REMARK   56  A    between atoms: N_87  and  CA_88 
REMARK   57  A    between atoms: CA_88  and  C_89 
REMARK   58  A    between atoms: CA_88  and  CB_91 
REMARK   59  A    between atoms: CB_91  and  OG_92 
ROOT
ATOM      1  C   LYS d   1      -9.796  27.720 -17.164  0.00  0.00     0.240 C 
ATOM      2  O   LYS d   1     -10.963  27.583 -16.778  0.00  0.00    -0.271 OA
ATOM      3  N   GLY d   1      -9.458  27.625 -18.451  0.00  0.00    -0.351 N 
ATOM      4  H54 GLY d   1      -8.510  27.779 -18.731  0.00  0.00     0.163 HD
ENDROOT
BRANCH   3   5
ATOM      5  CA  GLY d   1     -10.465  27.298 -19.447  0.00  0.00     0.069 C 
ATOM      6  H55 GLY d   1     -10.007  27.359 -20.445  0.00  0.00     0.078 H 
ATOM      7  H56 GLY d   1     -11.283  28.029 -19.374  0.00  0.00     0.078 H 
BRANCH   5   8
ATOM      8  C   GLY d   1     -11.039  25.906 -19.260  0.00  0.00     0.236 C 
ATOM      9  O   GLY d   1     -12.240  25.689 -19.441  0.00  0.00    -0.272 OA
ATOM     10  N   LEU d   1     -10.187  24.939 -18.907  0.00  0.00    -0.346 N 
ATOM     11  H57 LEU d   1      -9.212  25.145 -18.824  0.00  0.00     0.163 HD
BRANCH  10  12
ATOM     12  CA  LEU d   1     -10.663  23.585 -18.641  0.00  0.00     0.089 C 
ATOM     13  H58 LEU d   1     -11.244  23.245 -19.511  0.00  0.00     0.087 H 
BRANCH  12  14
ATOM     14  C   LEU d   1     -11.567  23.543 -17.416  0.00  0.00     0.241 C 
ATOM     15  O   LEU d   1     -12.565  22.813 -17.402  0.00  0.00    -0.271 OA
ATOM     16  N   SER d   1     -11.229  24.306 -16.371  0.00  0.00    -0.344 N 
ATOM     17  H68 SER d   1     -10.397  24.860 -16.409  0.00  0.00     0.163 HD
BRANCH  16  18
ATOM     18  CA  SER d   1     -12.067  24.336 -15.174  0.00  0.00     0.109 C 
ATOM     19  H69 SER d   1     -12.223  23.299 -14.841  0.00  0.00     0.090 H 
BRANCH  18  20
ATOM     20  C   SER d   1     -13.435  24.948 -15.469  0.00  0.00     0.243 C 
ATOM     21  O   SER d   1     -14.460  24.428 -15.014  0.00  0.00    -0.271 OA
ATOM     22  N   LEU d   1     -13.474  26.051 -16.230  0.00  0.00    -0.346 N 
ATOM     23  H73 LEU d   1     -12.621  26.462 -16.553  0.00  0.00     0.163 HD
BRANCH  22  24
ATOM     24  CA  LEU d   1     -14.757  26.658 -16.592  0.00  0.00     0.089 C 
ATOM     25  H74 LEU d   1     -15.296  26.901 -15.665  0.00  0.00     0.087 H 
BRANCH  24  26
ATOM     26  C   LEU d   1     -15.611  25.694 -17.407  0.00  0.00     0.241 C 
ATOM     27  O   LEU d   1     -16.838  25.660 -17.255  0.00  0.00    -0.271 OA
ATOM     28  N   SER d   1     -14.979  24.913 -18.290  0.00  0.00    -0.344 N 
ATOM     29  H84 SER d   1     -13.988  24.991 -18.395  0.00  0.00     0.163 HD
BRANCH  28  30
ATOM     30  CA  SER d   1     -15.716  23.948 -19.103  0.00  0.00     0.109 C 
ATOM     31  H85 SER d   1     -16.588  24.459 -19.537  0.00  0.00     0.090 H 
BRANCH  30  32
ATOM     32  C   SER d   1     -16.218  22.777 -18.265  0.00  0.00     0.243 C 
ATOM     33  O   SER d   1     -17.370  22.351 -18.413  0.00  0.00    -0.271 OA
ATOM     34  N   PHE d   1     -15.368  22.235 -17.390  0.00  0.00    -0.346 N 
ATOM     35  H89 PHE d   1     -14.438  22.595 -17.313  0.00  0.00     0.163 HD
BRANCH  34  36
ATOM     36  CA  PHE d   1     -15.785  21.122 -16.545  0.00  0.00     0.093 C 
ATOM     37  H90 PHE d   1     -16.188  20.331 -17.195  0.00  0.00     0.088 H 
BRANCH  36  38
ATOM     38  C   PHE d   1     -16.876  21.529 -15.555  0.00  0.00     0.241 C 
ATOM     39  O   PHE d   1     -17.724  20.703 -15.200  0.00  0.00    -0.271 OA
ATOM     40  N   SER d   1     -16.876  22.784 -15.101  0.00  0.00    -0.343 N 
ATOM     41  H98 SER d   1     -16.265  23.452 -15.526  0.00  0.00     0.163 HD
BRANCH  40  42
ATOM     42  CA  SER d   1     -17.743  23.216 -14.000  0.00  0.00     0.116 C 
ATOM     43  H99 SER d   1     -17.456  22.646 -13.104  0.00  0.00     0.093 H 
BRANCH  42  44
ATOM     44  C   SER d   1     -19.231  22.965 -14.258  0.00  0.00     0.198 C 
ATOM     45  O   SER d   1     -20.022  22.890 -13.310  0.00  0.00    -0.646 OA
ATOM     46  OXT SER d   1     -19.648  22.836 -15.415  0.00  0.00    -0.646 OA
ENDBRANCH  42  44
BRANCH  42  47
ATOM     47  CB  SER d   1     -17.520  24.706 -13.722  0.00  0.00     0.045 C 
ATOM     48 0H10 SER d   1     -17.925  25.291 -14.561  0.00  0.00     0.077 H 
ATOM     49 1H10 SER d   1     -16.440  24.895 -13.630  0.00  0.00     0.077 H 
BRANCH  47  50
ATOM     50  OG  SER d   1     -18.161  25.109 -12.528  0.00  0.00    -0.398 OA
ATOM     51 2H10 SER d   1     -19.095  24.952 -12.603  0.00  0.00     0.209 HD
ENDBRANCH  47  50
ENDBRANCH  42  47
ENDBRANCH  40  42
ENDBRANCH  36  38
BRANCH  36  52
ATOM     52  CB  PHE d   1     -14.582  20.562 -15.781  0.00  0.00    -0.014 C 
ATOM     53  H91 PHE d   1     -14.956  19.870 -15.012  0.00  0.00     0.043 H 
ATOM     54  H92 PHE d   1     -14.061  21.402 -15.297  0.00  0.00     0.043 H 
BRANCH  52  55
ATOM     55  CG  PHE d   1     -13.582  19.818 -16.640  0.00  0.00    -0.056 A 
ATOM     56  CD1 PHE d   1     -13.959  19.187 -17.816  0.00  0.00    -0.077 A 
ATOM     57  CE1 PHE d   1     -13.030  18.503 -18.583  0.00  0.00    -0.082 A 
ATOM     58  H93 PHE d   1     -14.993  19.230 -18.139  0.00  0.00     0.084 H 
ATOM     59  CZ  PHE d   1     -11.721  18.441 -18.185  0.00  0.00    -0.083 A 
ATOM     60  H95 PHE d   1     -13.340  18.016 -19.500  0.00  0.00     0.083 H 
ATOM     61  CE2 PHE d   1     -11.330  19.055 -17.021  0.00  0.00    -0.082 A 
ATOM     62  H97 PHE d   1     -10.995  17.908 -18.788  0.00  0.00     0.083 H 
ATOM     63  CD2 PHE d   1     -12.258  19.739 -16.251  0.00  0.00    -0.077 A 
ATOM     64  H96 PHE d   1     -10.295  19.005 -16.704  0.00  0.00     0.083 H 
ATOM     65  H94 PHE d   1     -11.941  20.218 -15.332  0.00  0.00     0.084 H 
ENDBRANCH  52  55
ENDBRANCH  36  52
ENDBRANCH  34  36
ENDBRANCH  30  32
BRANCH  30  66
ATOM     66  CB  SER d   1     -14.835  23.439 -20.243  0.00  0.00     0.044 C 
ATOM     67  H86 SER d   1     -13.830  23.223 -19.852  0.00  0.00     0.077 H 
ATOM     68  H87 SER d   1     -14.767  24.215 -21.020  0.00  0.00     0.077 H 
BRANCH  66  69
ATOM     69  OG  SER d   1     -15.376  22.258 -20.812  0.00  0.00    -0.398 OA
ATOM     70  H88 SER d   1     -14.813  21.961 -21.517  0.00  0.00     0.209 HD
ENDBRANCH  66  69
ENDBRANCH  30  66
ENDBRANCH  28  30
ENDBRANCH  24  26
BRANCH  24  71
ATOM     71  CB  LEU d   1     -14.542  27.951 -17.382  0.00  0.00    -0.035 C 
ATOM     72  H75 LEU d   1     -15.512  28.214 -17.830  0.00  0.00     0.037 H 
ATOM     73  H76 LEU d   1     -13.821  27.719 -18.180  0.00  0.00     0.037 H 
BRANCH  71  74
ATOM     74  CG  LEU d   1     -14.028  29.207 -16.675  0.00  0.00    -0.059 C 
ATOM     75  H77 LEU d   1     -13.036  28.987 -16.253  0.00  0.00     0.038 H 
BRANCH  74  76
ATOM     76  CD1 LEU d   1     -13.890  30.326 -17.695  0.00  0.00    -0.073 C 
ATOM     77  H78 LEU d   1     -13.521  31.234 -17.196  0.00  0.00     0.028 H 
ATOM     78  H79 LEU d   1     -14.870  30.531 -18.150  0.00  0.00     0.028 H 
ATOM     79  H80 LEU d   1     -13.179  30.023 -18.478  0.00  0.00     0.028 H 
ENDBRANCH  74  76
BRANCH  74  80
ATOM     80  CD2 LEU d   1     -14.944  29.644 -15.533  0.00  0.00    -0.073 C 
ATOM     81  H81 LEU d   1     -15.035  28.826 -14.803  0.00  0.00     0.028 H 
ATOM     82  H82 LEU d   1     -15.938  29.890 -15.934  0.00  0.00     0.028 H 
ATOM     83  H83 LEU d   1     -14.518  30.530 -15.040  0.00  0.00     0.028 H 
ENDBRANCH  74  80
ENDBRANCH  71  74
ENDBRANCH  24  71
ENDBRANCH  22  24
ENDBRANCH  18  20
BRANCH  18  84
ATOM     84  CB  SER d   1     -11.366  25.100 -14.046  0.00  0.00     0.044 C 
ATOM     85  H70 SER d   1     -10.356  24.686 -13.910  0.00  0.00     0.077 H 
ATOM     86  H71 SER d   1     -11.943  24.972 -13.118  0.00  0.00     0.077 H 
BRANCH  84  87
ATOM     87  OG  SER d   1     -11.258  26.485 -14.330  0.00  0.00    -0.398 OA
ATOM     88  H72 SER d   1     -10.756  26.605 -15.127  0.00  0.00     0.209 HD
ENDBRANCH  84  87
ENDBRANCH  18  84
ENDBRANCH  16  18
ENDBRANCH  12  14
BRANCH  12  89
ATOM     89  CB  LEU d   1      -9.476  22.643 -18.451  0.00  0.00    -0.035 C 
ATOM     90  H59 LEU d   1      -9.850  21.720 -17.984  0.00  0.00     0.037 H 
ATOM     91  H60 LEU d   1      -8.762  23.134 -17.773  0.00  0.00     0.037 H 
BRANCH  89  92
ATOM     92  CG  LEU d   1      -8.721  22.252 -19.719  0.00  0.00    -0.059 C 
ATOM     93  H61 LEU d   1      -8.501  23.165 -20.292  0.00  0.00     0.038 H 
BRANCH  92  94
ATOM     94  CD1 LEU d   1      -7.400  21.582 -19.352  0.00  0.00    -0.073 C 
ATOM     95  H62 LEU d   1      -6.862  21.304 -20.270  0.00  0.00     0.028 H 
ATOM     96  H63 LEU d   1      -7.600  20.679 -18.756  0.00  0.00     0.028 H 
ATOM     97  H64 LEU d   1      -6.785  22.280 -18.765  0.00  0.00     0.028 H 
ENDBRANCH  92  94
BRANCH  92  98
ATOM     98  CD2 LEU d   1      -9.575  21.337 -20.585  0.00  0.00    -0.073 C 
ATOM     99  H65 LEU d   1     -10.519  21.844 -20.834  0.00  0.00     0.028 H 
ATOM    100  H66 LEU d   1      -9.791  20.409 -20.036  0.00  0.00     0.028 H 
ATOM    101  H67 LEU d   1      -9.032  21.097 -21.511  0.00  0.00     0.028 H 
ENDBRANCH  92  98
ENDBRANCH  89  92
ENDBRANCH  12  89
ENDBRANCH  10  12
ENDBRANCH   5   8
ENDBRANCH   3   5
BRANCH   1 102
ATOM    102  CA  LYS d   1      -8.684  28.030 -16.169  0.00  0.00     0.089 C 
ATOM    103  H42 LYS d   1      -9.039  27.767 -15.162  0.00  0.00     0.087 H 
BRANCH 102 104
ATOM    104  N   LYS d   1      -7.489  27.242 -16.455  0.00  0.00    -0.346 N 
ATOM    105  C   LEU d   1      -7.545  25.907 -16.454  0.00  0.00     0.241 C 
ATOM    106  O   LEU d   1      -8.581  25.291 -16.176  0.00  0.00    -0.271 OA
ATOM    107  H41 LYS d   1      -6.624  27.704 -16.653  0.00  0.00     0.163 HD
BRANCH 105 108
ATOM    108  CA  LEU d   1      -6.272  25.149 -16.811  0.00  0.00     0.089 C 
ATOM    109  H31 LEU d   1      -6.557  24.157 -17.190  0.00  0.00     0.087 H 
BRANCH 108 110
ATOM    110  N   LEU d   1      -5.530  25.841 -17.859  0.00  0.00    -0.346 N 
ATOM    111  C   LEU d   1      -6.064  25.947 -19.078  0.00  0.00     0.241 C 
ATOM    112  O   LEU d   1      -7.150  25.428 -19.363  0.00  0.00    -0.271 OA
ATOM    113  H30 LEU d   1      -4.630  26.232 -17.666  0.00  0.00     0.163 HD
BRANCH 111 114
ATOM    114  CA  LEU d   1      -5.304  26.759 -20.120  0.00  0.00     0.089 C 
ATOM    115  H20 LEU d   1      -6.008  27.020 -20.924  0.00  0.00     0.087 H 
BRANCH 114 116
ATOM    116  N   LEU d   1      -4.791  27.997 -19.549  0.00  0.00    -0.346 N 
ATOM    117  C   GLN d   1      -5.642  28.979 -19.251  0.00  0.00     0.241 C 
ATOM    118  O   GLN d   1      -6.856  28.881 -19.462  0.00  0.00    -0.271 OA
ATOM    119  H19 LEU d   1      -3.811  28.109 -19.382  0.00  0.00     0.163 HD
BRANCH 117 120
ATOM    120  CA  GLN d   1      -5.097  30.261 -18.639  0.00  0.00     0.090 C 
ATOM    121  H12 GLN d   1      -5.817  30.607 -17.882  0.00  0.00     0.087 H 
BRANCH 120 122
ATOM    122  N   GLN d   1      -3.810  30.075 -17.975  0.00  0.00    -0.346 N 
ATOM    123  C   GLN d   1      -3.740  29.475 -16.782  0.00  0.00     0.249 C 
ATOM    124  O   GLN d   1      -4.695  28.886 -16.273  0.00  0.00    -0.271 OA
ATOM    125  H11 GLN d   1      -2.973  30.399 -18.416  0.00  0.00     0.163 HD
BRANCH 123 126
ATOM    126  CA  GLN d   1      -2.392  29.535 -16.061  0.00  0.00     0.176 C 
ATOM    127  H4  GLN d   1      -2.169  28.535 -15.661  0.00  0.00     0.099 H 
BRANCH 126 128
ATOM    128  N   GLN d   1      -1.315  29.913 -16.968  0.00  0.00    -0.066 N 
ATOM    129  H1  GLN d   1      -0.444  29.943 -16.461  0.00  0.00     0.275 HD
ATOM    130  H2  GLN d   1      -1.508  30.822 -17.358  0.00  0.00     0.275 HD
ATOM    131  H3  GLN d   1      -1.248  29.235 -17.711  0.00  0.00     0.275 HD
ENDBRANCH 126 128
BRANCH 126 132
ATOM    132  CB  GLN d   1      -2.476  30.522 -14.889  0.00  0.00    -0.022 C 
ATOM    133  H5  GLN d   1      -3.424  30.347 -14.360  0.00  0.00     0.037 H 
ATOM    134  H6  GLN d   1      -2.468  31.543 -15.299  0.00  0.00     0.037 H 
BRANCH 132 135
ATOM    135  CG  GLN d   1      -1.341  30.405 -13.881  0.00  0.00     0.011 C 
ATOM    136  H7  GLN d   1      -1.339  31.303 -13.246  0.00  0.00     0.047 H 
ATOM    137  H8  GLN d   1      -0.389  30.340 -14.428  0.00  0.00     0.047 H 
BRANCH 135 138
ATOM    138  CD  GLN d   1      -1.476  29.182 -12.993  0.00  0.00     0.215 C 
ATOM    139  OE1 GLN d   1      -0.739  28.207 -13.145  0.00  0.00    -0.274 OA
ATOM    140  NE2 GLN d   1      -2.422  29.226 -12.058  0.00  0.00    -0.370 N 
ATOM    141  H9  GLN d   1      -2.555  28.448 -11.445  0.00  0.00     0.159 HD
ATOM    142  H10 GLN d   1      -2.999  30.038 -11.969  0.00  0.00     0.159 HD
ENDBRANCH 135 138
ENDBRANCH 132 135
ENDBRANCH 126 132
ENDBRANCH 123 126
ENDBRANCH 120 122
BRANCH 120 143
ATOM    143  CB  GLN d   1      -4.984  31.334 -19.725  0.00  0.00    -0.030 C 
ATOM    144  H13 GLN d   1      -5.946  31.391 -20.255  0.00  0.00     0.037 H 
ATOM    145  H14 GLN d   1      -4.195  31.031 -20.429  0.00  0.00     0.037 H 
BRANCH 143 146
ATOM    146  CG  GLN d   1      -4.646  32.724 -19.196  0.00  0.00     0.011 C 
ATOM    147  H15 GLN d   1      -4.892  33.464 -19.972  0.00  0.00     0.047 H 
ATOM    148  H16 GLN d   1      -3.568  32.764 -18.979  0.00  0.00     0.047 H 
BRANCH 146 149
ATOM    149  CD  GLN d   1      -5.410  33.077 -17.929  0.00  0.00     0.215 C 
ATOM    150  OE1 GLN d   1      -4.864  33.019 -16.825  0.00  0.00    -0.274 OA
ATOM    151  NE2 GLN d   1      -6.677  33.441 -18.082  0.00  0.00    -0.370 N 
ATOM    152  H17 GLN d   1      -7.227  33.684 -17.283  0.00  0.00     0.159 HD
ATOM    153  H18 GLN d   1      -7.081  33.472 -18.996  0.00  0.00     0.159 HD
ENDBRANCH 146 149
ENDBRANCH 143 146
ENDBRANCH 120 143
ENDBRANCH 117 120
ENDBRANCH 114 116
BRANCH 114 154
ATOM    154  CB  LEU d   1      -4.164  25.948 -20.733  0.00  0.00    -0.035 C 
ATOM    155  H21 LEU d   1      -4.554  24.957 -21.007  0.00  0.00     0.037 H 
ATOM    156  H22 LEU d   1      -3.374  25.835 -19.976  0.00  0.00     0.037 H 
BRANCH 154 157
ATOM    157  CG  LEU d   1      -3.546  26.584 -21.981  0.00  0.00    -0.059 C 
ATOM    158  H23 LEU d   1      -3.240  27.609 -21.724  0.00  0.00     0.038 H 
BRANCH 157 159
ATOM    159  CD1 LEU d   1      -2.314  25.814 -22.418  0.00  0.00    -0.073 C 
ATOM    160  H24 LEU d   1      -1.885  26.286 -23.314  0.00  0.00     0.028 H 
ATOM    161  H25 LEU d   1      -2.593  24.775 -22.648  0.00  0.00     0.028 H 
ATOM    162  H26 LEU d   1      -1.570  25.823 -21.608  0.00  0.00     0.028 H 
ENDBRANCH 157 159
BRANCH 157 163
ATOM    163  CD2 LEU d   1      -4.548  26.663 -23.130  0.00  0.00    -0.073 C 
ATOM    164  H27 LEU d   1      -5.437  27.223 -22.803  0.00  0.00     0.028 H 
ATOM    165  H28 LEU d   1      -4.844  25.647 -23.429  0.00  0.00     0.028 H 
ATOM    166  H29 LEU d   1      -4.085  27.177 -23.985  0.00  0.00     0.028 H 
ENDBRANCH 157 163
ENDBRANCH 154 157
ENDBRANCH 114 154
ENDBRANCH 111 114
ENDBRANCH 108 110
BRANCH 108 167
ATOM    167  CB  LEU d   1      -5.402  24.956 -15.570  0.00  0.00    -0.035 C 
ATOM    168  H32 LEU d   1      -6.047  24.540 -14.782  0.00  0.00     0.037 H 
ATOM    169  H33 LEU d   1      -5.046  25.951 -15.264  0.00  0.00     0.037 H 
BRANCH 167 170
ATOM    170  CG  LEU d   1      -4.175  24.050 -15.675  0.00  0.00    -0.059 C 
ATOM    171  H34 LEU d   1      -3.308  24.677 -15.931  0.00  0.00     0.038 H 
BRANCH 170 172
ATOM    172  CD1 LEU d   1      -3.924  23.406 -14.325  0.00  0.00    -0.073 C 
ATOM    173  H35 LEU d   1      -3.042  22.751 -14.389  0.00  0.00     0.028 H 
ATOM    174  H36 LEU d   1      -4.802  22.811 -14.034  0.00  0.00     0.028 H 
ATOM    175  H37 LEU d   1      -3.745  24.189 -13.573  0.00  0.00     0.028 H 
ENDBRANCH 170 172
BRANCH 170 176
ATOM    176  CD2 LEU d   1      -4.315  22.988 -16.754  0.00  0.00    -0.073 C 
ATOM    177  H38 LEU d   1      -4.496  23.473 -17.724  0.00  0.00     0.028 H 
ATOM    178  H39 LEU d   1      -5.160  22.327 -16.511  0.00  0.00     0.028 H 
ATOM    179  H40 LEU d   1      -3.390  22.395 -16.808  0.00  0.00     0.028 H 
ENDBRANCH 170 176
ENDBRANCH 167 170
ENDBRANCH 108 167
ENDBRANCH 105 108
ENDBRANCH 102 104
BRANCH 102 180
ATOM    180  CB  LYS d   1      -8.352  29.522 -16.190  0.00  0.00    -0.038 C 
ATOM    181  H43 LYS d   1      -7.675  29.717 -17.035  0.00  0.00     0.036 H 
ATOM    182  H44 LYS d   1      -7.846  29.780 -15.248  0.00  0.00     0.036 H 
BRANCH 180 183
ATOM    183  CG  LYS d   1      -9.582  30.415 -16.339  0.00  0.00    -0.061 C 
ATOM    184  H45 LYS d   1     -10.337  30.102 -15.603  0.00  0.00     0.033 H 
ATOM    185  H46 LYS d   1      -9.987  30.292 -17.355  0.00  0.00     0.033 H 
BRANCH 183 186
ATOM    186  CD  LYS d   1      -9.263  31.888 -16.115  0.00  0.00    -0.043 C 
ATOM    187  H47 LYS d   1      -8.422  32.176 -16.762  0.00  0.00     0.035 H 
ATOM    188  H48 LYS d   1      -8.984  32.039 -15.062  0.00  0.00     0.035 H 
BRANCH 186 189
ATOM    189  CE  LYS d   1     -10.471  32.767 -16.444  0.00  0.00     0.080 C 
ATOM    190  H49 LYS d   1     -10.584  32.812 -17.537  0.00  0.00     0.075 H 
ATOM    191  H50 LYS d   1     -10.285  33.778 -16.053  0.00  0.00     0.075 H 
BRANCH 189 192
ATOM    192  NZ  LYS d   1     -11.750  32.254 -15.852  0.00  0.00    -0.079 N 
ATOM    193  H51 LYS d   1     -12.507  32.871 -16.101  0.00  0.00     0.274 HD
ATOM    194  H52 LYS d   1     -11.664  32.216 -14.848  0.00  0.00     0.274 HD
ATOM    195  H53 LYS d   1     -11.938  31.330 -16.208  0.00  0.00     0.274 HD
ENDBRANCH 189 192
ENDBRANCH 186 189
ENDBRANCH 183 186
ENDBRANCH 180 183
ENDBRANCH 102 180
ENDBRANCH   1 102
TORSDOF 59
