REMARK  20 active torsions:
REMARK  status: ('A' for Active; 'I' for Inactive)
REMARK    1  A    between atoms: N_1  and  CA_2 
REMARK    2  A    between atoms: CA_2  and  C_3 
REMARK    3  A    between atoms: CA_2  and  CB_5 
REMARK       I    between atoms: C_3  and  N_9 
REMARK    4  A    between atoms: CB_5  and  CG_6 
REMARK    5  A    between atoms: N_9  and  CA_10 
REMARK    6  A    between atoms: CA_10  and  C_11 
REMARK    7  A    between atoms: CA_10  and  CB_13 
REMARK       I    between atoms: C_11  and  N_16 
REMARK    8  A    between atoms: CB_13  and  OG1_14 
REMARK    9  A    between atoms: CB_13  and  CG2_15 
REMARK   10  A    between atoms: N_16  and  CA_17 
REMARK   11  A    between atoms: CA_17  and  C_18 
REMARK   12  A    between atoms: CA_17  and  CB_20 
REMARK       I    between atoms: C_18  and  N_27 
REMARK   13  A    between atoms: CB_20  and  CG_21 
REMARK   14  A    between atoms: CG_21  and  CD_22 
REMARK   15  A    between atoms: CD_22  and  NE_23 
REMARK       I    between atoms: NE_23  and  CZ_24 
REMARK       I    between atoms: CZ_24  and  NH1_25 
REMARK   16  A    between atoms: CA_28  and  C_29 
REMARK       I    between atoms: C_29  and  N_34 
REMARK   17  A    between atoms: N_34  and  CA_35 
REMARK   18  A    between atoms: CA_35  and  C_36 
REMARK   19  A    between atoms: CA_35  and  CB_38 
REMARK       I    between atoms: C_36  and  N_39 
REMARK   20  A    between atoms: CA_40  and  C_41 
ROOT
ATOM      1  CA  ARG d   1      67.118  61.083  52.023  0.00  0.00     0.089 C 
ATOM      2  H15 ARG d   1      67.653  61.164  52.981  0.00  0.00     0.087 H 
ENDROOT
BRANCH   1   3
ATOM      3  N   ARG d   1      68.093  61.063  50.946  0.00  0.00    -0.346 N 
ATOM      4  C   THR d   1      69.054  60.150  50.965  0.00  0.00     0.243 C 
ATOM      5  O   THR d   1      69.148  59.307  51.860  0.00  0.00    -0.271 OA
ATOM      6  H14 ARG d   1      68.040  61.728  50.201  0.00  0.00     0.163 HD
BRANCH   4   7
ATOM      7  CA  THR d   1      70.053  60.195  49.816  0.00  0.00     0.113 C 
ATOM      8  H8  THR d   1      70.214  61.243  49.522  0.00  0.00     0.091 H 
BRANCH   7   9
ATOM      9  N   THR d   1      71.313  59.623  50.252  0.00  0.00    -0.344 N 
ATOM     10  C   ASP d   1      72.143  60.309  51.027  0.00  0.00     0.249 C 
ATOM     11  O   ASP d   1      71.988  61.502  51.270  0.00  0.00    -0.271 OA
ATOM     12  H7  THR d   1      71.560  58.698  49.964  0.00  0.00     0.163 HD
BRANCH  10  13
ATOM     13  CA  ASP d   1      73.318  59.525  51.598  0.00  0.00     0.185 C 
ATOM     14  H4  ASP d   1      72.932  58.816  52.345  0.00  0.00     0.100 H 
BRANCH  13  15
ATOM     15  N   ASP d   1      73.995  58.770  50.551  0.00  0.00    -0.066 N 
ATOM     16  H1  ASP d   1      74.767  58.260  50.950  0.00  0.00     0.275 HD
ATOM     17  H2  ASP d   1      74.339  59.405  49.848  0.00  0.00     0.275 HD
ATOM     18  H3  ASP d   1      73.347  58.123  50.131  0.00  0.00     0.275 HD
ENDBRANCH  13  15
BRANCH  13  19
ATOM     19  CB  ASP d   1      74.308  60.466  52.286  0.00  0.00     0.050 C 
ATOM     20  H5  ASP d   1      74.819  59.916  53.090  0.00  0.00     0.052 H 
ATOM     21  H6  ASP d   1      73.752  61.312  52.716  0.00  0.00     0.052 H 
BRANCH  19  22
ATOM     22  CG  ASP d   1      75.345  61.002  51.330  0.00  0.00     0.175 C 
ATOM     23  OD1 ASP d   1      75.222  60.733  50.119  0.00  0.00    -0.648 OA
ATOM     24  OD2 ASP d   1      76.278  61.695  51.788  0.00  0.00    -0.648 OA
ENDBRANCH  19  22
ENDBRANCH  13  19
ENDBRANCH  10  13
ENDBRANCH   7   9
BRANCH   7  25
ATOM     25  CB  THR d   1      69.524  59.418  48.613  0.00  0.00     0.060 C 
ATOM     26  H9  THR d   1      68.549  59.827  48.311  0.00  0.00     0.086 H 
BRANCH  25  27
ATOM     27  OG1 THR d   1      69.380  58.037  48.965  0.00  0.00    -0.393 OA
ATOM     28  H10 THR d   1      68.769  57.958  49.688  0.00  0.00     0.210 HD
ENDBRANCH  25  27
BRANCH  25  29
ATOM     29  CG2 THR d   1      70.507  59.536  47.459  0.00  0.00    -0.050 C 
ATOM     30  H11 THR d   1      70.125  58.976  46.593  0.00  0.00     0.031 H 
ATOM     31  H12 THR d   1      71.480  59.123  47.763  0.00  0.00     0.031 H 
ATOM     32  H13 THR d   1      70.627  60.595  47.187  0.00  0.00     0.031 H 
ENDBRANCH  25  29
ENDBRANCH   7  25
ENDBRANCH   4   7
ENDBRANCH   1   3
BRANCH   1  33
ATOM     33  C   ARG d   1      66.325  59.780  52.004  0.00  0.00     0.243 C 
ATOM     34  O   ARG d   1      65.813  59.387  50.946  0.00  0.00    -0.271 OA
ATOM     35  N   PRO d   1      66.181  59.096  53.136  0.00  0.00    -0.337 N 
ATOM     36  CA  PRO d   1      65.406  57.853  53.142  0.00  0.00     0.091 C 
ATOM     37  CD  PRO d   1      66.745  59.383  54.466  0.00  0.00    -0.001 C 
ATOM     38  CB  PRO d   1      65.705  57.261  54.522  0.00  0.00    -0.036 C 
ATOM     39  H27 PRO d   1      65.757  57.178  52.347  0.00  0.00     0.087 H 
ATOM     40  CG  PRO d   1      65.991  58.443  55.366  0.00  0.00    -0.048 C 
ATOM     41  H28 PRO d   1      66.576  56.591  54.479  0.00  0.00     0.036 H 
ATOM     42  H29 PRO d   1      64.836  56.708  54.907  0.00  0.00     0.036 H 
ATOM     43  H30 PRO d   1      66.606  58.160  56.233  0.00  0.00     0.035 H 
ATOM     44  H31 PRO d   1      65.056  58.906  55.714  0.00  0.00     0.035 H 
ATOM     45  H32 PRO d   1      66.569  60.430  54.752  0.00  0.00     0.064 H 
ATOM     46  H33 PRO d   1      67.824  59.173  54.491  0.00  0.00     0.064 H 
BRANCH  36  47
ATOM     47  C   PRO d   1      63.916  58.099  52.954  0.00  0.00     0.241 C 
ATOM     48  O   PRO d   1      63.374  59.147  53.315  0.00  0.00    -0.271 OA
ATOM     49  N   ALA d   1      63.255  57.101  52.381  0.00  0.00    -0.346 N 
ATOM     50  H34 ALA d   1      63.759  56.292  52.078  0.00  0.00     0.163 HD
BRANCH  49  51
ATOM     51  CA  ALA d   1      61.820  57.154  52.183  0.00  0.00     0.086 C 
ATOM     52  H35 ALA d   1      61.563  58.108  51.700  0.00  0.00     0.086 H 
BRANCH  51  53
ATOM     53  C   ALA d   1      61.096  57.069  53.526  0.00  0.00     0.243 C 
ATOM     54  O   ALA d   1      61.635  56.534  54.497  0.00  0.00    -0.271 OA
ATOM     55  N   PRO d   1      59.871  57.608  53.617  0.00  0.00    -0.336 N 
ATOM     56  CA  PRO d   1      59.140  57.517  54.883  0.00  0.00     0.098 C 
ATOM     57  CD  PRO d   1      59.114  58.392  52.627  0.00  0.00    -0.001 C 
ATOM     58  CB  PRO d   1      57.994  58.503  54.667  0.00  0.00    -0.035 C 
ATOM     59  H39 PRO d   1      59.783  57.848  55.712  0.00  0.00     0.089 H 
ATOM     60  CG  PRO d   1      57.729  58.445  53.223  0.00  0.00    -0.048 C 
ATOM     61  H40 PRO d   1      58.292  59.518  54.968  0.00  0.00     0.036 H 
ATOM     62  H41 PRO d   1      57.105  58.198  55.238  0.00  0.00     0.036 H 
ATOM     63  H42 PRO d   1      57.187  59.340  52.884  0.00  0.00     0.035 H 
ATOM     64  H43 PRO d   1      57.152  57.546  52.963  0.00  0.00     0.035 H 
ATOM     65  H44 PRO d   1      59.104  57.889  51.648  0.00  0.00     0.064 H 
ATOM     66  H45 PRO d   1      59.536  59.402  52.516  0.00  0.00     0.064 H 
BRANCH  56  67
ATOM     67  C   PRO d   1      58.619  56.122  55.213  0.00  0.00     0.196 C 
ATOM     68  O   PRO d   1      58.376  55.337  54.296  0.00  0.00    -0.646 OA
ATOM     69  OXT PRO d   1      58.450  55.805  56.391  0.00  0.00    -0.646 OA
ENDBRANCH  56  67
ENDBRANCH  51  53
BRANCH  51  70
ATOM     70  CB  ALA d   1      61.374  56.009  51.283  0.00  0.00    -0.049 C 
ATOM     71  H36 ALA d   1      60.285  56.059  51.139  0.00  0.00     0.030 H 
ATOM     72  H37 ALA d   1      61.639  55.050  51.752  0.00  0.00     0.030 H 
ATOM     73  H38 ALA d   1      61.877  56.092  50.308  0.00  0.00     0.030 H 
ENDBRANCH  51  70
ENDBRANCH  49  51
ENDBRANCH  36  47
ENDBRANCH   1  33
BRANCH   1  74
ATOM     74  CB  ARG d   1      66.164  62.266  51.899  0.00  0.00    -0.036 C 
ATOM     75  H16 ARG d   1      65.427  62.043  51.114  0.00  0.00     0.036 H 
ATOM     76  H17 ARG d   1      66.743  63.157  51.616  0.00  0.00     0.036 H 
BRANCH  74  77
ATOM     77  CG  ARG d   1      65.421  62.559  53.196  0.00  0.00    -0.048 C 
ATOM     78  H18 ARG d   1      66.065  63.163  53.853  0.00  0.00     0.035 H 
ATOM     79  H19 ARG d   1      65.176  61.609  53.694  0.00  0.00     0.035 H 
BRANCH  77  80
ATOM     80  CD  ARG d   1      64.144  63.318  52.919  0.00  0.00     0.009 C 
ATOM     81  H20 ARG d   1      63.567  63.404  53.852  0.00  0.00     0.064 H 
ATOM     82  H21 ARG d   1      63.553  62.767  52.172  0.00  0.00     0.064 H 
BRANCH  80  83
ATOM     83  NE  ARG d   1      64.429  64.654  52.410  0.00  0.00    -0.227 N 
ATOM     84  CZ  ARG d   1      63.598  65.367  51.658  0.00  0.00     0.665 C 
ATOM     85  NH1 ARG d   1      62.413  64.876  51.313  0.00  0.00    -0.235 N 
ATOM     86  NH2 ARG d   1      63.958  66.574  51.243  0.00  0.00    -0.235 N 
ATOM     87  H23 ARG d   1      61.774  65.435  50.730  0.00  0.00     0.174 HD
ATOM     88  H24 ARG d   1      62.133  63.936  51.629  0.00  0.00     0.174 HD
ATOM     89  H25 ARG d   1      64.876  66.957  51.509  0.00  0.00     0.174 HD
ATOM     90  H26 ARG d   1      63.319  67.128  50.655  0.00  0.00     0.174 HD
ATOM     91  H22 ARG d   1      65.338  65.074  52.650  0.00  0.00     0.177 HD
ENDBRANCH  80  83
ENDBRANCH  77  80
ENDBRANCH  74  77
ENDBRANCH   1  74
TORSDOF 20
