REMARK WARNING: 32 MAX_TORS EXCEEDED!!!
REMARK  47 active torsions:
REMARK  status: ('A' for Active; 'I' for Inactive)
REMARK    1  A    between atoms: N_1  and  CA_2 
REMARK    2  A    between atoms: CA_2  and  C_3 
REMARK    3  A    between atoms: CA_2  and  CB_5 
REMARK       I    between atoms: C_3  and  N_8 
REMARK    4  A    between atoms: CB_5  and  OG1_6 
REMARK    5  A    between atoms: CB_5  and  CG2_7 
REMARK    6  A    between atoms: N_8  and  CA_9 
REMARK    7  A    between atoms: CA_9  and  C_10 
REMARK    8  A    between atoms: CA_9  and  CB_12 
REMARK       I    between atoms: C_10  and  N_14 
REMARK    9  A    between atoms: CB_12  and  OG_13 
REMARK   10  A    between atoms: N_14  and  CA_15 
REMARK   11  A    between atoms: CA_15  and  C_16 
REMARK   12  A    between atoms: CA_15  and  CB_18 
REMARK       I    between atoms: C_16  and  N_21 
REMARK   13  A    between atoms: CB_18  and  OG1_19 
REMARK   14  A    between atoms: CB_18  and  CG2_20 
REMARK   15  A    between atoms: N_21  and  CA_22 
REMARK   16  A    between atoms: CA_22  and  C_23 
REMARK   17  A    between atoms: CA_22  and  CB_25 
REMARK       I    between atoms: C_23  and  N_29 
REMARK   18  A    between atoms: CB_25  and  CG_26 
REMARK   19  A    between atoms: CG_26  and  CD1_27 
REMARK   20  A    between atoms: CG_26  and  CD2_28 
REMARK   21  A    between atoms: N_29  and  CA_30 
REMARK   22  A    between atoms: CA_30  and  C_31 
REMARK   23  A    between atoms: CA_30  and  CB_33 
REMARK       I    between atoms: C_31  and  N_38 
REMARK   24  A    between atoms: CB_33  and  CG_34 
REMARK   25  A    between atoms: CG_34  and  CD_35 
REMARK       I    between atoms: CD_35  and  NE2_37 
REMARK   26  A    between atoms: N_38  and  CA_39 
REMARK   27  A    between atoms: CA_39  and  C_40 
REMARK   28  A    between atoms: CA_39  and  CB_42 
REMARK       I    between atoms: C_40  and  N_47 
REMARK   29  A    between atoms: CB_42  and  CG_43 
REMARK   30  A    between atoms: CG_43  and  CD_44 
REMARK   31  A    between atoms: N_47  and  CA_48 
REMARK   32  A    between atoms: CA_48  and  C_49 
REMARK   33  A    between atoms: CA_48  and  CB_51 
REMARK       I    between atoms: C_49  and  N_56 
REMARK   34  A    between atoms: CB_51  and  CG_52 
REMARK   35  A    between atoms: CG_52  and  CD_53 
REMARK       I    between atoms: CD_53  and  NE2_55 
REMARK   36  A    between atoms: N_56  and  CA_57 
REMARK   37  A    between atoms: CA_57  and  C_58 
REMARK   38  A    between atoms: CA_57  and  CB_60 
REMARK       I    between atoms: C_58  and  N_64 
REMARK   39  A    between atoms: CB_60  and  CG1_61 
REMARK   40  A    between atoms: CB_60  and  CG2_62 
REMARK   41  A    between atoms: CG1_61  and  CD1_63 
REMARK   42  A    between atoms: N_64  and  CA_65 
REMARK   43  A    between atoms: CA_65  and  C_66 
REMARK       I    between atoms: C_66  and  N_68 
REMARK   44  A    between atoms: N_68  and  CA_69 
REMARK   45  A    between atoms: CA_69  and  C_70 
REMARK   46  A    between atoms: CA_69  and  CB_72 
REMARK   47  A    between atoms: CB_72  and  CG_73 
ROOT
ATOM      1  CA  GLU d   1      -5.443  -3.811 -16.106  0.00  0.00     0.090 C 
ATOM      2  H42 GLU d   1      -5.354  -3.277 -17.063  0.00  0.00     0.087 H 
ENDROOT
BRANCH   1   3
ATOM      3  N   GLU d   1      -4.337  -4.759 -15.991  0.00  0.00    -0.346 N 
ATOM      4  C   GLN d   1      -3.073  -4.352 -16.051  0.00  0.00     0.241 C 
ATOM      5  O   GLN d   1      -2.761  -3.174 -16.240  0.00  0.00    -0.271 OA
ATOM      6  H41 GLU d   1      -4.535  -5.731 -15.865  0.00  0.00     0.163 HD
BRANCH   4   7
ATOM      7  CA  GLN d   1      -1.994  -5.421 -15.871  0.00  0.00     0.090 C 
ATOM      8  H34 GLN d   1      -1.156  -4.953 -15.333  0.00  0.00     0.087 H 
BRANCH   7   9
ATOM      9  N   GLN d   1      -2.452  -6.548 -15.064  0.00  0.00    -0.346 N 
ATOM     10  C   LEU d   1      -2.407  -6.501 -13.735  0.00  0.00     0.241 C 
ATOM     11  O   LEU d   1      -2.046  -5.500 -13.123  0.00  0.00    -0.271 OA
ATOM     12  H33 GLN d   1      -2.805  -7.367 -15.517  0.00  0.00     0.163 HD
BRANCH  10  13
ATOM     13  CA  LEU d   1      -2.824  -7.762 -12.982  0.00  0.00     0.089 C 
ATOM     14  H23 LEU d   1      -3.089  -8.541 -13.712  0.00  0.00     0.087 H 
BRANCH  13  15
ATOM     15  N   LEU d   1      -1.720  -8.244 -12.158  0.00  0.00    -0.346 N 
ATOM     16  C   THR d   1      -0.580  -8.671 -12.693  0.00  0.00     0.243 C 
ATOM     17  O   THR d   1      -0.398  -8.753 -13.908  0.00  0.00    -0.271 OA
ATOM     18  H22 LEU d   1      -1.824  -8.253 -11.163  0.00  0.00     0.163 HD
BRANCH  16  19
ATOM     19  CA  THR d   1       0.514  -9.068 -11.717  0.00  0.00     0.113 C 
ATOM     20  H16 THR d   1       0.076  -9.614 -10.869  0.00  0.00     0.091 H 
BRANCH  19  21
ATOM     21  N   THR d   1       1.465  -9.932 -12.398  0.00  0.00    -0.344 N 
ATOM     22  C   SER d   1       1.145 -11.168 -12.757  0.00  0.00     0.243 C 
ATOM     23  O   SER d   1       0.103 -11.728 -12.399  0.00  0.00    -0.271 OA
ATOM     24  H15 THR d   1       2.381  -9.586 -12.600  0.00  0.00     0.163 HD
BRANCH  22  25
ATOM     25  CA  SER d   1       2.160 -11.883 -13.647  0.00  0.00     0.109 C 
ATOM     26  H11 SER d   1       1.662 -12.736 -14.132  0.00  0.00     0.090 H 
BRANCH  25  27
ATOM     27  N   SER d   1       2.659 -10.986 -14.681  0.00  0.00    -0.344 N 
ATOM     28  C   THR d   1       1.988 -10.763 -15.807  0.00  0.00     0.251 C 
ATOM     29  O   THR d   1       0.931 -11.333 -16.087  0.00  0.00    -0.271 OA
ATOM     30  H10 SER d   1       3.534 -10.523 -14.539  0.00  0.00     0.163 HD
BRANCH  28  31
ATOM     31  CA  THR d   1       2.603  -9.742 -16.758  0.00  0.00     0.199 C 
ATOM     32  H4  THR d   1       3.682  -9.941 -16.834  0.00  0.00     0.103 H 
BRANCH  31  33
ATOM     33  N   THR d   1       2.035  -9.834 -18.099  0.00  0.00    -0.064 N 
ATOM     34  H1  THR d   1       2.183 -10.762 -18.464  0.00  0.00     0.275 HD
ATOM     35  H2  THR d   1       2.483  -9.161 -18.701  0.00  0.00     0.275 HD
ATOM     36  H3  THR d   1       1.046  -9.643 -18.059  0.00  0.00     0.275 HD
ENDBRANCH  31  33
BRANCH  31  37
ATOM     37  CB  THR d   1       2.404  -8.340 -16.152  0.00  0.00     0.068 C 
ATOM     38  H5  THR d   1       2.681  -8.371 -15.088  0.00  0.00     0.086 H 
BRANCH  37  39
ATOM     39  OG1 THR d   1       1.028  -7.954 -16.264  0.00  0.00    -0.393 OA
ATOM     40  H6  THR d   1       0.486  -8.579 -15.797  0.00  0.00     0.210 HD
ENDBRANCH  37  39
BRANCH  37  41
ATOM     41  CG2 THR d   1       3.284  -7.319 -16.858  0.00  0.00    -0.050 C 
ATOM     42  H7  THR d   1       3.126  -6.327 -16.410  0.00  0.00     0.031 H 
ATOM     43  H8  THR d   1       3.022  -7.285 -17.926  0.00  0.00     0.031 H 
ATOM     44  H9  THR d   1       4.340  -7.607 -16.748  0.00  0.00     0.031 H 
ENDBRANCH  37  41
ENDBRANCH  31  37
ENDBRANCH  28  31
ENDBRANCH  25  27
BRANCH  25  45
ATOM     45  CB  SER d   1       3.317 -12.407 -12.804  0.00  0.00     0.044 C 
ATOM     46  H12 SER d   1       3.857 -11.555 -12.365  0.00  0.00     0.077 H 
ATOM     47  H13 SER d   1       4.000 -12.981 -13.448  0.00  0.00     0.077 H 
BRANCH  45  48
ATOM     48  OG  SER d   1       2.848 -13.246 -11.761  0.00  0.00    -0.398 OA
ATOM     49  H14 SER d   1       3.586 -13.559 -11.252  0.00  0.00     0.209 HD
ENDBRANCH  45  48
ENDBRANCH  25  45
ENDBRANCH  22  25
ENDBRANCH  19  21
BRANCH  19  50
ATOM     50  CB  THR d   1       1.182  -7.782 -11.201  0.00  0.00     0.060 C 
ATOM     51  H17 THR d   1       0.403  -7.036 -10.983  0.00  0.00     0.086 H 
BRANCH  50  52
ATOM     52  OG1 THR d   1       2.070  -7.264 -12.201  0.00  0.00    -0.393 OA
ATOM     53  H18 THR d   1       2.738  -7.911 -12.395  0.00  0.00     0.210 HD
ENDBRANCH  50  52
BRANCH  50  54
ATOM     54  CG2 THR d   1       1.969  -8.057  -9.946  0.00  0.00    -0.050 C 
ATOM     55  H19 THR d   1       2.437  -7.125  -9.595  0.00  0.00     0.031 H 
ATOM     56  H20 THR d   1       2.750  -8.802 -10.159  0.00  0.00     0.031 H 
ATOM     57  H21 THR d   1       1.295  -8.444  -9.168  0.00  0.00     0.031 H 
ENDBRANCH  50  54
ENDBRANCH  19  50
ENDBRANCH  16  19
ENDBRANCH  13  15
BRANCH  13  58
ATOM     58  CB  LEU d   1      -4.043  -7.471 -12.104  0.00  0.00    -0.035 C 
ATOM     59  H24 LEU d   1      -3.737  -6.730 -11.351  0.00  0.00     0.037 H 
ATOM     60  H25 LEU d   1      -4.320  -8.410 -11.603  0.00  0.00     0.037 H 
BRANCH  58  61
ATOM     61  CG  LEU d   1      -5.297  -6.933 -12.793  0.00  0.00    -0.059 C 
ATOM     62  H26 LEU d   1      -5.012  -6.055 -13.391  0.00  0.00     0.038 H 
BRANCH  61  63
ATOM     63  CD1 LEU d   1      -5.891  -7.972 -13.732  0.00  0.00    -0.073 C 
ATOM     64  H27 LEU d   1      -6.790  -7.560 -14.213  0.00  0.00     0.028 H 
ATOM     65  H28 LEU d   1      -6.161  -8.872 -13.160  0.00  0.00     0.028 H 
ATOM     66  H29 LEU d   1      -5.151  -8.236 -14.502  0.00  0.00     0.028 H 
ENDBRANCH  61  63
BRANCH  61  67
ATOM     67  CD2 LEU d   1      -6.314  -6.492 -11.756  0.00  0.00    -0.073 C 
ATOM     68  H30 LEU d   1      -5.859  -5.742 -11.092  0.00  0.00     0.028 H 
ATOM     69  H31 LEU d   1      -6.634  -7.362 -11.163  0.00  0.00     0.028 H 
ATOM     70  H32 LEU d   1      -7.186  -6.052 -12.262  0.00  0.00     0.028 H 
ENDBRANCH  61  67
ENDBRANCH  58  61
ENDBRANCH  13  58
ENDBRANCH  10  13
ENDBRANCH   7   9
BRANCH   7  71
ATOM     71  CB  GLN d   1      -1.465  -5.895 -17.230  0.00  0.00    -0.030 C 
ATOM     72  H35 GLN d   1      -2.319  -6.226 -17.839  0.00  0.00     0.037 H 
ATOM     73  H36 GLN d   1      -0.784  -6.742 -17.062  0.00  0.00     0.037 H 
BRANCH  71  74
ATOM     74  CG  GLN d   1      -0.713  -4.817 -18.000  0.00  0.00     0.011 C 
ATOM     75  H37 GLN d   1       0.025  -4.357 -17.327  0.00  0.00     0.047 H 
ATOM     76  H38 GLN d   1      -1.435  -4.055 -18.329  0.00  0.00     0.047 H 
BRANCH  74  77
ATOM     77  CD  GLN d   1       0.014  -5.351 -19.220  0.00  0.00     0.215 C 
ATOM     78  OE1 GLN d   1      -0.155  -6.509 -19.606  0.00  0.00    -0.274 OA
ATOM     79  NE2 GLN d   1       0.833  -4.505 -19.834  0.00  0.00    -0.370 N 
ATOM     80  H39 GLN d   1       1.340  -4.799 -20.644  0.00  0.00     0.159 HD
ATOM     81  H40 GLN d   1       0.943  -3.574 -19.486  0.00  0.00     0.159 HD
ENDBRANCH  74  77
ENDBRANCH  71  74
ENDBRANCH   7  71
ENDBRANCH   4   7
ENDBRANCH   1   3
BRANCH   1  82
ATOM     82  C   GLU d   1      -5.391  -2.811 -14.963  0.00  0.00     0.241 C 
ATOM     83  O   GLU d   1      -5.209  -3.193 -13.810  0.00  0.00    -0.271 OA
ATOM     84  N   GLN d   1      -5.553  -1.537 -15.290  0.00  0.00    -0.346 N 
ATOM     85  H47 GLN d   1      -5.640  -1.289 -16.255  0.00  0.00     0.163 HD
BRANCH  84  86
ATOM     86  CA  GLN d   1      -5.608  -0.491 -14.281  0.00  0.00     0.090 C 
ATOM     87  H48 GLN d   1      -5.104  -0.850 -13.372  0.00  0.00     0.087 H 
BRANCH  86  88
ATOM     88  C   GLN d   1      -7.056  -0.192 -13.947  0.00  0.00     0.241 C 
ATOM     89  O   GLN d   1      -7.870   0.075 -14.833  0.00  0.00    -0.271 OA
ATOM     90  N   ILE d   1      -7.384  -0.250 -12.663  0.00  0.00    -0.346 N 
ATOM     91  H55 ILE d   1      -6.669  -0.355 -11.972  0.00  0.00     0.163 HD
BRANCH  90  92
ATOM     92  CA  ILE d   1      -8.777  -0.162 -12.254  0.00  0.00     0.092 C 
ATOM     93  H56 ILE d   1      -9.365   0.062 -13.156  0.00  0.00     0.088 H 
BRANCH  92  94
ATOM     94  C   ILE d   1      -9.044   0.965 -11.257  0.00  0.00     0.241 C 
ATOM     95  O   ILE d   1      -8.548   0.953 -10.130  0.00  0.00    -0.271 OA
ATOM     96  N   GLY d   1      -9.833   1.941 -11.697  0.00  0.00    -0.351 N 
ATOM     97  H66 GLY d   1     -10.209   1.877 -12.621  0.00  0.00     0.163 HD
BRANCH  96  98
ATOM     98  CA  GLY d   1     -10.167   3.094 -10.885  0.00  0.00     0.069 C 
ATOM     99  H67 GLY d   1     -10.242   3.977 -11.537  0.00  0.00     0.078 H 
ATOM    100  H68 GLY d   1      -9.367   3.251 -10.147  0.00  0.00     0.078 H 
BRANCH  98 101
ATOM    101  C   GLY d   1     -11.481   2.917 -10.150  0.00  0.00     0.236 C 
ATOM    102  O   GLY d   1     -12.399   2.259 -10.640  0.00  0.00    -0.272 OA
ATOM    103  N   TRP d   1     -11.569   3.512  -8.965  0.00  0.00    -0.345 N 
ATOM    104  H69 TRP d   1     -10.798   4.057  -8.637  0.00  0.00     0.163 HD
BRANCH 103 105
ATOM    105  CA  TRP d   1     -12.756   3.393  -8.130  0.00  0.00     0.100 C 
ATOM    106  H70 TRP d   1     -13.161   2.379  -8.265  0.00  0.00     0.090 H 
BRANCH 105 107
ATOM    107  C   TRP d   1     -13.848   4.388  -8.508  0.00  0.00     0.197 C 
ATOM    108  O   TRP d   1     -13.630   5.304  -9.300  0.00  0.00    -0.646 OA
ATOM    109  OXT TRP d   1     -14.976   4.299  -8.017  0.00  0.00    -0.646 OA
ENDBRANCH 105 107
BRANCH 105 110
ATOM    110  CB  TRP d   1     -12.387   3.572  -6.660  0.00  0.00    -0.011 C 
ATOM    111  H71 TRP d   1     -13.304   3.805  -6.099  0.00  0.00     0.044 H 
ATOM    112  H72 TRP d   1     -11.684   4.415  -6.580  0.00  0.00     0.044 H 
BRANCH 110 113
ATOM    113  CG  TRP d   1     -11.749   2.367  -6.038  0.00  0.00    -0.028 A 
ATOM    114  CD1 TRP d   1     -11.173   1.313  -6.685  0.00  0.00    -0.015 A 
ATOM    115  NE1 TRP d   1     -10.701   0.397  -5.772  0.00  0.00    -0.365 N 
ATOM    116  H73 TRP d   1     -11.098   1.211  -7.767  0.00  0.00     0.112 H 
ATOM    117  CE2 TRP d   1     -10.975   0.852  -4.508  0.00  0.00     0.042 A 
ATOM    118  H74 TRP d   1     -10.221  -0.485  -6.001  0.00  0.00     0.165 HD
ATOM    119  CD2 TRP d   1     -11.637   2.090  -4.638  0.00  0.00    -0.002 A 
ATOM    120  CZ2 TRP d   1     -10.700   0.281  -3.271  0.00  0.00    -0.056 A 
ATOM    121  CE3 TRP d   1     -12.029   2.771  -3.480  0.00  0.00    -0.070 A 
ATOM    122  CZ3 TRP d   1     -11.753   2.198  -2.247  0.00  0.00    -0.082 A 
ATOM    123  H75 TRP d   1     -12.538   3.726  -3.545  0.00  0.00     0.084 H 
ATOM    124  CH2 TRP d   1     -11.094   0.967  -2.154  0.00  0.00    -0.081 A 
ATOM    125  H77 TRP d   1     -12.053   2.712  -1.341  0.00  0.00     0.083 H 
ATOM    126  H78 TRP d   1     -10.891   0.547  -1.175  0.00  0.00     0.083 H 
ATOM    127  H76 TRP d   1     -10.192  -0.673  -3.194  0.00  0.00     0.086 H 
ENDBRANCH 110 113
ENDBRANCH 105 110
ENDBRANCH 103 105
ENDBRANCH  98 101
ENDBRANCH  96  98
ENDBRANCH  92  94
BRANCH  92 128
ATOM    128  CB  ILE d   1      -9.263  -1.506 -11.710  0.00  0.00    -0.030 C 
ATOM    129  H57 ILE d   1      -8.580  -1.844 -10.916  0.00  0.00     0.043 H 
BRANCH 128 130
ATOM    130  CG1 ILE d   1      -9.286  -2.542 -12.838  0.00  0.00    -0.063 C 
ATOM    131  H58 ILE d   1      -8.537  -2.256 -13.591  0.00  0.00     0.033 H 
ATOM    132  H59 ILE d   1     -10.286  -2.538 -13.296  0.00  0.00     0.033 H 
BRANCH 130 133
ATOM    133  CD1 ILE d   1      -8.984  -3.927 -12.372  0.00  0.00    -0.076 C 
ATOM    134  H63 ILE d   1      -9.017  -4.617 -13.228  0.00  0.00     0.027 H 
ATOM    135  H64 ILE d   1      -9.731  -4.234 -11.625  0.00  0.00     0.027 H 
ATOM    136  H65 ILE d   1      -7.982  -3.951 -11.920  0.00  0.00     0.027 H 
ENDBRANCH 130 133
ENDBRANCH 128 130
BRANCH 128 137
ATOM    137  CG2 ILE d   1     -10.638  -1.366 -11.153  0.00  0.00    -0.071 C 
ATOM    138  H60 ILE d   1     -10.631  -0.623 -10.342  0.00  0.00     0.028 H 
ATOM    139  H61 ILE d   1     -10.975  -2.336 -10.759  0.00  0.00     0.028 H 
ATOM    140  H62 ILE d   1     -11.323  -1.035 -11.947  0.00  0.00     0.028 H 
ENDBRANCH 128 137
ENDBRANCH  92 128
ENDBRANCH  90  92
ENDBRANCH  86  88
BRANCH  86 141
ATOM    141  CB  GLN d   1      -4.887   0.763 -14.767  0.00  0.00    -0.030 C 
ATOM    142  H49 GLN d   1      -5.034   1.563 -14.026  0.00  0.00     0.037 H 
ATOM    143  H50 GLN d   1      -5.324   1.069 -15.729  0.00  0.00     0.037 H 
BRANCH 141 144
ATOM    144  CG  GLN d   1      -3.399   0.547 -14.958  0.00  0.00     0.011 C 
ATOM    145  H51 GLN d   1      -2.941   1.495 -15.278  0.00  0.00     0.047 H 
ATOM    146  H52 GLN d   1      -3.248  -0.215 -15.737  0.00  0.00     0.047 H 
BRANCH 144 147
ATOM    147  CD  GLN d   1      -2.722   0.083 -13.684  0.00  0.00     0.215 C 
ATOM    148  OE1 GLN d   1      -2.808   0.746 -12.652  0.00  0.00    -0.274 OA
ATOM    149  NE2 GLN d   1      -2.060  -1.068 -13.744  0.00  0.00    -0.370 N 
ATOM    150  H53 GLN d   1      -1.595  -1.420 -12.932  0.00  0.00     0.159 HD
ATOM    151  H54 GLN d   1      -2.027  -1.582 -14.601  0.00  0.00     0.159 HD
ENDBRANCH 144 147
ENDBRANCH 141 144
ENDBRANCH  86 141
ENDBRANCH  84  86
ENDBRANCH   1  82
BRANCH   1 152
ATOM    152  CB  GLU d   1      -6.793  -4.528 -16.054  0.00  0.00    -0.029 C 
ATOM    153  H43 GLU d   1      -7.518  -3.932 -16.628  0.00  0.00     0.037 H 
ATOM    154  H44 GLU d   1      -7.111  -4.580 -15.002  0.00  0.00     0.037 H 
BRANCH 152 155
ATOM    155  CG  GLU d   1      -6.793  -5.932 -16.614  0.00  0.00     0.018 C 
ATOM    156  H45 GLU d   1      -7.727  -6.429 -16.313  0.00  0.00     0.049 H 
ATOM    157  H46 GLU d   1      -5.935  -6.477 -16.193  0.00  0.00     0.049 H 
BRANCH 155 158
ATOM    158  CD  GLU d   1      -6.693  -5.966 -18.120  0.00  0.00     0.172 C 
ATOM    159  OE1 GLU d   1      -6.837  -4.897 -18.752  0.00  0.00    -0.648 OA
ATOM    160  OE2 GLU d   1      -6.485  -7.068 -18.673  0.00  0.00    -0.648 OA
ENDBRANCH 155 158
ENDBRANCH 152 155
ENDBRANCH   1 152
TORSDOF 47
