REMARK WARNING: 32 MAX_TORS EXCEEDED!!!
REMARK  46 active torsions:
REMARK  status: ('A' for Active; 'I' for Inactive)
REMARK    1  A    between atoms: N_1  and  CA_2 
REMARK    2  A    between atoms: CA_2  and  C_3 
REMARK    3  A    between atoms: CA_2  and  CB_5 
REMARK       I    between atoms: C_3  and  N_8 
REMARK    4  A    between atoms: CB_5  and  OG1_6 
REMARK    5  A    between atoms: CB_5  and  CG2_7 
REMARK    6  A    between atoms: N_8  and  CA_9 
REMARK    7  A    between atoms: CA_9  and  C_10 
REMARK    8  A    between atoms: CA_9  and  CB_12 
REMARK       I    between atoms: C_10  and  N_14 
REMARK    9  A    between atoms: CB_12  and  OG_13 
REMARK   10  A    between atoms: N_14  and  CA_15 
REMARK   11  A    between atoms: CA_15  and  C_16 
REMARK   12  A    between atoms: CA_15  and  CB_18 
REMARK       I    between atoms: C_16  and  N_22 
REMARK   13  A    between atoms: CB_18  and  CG_19 
REMARK       I    between atoms: CG_19  and  ND2_21 
REMARK   14  A    between atoms: N_22  and  CA_23 
REMARK   15  A    between atoms: CA_23  and  C_24 
REMARK   16  A    between atoms: CA_23  and  CB_26 
REMARK       I    between atoms: C_24  and  N_30 
REMARK   17  A    between atoms: CB_26  and  CG_27 
REMARK   18  A    between atoms: CG_27  and  CD1_28 
REMARK   19  A    between atoms: CG_27  and  CD2_29 
REMARK   20  A    between atoms: N_30  and  CA_31 
REMARK   21  A    between atoms: CA_31  and  C_32 
REMARK   22  A    between atoms: CA_31  and  CB_34 
REMARK       I    between atoms: C_32  and  N_39 
REMARK   23  A    between atoms: CB_34  and  CG_35 
REMARK   24  A    between atoms: CG_35  and  CD_36 
REMARK       I    between atoms: CD_36  and  NE2_38 
REMARK   25  A    between atoms: N_39  and  CA_40 
REMARK   26  A    between atoms: CA_40  and  C_41 
REMARK   27  A    between atoms: CA_40  and  CB_43 
REMARK       I    between atoms: C_41  and  N_48 
REMARK   28  A    between atoms: CB_43  and  CG_44 
REMARK   29  A    between atoms: CG_44  and  CD_45 
REMARK   30  A    between atoms: N_48  and  CA_49 
REMARK   31  A    between atoms: CA_49  and  C_50 
REMARK   32  A    between atoms: CA_49  and  CB_52 
REMARK       I    between atoms: C_50  and  N_57 
REMARK   33  A    between atoms: CB_52  and  CG_53 
REMARK   34  A    between atoms: CG_53  and  CD_54 
REMARK       I    between atoms: CD_54  and  NE2_56 
REMARK   35  A    between atoms: N_57  and  CA_58 
REMARK   36  A    between atoms: CA_58  and  C_59 
REMARK   37  A    between atoms: CA_58  and  CB_61 
REMARK       I    between atoms: C_59  and  N_65 
REMARK   38  A    between atoms: CB_61  and  CG1_62 
REMARK   39  A    between atoms: CB_61  and  CG2_63 
REMARK   40  A    between atoms: CG1_62  and  CD1_64 
REMARK   41  A    between atoms: N_65  and  CA_66 
REMARK   42  A    between atoms: CA_66  and  C_67 
REMARK       I    between atoms: C_67  and  N_69 
REMARK   43  A    between atoms: N_69  and  CA_70 
REMARK   44  A    between atoms: CA_70  and  C_71 
REMARK   45  A    between atoms: CA_70  and  CB_73 
REMARK   46  A    between atoms: CB_73  and  CG_74 
ROOT
ATOM      1  CA  GLU d   1      -7.291  -1.026 -15.370  0.00  0.00     0.090 C 
ATOM      2  H41 GLU d   1      -7.329  -1.487 -16.368  0.00  0.00     0.087 H 
ENDROOT
BRANCH   1   3
ATOM      3  N   GLU d   1      -6.190  -1.582 -14.612  0.00  0.00    -0.346 N 
ATOM      4  C   GLN d   1      -4.958  -1.652 -15.074  0.00  0.00     0.241 C 
ATOM      5  O   GLN d   1      -4.628  -1.271 -16.194  0.00  0.00    -0.271 OA
ATOM      6  H40 GLU d   1      -6.373  -1.930 -13.693  0.00  0.00     0.163 HD
BRANCH   4   7
ATOM      7  CA  GLN d   1      -3.906  -2.196 -14.111  0.00  0.00     0.090 C 
ATOM      8  H33 GLN d   1      -4.445  -2.673 -13.279  0.00  0.00     0.087 H 
BRANCH   7   9
ATOM      9  N   GLN d   1      -3.063  -3.220 -14.720  0.00  0.00    -0.346 N 
ATOM     10  C   LEU d   1      -3.543  -4.344 -15.287  0.00  0.00     0.241 C 
ATOM     11  O   LEU d   1      -4.741  -4.643 -15.290  0.00  0.00    -0.271 OA
ATOM     12  H32 GLN d   1      -2.073  -3.079 -14.716  0.00  0.00     0.163 HD
BRANCH  10  13
ATOM     13  CA  LEU d   1      -2.487  -5.354 -15.770  0.00  0.00     0.089 C 
ATOM     14  H22 LEU d   1      -1.492  -4.987 -15.478  0.00  0.00     0.087 H 
BRANCH  13  15
ATOM     15  N   LEU d   1      -2.741  -6.630 -15.075  0.00  0.00    -0.346 N 
ATOM     16  C   ASN d   1      -2.722  -6.747 -13.725  0.00  0.00     0.241 C 
ATOM     17  O   ASN d   1      -2.400  -5.819 -12.983  0.00  0.00    -0.271 OA
ATOM     18  H21 LEU d   1      -2.936  -7.443 -15.623  0.00  0.00     0.163 HD
BRANCH  16  19
ATOM     19  CA  ASN d   1      -3.048  -8.129 -13.118  0.00  0.00     0.097 C 
ATOM     20  H16 ASN d   1      -3.104  -8.879 -13.921  0.00  0.00     0.088 H 
BRANCH  19  21
ATOM     21  N   ASN d   1      -1.995  -8.488 -12.178  0.00  0.00    -0.345 N 
ATOM     22  C   SER d   1      -0.732  -8.805 -12.539  0.00  0.00     0.243 C 
ATOM     23  O   SER d   1      -0.340  -8.835 -13.706  0.00  0.00    -0.271 OA
ATOM     24  H15 ASN d   1      -2.221  -8.501 -11.204  0.00  0.00     0.163 HD
BRANCH  22  25
ATOM     25  CA  SER d   1       0.235  -9.103 -11.415  0.00  0.00     0.109 C 
ATOM     26  H11 SER d   1      -0.307  -9.607 -10.601  0.00  0.00     0.090 H 
BRANCH  25  27
ATOM     27  N   SER d   1       1.311  -9.969 -11.876  0.00  0.00    -0.344 N 
ATOM     28  C   THR d   1       1.181 -11.245 -12.227  0.00  0.00     0.251 C 
ATOM     29  O   THR d   1       0.110 -11.850 -12.234  0.00  0.00    -0.271 OA
ATOM     30  H10 SER d   1       2.226  -9.570 -11.934  0.00  0.00     0.163 HD
BRANCH  28  31
ATOM     31  CA  THR d   1       2.476 -11.933 -12.646  0.00  0.00     0.199 C 
ATOM     32  H4  THR d   1       3.280 -11.386 -12.133  0.00  0.00     0.103 H 
BRANCH  31  33
ATOM     33  N   THR d   1       2.567 -13.305 -12.146  0.00  0.00    -0.064 N 
ATOM     34  H1  THR d   1       2.356 -13.318 -11.161  0.00  0.00     0.275 HD
ATOM     35  H2  THR d   1       3.500 -13.655 -12.294  0.00  0.00     0.275 HD
ATOM     36  H3  THR d   1       1.907 -13.887 -12.639  0.00  0.00     0.275 HD
ENDBRANCH  31  33
BRANCH  31  37
ATOM     37  CB  THR d   1       2.779 -11.773 -14.154  0.00  0.00     0.068 C 
ATOM     38  H5  THR d   1       2.980 -10.705 -14.324  0.00  0.00     0.086 H 
BRANCH  37  39
ATOM     39  OG1 THR d   1       1.649 -12.119 -14.956  0.00  0.00    -0.393 OA
ATOM     40  H6  THR d   1       1.868 -12.010 -15.874  0.00  0.00     0.210 HD
ENDBRANCH  37  39
BRANCH  37  41
ATOM     41  CG2 THR d   1       3.997 -12.514 -14.589  0.00  0.00    -0.050 C 
ATOM     42  H7  THR d   1       4.155 -12.359 -15.666  0.00  0.00     0.031 H 
ATOM     43  H8  THR d   1       3.864 -13.587 -14.389  0.00  0.00     0.031 H 
ATOM     44  H9  THR d   1       4.870 -12.142 -14.033  0.00  0.00     0.031 H 
ENDBRANCH  37  41
ENDBRANCH  31  37
ENDBRANCH  28  31
ENDBRANCH  25  27
BRANCH  25  45
ATOM     45  CB  SER d   1       0.828  -7.804 -10.893  0.00  0.00     0.044 C 
ATOM     46  H12 SER d   1       1.439  -8.014 -10.003  0.00  0.00     0.077 H 
ATOM     47  H13 SER d   1       0.014  -7.114 -10.625  0.00  0.00     0.077 H 
BRANCH  45  48
ATOM     48  OG  SER d   1       1.641  -7.206 -11.889  0.00  0.00    -0.398 OA
ATOM     49  H14 SER d   1       2.345  -7.800 -12.120  0.00  0.00     0.209 HD
ENDBRANCH  45  48
ENDBRANCH  25  45
ENDBRANCH  22  25
ENDBRANCH  19  21
BRANCH  19  50
ATOM     50  CB  ASN d   1      -4.386  -8.083 -12.363  0.00  0.00     0.036 C 
ATOM     51  H17 ASN d   1      -4.303  -7.319 -11.576  0.00  0.00     0.051 H 
ATOM     52  H18 ASN d   1      -4.547  -9.069 -11.902  0.00  0.00     0.051 H 
BRANCH  50  53
ATOM     53  CG  ASN d   1      -5.605  -7.758 -13.198  0.00  0.00     0.217 C 
ATOM     54  OD1 ASN d   1      -5.724  -8.136 -14.365  0.00  0.00    -0.274 OA
ATOM     55  ND2 ASN d   1      -6.580  -7.120 -12.584  0.00  0.00    -0.370 N 
ATOM     56  H19 ASN d   1      -7.412  -6.878 -13.084  0.00  0.00     0.159 HD
ATOM     57  H20 ASN d   1      -6.489  -6.878 -11.618  0.00  0.00     0.159 HD
ENDBRANCH  50  53
ENDBRANCH  19  50
ENDBRANCH  16  19
ENDBRANCH  13  15
BRANCH  13  58
ATOM     58  CB  LEU d   1      -2.495  -5.516 -17.298  0.00  0.00    -0.035 C 
ATOM     59  H23 LEU d   1      -2.394  -4.518 -17.749  0.00  0.00     0.037 H 
ATOM     60  H24 LEU d   1      -3.460  -5.955 -17.591  0.00  0.00     0.037 H 
BRANCH  58  61
ATOM     61  CG  LEU d   1      -1.375  -6.408 -17.856  0.00  0.00    -0.059 C 
ATOM     62  H25 LEU d   1      -1.237  -7.223 -17.130  0.00  0.00     0.038 H 
BRANCH  61  63
ATOM     63  CD1 LEU d   1      -1.776  -7.076 -19.180  0.00  0.00    -0.073 C 
ATOM     64  H26 LEU d   1      -0.947  -7.702 -19.541  0.00  0.00     0.028 H 
ATOM     65  H27 LEU d   1      -2.002  -6.302 -19.928  0.00  0.00     0.028 H 
ATOM     66  H28 LEU d   1      -2.666  -7.702 -19.020  0.00  0.00     0.028 H 
ENDBRANCH  61  63
BRANCH  61  67
ATOM     67  CD2 LEU d   1      -0.029  -5.675 -17.937  0.00  0.00    -0.073 C 
ATOM     68  H29 LEU d   1       0.200  -5.220 -16.962  0.00  0.00     0.028 H 
ATOM     69  H30 LEU d   1      -0.085  -4.889 -18.704  0.00  0.00     0.028 H 
ATOM     70  H31 LEU d   1       0.763  -6.391 -18.203  0.00  0.00     0.028 H 
ENDBRANCH  61  67
ENDBRANCH  58  61
ENDBRANCH  13  58
ENDBRANCH  10  13
ENDBRANCH   7   9
BRANCH   7  71
ATOM     71  CB  GLN d   1      -3.046  -1.050 -13.510  0.00  0.00    -0.030 C 
ATOM     72  H34 GLN d   1      -2.538  -0.534 -14.338  0.00  0.00     0.037 H 
ATOM     73  H35 GLN d   1      -2.296  -1.500 -12.843  0.00  0.00     0.037 H 
BRANCH  71  74
ATOM     74  CG  GLN d   1      -3.843   0.011 -12.695  0.00  0.00     0.011 C 
ATOM     75  H36 GLN d   1      -4.485   0.573 -13.390  0.00  0.00     0.047 H 
ATOM     76  H37 GLN d   1      -3.125   0.698 -12.223  0.00  0.00     0.047 H 
BRANCH  74  77
ATOM     77  CD  GLN d   1      -4.724  -0.590 -11.604  0.00  0.00     0.215 C 
ATOM     78  OE1 GLN d   1      -4.255  -1.279 -10.685  0.00  0.00    -0.274 OA
ATOM     79  NE2 GLN d   1      -6.032  -0.384 -11.716  0.00  0.00    -0.370 N 
ATOM     80  H38 GLN d   1      -6.657  -0.755 -11.029  0.00  0.00     0.159 HD
ATOM     81  H39 GLN d   1      -6.391   0.142 -12.487  0.00  0.00     0.159 HD
ENDBRANCH  74  77
ENDBRANCH  71  74
ENDBRANCH   7  71
ENDBRANCH   4   7
ENDBRANCH   1   3
BRANCH   1  82
ATOM     82  C   GLU d   1      -7.110   0.453 -15.477  0.00  0.00     0.241 C 
ATOM     83  O   GLU d   1      -6.671   1.104 -14.543  0.00  0.00    -0.271 OA
ATOM     84  N   GLN d   1      -7.495   1.002 -16.608  0.00  0.00    -0.346 N 
ATOM     85  H46 GLN d   1      -7.832   0.435 -17.360  0.00  0.00     0.163 HD
BRANCH  84  86
ATOM     86  CA  GLN d   1      -7.424   2.426 -16.744  0.00  0.00     0.090 C 
ATOM     87  H47 GLN d   1      -6.406   2.760 -16.493  0.00  0.00     0.087 H 
BRANCH  86  88
ATOM     88  C   GLN d   1      -8.400   3.062 -15.741  0.00  0.00     0.241 C 
ATOM     89  O   GLN d   1      -8.352   4.249 -15.454  0.00  0.00    -0.271 OA
ATOM     90  N   ILE d   1      -9.255   2.233 -15.178  0.00  0.00    -0.346 N 
ATOM     91  H54 ILE d   1      -9.156   1.252 -15.342  0.00  0.00     0.163 HD
BRANCH  90  92
ATOM     92  CA  ILE d   1     -10.328   2.693 -14.333  0.00  0.00     0.092 C 
ATOM     93  H55 ILE d   1     -10.348   3.790 -14.409  0.00  0.00     0.088 H 
BRANCH  92  94
ATOM     94  C   ILE d   1     -10.191   2.365 -12.840  0.00  0.00     0.241 C 
ATOM     95  O   ILE d   1      -9.806   1.286 -12.437  0.00  0.00    -0.271 OA
ATOM     96  N   GLY d   1     -10.525   3.345 -12.034  0.00  0.00    -0.351 N 
ATOM     97  H65 GLY d   1     -10.880   4.191 -12.432  0.00  0.00     0.163 HD
BRANCH  96  98
ATOM     98  CA  GLY d   1     -10.402   3.257 -10.589  0.00  0.00     0.069 C 
ATOM     99  H66 GLY d   1      -9.848   4.138 -10.232  0.00  0.00     0.078 H 
ATOM    100  H67 GLY d   1      -9.840   2.345 -10.342  0.00  0.00     0.078 H 
BRANCH  98 101
ATOM    101  C   GLY d   1     -11.738   3.207  -9.873  0.00  0.00     0.236 C 
ATOM    102  O   GLY d   1     -12.725   2.716 -10.415  0.00  0.00    -0.272 OA
ATOM    103  N   TRP d   1     -11.769   3.700  -8.645  0.00  0.00    -0.345 N 
ATOM    104  H68 TRP d   1     -10.936   4.118  -8.283  0.00  0.00     0.163 HD
BRANCH 103 105
ATOM    105  CA  TRP d   1     -12.954   3.667  -7.788  0.00  0.00     0.100 C 
ATOM    106  H69 TRP d   1     -13.399   2.667  -7.895  0.00  0.00     0.090 H 
BRANCH 105 107
ATOM    107  C   TRP d   1     -14.039   4.674  -8.207  0.00  0.00     0.197 C 
ATOM    108  O   TRP d   1     -15.220   4.503  -7.800  0.00  0.00    -0.646 OA
ATOM    109  OXT TRP d   1     -13.700   5.624  -8.944  0.00  0.00    -0.646 OA
ENDBRANCH 105 107
BRANCH 105 110
ATOM    110  CB  TRP d   1     -12.548   3.826  -6.317  0.00  0.00    -0.011 C 
ATOM    111  H70 TRP d   1     -13.443   4.116  -5.747  0.00  0.00     0.044 H 
ATOM    112  H71 TRP d   1     -11.799   4.629  -6.257  0.00  0.00     0.044 H 
BRANCH 110 113
ATOM    113  CG  TRP d   1     -11.962   2.592  -5.669  0.00  0.00    -0.028 A 
ATOM    114  CD1 TRP d   1     -11.376   1.525  -6.293  0.00  0.00    -0.015 A 
ATOM    115  NE1 TRP d   1     -10.944   0.606  -5.355  0.00  0.00    -0.365 N 
ATOM    116  H72 TRP d   1     -11.266   1.415  -7.371  0.00  0.00     0.112 H 
ATOM    117  CE2 TRP d   1     -11.266   1.059  -4.099  0.00  0.00     0.042 A 
ATOM    118  H73 TRP d   1     -10.458  -0.278  -5.565  0.00  0.00     0.165 HD
ATOM    119  CD2 TRP d   1     -11.883   2.323  -4.253  0.00  0.00    -0.002 A 
ATOM    120  CZ2 TRP d   1     -11.048   0.479  -2.843  0.00  0.00    -0.056 A 
ATOM    121  CE3 TRP d   1     -12.268   3.034  -3.099  0.00  0.00    -0.070 A 
ATOM    122  CZ3 TRP d   1     -12.092   2.439  -1.855  0.00  0.00    -0.082 A 
ATOM    123  H74 TRP d   1     -12.694   4.027  -3.180  0.00  0.00     0.084 H 
ATOM    124  CH2 TRP d   1     -11.493   1.172  -1.734  0.00  0.00    -0.081 A 
ATOM    125  H76 TRP d   1     -12.422   2.960  -0.964  0.00  0.00     0.083 H 
ATOM    126  H77 TRP d   1     -11.378   0.731  -0.751  0.00  0.00     0.083 H 
ATOM    127  H75 TRP d   1     -10.549  -0.478  -2.745  0.00  0.00     0.086 H 
ENDBRANCH 110 113
ENDBRANCH 105 110
ENDBRANCH 103 105
ENDBRANCH  98 101
ENDBRANCH  96  98
ENDBRANCH  92  94
BRANCH  92 128
ATOM    128  CB  ILE d   1     -11.635   2.163 -14.893  0.00  0.00    -0.030 C 
ATOM    129  H56 ILE d   1     -12.160   2.995 -15.385  0.00  0.00     0.043 H 
BRANCH 128 130
ATOM    130  CG1 ILE d   1     -12.553   1.635 -13.783  0.00  0.00    -0.063 C 
ATOM    131  H57 ILE d   1     -11.932   1.133 -13.027  0.00  0.00     0.033 H 
ATOM    132  H58 ILE d   1     -13.251   0.909 -14.225  0.00  0.00     0.033 H 
BRANCH 130 133
ATOM    133  CD1 ILE d   1     -13.333   2.685 -13.120  0.00  0.00    -0.076 C 
ATOM    134  H62 ILE d   1     -13.965   2.235 -12.340  0.00  0.00     0.027 H 
ATOM    135  H63 ILE d   1     -13.970   3.192 -13.860  0.00  0.00     0.027 H 
ATOM    136  H64 ILE d   1     -12.650   3.416 -12.662  0.00  0.00     0.027 H 
ENDBRANCH 130 133
ENDBRANCH 128 130
BRANCH 128 137
ATOM    137  CG2 ILE d   1     -11.321   1.110 -15.958  0.00  0.00    -0.071 C 
ATOM    138  H59 ILE d   1     -10.662   1.547 -16.723  0.00  0.00     0.028 H 
ATOM    139  H60 ILE d   1     -12.257   0.774 -16.429  0.00  0.00     0.028 H 
ATOM    140  H61 ILE d   1     -10.819   0.252 -15.488  0.00  0.00     0.028 H 
ENDBRANCH 128 137
ENDBRANCH  92 128
ENDBRANCH  90  92
ENDBRANCH  86  88
BRANCH  86 141
ATOM    141  CB  GLN d   1      -7.703   2.812 -18.185  0.00  0.00    -0.030 C 
ATOM    142  H48 GLN d   1      -8.264   3.758 -18.197  0.00  0.00     0.037 H 
ATOM    143  H49 GLN d   1      -8.307   2.021 -18.654  0.00  0.00     0.037 H 
BRANCH 141 144
ATOM    144  CG  GLN d   1      -6.445   2.988 -18.971  0.00  0.00     0.011 C 
ATOM    145  H50 GLN d   1      -5.648   2.409 -18.482  0.00  0.00     0.047 H 
ATOM    146  H51 GLN d   1      -6.180   4.056 -18.964  0.00  0.00     0.047 H 
BRANCH 144 147
ATOM    147  CD  GLN d   1      -6.547   2.534 -20.408  0.00  0.00     0.215 C 
ATOM    148  OE1 GLN d   1      -6.442   3.344 -21.328  0.00  0.00    -0.274 OA
ATOM    149  NE2 GLN d   1      -6.727   1.237 -20.615  0.00  0.00    -0.370 N 
ATOM    150  H52 GLN d   1      -6.801   0.885 -21.548  0.00  0.00     0.159 HD
ATOM    151  H53 GLN d   1      -6.789   0.611 -19.838  0.00  0.00     0.159 HD
ENDBRANCH 144 147
ENDBRANCH 141 144
ENDBRANCH  86 141
ENDBRANCH  84  86
ENDBRANCH   1  82
BRANCH   1 152
ATOM    152  CB  GLU d   1      -8.599  -1.239 -14.638  0.00  0.00    -0.029 C 
ATOM    153  H42 GLU d   1      -9.355  -0.585 -15.097  0.00  0.00     0.037 H 
ATOM    154  H43 GLU d   1      -8.451  -0.947 -13.588  0.00  0.00     0.037 H 
BRANCH 152 155
ATOM    155  CG  GLU d   1      -9.125  -2.636 -14.658  0.00  0.00     0.018 C 
ATOM    156  H44 GLU d   1      -8.805  -3.120 -15.592  0.00  0.00     0.049 H 
ATOM    157  H45 GLU d   1     -10.224  -2.600 -14.622  0.00  0.00     0.049 H 
BRANCH 155 158
ATOM    158  CD  GLU d   1      -8.629  -3.459 -13.492  0.00  0.00     0.172 C 
ATOM    159  OE1 GLU d   1      -8.019  -2.878 -12.595  0.00  0.00    -0.648 OA
ATOM    160  OE2 GLU d   1      -8.840  -4.692 -13.483  0.00  0.00    -0.648 OA
ENDBRANCH 155 158
ENDBRANCH 152 155
ENDBRANCH   1 152
TORSDOF 46
