REMARK  21 active torsions:
REMARK  status: ('A' for Active; 'I' for Inactive)
REMARK    1  A    between atoms: CA_2  and  C_3 
REMARK       I    between atoms: C_3  and  N_8 
REMARK    2  A    between atoms: N_8  and  CA_9 
REMARK    3  A    between atoms: CA_9  and  C_10 
REMARK    4  A    between atoms: CA_9  and  CB_12 
REMARK       I    between atoms: C_10  and  N_16 
REMARK    5  A    between atoms: CB_12  and  CG_13 
REMARK    6  A    between atoms: N_16  and  CA_17 
REMARK    7  A    between atoms: CA_17  and  C_18 
REMARK    8  A    between atoms: CA_17  and  CB_20 
REMARK       I    between atoms: C_18  and  N_23 
REMARK    9  A    between atoms: CB_20  and  OG1_21 
REMARK   10  A    between atoms: CB_20  and  CG2_22 
REMARK   11  A    between atoms: N_23  and  CA_24 
REMARK   12  A    between atoms: CA_24  and  C_25 
REMARK   13  A    between atoms: CA_24  and  CB_27 
REMARK       I    between atoms: C_25  and  N_34 
REMARK   14  A    between atoms: CB_27  and  CG_28 
REMARK   15  A    between atoms: CG_28  and  CD_29 
REMARK   16  A    between atoms: CD_29  and  NE_30 
REMARK       I    between atoms: NE_30  and  CZ_31 
REMARK       I    between atoms: CZ_31  and  NH1_32 
REMARK   17  A    between atoms: CA_35  and  C_36 
REMARK       I    between atoms: C_36  and  N_41 
REMARK   18  A    between atoms: N_41  and  CA_42 
REMARK   19  A    between atoms: CA_42  and  C_43 
REMARK   20  A    between atoms: CA_42  and  CB_45 
REMARK       I    between atoms: C_43  and  N_46 
REMARK   21  A    between atoms: CA_47  and  C_48 
ROOT
ATOM      1  CA  ARG d   1      17.304  15.503  22.436  0.00  0.00     0.089 C 
ATOM      2  H22 ARG d   1      17.201  15.067  23.441  0.00  0.00     0.087 H 
ENDROOT
BRANCH   1   3
ATOM      3  N   ARG d   1      18.625  16.092  22.311  0.00  0.00    -0.346 N 
ATOM      4  C   THR d   1      19.719  15.415  22.619  0.00  0.00     0.243 C 
ATOM      5  O   THR d   1      19.705  14.284  23.116  0.00  0.00    -0.271 OA
ATOM      6  H21 ARG d   1      18.710  17.033  21.984  0.00  0.00     0.163 HD
BRANCH   4   7
ATOM      7  CA  THR d   1      21.019  16.155  22.354  0.00  0.00     0.113 C 
ATOM      8  H15 THR d   1      20.835  17.237  22.428  0.00  0.00     0.091 H 
BRANCH   7   9
ATOM      9  N   THR d   1      22.020  15.784  23.330  0.00  0.00    -0.344 N 
ATOM     10  C   ASP d   1      21.873  16.083  24.614  0.00  0.00     0.241 C 
ATOM     11  O   ASP d   1      20.868  16.639  25.069  0.00  0.00    -0.271 OA
ATOM     12  H14 THR d   1      22.838  15.293  23.031  0.00  0.00     0.163 HD
BRANCH  10  13
ATOM     13  CA  ASP d   1      22.976  15.658  25.555  0.00  0.00     0.098 C 
ATOM     14  H11 ASP d   1      22.538  15.290  26.494  0.00  0.00     0.088 H 
BRANCH  13  15
ATOM     15  N   ASP d   1      23.817  14.618  24.988  0.00  0.00    -0.345 N 
ATOM     16  C   PRO d   1      23.569  13.334  25.227  0.00  0.00     0.249 C 
ATOM     17  O   PRO d   1      22.611  12.953  25.904  0.00  0.00    -0.271 OA
ATOM     18  H10 ASP d   1      24.593  14.871  24.410  0.00  0.00     0.163 HD
BRANCH  16  19
ATOM     19  CA  PRO d   1      24.523  12.321  24.599  0.00  0.00     0.178 C 
ATOM     20  N   PRO d   1      24.654  12.484  23.144  0.00  0.00    -0.062 N 
ATOM     21  CD  PRO d   1      25.849  13.265  22.787  0.00  0.00     0.083 C 
ATOM     22  H1  PRO d   1      23.837  12.960  22.794  0.00  0.00     0.278 HD
ATOM     23  H2  PRO d   1      24.721  11.573  22.718  0.00  0.00     0.278 HD
ATOM     24  CG  PRO d   1      26.782  12.990  23.938  0.00  0.00    -0.040 C 
ATOM     25  H8  PRO d   1      25.615  14.337  22.714  0.00  0.00     0.075 H 
ATOM     26  H9  PRO d   1      26.280  12.918  21.836  0.00  0.00     0.075 H 
ATOM     27  CB  PRO d   1      25.962  12.504  25.116  0.00  0.00    -0.028 C 
ATOM     28  H6  PRO d   1      27.510  12.218  23.649  0.00  0.00     0.035 H 
ATOM     29  H7  PRO d   1      27.315  13.912  24.212  0.00  0.00     0.035 H 
ATOM     30  H4  PRO d   1      26.358  11.547  25.486  0.00  0.00     0.036 H 
ATOM     31  H5  PRO d   1      25.983  13.247  25.927  0.00  0.00     0.036 H 
ATOM     32  H3  PRO d   1      24.160  11.309  24.833  0.00  0.00     0.099 H 
ENDBRANCH  16  19
ENDBRANCH  13  15
BRANCH  13  33
ATOM     33  CB  ASP d   1      23.809  16.906  25.818  0.00  0.00     0.043 C 
ATOM     34  H12 ASP d   1      23.131  17.766  25.922  0.00  0.00     0.052 H 
ATOM     35  H13 ASP d   1      24.479  17.069  24.961  0.00  0.00     0.052 H 
BRANCH  33  36
ATOM     36  CG  ASP d   1      24.635  16.799  27.054  0.00  0.00     0.175 C 
ATOM     37  OD1 ASP d   1      24.354  15.880  27.854  0.00  0.00    -0.648 OA
ATOM     38  OD2 ASP d   1      25.552  17.642  27.235  0.00  0.00    -0.648 OA
ENDBRANCH  33  36
ENDBRANCH  13  33
ENDBRANCH  10  13
ENDBRANCH   7   9
BRANCH   7  39
ATOM     39  CB  THR d   1      21.510  15.831  20.955  0.00  0.00     0.060 C 
ATOM     40  H16 THR d   1      20.725  16.071  20.223  0.00  0.00     0.086 H 
BRANCH  39  41
ATOM     41  OG1 THR d   1      21.820  14.438  20.896  0.00  0.00    -0.393 OA
ATOM     42  H17 THR d   1      21.040  13.933  21.092  0.00  0.00     0.210 HD
ENDBRANCH  39  41
BRANCH  39  43
ATOM     43  CG2 THR d   1      22.747  16.621  20.640  0.00  0.00    -0.050 C 
ATOM     44  H18 THR d   1      23.090  16.375  19.624  0.00  0.00     0.031 H 
ATOM     45  H19 THR d   1      23.536  16.371  21.364  0.00  0.00     0.031 H 
ATOM     46  H20 THR d   1      22.521  17.696  20.701  0.00  0.00     0.031 H 
ENDBRANCH  39  43
ENDBRANCH   7  39
ENDBRANCH   4   7
ENDBRANCH   1   3
BRANCH   1  47
ATOM     47  C   ARG d   1      17.136  14.400  21.401  0.00  0.00     0.243 C 
ATOM     48  O   ARG d   1      17.333  14.651  20.204  0.00  0.00    -0.271 OA
ATOM     49  N   PRO d   1      16.743  13.187  21.798  0.00  0.00    -0.337 N 
ATOM     50  CA  PRO d   1      16.666  12.093  20.831  0.00  0.00     0.091 C 
ATOM     51  CD  PRO d   1      16.376  12.727  23.149  0.00  0.00    -0.001 C 
ATOM     52  CB  PRO d   1      16.361  10.859  21.687  0.00  0.00    -0.036 C 
ATOM     53  H34 PRO d   1      17.629  11.973  20.314  0.00  0.00     0.087 H 
ATOM     54  CG  PRO d   1      15.746  11.364  22.896  0.00  0.00    -0.048 C 
ATOM     55  H35 PRO d   1      17.289  10.319  21.925  0.00  0.00     0.036 H 
ATOM     56  H36 PRO d   1      15.671  10.186  21.158  0.00  0.00     0.036 H 
ATOM     57  H37 PRO d   1      15.948  10.687  23.739  0.00  0.00     0.035 H 
ATOM     58  H38 PRO d   1      14.659  11.465  22.759  0.00  0.00     0.035 H 
ATOM     59  H39 PRO d   1      15.655  13.414  23.617  0.00  0.00     0.064 H 
ATOM     60  H40 PRO d   1      17.265  12.637  23.790  0.00  0.00     0.064 H 
BRANCH  50  61
ATOM     61  C   PRO d   1      15.582  12.321  19.801  0.00  0.00     0.241 C 
ATOM     62  O   PRO d   1      14.605  13.042  20.030  0.00  0.00    -0.271 OA
ATOM     63  N   ALA d   1      15.786  11.691  18.653  0.00  0.00    -0.346 N 
ATOM     64  H41 ALA d   1      16.596  11.113  18.549  0.00  0.00     0.163 HD
BRANCH  63  65
ATOM     65  CA  ALA d   1      14.867  11.821  17.553  0.00  0.00     0.086 C 
ATOM     66  H42 ALA d   1      14.656  12.888  17.387  0.00  0.00     0.086 H 
BRANCH  65  67
ATOM     67  C   ALA d   1      13.564  11.105  17.893  0.00  0.00     0.243 C 
ATOM     68  O   ALA d   1      13.555  10.161  18.691  0.00  0.00    -0.271 OA
ATOM     69  N   PRO d   1      12.444  11.552  17.322  0.00  0.00    -0.336 N 
ATOM     70  CA  PRO d   1      11.120  10.988  17.605  0.00  0.00     0.098 C 
ATOM     71  CD  PRO d   1      12.367  12.684  16.379  0.00  0.00    -0.001 C 
ATOM     72  CB  PRO d   1      10.206  11.761  16.658  0.00  0.00    -0.035 C 
ATOM     73  H46 PRO d   1      10.846  11.173  18.654  0.00  0.00     0.089 H 
ATOM     74  CG  PRO d   1      10.923  13.014  16.371  0.00  0.00    -0.048 C 
ATOM     75  H47 PRO d   1       9.239  11.971  17.140  0.00  0.00     0.036 H 
ATOM     76  H48 PRO d   1      10.038  11.191  15.732  0.00  0.00     0.036 H 
ATOM     77  H49 PRO d   1      10.701  13.765  17.144  0.00  0.00     0.035 H 
ATOM     78  H50 PRO d   1      10.628  13.404  15.386  0.00  0.00     0.035 H 
ATOM     79  H51 PRO d   1      12.710  12.388  15.377  0.00  0.00     0.064 H 
ATOM     80  H52 PRO d   1      12.965  13.536  16.735  0.00  0.00     0.064 H 
BRANCH  70  81
ATOM     81  C   PRO d   1      11.017   9.500  17.328  0.00  0.00     0.196 C 
ATOM     82  O   PRO d   1      11.405   9.161  16.218  0.00  0.00    -0.646 OA
ATOM     83  OXT PRO d   1      10.560   8.841  18.252  0.00  0.00    -0.646 OA
ENDBRANCH  70  81
ENDBRANCH  65  67
BRANCH  65  84
ATOM     84  CB  ALA d   1      15.479  11.238  16.282  0.00  0.00    -0.049 C 
ATOM     85  H43 ALA d   1      14.767  11.344  15.450  0.00  0.00     0.030 H 
ATOM     86  H44 ALA d   1      15.704  10.173  16.439  0.00  0.00     0.030 H 
ATOM     87  H45 ALA d   1      16.407  11.777  16.041  0.00  0.00     0.030 H 
ENDBRANCH  65  84
ENDBRANCH  63  65
ENDBRANCH  50  61
ENDBRANCH   1  47
BRANCH   1  88
ATOM     88  CB  ARG d   1      16.238  16.572  22.255  0.00  0.00    -0.036 C 
ATOM     89  H23 ARG d   1      16.296  16.959  21.227  0.00  0.00     0.036 H 
ATOM     90  H24 ARG d   1      16.431  17.389  22.966  0.00  0.00     0.036 H 
BRANCH  88  91
ATOM     91  CG  ARG d   1      14.863  16.044  22.492  0.00  0.00    -0.048 C 
ATOM     92  H25 ARG d   1      14.898  15.332  23.330  0.00  0.00     0.035 H 
ATOM     93  H26 ARG d   1      14.523  15.525  21.584  0.00  0.00     0.035 H 
BRANCH  91  94
ATOM     94  CD  ARG d   1      13.880  17.132  22.823  0.00  0.00     0.009 C 
ATOM     95  H27 ARG d   1      14.350  17.839  23.522  0.00  0.00     0.064 H 
ATOM     96  H28 ARG d   1      12.994  16.683  23.296  0.00  0.00     0.064 H 
BRANCH  94  97
ATOM     97  NE  ARG d   1      13.467  17.851  21.628  0.00  0.00    -0.227 N 
ATOM     98  CZ  ARG d   1      13.441  19.165  21.491  0.00  0.00     0.665 C 
ATOM     99  NH1 ARG d   1      13.769  19.981  22.476  0.00  0.00    -0.235 N 
ATOM    100  NH2 ARG d   1      13.073  19.672  20.347  0.00  0.00    -0.235 N 
ATOM    101  H30 ARG d   1      13.737  21.000  22.333  0.00  0.00     0.174 HD
ATOM    102  H31 ARG d   1      14.057  19.598  23.388  0.00  0.00     0.174 HD
ATOM    103  H32 ARG d   1      12.814  19.050  19.568  0.00  0.00     0.174 HD
ATOM    104  H33 ARG d   1      13.042  20.694  20.223  0.00  0.00     0.174 HD
ATOM    105  H29 ARG d   1      13.169  17.287  20.819  0.00  0.00     0.177 HD
ENDBRANCH  94  97
ENDBRANCH  91  94
ENDBRANCH  88  91
ENDBRANCH   1  88
TORSDOF 21
