REMARK  4 active torsions:
REMARK  status: ('A' for Active; 'I' for Inactive)
REMARK    1  A    between atoms: C4_1  and  O6_8 
REMARK    2  A    between atoms: C10_4  and  N9_9 
REMARK    3  A    between atoms: C2_7  and  C1_6 
REMARK    4  A    between atoms: C18_16  and  C19_17 
ROOT
ATOM      1  C10 77U d   1      26.652   2.486   4.241  0.00  0.00     0.018 A 
ATOM      2  C13 77U d   1      25.756   5.126   4.125  0.00  0.00     0.067 A 
ATOM      3  C11 77U d   1      27.553   3.541   4.031  0.00  0.00    -0.060 A 
ATOM      4  C12 77U d   1      27.122   4.847   3.970  0.00  0.00    -0.059 A 
ATOM      5  C14 77U d   1      25.303   6.484   4.052  0.00  0.00     0.101 C 
ATOM      6  N15 77U d   1      25.036   7.590   3.982  0.00  0.00    -0.191 NA
ATOM      7  C16 77U d   1      24.839   4.075   4.334  0.00  0.00     0.062 A 
ATOM      8 CL1  77U d   1      23.140   4.397   4.522  0.00  0.00    -0.082 Cl
ATOM      9  C18 77U d   1      25.282   2.769   4.396  0.00  0.00    -0.017 A 
ATOM     10  H11 77U d   1      28.609   3.324   3.915  0.00  0.00     0.086 H 
ATOM     11  H12 77U d   1      27.830   5.651   3.804  0.00  0.00     0.086 H 
ENDROOT
BRANCH   9  12
ATOM     12  C19 77U d   1      24.258   1.686   4.637  0.00  0.00    -0.048 C 
ATOM     13  H13 77U d   1      24.759   0.707   4.660  0.00  0.00     0.033 H 
ATOM     14  H14 77U d   1      23.514   1.698   3.827  0.00  0.00     0.033 H 
ATOM     15  H15 77U d   1      23.756   1.864   5.599  0.00  0.00     0.033 H 
ENDBRANCH   9  12
BRANCH   1  16
ATOM     16  N9  77U d   1      27.122   1.167   4.317  0.00  0.00    -0.276 NA
ATOM     17  C8  77U d   1      26.614   0.312   3.209  0.00  0.00    -0.014 C 
ATOM     18  C7  77U d   1      27.509  -0.934   3.274  0.00  0.00    -0.028 C 
ATOM     19  H4  77U d   1      25.559   0.046   3.370  0.00  0.00     0.056 H 
ATOM     20  H5  77U d   1      26.720   0.821   2.240  0.00  0.00     0.056 H 
ATOM     21  C4  77U d   1      28.894  -0.317   3.555  0.00  0.00     0.052 C 
ATOM     22  H2  77U d   1      27.199  -1.607   4.087  0.00  0.00     0.038 H 
ATOM     23  H3  77U d   1      27.501  -1.482   2.320  0.00  0.00     0.038 H 
ATOM     24  C2  77U d   1      28.611   1.010   4.319  0.00  0.00     0.020 C 
ATOM     25  H1  77U d   1      29.409  -0.092   2.609  0.00  0.00     0.085 H 
ATOM     26  H9  77U d   1      29.082   1.848   3.784  0.00  0.00     0.067 H 
BRANCH  21  27
ATOM     27  O6  77U d   1      29.690  -1.243   4.301  0.00  0.00    -0.394 OA
ATOM     28  H10 77U d   1      30.529  -0.846   4.505  0.00  0.00     0.210 HD
ENDBRANCH  21  27
BRANCH  24  29
ATOM     29  C1  77U d   1      29.125   0.999   5.762  0.00  0.00    -0.059 C 
ATOM     30  H6  77U d   1      28.893   1.962   6.241  0.00  0.00     0.029 H 
ATOM     31  H7  77U d   1      30.214   0.842   5.762  0.00  0.00     0.029 H 
ATOM     32  H8  77U d   1      28.637   0.185   6.319  0.00  0.00     0.029 H 
ENDBRANCH  24  29
ENDBRANCH   1  16
TORSDOF 4
