REMARK  5 active torsions:
REMARK  status: ('A' for Active; 'I' for Inactive)
REMARK    1  A    between atoms: C7_3  and  C8_4 
REMARK    2  A    between atoms: C7_3  and  O9_10 
REMARK    3  A    between atoms: C10_5  and  N4_9 
REMARK    4  A    between atoms: C2_8  and  C1_7 
REMARK    5  A    between atoms: C18_17  and  C19_18 
ROOT
ATOM      1  C10 77T d   1      26.333   3.114   4.328  0.00  0.00     0.039 A 
ATOM      2  C13 77T d   1      25.302   5.725   4.217  0.00  0.00     0.083 A 
ATOM      3  C11 77T d   1      27.155   4.218   4.061  0.00  0.00    -0.055 A 
ATOM      4  C12 77T d   1      26.664   5.492   4.012  0.00  0.00    -0.058 A 
ATOM      5  C14 77T d   1      24.891   7.090   4.131  0.00  0.00     0.102 C 
ATOM      6  N15 77T d   1      24.545   8.167   4.072  0.00  0.00    -0.191 NA
ATOM      7  C16 77T d   1      24.419   4.647   4.486  0.00  0.00     0.145 A 
ATOM      8  F17 77T d   1      23.084   4.875   4.684  0.00  0.00    -0.204 F 
ATOM      9  C18 77T d   1      24.932   3.341   4.540  0.00  0.00     0.005 A 
ATOM     10  H13 77T d   1      28.213   4.056   3.888  0.00  0.00     0.087 H 
ATOM     11  H14 77T d   1      27.332   6.323   3.814  0.00  0.00     0.086 H 
ENDROOT
BRANCH   9  12
ATOM     12  C19 77T d   1      23.911   2.268   4.835  0.00  0.00    -0.046 C 
ATOM     13  H15 77T d   1      24.407   1.286   4.856  0.00  0.00     0.033 H 
ATOM     14  H16 77T d   1      23.139   2.272   4.052  0.00  0.00     0.033 H 
ATOM     15  H17 77T d   1      23.444   2.465   5.811  0.00  0.00     0.033 H 
ENDBRANCH   9  12
BRANCH   1  16
ATOM     16  N4  77T d   1      27.064   1.897   4.330  0.00  0.00    -0.373 N 
ATOM     17  C5  77T d   1      28.318   1.912   5.152  0.00  0.00    -0.002 C 
ATOM     18  C6  77T d   1      28.487   0.457   5.671  0.00  0.00    -0.020 C 
ATOM     19  H1  77T d   1      29.180   2.203   4.534  0.00  0.00     0.064 H 
ATOM     20  H2  77T d   1      28.218   2.612   5.994  0.00  0.00     0.064 H 
ATOM     21  C7  77T d   1      27.573  -0.373   4.738  0.00  0.00     0.076 C 
ATOM     22  H3  77T d   1      28.159   0.373   6.718  0.00  0.00     0.040 H 
ATOM     23  H4  77T d   1      29.534   0.130   5.587  0.00  0.00     0.040 H 
ATOM     24  C2  77T d   1      26.407   0.591   4.512  0.00  0.00     0.038 C 
ATOM     25  H11 77T d   1      25.731   0.614   5.379  0.00  0.00     0.076 H 
BRANCH  21  26
ATOM     26  C8  77T d   1      27.042  -1.661   5.374  0.00  0.00    -0.046 C 
ATOM     27  H5  77T d   1      26.404  -2.191   4.651  0.00  0.00     0.031 H 
ATOM     28  H6  77T d   1      26.453  -1.412   6.269  0.00  0.00     0.031 H 
ATOM     29  H7  77T d   1      27.887  -2.305   5.658  0.00  0.00     0.031 H 
ENDBRANCH  21  26
BRANCH  21  30
ATOM     30  O9  77T d   1      28.273  -0.671   3.530  0.00  0.00    -0.388 OA
ATOM     31  H12 77T d   1      28.597   0.135   3.146  0.00  0.00     0.210 HD
ENDBRANCH  21  30
BRANCH  24  32
ATOM     32  C1  77T d   1      25.636   0.151   3.271  0.00  0.00    -0.054 C 
ATOM     33  H8  77T d   1      24.794   0.838   3.099  0.00  0.00     0.030 H 
ATOM     34  H9  77T d   1      25.252  -0.869   3.420  0.00  0.00     0.030 H 
ATOM     35  H10 77T d   1      26.306   0.166   2.399  0.00  0.00     0.030 H 
ENDBRANCH  24  32
ENDBRANCH   1  16
TORSDOF 5
