REMARK  3 active torsions:
REMARK  status: ('A' for Active; 'I' for Inactive)
REMARK    1  A    between atoms: C2_2  and  C1_1 
REMARK       I    between atoms: C1_1  and  N1_16 
REMARK    2  A    between atoms: C7_13  and  C6_6 
REMARK    3  A    between atoms: C6_6  and  N2_14 
ROOT
ATOM      1  C6  76Y d   1      16.558  42.916   7.746  0.00  0.00     0.025 C 
ATOM      2  H4  76Y d   1      17.389  43.275   8.372  0.00  0.00     0.072 H 
ATOM      3  H5  76Y d   1      15.707  43.608   7.835  0.00  0.00     0.072 H 
ENDROOT
BRANCH   1   4
ATOM      4  C7  76Y d   1      16.130  41.548   8.238  0.00  0.00    -0.018 A 
ATOM      5  C12 76Y d   1      15.646  41.379   9.634  0.00  0.00     0.042 A 
ATOM      6  C11 76Y d   1      15.236  40.132  10.092  0.00  0.00    -0.061 A 
ATOM      7 CL   76Y d   1      15.591  42.785  10.723  0.00  0.00    -0.084 Cl
ATOM      8  C10 76Y d   1      15.275  39.043   9.230  0.00  0.00    -0.081 A 
ATOM      9  H6  76Y d   1      14.889  40.011  11.112  0.00  0.00     0.086 H 
ATOM     10  C9  76Y d   1      15.718  39.192   7.916  0.00  0.00    -0.082 A 
ATOM     11  H7  76Y d   1      14.958  38.068   9.582  0.00  0.00     0.083 H 
ATOM     12  C8  76Y d   1      16.143  40.423   7.425  0.00  0.00    -0.074 A 
ATOM     13  H8  76Y d   1      15.732  38.328   7.261  0.00  0.00     0.083 H 
ATOM     14  H9  76Y d   1      16.487  40.504   6.400  0.00  0.00     0.084 H 
ENDBRANCH   1   4
BRANCH   1  15
ATOM     15  N2  76Y d   1      16.998  42.884   6.348  0.00  0.00    -0.348 N 
ATOM     16  C2  76Y d   1      18.223  42.581   5.887  0.00  0.00     0.102 A 
ATOM     17  C3  76Y d   1      18.182  42.657   4.497  0.00  0.00    -0.050 A 
ATOM     18  C4  76Y d   1      16.907  43.017   4.142  0.00  0.00    -0.066 A 
ATOM     19  H1  76Y d   1      19.011  42.466   3.817  0.00  0.00     0.087 H 
ATOM     20  C5  76Y d   1      16.190  43.144   5.311  0.00  0.00    -0.019 A 
ATOM     21  H2  76Y d   1      16.534  43.172   3.131  0.00  0.00     0.085 H 
ATOM     22  H3  76Y d   1      15.137  43.412   5.381  0.00  0.00     0.111 H 
BRANCH  16  23
ATOM     23  C1  76Y d   1      19.406  42.208   6.715  0.00  0.00     0.266 C 
ATOM     24  O   76Y d   1      19.255  41.930   7.889  0.00  0.00    -0.266 OA
ATOM     25  N1  76Y d   1      20.622  42.170   6.175  0.00  0.00    -0.365 N 
ATOM     26  H10 76Y d   1      21.411  41.919   6.736  0.00  0.00     0.159 HD
ATOM     27  H11 76Y d   1      20.747  42.392   5.208  0.00  0.00     0.159 HD
ENDBRANCH  16  23
ENDBRANCH   1  15
TORSDOF 3
