REMARK WARNING: 32 MAX_TORS EXCEEDED!!!
REMARK  37 active torsions:
REMARK  status: ('A' for Active; 'I' for Inactive)
REMARK    1  A    between atoms: N_1  and  CA_2 
REMARK    2  A    between atoms: CA_2  and  C_3 
REMARK    3  A    between atoms: CA_2  and  CB_5 
REMARK       I    between atoms: C_3  and  N_6 
REMARK    4  A    between atoms: N_6  and  CA_7 
REMARK    5  A    between atoms: CA_7  and  C_8 
REMARK    6  A    between atoms: CA_7  and  CB_10 
REMARK       I    between atoms: C_8  and  N_17 
REMARK    7  A    between atoms: CB_10  and  CG_11 
REMARK    8  A    between atoms: CG_11  and  CD_12 
REMARK    9  A    between atoms: CD_12  and  NE_13 
REMARK       I    between atoms: NE_13  and  CZ_14 
REMARK       I    between atoms: CZ_14  and  NH1_15 
REMARK   10  A    between atoms: N_17  and  CA_18 
REMARK   11  A    between atoms: CA_18  and  C_19 
REMARK   12  A    between atoms: CA_18  and  CB_21 
REMARK       I    between atoms: C_19  and  N_24 
REMARK   13  A    between atoms: CB_21  and  OG1_22 
REMARK   14  A    between atoms: CB_21  and  CG2_23 
REMARK   15  A    between atoms: N_24  and  CA_25 
REMARK   16  A    between atoms: CA_25  and  C_26 
REMARK   17  A    between atoms: CA_25  and  CB_28 
REMARK       I    between atoms: C_26  and  N_33 
REMARK   18  A    between atoms: CB_28  and  CG_29 
REMARK   19  A    between atoms: CG_29  and  CD_30 
REMARK   20  A    between atoms: CD_30  and  CE_31 
REMARK   21  A    between atoms: CE_31  and  NZ_32 
REMARK   22  A    between atoms: N_33  and  CA_34 
REMARK   23  A    between atoms: CA_34  and  C_35 
REMARK   24  A    between atoms: CA_34  and  CB_37 
REMARK       I    between atoms: C_35  and  N_42 
REMARK   25  A    between atoms: CB_37  and  CG_38 
REMARK   26  A    between atoms: CG_38  and  CD_39 
REMARK       I    between atoms: CD_39  and  NE2_41 
REMARK   27  A    between atoms: N_42  and  CA_43 
REMARK   28  A    between atoms: CA_43  and  C_44 
REMARK   29  A    between atoms: CA_43  and  CB_46 
REMARK       I    between atoms: C_44  and  N_49 
REMARK   30  A    between atoms: CB_46  and  OG1_47 
REMARK   31  A    between atoms: CB_46  and  CG2_48 
REMARK   32  A    between atoms: N_49  and  CA_50 
REMARK   33  A    between atoms: CA_50  and  C_51 
REMARK   34  A    between atoms: CA_50  and  CB_53 
REMARK       I    between atoms: C_51  and  N_54 
REMARK   35  A    between atoms: N_54  and  CA_55 
REMARK   36  A    between atoms: CA_55  and  C_56 
REMARK   37  A    between atoms: CA_55  and  CB_58 
ROOT
ATOM      1  CA  LYS d   1      15.142  31.956  10.225  0.00  0.00     0.089 C 
ATOM      2  H29 LYS d   1      15.876  31.183  10.496  0.00  0.00     0.087 H 
ENDROOT
BRANCH   1   3
ATOM      3  N   LYS d   1      15.322  33.088  11.146  0.00  0.00    -0.346 N 
ATOM      4  C   THR d   1      16.495  33.697  11.312  0.00  0.00     0.243 C 
ATOM      5  O   THR d   1      17.538  33.289  10.801  0.00  0.00    -0.271 OA
ATOM      6  H28 LYS d   1      14.533  33.413  11.668  0.00  0.00     0.163 HD
BRANCH   4   7
ATOM      7  CA  THR d   1      16.499  34.938  12.212  0.00  0.00     0.113 C 
ATOM      8  H22 THR d   1      16.097  34.643  13.192  0.00  0.00     0.091 H 
BRANCH   7   9
ATOM      9  N   THR d   1      17.861  35.444  12.423  0.00  0.00    -0.344 N 
ATOM     10  C   ARG d   1      18.563  35.190  13.529  0.00  0.00     0.241 C 
ATOM     11  O   ARG d   1      18.122  34.531  14.480  0.00  0.00    -0.271 OA
ATOM     12  H21 THR d   1      18.280  36.003  11.707  0.00  0.00     0.163 HD
BRANCH  10  13
ATOM     13  CA  ARG d   1      19.979  35.777  13.575  0.00  0.00     0.089 C 
ATOM     14  H9  ARG d   1      19.974  36.736  13.037  0.00  0.00     0.087 H 
BRANCH  13  15
ATOM     15  N   ARG d   1      20.366  36.014  14.957  0.00  0.00    -0.346 N 
ATOM     16  C   ALA d   1      20.392  37.222  15.506  0.00  0.00     0.248 C 
ATOM     17  O   ALA d   1      20.059  38.250  14.909  0.00  0.00    -0.271 OA
ATOM     18  H8  ARG d   1      20.625  35.229  15.520  0.00  0.00     0.163 HD
BRANCH  16  19
ATOM     19  CA  ALA d   1      20.860  37.276  16.957  0.00  0.00     0.172 C 
ATOM     20  H4  ALA d   1      21.450  36.370  17.161  0.00  0.00     0.098 H 
BRANCH  19  21
ATOM     21  N   ALA d   1      21.736  38.463  17.196  0.00  0.00    -0.067 N 
ATOM     22  H1  ALA d   1      22.030  38.475  18.160  0.00  0.00     0.275 HD
ATOM     23  H2  ALA d   1      21.223  39.306  16.991  0.00  0.00     0.275 HD
ATOM     24  H3  ALA d   1      22.546  38.409  16.598  0.00  0.00     0.275 HD
ENDBRANCH  19  21
BRANCH  19  25
ATOM     25  CB  ALA d   1      19.663  37.288  17.902  0.00  0.00    -0.042 C 
ATOM     26  H5  ALA d   1      19.034  36.407  17.708  0.00  0.00     0.030 H 
ATOM     27  H6  ALA d   1      19.074  38.202  17.736  0.00  0.00     0.030 H 
ATOM     28  H7  ALA d   1      20.017  37.263  18.943  0.00  0.00     0.030 H 
ENDBRANCH  19  25
ENDBRANCH  16  19
ENDBRANCH  13  15
BRANCH  13  29
ATOM     29  CB  ARG d   1      21.010  34.848  12.905  0.00  0.00    -0.036 C 
ATOM     30  H10 ARG d   1      22.014  35.183  13.205  0.00  0.00     0.036 H 
ATOM     31  H11 ARG d   1      20.900  34.950  11.815  0.00  0.00     0.036 H 
BRANCH  29  32
ATOM     32  CG  ARG d   1      20.884  33.368  13.254  0.00  0.00    -0.048 C 
ATOM     33  H12 ARG d   1      20.257  32.885  12.490  0.00  0.00     0.035 H 
ATOM     34  H13 ARG d   1      20.396  33.284  14.236  0.00  0.00     0.035 H 
BRANCH  32  35
ATOM     35  CD  ARG d   1      22.221  32.629  13.317  0.00  0.00     0.009 C 
ATOM     36  H14 ARG d   1      22.857  33.092  14.086  0.00  0.00     0.064 H 
ATOM     37  H15 ARG d   1      22.721  32.697  12.339  0.00  0.00     0.064 H 
BRANCH  35  38
ATOM     38  NE  ARG d   1      22.002  31.218  13.653  0.00  0.00    -0.227 N 
ATOM     39  CZ  ARG d   1      21.674  30.747  14.864  0.00  0.00     0.665 C 
ATOM     40  NH1 ARG d   1      21.534  31.554  15.920  0.00  0.00    -0.235 N 
ATOM     41  NH2 ARG d   1      21.483  29.441  15.027  0.00  0.00    -0.235 N 
ATOM     42  H17 ARG d   1      21.281  31.162  16.838  0.00  0.00     0.174 HD
ATOM     43  H18 ARG d   1      21.679  32.568  15.816  0.00  0.00     0.174 HD
ATOM     44  H19 ARG d   1      21.586  28.802  14.226  0.00  0.00     0.174 HD
ATOM     45  H20 ARG d   1      21.232  29.069  15.954  0.00  0.00     0.174 HD
ATOM     46  H16 ARG d   1      22.110  30.531  12.893  0.00  0.00     0.177 HD
ENDBRANCH  35  38
ENDBRANCH  32  35
ENDBRANCH  29  32
ENDBRANCH  13  29
ENDBRANCH  10  13
ENDBRANCH   7   9
BRANCH   7  47
ATOM     47  CB  THR d   1      15.575  36.040  11.632  0.00  0.00     0.060 C 
ATOM     48  H23 THR d   1      14.587  35.604  11.424  0.00  0.00     0.086 H 
BRANCH  47  49
ATOM     49  OG1 THR d   1      16.125  36.560  10.418  0.00  0.00    -0.393 OA
ATOM     50  H24 THR d   1      15.550  37.233  10.074  0.00  0.00     0.210 HD
ENDBRANCH  47  49
BRANCH  47  51
ATOM     51  CG2 THR d   1      15.421  37.170  12.622  0.00  0.00    -0.050 C 
ATOM     52  H25 THR d   1      14.764  37.943  12.197  0.00  0.00     0.031 H 
ATOM     53  H26 THR d   1      16.408  37.606  12.838  0.00  0.00     0.031 H 
ATOM     54  H27 THR d   1      14.979  36.785  13.553  0.00  0.00     0.031 H 
ENDBRANCH  47  51
ENDBRANCH   7  47
ENDBRANCH   4   7
ENDBRANCH   1   3
BRANCH   1  55
ATOM     55  C   LYS d   1      15.390  32.346   8.761  0.00  0.00     0.241 C 
ATOM     56  O   LYS d   1      15.814  31.512   7.957  0.00  0.00    -0.271 OA
ATOM     57  N   GLN d   1      15.121  33.605   8.428  0.00  0.00    -0.346 N 
ATOM     58  H41 GLN d   1      14.726  34.212   9.118  0.00  0.00     0.163 HD
BRANCH  57  59
ATOM     59  CA  GLN d   1      15.380  34.132   7.096  0.00  0.00     0.090 C 
ATOM     60  H42 GLN d   1      15.025  33.397   6.359  0.00  0.00     0.087 H 
BRANCH  59  61
ATOM     61  C   GLN d   1      16.880  34.363   6.859  0.00  0.00     0.241 C 
ATOM     62  O   GLN d   1      17.408  33.938   5.825  0.00  0.00    -0.271 OA
ATOM     63  N   THR d   1      17.556  35.031   7.801  0.00  0.00    -0.344 N 
ATOM     64  H49 THR d   1      17.070  35.349   8.615  0.00  0.00     0.163 HD
BRANCH  63  65
ATOM     65  CA  THR d   1      19.001  35.311   7.671  0.00  0.00     0.113 C 
ATOM     66  H50 THR d   1      19.147  35.738   6.668  0.00  0.00     0.091 H 
BRANCH  65  67
ATOM     67  C   THR d   1      19.882  34.056   7.768  0.00  0.00     0.243 C 
ATOM     68  O   THR d   1      21.011  34.064   7.287  0.00  0.00    -0.271 OA
ATOM     69  N   ALA d   1      19.372  33.000   8.399  0.00  0.00    -0.346 N 
ATOM     70  H56 ALA d   1      18.505  33.103   8.886  0.00  0.00     0.163 HD
BRANCH  69  71
ATOM     71  CA  ALA d   1      20.033  31.692   8.407  0.00  0.00     0.086 C 
ATOM     72  H57 ALA d   1      21.117  31.865   8.482  0.00  0.00     0.086 H 
BRANCH  71  73
ATOM     73  C   ALA d   1      19.774  30.898   7.106  0.00  0.00     0.240 C 
ATOM     74  O   ALA d   1      20.692  30.256   6.587  0.00  0.00    -0.271 OA
ATOM     75  N   ARG d   1      18.539  30.935   6.592  0.00  0.00    -0.345 N 
ATOM     76  H61 ARG d   1      17.822  31.416   7.097  0.00  0.00     0.163 HD
BRANCH  75  77
ATOM     77  CA  ARG d   1      18.193  30.293   5.306  0.00  0.00     0.093 C 
ATOM     78  H62 ARG d   1      18.781  29.368   5.214  0.00  0.00     0.089 H 
BRANCH  77  79
ATOM     79  C   ARG d   1      18.543  31.210   4.132  0.00  0.00     0.196 C 
ATOM     80  O   ARG d   1      19.719  31.471   3.854  0.00  0.00    -0.646 OA
ATOM     81  OXT ARG d   1      17.659  31.714   3.430  0.00  0.00    -0.646 OA
ENDBRANCH  77  79
BRANCH  77  82
ATOM     82  CB  ARG d   1      16.704  29.927   5.254  0.00  0.00    -0.048 C 
ATOM     83  H63 ARG d   1      16.477  29.452   4.288  0.00  0.00     0.030 H 
ATOM     84  H64 ARG d   1      16.098  30.838   5.366  0.00  0.00     0.030 H 
ATOM     85  H65 ARG d   1      16.470  29.228   6.070  0.00  0.00     0.030 H 
ENDBRANCH  77  82
ENDBRANCH  75  77
ENDBRANCH  71  73
BRANCH  71  86
ATOM     86  CB  ALA d   1      19.600  30.888   9.624  0.00  0.00    -0.049 C 
ATOM     87  H58 ALA d   1      20.104  29.910   9.616  0.00  0.00     0.030 H 
ATOM     88  H59 ALA d   1      18.511  30.739   9.597  0.00  0.00     0.030 H 
ATOM     89  H60 ALA d   1      19.873  31.433  10.540  0.00  0.00     0.030 H 
ENDBRANCH  71  86
ENDBRANCH  69  71
ENDBRANCH  65  67
BRANCH  65  90
ATOM     90  CB  THR d   1      19.512  36.350   8.697  0.00  0.00     0.060 C 
ATOM     91  H51 THR d   1      20.590  36.498   8.536  0.00  0.00     0.086 H 
BRANCH  90  92
ATOM     92  OG1 THR d   1      19.309  35.867  10.028  0.00  0.00    -0.393 OA
ATOM     93  H52 THR d   1      18.382  35.717  10.171  0.00  0.00     0.210 HD
ENDBRANCH  90  92
BRANCH  90  94
ATOM     94  CG2 THR d   1      18.807  37.690   8.519  0.00  0.00    -0.050 C 
ATOM     95  H53 THR d   1      19.190  38.407   9.260  0.00  0.00     0.031 H 
ATOM     96  H54 THR d   1      17.725  37.557   8.663  0.00  0.00     0.031 H 
ATOM     97  H55 THR d   1      18.998  38.073   7.506  0.00  0.00     0.031 H 
ENDBRANCH  90  94
ENDBRANCH  65  90
ENDBRANCH  63  65
ENDBRANCH  59  61
BRANCH  59  98
ATOM     98  CB  GLN d   1      14.605  35.432   6.898  0.00  0.00    -0.030 C 
ATOM     99  H43 GLN d   1      15.066  36.206   7.529  0.00  0.00     0.037 H 
ATOM    100  H44 GLN d   1      13.567  35.265   7.222  0.00  0.00     0.037 H 
BRANCH  98 101
ATOM    101  CG  GLN d   1      14.579  35.942   5.464  0.00  0.00     0.011 C 
ATOM    102  H45 GLN d   1      13.671  35.563   4.972  0.00  0.00     0.047 H 
ATOM    103  H46 GLN d   1      15.467  35.561   4.939  0.00  0.00     0.047 H 
BRANCH 101 104
ATOM    104  CD  GLN d   1      14.579  37.459   5.382  0.00  0.00     0.215 C 
ATOM    105  OE1 GLN d   1      15.216  38.144   6.190  0.00  0.00    -0.274 OA
ATOM    106  NE2 GLN d   1      13.863  37.994   4.401  0.00  0.00    -0.370 N 
ATOM    107  H47 GLN d   1      13.824  38.988   4.295  0.00  0.00     0.159 HD
ATOM    108  H48 GLN d   1      13.363  37.404   3.768  0.00  0.00     0.159 HD
ENDBRANCH 101 104
ENDBRANCH  98 101
ENDBRANCH  59  98
ENDBRANCH  57  59
ENDBRANCH   1  55
BRANCH   1 109
ATOM    109  CB  LYS d   1      13.737  31.358  10.380  0.00  0.00    -0.038 C 
ATOM    110  H30 LYS d   1      13.003  32.160  10.214  0.00  0.00     0.036 H 
ATOM    111  H31 LYS d   1      13.638  30.977  11.407  0.00  0.00     0.036 H 
BRANCH 109 112
ATOM    112  CG  LYS d   1      13.420  30.221   9.421  0.00  0.00    -0.061 C 
ATOM    113  H32 LYS d   1      14.310  29.583   9.315  0.00  0.00     0.033 H 
ATOM    114  H33 LYS d   1      13.152  30.643   8.441  0.00  0.00     0.033 H 
BRANCH 112 115
ATOM    115  CD  LYS d   1      12.262  29.376   9.930  0.00  0.00    -0.043 C 
ATOM    116  H34 LYS d   1      11.470  30.045  10.297  0.00  0.00     0.035 H 
ATOM    117  H35 LYS d   1      12.620  28.745  10.757  0.00  0.00     0.035 H 
BRANCH 115 118
ATOM    118  CE  LYS d   1      11.683  28.479   8.843  0.00  0.00     0.080 C 
ATOM    119  H36 LYS d   1      12.449  27.751   8.537  0.00  0.00     0.075 H 
ATOM    120  H37 LYS d   1      11.402  29.101   7.980  0.00  0.00     0.075 H 
BRANCH 118 121
ATOM    121  NZ  LYS d   1      10.478  27.740   9.317  0.00  0.00    -0.079 N 
ATOM    122  H38 LYS d   1      10.125  27.160   8.572  0.00  0.00     0.274 HD
ATOM    123  H39 LYS d   1       9.767  28.399   9.595  0.00  0.00     0.274 HD
ATOM    124  H40 LYS d   1      10.726  27.162  10.104  0.00  0.00     0.274 HD
ENDBRANCH 118 121
ENDBRANCH 115 118
ENDBRANCH 112 115
ENDBRANCH 109 112
ENDBRANCH   1 109
TORSDOF 37
