REMARK  30 active torsions:
REMARK  status: ('A' for Active; 'I' for Inactive)
REMARK    1  A    between atoms: N_1  and  CA_2 
REMARK    2  A    between atoms: CA_2  and  C_3 
REMARK    3  A    between atoms: CA_2  and  CB_5 
REMARK       I    between atoms: C_3  and  N_7 
REMARK    4  A    between atoms: CB_5  and  OG_6 
REMARK    5  A    between atoms: N_7  and  CA_8 
REMARK    6  A    between atoms: CA_8  and  C_9 
REMARK       I    between atoms: C_9  and  N_11 
REMARK    7  A    between atoms: N_11  and  CA_12 
REMARK    8  A    between atoms: CA_24  and  CB_27 
REMARK    9  A    between atoms: CB_27  and  OG_28 
REMARK   10  A    between atoms: CA_30  and  CB_33 
REMARK   11  A    between atoms: CB_33  and  CG_34 
REMARK       I    between atoms: CG_34  and  ND2_36 
REMARK   12  A    between atoms: CA_45  and  CB_48 
REMARK   13  A    between atoms: CA_56  and  CB_59 
REMARK   14  A    between atoms: CB_59  and  CG_60 
REMARK   15  A    between atoms: CG_60  and  CD_61 
REMARK   16  A    between atoms: CD_61  and  NE_62 
REMARK       I    between atoms: NE_62  and  CZ_63 
REMARK       I    between atoms: CZ_63  and  NH1_64 
REMARK   17  A    between atoms: CA_67  and  CB_70 
REMARK   18  A    between atoms: CB_70  and  CG1_71 
REMARK   19  A    between atoms: CB_70  and  CG2_72 
REMARK   20  A    between atoms: CA_74  and  CB_77 
REMARK   21  A    between atoms: CB_77  and  CG_78 
REMARK       I    between atoms: CG_78  and  ND2_80 
REMARK   22  A    between atoms: CA_82  and  CB_85 
REMARK   23  A    between atoms: CB_85  and  CG_86 
REMARK       I    between atoms: CG_86  and  ND2_88 
REMARK   24  A    between atoms: CA_97  and  CB_100 
REMARK   25  A    between atoms: CB_100  and  CG_101 
REMARK       I    between atoms: CG_101  and  ND2_103 
REMARK   26  A    between atoms: CA_105  and  CB_108 
REMARK   27  A    between atoms: CB_108  and  CG1_109 
REMARK   28  A    between atoms: CB_108  and  CG2_110 
REMARK   29  A    between atoms: CG1_109  and  CD1_111 
REMARK   30  A    between atoms: CA_113  and  C_114 
REMARK       I    between atoms: C_114  and  N_118 
ROOT
ATOM      1  N   SER d   1     -14.223  -0.305  -8.750  0.00  0.00    -0.344 N 
ATOM      2  CA  SER d   1     -15.531  -0.966  -8.705  0.00  0.00     0.109 C 
ATOM      3  C   SER d   1     -15.869  -1.635 -10.063  0.00  0.00     0.243 C 
ATOM      4  O   SER d   1     -16.762  -2.484 -10.130  0.00  0.00    -0.271 OA
ATOM      5  H19 SER d   1     -14.207   0.681  -8.915  0.00  0.00     0.163 HD
ATOM      6  H20 SER d   1     -15.495  -1.750  -7.934  0.00  0.00     0.090 H 
ATOM      7  CA  CYS d   1     -12.421   2.585 -11.427  0.00  0.00     0.098 C 
ATOM      8  C   CYS d   1     -12.307   1.186 -10.814  0.00  0.00     0.242 C 
ATOM      9  O   CYS d   1     -12.562   0.195 -11.496  0.00  0.00    -0.271 OA
ATOM     10  CB  CYS d   1     -11.044   3.162 -11.739  0.00  0.00     0.013 C 
ATOM     11  SG  CYS d   1      -9.976   2.070 -12.703  0.00  0.00    -0.095 SA
ATOM     12  N   CYS d   1     -11.969   1.127  -9.510  0.00  0.00    -0.345 N 
ATOM     13  CA  CYS d   1     -11.775  -0.089  -8.725  0.00  0.00     0.098 C 
ATOM     14  C   CYS d   1     -13.039  -0.932  -8.584  0.00  0.00     0.242 C 
ATOM     15  O   CYS d   1     -12.935  -2.141  -8.372  0.00  0.00    -0.271 OA
ATOM     16  CB  CYS d   1     -11.158   0.243  -7.370  0.00  0.00     0.013 C 
ATOM     17  SG  CYS d   1      -9.590   1.155  -7.473  0.00  0.00    -0.095 SA
ATOM     18  N   CYS d   1     -11.663  -1.715 -15.798  0.00  0.00    -0.345 N 
ATOM     19  CA  CYS d   1     -10.825  -0.634 -15.279  0.00  0.00     0.098 C 
ATOM     20  C   CYS d   1      -9.731  -1.144 -14.351  0.00  0.00     0.241 C 
ATOM     21  O   CYS d   1      -8.564  -0.810 -14.556  0.00  0.00    -0.271 OA
ATOM     22  CB  CYS d   1     -11.681   0.437 -14.610  0.00  0.00     0.013 C 
ATOM     23  SG  CYS d   1     -10.892   2.065 -14.518  0.00  0.00    -0.095 SA
ATOM     24  N   CYS d   1      -5.635   0.837  -8.842  0.00  0.00    -0.345 N 
ATOM     25  CA  CYS d   1      -6.328  -0.141  -7.995  0.00  0.00     0.098 C 
ATOM     26  CB  CYS d   1      -7.545  -0.715  -8.718  0.00  0.00     0.013 C 
ATOM     27  SG  CYS d   1      -8.757   0.533  -9.220  0.00  0.00    -0.095 SA
ATOM     28  H12 CYS d   1     -12.992   2.509 -12.364  0.00  0.00     0.088 H 
ATOM     29  H13 CYS d   1     -10.540   3.383 -10.787  0.00  0.00     0.053 H 
ATOM     30  H14 CYS d   1     -11.182   4.095 -12.305  0.00  0.00     0.053 H 
ATOM     31  H15 CYS d   1     -11.839   1.998  -9.036  0.00  0.00     0.163 HD
ATOM     32  H16 CYS d   1     -11.046  -0.707  -9.270  0.00  0.00     0.088 H 
ATOM     33  H17 CYS d   1     -10.975  -0.700  -6.833  0.00  0.00     0.053 H 
ATOM     34  H18 CYS d   1     -11.876   0.854  -6.803  0.00  0.00     0.053 H 
ATOM     35  H42 CYS d   1     -12.629  -1.715 -15.539  0.00  0.00     0.163 HD
ATOM     36  H43 CYS d   1     -10.326  -0.166 -16.140  0.00  0.00     0.088 H 
ATOM     37  H44 CYS d   1     -11.910   0.106 -13.586  0.00  0.00     0.053 H 
ATOM     38  H45 CYS d   1     -12.616   0.538 -15.181  0.00  0.00     0.053 H 
ATOM     39 4H10 CYS d   1      -5.510   0.626  -9.811  0.00  0.00     0.163 HD
ATOM     40 5H10 CYS d   1      -6.697   0.399  -7.110  0.00  0.00     0.088 H 
ATOM     41 6H10 CYS d   1      -8.042  -1.429  -8.046  0.00  0.00     0.053 H 
ATOM     42 7H10 CYS d   1      -7.196  -1.241  -9.619  0.00  0.00     0.053 H 
ATOM     43  N   ASN d   1     -15.133  -1.252 -11.136  0.00  0.00    -0.345 N 
ATOM     44  CA  ASN d   1     -15.278  -1.746 -12.510  0.00  0.00     0.097 C 
ATOM     45  C   ASN d   1     -14.221  -2.837 -12.812  0.00  0.00     0.243 C 
ATOM     46  O   ASN d   1     -13.046  -2.653 -12.482  0.00  0.00    -0.271 OA
ATOM     47  N   ASN d   1      -7.089  -2.740 -16.184  0.00  0.00    -0.346 N 
ATOM     48  CA  ASN d   1      -6.465  -1.765 -17.085  0.00  0.00     0.097 C 
ATOM     49  C   ASN d   1      -5.545  -0.786 -16.357  0.00  0.00     0.241 C 
ATOM     50  O   ASN d   1      -4.667  -0.194 -16.980  0.00  0.00    -0.271 OA
ATOM     51  N   ASN d   1      -5.755  -0.603 -15.049  0.00  0.00    -0.346 N 
ATOM     52  CA  ASN d   1      -4.971   0.324 -14.236  0.00  0.00     0.097 C 
ATOM     53  C   ASN d   1      -4.424  -0.355 -12.962  0.00  0.00     0.243 C 
ATOM     54  O   ASN d   1      -5.011  -0.204 -11.885  0.00  0.00    -0.271 OA
ATOM     55  N   ASN d   1      -1.709   0.392 -11.332  0.00  0.00    -0.346 N 
ATOM     56  CA  ASN d   1      -1.122   1.468 -10.532  0.00  0.00     0.097 C 
ATOM     57  C   ASN d   1      -2.154   2.163  -9.631  0.00  0.00     0.241 C 
ATOM     58  O   ASN d   1      -1.815   2.563  -8.518  0.00  0.00    -0.271 OA
ATOM     59  H24 ASN d   1     -14.423  -0.567 -10.975  0.00  0.00     0.163 HD
ATOM     60  H25 ASN d   1     -16.275  -2.200 -12.612  0.00  0.00     0.088 H 
ATOM     61  H68 ASN d   1      -8.021  -2.572 -15.864  0.00  0.00     0.163 HD
ATOM     62  H69 ASN d   1      -5.838  -2.335 -17.786  0.00  0.00     0.088 H 
ATOM     63  H74 ASN d   1      -6.484  -1.126 -14.606  0.00  0.00     0.163 HD
ATOM     64  H75 ASN d   1      -4.102   0.634 -14.835  0.00  0.00     0.088 H 
ATOM     65  H87 ASN d   1      -1.784   0.542 -12.318  0.00  0.00     0.163 HD
ATOM     66  H88 ASN d   1      -0.358   1.021  -9.879  0.00  0.00     0.088 H 
ATOM     67  N   PRO d   1     -14.621  -3.975 -13.433  0.00  0.00    -0.337 N 
ATOM     68  CA  PRO d   1     -13.657  -5.060 -13.700  0.00  0.00     0.091 C 
ATOM     69  C   PRO d   1     -12.632  -4.740 -14.778  0.00  0.00     0.241 C 
ATOM     70  O   PRO d   1     -11.454  -5.048 -14.599  0.00  0.00    -0.271 OA
ATOM     71  CB  PRO d   1     -14.544  -6.233 -14.121  0.00  0.00    -0.036 C 
ATOM     72  CG  PRO d   1     -15.911  -5.830 -13.829  0.00  0.00    -0.048 C 
ATOM     73  CD  PRO d   1     -15.971  -4.358 -13.876  0.00  0.00    -0.001 C 
ATOM     74  N   PRO d   1      -3.300  -1.116 -13.066  0.00  0.00    -0.337 N 
ATOM     75  CA  PRO d   1      -2.743  -1.771 -11.864  0.00  0.00     0.091 C 
ATOM     76  C   PRO d   1      -2.156  -0.783 -10.849  0.00  0.00     0.241 C 
ATOM     77  O   PRO d   1      -2.134  -1.072  -9.652  0.00  0.00    -0.271 OA
ATOM     78  CB  PRO d   1      -1.677  -2.709 -12.434  0.00  0.00    -0.036 C 
ATOM     79  CG  PRO d   1      -1.277  -2.108 -13.727  0.00  0.00    -0.048 C 
ATOM     80  CD  PRO d   1      -2.482  -1.401 -14.267  0.00  0.00    -0.001 C 
ATOM     81  H30 PRO d   1     -13.115  -5.306 -12.775  0.00  0.00     0.087 H 
ATOM     82  H31 PRO d   1     -14.281  -7.135 -13.549  0.00  0.00     0.036 H 
ATOM     83  H32 PRO d   1     -14.427  -6.434 -15.196  0.00  0.00     0.036 H 
ATOM     84  H33 PRO d   1     -16.199  -6.184 -12.828  0.00  0.00     0.035 H 
ATOM     85  H34 PRO d   1     -16.594  -6.256 -14.579  0.00  0.00     0.035 H 
ATOM     86  H35 PRO d   1     -16.172  -4.000 -14.896  0.00  0.00     0.064 H 
ATOM     87  H36 PRO d   1     -16.740  -3.969 -13.193  0.00  0.00     0.064 H 
ATOM     88  H80 PRO d   1      -3.528  -2.354 -11.360  0.00  0.00     0.087 H 
ATOM     89  H81 PRO d   1      -2.093  -3.715 -12.589  0.00  0.00     0.036 H 
ATOM     90  H82 PRO d   1      -0.814  -2.770 -11.754  0.00  0.00     0.036 H 
ATOM     91  H83 PRO d   1      -0.954  -2.894 -14.426  0.00  0.00     0.035 H 
ATOM     92  H84 PRO d   1      -0.455  -1.393 -13.574  0.00  0.00     0.035 H 
ATOM     93  H85 PRO d   1      -2.193  -0.468 -14.774  0.00  0.00     0.064 H 
ATOM     94  H86 PRO d   1      -3.031  -2.045 -14.970  0.00  0.00     0.064 H 
ATOM     95  N   ALA d   1     -13.089  -4.147 -15.901  0.00  0.00    -0.346 N 
ATOM     96  CA  ALA d   1     -12.261  -3.745 -17.035  0.00  0.00     0.086 C 
ATOM     97  C   ALA d   1     -11.234  -2.712 -16.599  0.00  0.00     0.240 C 
ATOM     98  O   ALA d   1     -10.061  -2.855 -16.936  0.00  0.00    -0.271 OA
ATOM     99  H37 ALA d   1     -14.071  -3.969 -15.961  0.00  0.00     0.163 HD
ATOM    100  H38 ALA d   1     -11.729  -4.630 -17.413  0.00  0.00     0.086 H 
ATOM    101  N   ARG d   1     -10.111  -1.959 -13.345  0.00  0.00    -0.346 N 
ATOM    102  CA  ARG d   1      -9.217  -2.567 -12.358  0.00  0.00     0.089 C 
ATOM    103  C   ARG d   1      -8.005  -3.227 -13.033  0.00  0.00     0.241 C 
ATOM    104  O   ARG d   1      -6.876  -2.916 -12.662  0.00  0.00    -0.271 OA
ATOM    105  H46 ARG d   1     -11.086  -2.165 -13.267  0.00  0.00     0.163 HD
ATOM    106  H47 ARG d   1      -8.848  -1.772 -11.694  0.00  0.00     0.087 H 
ATOM    107  N   VAL d   1      -8.242  -4.091 -14.055  0.00  0.00    -0.346 N 
ATOM    108  CA  VAL d   1      -7.183  -4.789 -14.800  0.00  0.00     0.092 C 
ATOM    109  C   VAL d   1      -6.452  -3.852 -15.773  0.00  0.00     0.241 C 
ATOM    110  O   VAL d   1      -5.315  -4.141 -16.141  0.00  0.00    -0.271 OA
ATOM    111  H59 VAL d   1      -9.192  -4.262 -14.316  0.00  0.00     0.163 HD
ATOM    112  H60 VAL d   1      -6.439  -5.090 -14.047  0.00  0.00     0.088 H 
ATOM    113  N   ILE d   1      -3.401   2.303 -10.109  0.00  0.00    -0.346 N 
ATOM    114  CA  ILE d   1      -4.486   2.964  -9.379  0.00  0.00     0.092 C 
ATOM    115  C   ILE d   1      -5.161   2.004  -8.373  0.00  0.00     0.241 C 
ATOM    116  O   ILE d   1      -5.255   2.335  -7.187  0.00  0.00    -0.271 OA
ATOM    117  H93 ILE d   1      -3.601   1.934 -11.017  0.00  0.00     0.163 HD
ATOM    118  H94 ILE d   1      -4.029   3.768  -8.784  0.00  0.00     0.088 H 
ENDROOT
BRANCH   7 119
ATOM    119  N   CYS d   1     -13.123   3.487 -10.520  0.00  0.00    -0.346 N 
ATOM    120  C   GLY d   1     -14.356   3.334  -9.986  0.00  0.00     0.236 C 
ATOM    121  O   GLY d   1     -15.111   2.390 -10.263  0.00  0.00    -0.272 OA
ATOM    122  H11 CYS d   1     -12.633   4.319 -10.262  0.00  0.00     0.163 HD
BRANCH 120 123
ATOM    123  CA  GLY d   1     -14.788   4.430  -9.025  0.00  0.00     0.069 C 
ATOM    124  H9  GLY d   1     -15.438   5.136  -9.563  0.00  0.00     0.078 H 
ATOM    125  H10 GLY d   1     -15.349   3.973  -8.196  0.00  0.00     0.078 H 
BRANCH 123 126
ATOM    126  N   GLY d   1     -13.653   5.164  -8.475  0.00  0.00    -0.350 N 
ATOM    127  C   SER d   1     -12.730   4.623  -7.676  0.00  0.00     0.250 C 
ATOM    128  O   SER d   1     -12.750   3.449  -7.289  0.00  0.00    -0.271 OA
ATOM    129  H8  GLY d   1     -13.561   6.131  -8.711  0.00  0.00     0.163 HD
BRANCH 127 130
ATOM    130  CA  SER d   1     -11.611   5.558  -7.243  0.00  0.00     0.195 C 
ATOM    131  H4  SER d   1     -11.909   6.588  -7.488  0.00  0.00     0.102 H 
BRANCH 130 132
ATOM    132  N   SER d   1     -11.385   5.484  -5.805  0.00  0.00    -0.064 N 
ATOM    133  H1  SER d   1     -10.640   6.113  -5.549  0.00  0.00     0.275 HD
ATOM    134  H2  SER d   1     -11.131   4.542  -5.553  0.00  0.00     0.275 HD
ATOM    135  H3  SER d   1     -12.228   5.746  -5.318  0.00  0.00     0.275 HD
ENDBRANCH 130 132
BRANCH 130 136
ATOM    136  CB  SER d   1     -10.332   5.233  -8.012  0.00  0.00     0.051 C 
ATOM    137  H5  SER d   1     -10.106   4.163  -7.893  0.00  0.00     0.077 H 
ATOM    138  H6  SER d   1      -9.506   5.830  -7.599  0.00  0.00     0.077 H 
BRANCH 136 139
ATOM    139  OG  SER d   1     -10.464   5.524  -9.392  0.00  0.00    -0.398 OA
ATOM    140  H7  SER d   1      -9.653   5.311  -9.838  0.00  0.00     0.209 HD
ENDBRANCH 136 139
ENDBRANCH 130 136
ENDBRANCH 127 130
ENDBRANCH 123 126
ENDBRANCH 120 123
ENDBRANCH   7 119
BRANCH   2 141
ATOM    141  CB  SER d   1     -16.613   0.039  -8.322  0.00  0.00     0.044 C 
ATOM    142  H21 SER d   1     -16.852   0.657  -9.200  0.00  0.00     0.077 H 
ATOM    143  H22 SER d   1     -16.233   0.681  -7.514  0.00  0.00     0.077 H 
BRANCH 141 144
ATOM    144  OG  SER d   1     -17.794  -0.607  -7.879  0.00  0.00    -0.398 OA
ATOM    145  H23 SER d   1     -18.131  -1.160  -8.574  0.00  0.00     0.209 HD
ENDBRANCH 141 144
ENDBRANCH   2 141
BRANCH  25 146
ATOM    146  C   CYS d   1      -5.396  -1.245  -7.489  0.00  0.00     0.239 C 
ATOM    147  O   CYS d   1      -5.321  -1.480  -6.286  0.00  0.00    -0.271 OA
ATOM    148  N   NH2 d   1      -4.581  -1.815  -8.380  0.00  0.00    -0.368 N 
ATOM    149 8H10 NH2 d   1      -3.955  -2.540  -8.093  0.00  0.00     0.159 HD
ATOM    150 9H10 NH2 d   1      -4.596  -1.516  -9.334  0.00  0.00     0.159 HD
ENDBRANCH  25 146
BRANCH  96 151
ATOM    151  CB  ALA d   1     -13.133  -3.188 -18.151  0.00  0.00    -0.049 C 
ATOM    152  H39 ALA d   1     -12.498  -2.889 -18.998  0.00  0.00     0.030 H 
ATOM    153  H40 ALA d   1     -13.687  -2.312 -17.781  0.00  0.00     0.030 H 
ATOM    154  H41 ALA d   1     -13.844  -3.960 -18.480  0.00  0.00     0.030 H 
ENDBRANCH  96 151
BRANCH 102 155
ATOM    155  CB  ARG d   1      -9.984  -3.597 -11.503  0.00  0.00    -0.036 C 
ATOM    156  H48 ARG d   1      -9.476  -4.568 -11.595  0.00  0.00     0.036 H 
ATOM    157  H49 ARG d   1     -11.007  -3.680 -11.898  0.00  0.00     0.036 H 
BRANCH 155 158
ATOM    158  CG  ARG d   1     -10.070  -3.243 -10.033  0.00  0.00    -0.048 C 
ATOM    159  H50 ARG d   1     -10.929  -2.574  -9.879  0.00  0.00     0.035 H 
ATOM    160  H51 ARG d   1      -9.145  -2.727  -9.737  0.00  0.00     0.035 H 
BRANCH 158 161
ATOM    161  CD  ARG d   1     -10.245  -4.477  -9.159  0.00  0.00     0.009 C 
ATOM    162  H52 ARG d   1      -9.969  -5.368  -9.741  0.00  0.00     0.064 H 
ATOM    163  H53 ARG d   1     -11.299  -4.551  -8.853  0.00  0.00     0.064 H 
BRANCH 161 164
ATOM    164  NE  ARG d   1      -9.405  -4.414  -7.958  0.00  0.00    -0.227 N 
ATOM    165  CZ  ARG d   1      -9.756  -3.813  -6.826  0.00  0.00     0.665 C 
ATOM    166  NH1 ARG d   1     -10.943  -3.228  -6.716  0.00  0.00    -0.235 N 
ATOM    167  NH2 ARG d   1      -8.920  -3.785  -5.797  0.00  0.00    -0.235 N 
ATOM    168  H55 ARG d   1     -11.209  -2.764  -5.836  0.00  0.00     0.174 HD
ATOM    169  H56 ARG d   1     -11.598  -3.238  -7.511  0.00  0.00     0.174 HD
ATOM    170  H57 ARG d   1      -7.997  -4.236  -5.871  0.00  0.00     0.174 HD
ATOM    171  H58 ARG d   1      -9.194  -3.313  -4.924  0.00  0.00     0.174 HD
ATOM    172  H54 ARG d   1      -8.480  -4.866  -7.995  0.00  0.00     0.177 HD
ENDBRANCH 161 164
ENDBRANCH 158 161
ENDBRANCH 155 158
ENDBRANCH 102 155
BRANCH  44 173
ATOM    173  CB  ASN d   1     -15.181  -0.570 -13.501  0.00  0.00     0.036 C 
ATOM    174  H26 ASN d   1     -14.163  -0.159 -13.441  0.00  0.00     0.051 H 
ATOM    175  H27 ASN d   1     -15.905   0.197 -13.189  0.00  0.00     0.051 H 
BRANCH 173 176
ATOM    176  CG  ASN d   1     -15.460  -0.915 -14.946  0.00  0.00     0.217 C 
ATOM    177  OD1 ASN d   1     -14.663  -1.566 -15.617  0.00  0.00    -0.274 OA
ATOM    178  ND2 ASN d   1     -16.555  -0.413 -15.484  0.00  0.00    -0.370 N 
ATOM    179  H28 ASN d   1     -16.781  -0.614 -16.437  0.00  0.00     0.159 HD
ATOM    180  H29 ASN d   1     -17.159   0.168 -14.939  0.00  0.00     0.159 HD
ENDBRANCH 173 176
ENDBRANCH  44 173
BRANCH 114 181
ATOM    181  CB  ILE d   1      -5.490   3.654 -10.364  0.00  0.00    -0.030 C 
ATOM    182  H95 ILE d   1      -5.713   2.932 -11.164  0.00  0.00     0.043 H 
BRANCH 181 183
ATOM    183  CG1 ILE d   1      -4.853   4.903 -11.016  0.00  0.00    -0.063 C 
ATOM    184  H96 ILE d   1      -4.023   5.235 -10.375  0.00  0.00     0.033 H 
ATOM    185  H97 ILE d   1      -5.619   5.691 -11.061  0.00  0.00     0.033 H 
BRANCH 183 186
ATOM    186  CD1 ILE d   1      -4.308   4.695 -12.422  0.00  0.00    -0.076 C 
ATOM    187 1H10 ILE d   1      -3.880   5.638 -12.792  0.00  0.00     0.027 H 
ATOM    188 2H10 ILE d   1      -5.123   4.376 -13.088  0.00  0.00     0.027 H 
ATOM    189 3H10 ILE d   1      -3.527   3.921 -12.402  0.00  0.00     0.027 H 
ENDBRANCH 183 186
ENDBRANCH 181 183
BRANCH 181 190
ATOM    190  CG2 ILE d   1      -6.820   4.028  -9.697  0.00  0.00    -0.071 C 
ATOM    191  H98 ILE d   1      -7.264   3.133  -9.237  0.00  0.00     0.028 H 
ATOM    192  H99 ILE d   1      -7.509   4.431 -10.454  0.00  0.00     0.028 H 
ATOM    193 0H10 ILE d   1      -6.641   4.788  -8.922  0.00  0.00     0.028 H 
ENDBRANCH 181 190
ENDBRANCH 114 181
BRANCH 108 194
ATOM    194  CB  VAL d   1      -7.637  -6.109 -15.493  0.00  0.00    -0.033 C 
ATOM    195  H61 VAL d   1      -6.751  -6.538 -15.983  0.00  0.00     0.042 H 
BRANCH 194 196
ATOM    196  CG1 VAL d   1      -8.130  -7.129 -14.471  0.00  0.00    -0.071 C 
ATOM    197  H62 VAL d   1      -8.442  -8.047 -14.991  0.00  0.00     0.028 H 
ATOM    198  H63 VAL d   1      -8.985  -6.711 -13.919  0.00  0.00     0.028 H 
ATOM    199  H64 VAL d   1      -7.318  -7.364 -13.767  0.00  0.00     0.028 H 
ENDBRANCH 194 196
BRANCH 194 200
ATOM    200  CG2 VAL d   1      -8.680  -5.866 -16.583  0.00  0.00    -0.071 C 
ATOM    201  H65 VAL d   1      -8.294  -5.128 -17.302  0.00  0.00     0.028 H 
ATOM    202  H66 VAL d   1      -9.605  -5.485 -16.127  0.00  0.00     0.028 H 
ATOM    203  H67 VAL d   1      -8.891  -6.811 -17.106  0.00  0.00     0.028 H 
ENDBRANCH 194 200
ENDBRANCH 108 194
BRANCH  56 204
ATOM    204  CB  ASN d   1      -0.426   2.487 -11.452  0.00  0.00     0.036 C 
ATOM    205  H89 ASN d   1      -0.024   3.294 -10.821  0.00  0.00     0.051 H 
ATOM    206  H90 ASN d   1      -1.183   2.898 -12.136  0.00  0.00     0.051 H 
BRANCH 204 207
ATOM    207  CG  ASN d   1       0.714   1.938 -12.292  0.00  0.00     0.217 C 
ATOM    208  OD1 ASN d   1       0.804   0.736 -12.588  0.00  0.00    -0.274 OA
ATOM    209  ND2 ASN d   1       1.600   2.827 -12.725  0.00  0.00    -0.370 N 
ATOM    210  H91 ASN d   1       2.375   2.530 -13.283  0.00  0.00     0.159 HD
ATOM    211  H92 ASN d   1       1.493   3.794 -12.493  0.00  0.00     0.159 HD
ENDBRANCH 204 207
ENDBRANCH  56 204
BRANCH  48 212
ATOM    212  CB  ASN d   1      -7.509  -1.012 -17.918  0.00  0.00     0.036 C 
ATOM    213  H70 ASN d   1      -7.165   0.024 -18.056  0.00  0.00     0.051 H 
ATOM    214  H71 ASN d   1      -8.461  -1.012 -17.367  0.00  0.00     0.051 H 
BRANCH 212 215
ATOM    215  CG  ASN d   1      -7.743  -1.623 -19.276  0.00  0.00     0.217 C 
ATOM    216  OD1 ASN d   1      -7.083  -1.280 -20.268  0.00  0.00    -0.274 OA
ATOM    217  ND2 ASN d   1      -8.663  -2.565 -19.342  0.00  0.00    -0.370 N 
ATOM    218  H72 ASN d   1      -8.863  -3.008 -20.216  0.00  0.00     0.159 HD
ATOM    219  H73 ASN d   1      -9.161  -2.837 -18.518  0.00  0.00     0.159 HD
ENDBRANCH 212 215
ENDBRANCH  48 212
BRANCH  52 220
ATOM    220  CB  ASN d   1      -5.785   1.591 -13.923  0.00  0.00     0.036 C 
ATOM    221  H76 ASN d   1      -5.148   2.282 -13.352  0.00  0.00     0.051 H 
ATOM    222  H77 ASN d   1      -6.654   1.304 -13.313  0.00  0.00     0.051 H 
BRANCH 220 223
ATOM    223  CG  ASN d   1      -6.281   2.306 -15.153  0.00  0.00     0.217 C 
ATOM    224  OD1 ASN d   1      -5.570   3.104 -15.760  0.00  0.00    -0.274 OA
ATOM    225  ND2 ASN d   1      -7.501   2.007 -15.568  0.00  0.00    -0.370 N 
ATOM    226  H78 ASN d   1      -7.877   2.454 -16.380  0.00  0.00     0.159 HD
ATOM    227  H79 ASN d   1      -8.048   1.334 -15.070  0.00  0.00     0.159 HD
ENDBRANCH 220 223
ENDBRANCH  52 220
TORSDOF 30
