REMARK  6 active torsions:
REMARK  status: ('A' for Active; 'I' for Inactive)
REMARK    1  A    between atoms: C2_2  and  O11_27 
REMARK    2  A    between atoms: C10_26  and  C12_4 
REMARK    3  A    between atoms: C10_26  and  C13_5 
REMARK    4  A    between atoms: N9_25  and  C14_6 
REMARK    5  A    between atoms: C22_14  and  C25_17 
REMARK    6  A    between atoms: C26_18  and  C28_19 
ROOT
ATOM      1  C1  77W d   1     -41.638  10.635 -24.858  0.00  0.00    -0.050 A 
ATOM      2  C2  77W d   1     -40.698  11.412 -24.162  0.00  0.00     0.066 A 
ATOM      3  C3  77W d   1     -39.405  10.927 -23.970  0.00  0.00    -0.044 A 
ATOM      4  C4  77W d   1     -39.011   9.681 -24.476  0.00  0.00    -0.045 A 
ATOM      5  C5  77W d   1     -39.938   8.869 -25.149  0.00  0.00    -0.019 A 
ATOM      6  C6  77W d   1     -41.251   9.376 -25.352  0.00  0.00    -0.071 A 
ATOM      7  C7  77W d   1     -37.553   9.270 -24.290  0.00  0.00    -0.025 C 
ATOM      8  C8  77W d   1     -37.340   7.745 -24.292  0.00  0.00     0.000 C 
ATOM      9  N9  77W d   1     -38.095   7.075 -25.351  0.00  0.00    -0.363 N 
ATOM     10  C10 77W d   1     -39.501   7.481 -25.727  0.00  0.00     0.084 C 
ATOM     11  H1  77W d   1     -42.647  11.000 -25.012  0.00  0.00     0.087 H 
ATOM     12  H2  77W d   1     -38.690  11.526 -23.418  0.00  0.00     0.088 H 
ATOM     13  H16 77W d   1     -41.970   8.778 -25.900  0.00  0.00     0.084 H 
ATOM     14  H17 77W d   1     -37.198   9.670 -23.329  0.00  0.00     0.042 H 
ATOM     15  H18 77W d   1     -36.961   9.705 -25.109  0.00  0.00     0.042 H 
ATOM     16  H19 77W d   1     -37.662   7.343 -23.320  0.00  0.00     0.064 H 
ATOM     17  H20 77W d   1     -36.269   7.539 -24.438  0.00  0.00     0.064 H 
ENDROOT
BRANCH  10  18
ATOM     18  C12 77W d   1     -40.444   6.405 -25.081  0.00  0.00    -0.045 C 
ATOM     19  H3  77W d   1     -41.491   6.645 -25.319  0.00  0.00     0.031 H 
ATOM     20  H4  77W d   1     -40.307   6.405 -23.990  0.00  0.00     0.031 H 
ATOM     21  H5  77W d   1     -40.195   5.411 -25.482  0.00  0.00     0.031 H 
ENDBRANCH  10  18
BRANCH  10  22
ATOM     22  C13 77W d   1     -39.673   7.595 -27.281  0.00  0.00    -0.026 A 
ATOM     23  C20 77W d   1     -38.993   8.617 -27.983  0.00  0.00    -0.073 A 
ATOM     24  C21 77W d   1     -39.095   8.754 -29.375  0.00  0.00    -0.072 A 
ATOM     25  H10 77W d   1     -38.375   9.315 -27.429  0.00  0.00     0.084 H 
ATOM     26  C22 77W d   1     -39.945   7.912 -30.103  0.00  0.00    -0.036 A 
ATOM     27  H11 77W d   1     -38.515   9.513 -29.888  0.00  0.00     0.084 H 
ATOM     28  C23 77W d   1     -40.627   6.881 -29.426  0.00  0.00    -0.072 A 
ATOM     29  C24 77W d   1     -40.498   6.734 -28.032  0.00  0.00    -0.073 A 
ATOM     30  H12 77W d   1     -41.256   6.196 -29.983  0.00  0.00     0.084 H 
ATOM     31  H13 77W d   1     -41.043   5.944 -27.527  0.00  0.00     0.084 H 
BRANCH  26  32
ATOM     32  C25 77W d   1     -39.989   8.125 -31.607  0.00  0.00    -0.067 C 
ATOM     33  C26 77W d   1     -40.488   7.225 -32.470  0.00  0.00    -0.009 C 
ATOM     34  H15 77W d   1     -40.910   6.315 -32.047  0.00  0.00     0.094 H 
ATOM     35  H14 77W d   1     -39.594   9.058 -32.007  0.00  0.00     0.085 H 
BRANCH  33  36
ATOM     36  C28 77W d   1     -40.517   7.357 -33.940  0.00  0.00     0.198 C 
ATOM     37  O29 77W d   1     -40.029   8.333 -34.496  0.00  0.00    -0.645 OA
ATOM     38  O30 77W d   1     -41.043   6.355 -34.645  0.00  0.00    -0.645 OA
ENDBRANCH  33  36
ENDBRANCH  26  32
ENDBRANCH  10  22
BRANCH   9  39
ATOM     39  C14 77W d   1     -37.541   5.935 -25.880  0.00  0.00     0.031 A 
ATOM     40  C15 77W d   1     -37.183   5.850 -27.244  0.00  0.00    -0.054 A 
ATOM     41  C16 77W d   1     -36.724   4.645 -27.789  0.00  0.00    -0.044 A 
ATOM     42  H6  77W d   1     -37.265   6.727 -27.875  0.00  0.00     0.087 H 
ATOM     43  C17 77W d   1     -36.601   3.512 -26.971  0.00  0.00     0.116 A 
ATOM     44  H7  77W d   1     -36.464   4.588 -28.840  0.00  0.00     0.088 H 
ATOM     45  C18 77W d   1     -36.933   3.579 -25.606  0.00  0.00    -0.044 A 
ATOM     46  F27 77W d   1     -36.190   2.370 -27.511  0.00  0.00    -0.206 F 
ATOM     47  C19 77W d   1     -37.418   4.787 -25.065  0.00  0.00    -0.054 A 
ATOM     48  H8  77W d   1     -36.817   2.707 -24.973  0.00  0.00     0.088 H 
ATOM     49  H9  77W d   1     -37.698   4.836 -24.019  0.00  0.00     0.087 H 
ENDBRANCH   9  39
BRANCH   2  50
ATOM     50  O11 77W d   1     -40.995  12.675 -23.646  0.00  0.00    -0.361 OA
ATOM     51  H21 77W d   1     -41.900  12.891 -23.840  0.00  0.00     0.217 HD
ENDBRANCH   2  50
TORSDOF 6
