REMARK  9 active torsions:
REMARK  status: ('A' for Active; 'I' for Inactive)
REMARK    1  A    between atoms: C2_2  and  O1_4 
REMARK    2  A    between atoms: C13_9  and  C16_12 
REMARK    3  A    between atoms: C16_12  and  C17_13 
REMARK    4  A    between atoms: C16_12  and  C18_14 
REMARK    5  A    between atoms: C9_31  and  C19_15 
REMARK    6  A    between atoms: C22_18  and  C26_22 
REMARK    7  A    between atoms: C9_31  and  C25_21 
REMARK    8  A    between atoms: C27_23  and  C28_24 
REMARK    9  A    between atoms: N1_30  and  C10_32 
ROOT
ATOM      1  C1  782 d   1     -42.025  10.561 -23.778  0.00  0.00    -0.050 A 
ATOM      2  C2  782 d   1     -41.151  11.169 -22.849  0.00  0.00     0.066 A 
ATOM      3  C3  782 d   1     -39.944  10.526 -22.465  0.00  0.00    -0.044 A 
ATOM      4  C4  782 d   1     -39.620   9.254 -23.014  0.00  0.00    -0.046 A 
ATOM      5  C5  782 d   1     -40.497   8.608 -23.959  0.00  0.00    -0.024 A 
ATOM      6  C6  782 d   1     -41.712   9.292 -24.316  0.00  0.00    -0.071 A 
ATOM      7  C7  782 d   1     -38.306   8.611 -22.604  0.00  0.00    -0.029 C 
ATOM      8  C8  782 d   1     -38.168   7.134 -23.001  0.00  0.00    -0.011 C 
ATOM      9  N1  782 d   1     -38.701   6.839 -24.350  0.00  0.00    -0.265 NA
ATOM     10  C9  782 d   1     -40.164   7.178 -24.536  0.00  0.00     0.069 C 
ATOM     11  H1  782 d   1     -42.935  11.068 -24.078  0.00  0.00     0.087 H 
ATOM     12  H2  782 d   1     -39.274  11.002 -21.758  0.00  0.00     0.088 H 
ATOM     13  H24 782 d   1     -42.400   8.825 -25.011  0.00  0.00     0.084 H 
ATOM     14  H25 782 d   1     -38.215   8.682 -21.510  0.00  0.00     0.042 H 
ATOM     15  H26 782 d   1     -37.487   9.172 -23.077  0.00  0.00     0.042 H 
ATOM     16  H27 782 d   1     -38.715   6.523 -22.268  0.00  0.00     0.056 H 
ATOM     17  H28 782 d   1     -37.102   6.865 -22.980  0.00  0.00     0.056 H 
ENDROOT
BRANCH  10  18
ATOM     18  C19 782 d   1     -40.486   7.138 -26.062  0.00  0.00    -0.031 A 
ATOM     19  C20 782 d   1     -41.383   6.228 -26.689  0.00  0.00    -0.074 A 
ATOM     20  C21 782 d   1     -41.596   6.251 -28.092  0.00  0.00    -0.072 A 
ATOM     21  H15 782 d   1     -41.914   5.503 -26.083  0.00  0.00     0.084 H 
ATOM     22  C22 782 d   1     -40.916   7.184 -28.911  0.00  0.00    -0.036 A 
ATOM     23  H16 782 d   1     -42.287   5.547 -28.541  0.00  0.00     0.084 H 
ATOM     24  C23 782 d   1     -39.950   8.027 -28.305  0.00  0.00    -0.072 A 
ATOM     25  C24 782 d   1     -39.768   8.017 -26.908  0.00  0.00    -0.074 A 
ATOM     26  H17 782 d   1     -39.347   8.684 -28.921  0.00  0.00     0.084 H 
ATOM     27  H18 782 d   1     -39.055   8.704 -26.467  0.00  0.00     0.084 H 
BRANCH  22  28
ATOM     28  C26 782 d   1     -41.094   7.165 -30.375  0.00  0.00    -0.067 C 
ATOM     29  C27 782 d   1     -41.135   8.225 -31.209  0.00  0.00    -0.009 C 
ATOM     30  H23 782 d   1     -41.064   9.239 -30.820  0.00  0.00     0.094 H 
ATOM     31  H22 782 d   1     -41.205   6.184 -30.835  0.00  0.00     0.085 H 
BRANCH  29  32
ATOM     32  C28 782 d   1     -41.275   7.990 -32.631  0.00  0.00     0.198 C 
ATOM     33  O2  782 d   1     -40.429   7.451 -33.344  0.00  0.00    -0.645 OA
ATOM     34  O3  782 d   1     -42.459   8.428 -33.134  0.00  0.00    -0.645 OA
ENDBRANCH  29  32
ENDBRANCH  22  28
ENDBRANCH  10  18
BRANCH  10  35
ATOM     35  C25 782 d   1     -41.093   6.216 -23.723  0.00  0.00    -0.049 C 
ATOM     36  H19 782 d   1     -42.144   6.497 -23.886  0.00  0.00     0.031 H 
ATOM     37  H20 782 d   1     -40.855   6.294 -22.652  0.00  0.00     0.031 H 
ATOM     38  H21 782 d   1     -40.934   5.181 -24.060  0.00  0.00     0.031 H 
ENDBRANCH  10  35
BRANCH   9  39
ATOM     39  C10 782 d   1     -38.279   5.538 -24.764  0.00  0.00     0.011 A 
ATOM     40  C11 782 d   1     -37.784   5.387 -26.092  0.00  0.00    -0.062 A 
ATOM     41  C12 782 d   1     -37.443   4.135 -26.639  0.00  0.00    -0.075 A 
ATOM     42  H4  782 d   1     -37.665   6.272 -26.706  0.00  0.00     0.086 H 
ATOM     43  C13 782 d   1     -37.572   2.974 -25.842  0.00  0.00    -0.055 A 
ATOM     44  H5  782 d   1     -37.086   4.062 -27.660  0.00  0.00     0.084 H 
ATOM     45  C14 782 d   1     -38.076   3.106 -24.510  0.00  0.00    -0.075 A 
ATOM     46  C15 782 d   1     -38.420   4.366 -23.968  0.00  0.00    -0.062 A 
ATOM     47  H6  782 d   1     -38.197   2.218 -23.901  0.00  0.00     0.084 H 
ATOM     48  H7  782 d   1     -38.789   4.439 -22.951  0.00  0.00     0.086 H 
BRANCH  43  49
ATOM     49  C16 782 d   1     -37.178   1.619 -26.443  0.00  0.00    -0.036 C 
ATOM     50  H8  782 d   1     -36.545   1.853 -27.311  0.00  0.00     0.046 H 
BRANCH  49  51
ATOM     51  C17 782 d   1     -36.308   0.740 -25.523  0.00  0.00    -0.069 C 
ATOM     52  H9  782 d   1     -36.075  -0.206 -26.033  0.00  0.00     0.028 H 
ATOM     53  H10 782 d   1     -36.855   0.530 -24.592  0.00  0.00     0.028 H 
ATOM     54  H11 782 d   1     -35.373   1.269 -25.287  0.00  0.00     0.028 H 
ENDBRANCH  49  51
BRANCH  49  55
ATOM     55  C18 782 d   1     -38.393   0.863 -26.996  0.00  0.00    -0.069 C 
ATOM     56  H12 782 d   1     -38.978   1.533 -27.644  0.00  0.00     0.028 H 
ATOM     57  H13 782 d   1     -39.022   0.519 -26.162  0.00  0.00     0.028 H 
ATOM     58  H14 782 d   1     -38.051  -0.004 -27.579  0.00  0.00     0.028 H 
ENDBRANCH  49  55
ENDBRANCH  43  49
ENDBRANCH   9  39
BRANCH   2  59
ATOM     59  O1  782 d   1     -41.494  12.389 -22.347  0.00  0.00    -0.361 OA
ATOM     60  H3  782 d   1     -42.327  12.659 -22.715  0.00  0.00     0.217 HD
ENDBRANCH   2  59
TORSDOF 9
