REMARK  10 active torsions:
REMARK  status: ('A' for Active; 'I' for Inactive)
REMARK    1  A    between atoms: N5_16  and  C6_1 
REMARK    2  A    between atoms: N14_19  and  C13_6 
REMARK    3  A    between atoms: C15_7  and  N14_19 
REMARK    4  A    between atoms: C20_9  and  O21_23 
REMARK    5  A    between atoms: O21_23  and  C22_10 
REMARK    6  A    between atoms: N25_26  and  C26_11 
REMARK    7  A    between atoms: C2_14  and  C1_13 
REMARK    8  A    between atoms: C3_15  and  C2_14 
REMARK    9  A    between atoms: C23_24  and  C18_21 
REMARK       I    between atoms: C23_24  and  N25_26 
REMARK   10  A    between atoms: N29_28  and  C30_29 
ROOT
ATOM      1  N12 79D d   1      11.426  44.838   8.895  0.00  0.00    -0.043 NA
ATOM      2  C13 79D d   1      11.709  44.140   7.807  0.00  0.00     0.728 A 
ATOM      3  C3  79D d   1       9.546  44.489  12.071  0.00  0.00     0.057 C 
ATOM      4  N5  79D d   1      10.243  45.114  10.918  0.00  0.00    -0.348 N 
ATOM      5  C11 79D d   1      10.537  44.393   9.779  0.00  0.00     0.175 A 
ATOM      6  N33 79D d   1      11.125  42.977   7.556  0.00  0.00    -0.073 NA
ATOM      7  C34 79D d   1      10.230  42.458   8.378  0.00  0.00     0.051 A 
ATOM      8  C35 79D d   1       9.925  43.152   9.520  0.00  0.00     0.105 A 
ATOM      9  N36 79D d   1       8.947  42.689  10.402  0.00  0.00    -0.300 N 
ATOM     10  C37 79D d   1       8.027  41.707  10.271  0.00  0.00     0.072 A 
ATOM     11  N38 79D d   1       7.283  41.672  11.340  0.00  0.00    -0.230 NA
ATOM     12  C39 79D d   1       7.706  42.672  12.170  0.00  0.00     0.163 A 
ATOM     13  C40 79D d   1       7.174  43.001  13.445  0.00  0.00     0.122 C 
ATOM     14  N41 79D d   1       6.734  43.242  14.451  0.00  0.00    -0.190 NA
ATOM     15  C42 79D d   1       8.723  43.324  11.594  0.00  0.00     0.080 A 
ATOM     16  H20 79D d   1       8.871  45.243  12.502  0.00  0.00     0.082 H 
ATOM     17  H37 79D d   1       9.751  41.511   8.156  0.00  0.00     0.119 H 
ATOM     18  H38 79D d   1       7.924  41.050   9.409  0.00  0.00     0.144 H 
ENDROOT
BRANCH   3  19
ATOM     19  C2  79D d   1      10.495  44.007  13.194  0.00  0.00    -0.044 C 
ATOM     20  H18 79D d   1      11.082  44.869  13.544  0.00  0.00     0.036 H 
ATOM     21  H19 79D d   1       9.883  43.620  14.022  0.00  0.00     0.036 H 
BRANCH  19  22
ATOM     22  C1  79D d   1      11.468  42.905  12.757  0.00  0.00    -0.074 C 
ATOM     23  H15 79D d   1      12.104  42.619  13.608  0.00  0.00     0.027 H 
ATOM     24  H16 79D d   1      12.099  43.277  11.936  0.00  0.00     0.027 H 
ATOM     25  H17 79D d   1      10.899  42.028  12.414  0.00  0.00     0.027 H 
ENDBRANCH  19  22
ENDBRANCH   3  19
BRANCH   4  26
ATOM     26  C6  79D d   1      10.761  46.505  10.978  0.00  0.00     0.014 C 
ATOM     27  C7  79D d   1       9.913  47.491  11.840  0.00  0.00    -0.046 C 
ATOM     28  C8  79D d   1      10.917  48.658  12.011  0.00  0.00    -0.063 C 
ATOM     29  H2  79D d   1       9.637  47.048  12.809  0.00  0.00     0.036 H 
ATOM     30  H3  79D d   1       9.004  47.813  11.311  0.00  0.00     0.036 H 
ATOM     31  C9  79D d   1      12.258  47.956  12.297  0.00  0.00    -0.063 C 
ATOM     32  H4  79D d   1      10.626  49.304  12.853  0.00  0.00     0.033 H 
ATOM     33  H5  79D d   1      10.978  49.259  11.092  0.00  0.00     0.033 H 
ATOM     34  C10 79D d   1      12.179  46.582  11.599  0.00  0.00    -0.046 C 
ATOM     35  H21 79D d   1      12.398  47.826  13.380  0.00  0.00     0.033 H 
ATOM     36  H22 79D d   1      13.092  48.545  11.888  0.00  0.00     0.033 H 
ATOM     37  H6  79D d   1      12.946  46.507  10.814  0.00  0.00     0.036 H 
ATOM     38  H7  79D d   1      12.322  45.772  12.330  0.00  0.00     0.036 H 
ATOM     39  H1  79D d   1      10.797  46.881   9.945  0.00  0.00     0.072 H 
ENDBRANCH   4  26
BRANCH   2  40
ATOM     40  N14 79D d   1      12.640  44.573   6.863  0.00  0.00    -0.185 N 
ATOM     41  H23 79D d   1      12.780  43.944   6.059  0.00  0.00     0.184 HD
BRANCH  40  42
ATOM     42  C15 79D d   1      13.415  45.748   6.854  0.00  0.00     0.082 A 
ATOM     43  C20 79D d   1      14.480  45.779   5.939  0.00  0.00     0.096 A 
ATOM     44  C19 79D d   1      15.310  46.895   5.840  0.00  0.00    -0.033 A 
ATOM     45  C18 79D d   1      15.079  47.999   6.680  0.00  0.00     0.034 A 
ATOM     46  H25 79D d   1      16.124  46.911   5.124  0.00  0.00     0.089 H 
ATOM     47  C17 79D d   1      13.996  47.953   7.583  0.00  0.00    -0.065 A 
ATOM     48  C16 79D d   1      13.175  46.844   7.676  0.00  0.00    -0.053 A 
ATOM     49  H8  79D d   1      13.803  48.809   8.220  0.00  0.00     0.085 H 
ATOM     50  H24 79D d   1      12.353  46.829   8.382  0.00  0.00     0.087 H 
BRANCH  43  51
ATOM     51  O21 79D d   1      14.646  44.664   5.165  0.00  0.00    -0.354 OA
BRANCH  51  52
ATOM     52  C22 79D d   1      15.855  44.442   4.429  0.00  0.00     0.010 C 
ATOM     53  H9  79D d   1      15.780  43.493   3.878  0.00  0.00     0.066 H 
ATOM     54  H10 79D d   1      16.705  44.395   5.126  0.00  0.00     0.066 H 
ATOM     55  H11 79D d   1      16.009  45.268   3.719  0.00  0.00     0.066 H 
ENDBRANCH  51  52
ENDBRANCH  43  51
BRANCH  45  56
ATOM     56  C23 79D d   1      15.948  49.204   6.596  0.00  0.00     0.252 C 
ATOM     57  O24 79D d   1      16.444  49.477   5.527  0.00  0.00    -0.268 OA
ATOM     58  N25 79D d   1      16.185  49.992   7.677  0.00  0.00    -0.352 N 
ATOM     59  H26 79D d   1      15.767  49.725   8.545  0.00  0.00     0.163 HD
BRANCH  58  60
ATOM     60  C26 79D d   1      17.013  51.212   7.666  0.00  0.00     0.015 C 
ATOM     61  C27 79D d   1      16.152  52.371   8.179  0.00  0.00    -0.023 C 
ATOM     62  C28 79D d   1      16.939  53.689   8.199  0.00  0.00     0.085 C 
ATOM     63  H27 79D d   1      15.814  52.141   9.200  0.00  0.00     0.038 H 
ATOM     64  H28 79D d   1      15.278  52.486   7.521  0.00  0.00     0.038 H 
ATOM     65  N29 79D d   1      18.137  53.560   9.046  0.00  0.00    -0.075 N 
ATOM     66  H13 79D d   1      16.297  54.488   8.598  0.00  0.00     0.076 H 
ATOM     67  H14 79D d   1      17.246  53.943   7.174  0.00  0.00     0.076 H 
ATOM     68  C31 79D d   1      18.998  52.419   8.669  0.00  0.00     0.085 C 
ATOM     69  H29 79D d   1      17.828  53.406   9.993  0.00  0.00     0.279 HD
ATOM     70  C32 79D d   1      18.227  51.082   8.595  0.00  0.00    -0.023 C 
ATOM     71  H33 79D d   1      19.799  52.321   9.417  0.00  0.00     0.076 H 
ATOM     72  H34 79D d   1      19.440  52.624   7.683  0.00  0.00     0.076 H 
ATOM     73  H35 79D d   1      18.896  50.299   8.209  0.00  0.00     0.038 H 
ATOM     74  H36 79D d   1      17.884  50.806   9.603  0.00  0.00     0.038 H 
ATOM     75  H12 79D d   1      17.355  51.415   6.640  0.00  0.00     0.072 H 
BRANCH  65  76
ATOM     76  C30 79D d   1      18.895  54.821   9.008  0.00  0.00     0.066 C 
ATOM     77  H30 79D d   1      19.791  54.729   9.639  0.00  0.00     0.068 H 
ATOM     78  H31 79D d   1      18.264  55.640   9.384  0.00  0.00     0.068 H 
ATOM     79  H32 79D d   1      19.197  55.036   7.972  0.00  0.00     0.068 H 
ENDBRANCH  65  76
ENDBRANCH  58  60
ENDBRANCH  45  56
ENDBRANCH  40  42
ENDBRANCH   2  40
TORSDOF 10
