REMARK  13 active torsions:
REMARK  status: ('A' for Active; 'I' for Inactive)
REMARK    1  A    between atoms: C1_1  and  N6_20 
REMARK    2  A    between atoms: C6_10  and  N3_7 
REMARK    3  A    between atoms: C17_31  and  C7_12 
REMARK    4  A    between atoms: C8_13  and  O3_16 
REMARK    5  A    between atoms: C9_14  and  O2_15 
REMARK    6  A    between atoms: N5_17  and  C10_18 
REMARK    7  A    between atoms: C18_32  and  N5_17 
REMARK    8  A    between atoms: C10_18  and  C11_19 
REMARK    9  A    between atoms: C12_21  and  N9_26 
REMARK   10  A    between atoms: N8_24  and  C15_27 
REMARK   11  A    between atoms: C15_27  and  O4_28 
REMARK   12  A    between atoms: O4_28  and  C16_29 
REMARK   13  A    between atoms: C17_31  and  C18_32 
ROOT
ATOM      1  C17 LHD d   1      51.674  35.197 130.393  0.00  0.00    -0.016 C 
ATOM      2  H24 LHD d   1      52.498  35.515 129.738  0.00  0.00     0.039 H 
ATOM      3  H25 LHD d   1      50.856  34.789 129.781  0.00  0.00     0.039 H 
ENDROOT
BRANCH   1   4
ATOM      4  C7  LHD d   1      51.150  36.425 131.109  0.00  0.00     0.070 C 
ATOM      5  O1  LHD d   1      51.477  37.601 130.332  0.00  0.00    -0.355 OA
ATOM      6  C6  LHD d   1      50.294  38.280 129.958  0.00  0.00     0.139 C 
ATOM      7  C9  LHD d   1      49.154  37.275 130.116  0.00  0.00     0.105 C 
ATOM      8  H3  LHD d   1      50.117  39.136 130.626  0.00  0.00     0.122 H 
ATOM      9  C8  LHD d   1      49.640  36.467 131.321  0.00  0.00     0.089 C 
ATOM     10  H6  LHD d   1      49.051  36.640 129.224  0.00  0.00     0.093 H 
ATOM     11  H5  LHD d   1      49.214  35.453 131.305  0.00  0.00     0.091 H 
ATOM     12  H4  LHD d   1      51.642  36.479 132.091  0.00  0.00     0.087 H 
BRANCH   6  13
ATOM     13  N3  LHD d   1      50.460  38.776 128.590  0.00  0.00    -0.294 N 
ATOM     14  C3  LHD d   1      50.580  40.083 128.186  0.00  0.00     0.167 A 
ATOM     15  C2  LHD d   1      50.692  40.039 126.807  0.00  0.00     0.149 A 
ATOM     16  N1  LHD d   1      50.605  41.176 128.958  0.00  0.00    -0.222 NA
ATOM     17  C1  LHD d   1      50.841  41.269 126.139  0.00  0.00     0.155 A 
ATOM     18  N4  LHD d   1      50.649  38.730 126.352  0.00  0.00    -0.236 NA
ATOM     19  N2  LHD d   1      50.876  42.389 126.892  0.00  0.00    -0.222 NA
ATOM     20  C4  LHD d   1      50.761  42.277 128.219  0.00  0.00     0.091 A 
ATOM     21  H1  LHD d   1      50.800  43.209 128.772  0.00  0.00     0.146 H 
ATOM     22  C5  LHD d   1      50.512  38.025 127.450  0.00  0.00     0.071 A 
ATOM     23  H2  LHD d   1      50.446  36.938 127.452  0.00  0.00     0.144 H 
BRANCH  17  24
ATOM     24  N6  LHD d   1      50.935  41.387 124.811  0.00  0.00    -0.382 N 
ATOM     25  H13 LHD d   1      51.043  42.318 124.383  0.00  0.00     0.157 HD
ATOM     26  H14 LHD d   1      50.900  40.547 124.216  0.00  0.00     0.157 HD
ENDBRANCH  17  24
ENDBRANCH   6  13
BRANCH   7  27
ATOM     27  O2  LHD d   1      47.914  37.925 130.375  0.00  0.00    -0.388 OA
ATOM     28  H7  LHD d   1      48.016  38.519 131.109  0.00  0.00     0.210 HD
ENDBRANCH   7  27
BRANCH   9  29
ATOM     29  O3  LHD d   1      49.307  37.089 132.556  0.00  0.00    -0.390 OA
ATOM     30  H8  LHD d   1      48.363  37.177 132.621  0.00  0.00     0.210 HD
ENDBRANCH   9  29
ENDBRANCH   1   4
BRANCH   1  31
ATOM     31  C18 LHD d   1      52.190  34.083 131.281  0.00  0.00     0.084 C 
ATOM     32  H26 LHD d   1      52.983  34.482 131.930  0.00  0.00     0.075 H 
ATOM     33  H27 LHD d   1      51.362  33.708 131.901  0.00  0.00     0.075 H 
BRANCH  31  34
ATOM     34  N5  LHD d   1      52.744  32.953 130.476  0.00  0.00    -0.071 N 
ATOM     35  H9  LHD d   1      52.004  32.574 129.907  0.00  0.00     0.277 HD
ATOM     36  H10 LHD d   1      53.474  33.313 129.882  0.00  0.00     0.277 HD
BRANCH  34  37
ATOM     37  C10 LHD d   1      53.310  31.854 131.305  0.00  0.00     0.110 C 
ATOM     38  H11 LHD d   1      53.650  32.245 132.275  0.00  0.00     0.083 H 
ATOM     39  H12 LHD d   1      54.155  31.379 130.784  0.00  0.00     0.083 H 
BRANCH  37  40
ATOM     40  C11 LHD d   1      52.204  30.870 131.502  0.00  0.00     0.027 A 
ATOM     41  C12 LHD d   1      51.323  30.877 132.641  0.00  0.00     0.112 A 
ATOM     42  N7  LHD d   1      50.315  30.009 132.770  0.00  0.00    -0.294 N 
ATOM     43  C13 LHD d   1      50.081  29.069 131.816  0.00  0.00     0.329 A 
ATOM     44  H15 LHD d   1      49.726  30.051 133.577  0.00  0.00     0.172 HD
ATOM     45  N8  LHD d   1      50.916  29.032 130.699  0.00  0.00    -0.287 N 
ATOM     46  O5  LHD d   1      49.158  28.258 131.901  0.00  0.00    -0.246 OA
ATOM     47  C14 LHD d   1      51.948  29.922 130.582  0.00  0.00    -0.002 A 
ATOM     48  H16 LHD d   1      52.591  29.861 129.705  0.00  0.00     0.113 H 
BRANCH  41  49
ATOM     49  N9  LHD d   1      51.524  31.776 133.610  0.00  0.00    -0.385 N 
ATOM     50  H17 LHD d   1      52.295  32.454 133.531  0.00  0.00     0.157 HD
ATOM     51  H18 LHD d   1      50.908  31.790 134.435  0.00  0.00     0.157 HD
ENDBRANCH  41  49
BRANCH  45  52
ATOM     52  C15 LHD d   1      50.723  28.086 129.591  0.00  0.00     0.087 C 
ATOM     53  H19 LHD d   1      51.534  28.228 128.862  0.00  0.00     0.107 H 
ATOM     54  H20 LHD d   1      49.757  28.300 129.111  0.00  0.00     0.107 H 
BRANCH  52  55
ATOM     55  O4  LHD d   1      50.728  26.751 130.011  0.00  0.00    -0.376 OA
BRANCH  55  56
ATOM     56  C16 LHD d   1      51.806  26.411 130.864  0.00  0.00     0.006 C 
ATOM     57  H21 LHD d   1      51.732  25.350 131.144  0.00  0.00     0.066 H 
ATOM     58  H22 LHD d   1      51.766  27.033 131.771  0.00  0.00     0.066 H 
ATOM     59  H23 LHD d   1      52.757  26.586 130.340  0.00  0.00     0.066 H 
ENDBRANCH  55  56
ENDBRANCH  52  55
ENDBRANCH  45  52
ENDBRANCH  37  40
ENDBRANCH  34  37
ENDBRANCH  31  34
ENDBRANCH   1  31
TORSDOF 13
