REMARK WARNING: 32 MAX_TORS EXCEEDED!!!
REMARK  58 active torsions:
REMARK  status: ('A' for Active; 'I' for Inactive)
REMARK    1  A    between atoms: N_1  and  CA_2 
REMARK    2  A    between atoms: CA_2  and  C_3 
REMARK    3  A    between atoms: CA_2  and  CB_5 
REMARK       I    between atoms: C_3  and  N_6 
REMARK    4  A    between atoms: N_6  and  CA_7 
REMARK    5  A    between atoms: CA_7  and  C_8 
REMARK    6  A    between atoms: CA_7  and  CB_10 
REMARK       I    between atoms: C_8  and  N_17 
REMARK    7  A    between atoms: CB_10  and  CG_11 
REMARK    8  A    between atoms: CG_11  and  CD_12 
REMARK    9  A    between atoms: CD_12  and  NE_13 
REMARK       I    between atoms: NE_13  and  CZ_14 
REMARK       I    between atoms: CZ_14  and  NH1_15 
REMARK       I    between atoms: CZ_14  and  NH2_16 
REMARK   10  A    between atoms: N_17  and  CA_18 
REMARK   11  A    between atoms: CA_18  and  C_19 
REMARK   12  A    between atoms: CA_18  and  CB_21 
REMARK       I    between atoms: C_19  and  N_24 
REMARK   13  A    between atoms: CB_21  and  OG1_22 
REMARK   14  A    between atoms: CB_21  and  CG2_23 
REMARK   15  A    between atoms: N_24  and  CA_25 
REMARK   16  A    between atoms: CA_25  and  CB_26 
REMARK   17  A    between atoms: CA_25  and  C_33 
REMARK   18  A    between atoms: CB_26  and  CG_27 
REMARK   19  A    between atoms: CG_27  and  CD_28 
REMARK   20  A    between atoms: CD_28  and  CE_29 
REMARK   21  A    between atoms: CE_29  and  NZ_30 
REMARK   22  A    between atoms: NZ_30  and  CH1_31 
REMARK   23  A    between atoms: NZ_30  and  CH2_32 
REMARK       I    between atoms: C_33  and  N_35 
REMARK   24  A    between atoms: N_35  and  CA_36 
REMARK   25  A    between atoms: CA_36  and  C_37 
REMARK   26  A    between atoms: CA_36  and  CB_39 
REMARK       I    between atoms: C_37  and  N_44 
REMARK   27  A    between atoms: CB_39  and  CG_40 
REMARK   28  A    between atoms: CG_40  and  CD_41 
REMARK       I    between atoms: CD_41  and  NE2_43 
REMARK   29  A    between atoms: N_44  and  CA_45 
REMARK   30  A    between atoms: CA_45  and  C_46 
REMARK   31  A    between atoms: CA_45  and  CB_48 
REMARK       I    between atoms: C_46  and  N_51 
REMARK   32  A    between atoms: CB_48  and  OG1_49 
REMARK   33  A    between atoms: CB_48  and  CG2_50 
REMARK   34  A    between atoms: N_51  and  CA_52 
REMARK   35  A    between atoms: CA_52  and  C_53 
REMARK   36  A    between atoms: CA_52  and  CB_55 
REMARK       I    between atoms: C_53  and  N_56 
REMARK   37  A    between atoms: N_56  and  CA_57 
REMARK   38  A    between atoms: CA_57  and  C_58 
REMARK   39  A    between atoms: CA_57  and  CB_60 
REMARK       I    between atoms: C_58  and  N_67 
REMARK   40  A    between atoms: CB_60  and  CG_61 
REMARK   41  A    between atoms: CG_61  and  CD_62 
REMARK   42  A    between atoms: CD_62  and  NE_63 
REMARK       I    between atoms: NE_63  and  CZ_64 
REMARK       I    between atoms: CZ_64  and  NH1_65 
REMARK   43  A    between atoms: N_67  and  CA_68 
REMARK   44  A    between atoms: CA_68  and  C_69 
REMARK   45  A    between atoms: CA_68  and  CB_71 
REMARK       I    between atoms: C_69  and  N_76 
REMARK   46  A    between atoms: CB_71  and  CG_72 
REMARK   47  A    between atoms: CG_72  and  CD_73 
REMARK   48  A    between atoms: CD_73  and  CE_74 
REMARK   49  A    between atoms: CE_74  and  NZ_75 
REMARK   50  A    between atoms: N_76  and  CA_77 
REMARK   51  A    between atoms: CA_77  and  C_78 
REMARK   52  A    between atoms: CA_77  and  CB_80 
REMARK       I    between atoms: C_78  and  N_82 
REMARK   53  A    between atoms: CB_80  and  OG_81 
REMARK   54  A    between atoms: N_82  and  CA_83 
REMARK   55  A    between atoms: CA_83  and  C_84 
REMARK   56  A    between atoms: CA_83  and  CB_86 
REMARK       I    between atoms: C_84  and  N_89 
REMARK   57  A    between atoms: CB_86  and  OG1_87 
REMARK   58  A    between atoms: CB_86  and  CG2_88 
ROOT
ATOM      1  N   THR d   1      12.686 -29.149  -9.669  0.00  0.00    -0.344 N 
ATOM      2  H53 THR d   1      11.734 -29.177  -9.973  0.00  0.00     0.163 HD
ATOM      3  C   GLN d   1      13.537 -28.368 -10.346  0.00  0.00     0.241 C 
ATOM      4  O   GLN d   1      14.710 -28.218  -9.993  0.00  0.00    -0.271 OA
ENDROOT
BRANCH   1   5
ATOM      5  CA  THR d   1      13.063 -29.972  -8.503  0.00  0.00     0.113 C 
ATOM      6  H54 THR d   1      14.086 -30.335  -8.682  0.00  0.00     0.091 H 
BRANCH   5   7
ATOM      7  C   THR d   1      12.168 -31.218  -8.362  0.00  0.00     0.243 C 
ATOM      8  O   THR d   1      11.126 -31.321  -9.015  0.00  0.00    -0.271 OA
ATOM      9  N   ALA d   1      12.592 -32.180  -7.535  0.00  0.00    -0.346 N 
ATOM     10  H60 ALA d   1      13.447 -32.021  -7.041  0.00  0.00     0.163 HD
BRANCH   9  11
ATOM     11  CA  ALA d   1      11.896 -33.454  -7.298  0.00  0.00     0.086 C 
ATOM     12  H61 ALA d   1      10.813 -33.265  -7.347  0.00  0.00     0.086 H 
BRANCH  11  13
ATOM     13  C   ALA d   1      12.199 -34.079  -5.918  0.00  0.00     0.240 C 
ATOM     14  O   ALA d   1      11.302 -34.652  -5.292  0.00  0.00    -0.271 OA
ATOM     15  N   ARG d   1      13.449 -33.965  -5.438  0.00  0.00    -0.346 N 
ATOM     16  H65 ARG d   1      14.113 -33.478  -6.006  0.00  0.00     0.163 HD
BRANCH  15  17
ATOM     17  CA  ARG d   1      13.930 -34.497  -4.142  0.00  0.00     0.089 C 
ATOM     18  H66 ARG d   1      13.092 -34.447  -3.432  0.00  0.00     0.087 H 
BRANCH  17  19
ATOM     19  C   ARG d   1      15.076 -33.657  -3.546  0.00  0.00     0.241 C 
ATOM     20  O   ARG d   1      15.605 -32.765  -4.213  0.00  0.00    -0.271 OA
ATOM     21  N   LYS d   1      15.470 -33.966  -2.302  0.00  0.00    -0.346 N 
ATOM     22  H78 LYS d   1      14.929 -34.642  -1.801  0.00  0.00     0.163 HD
BRANCH  21  23
ATOM     23  CA  LYS d   1      16.646 -33.383  -1.611  0.00  0.00     0.089 C 
ATOM     24  H79 LYS d   1      16.488 -32.295  -1.565  0.00  0.00     0.087 H 
BRANCH  23  25
ATOM     25  C   LYS d   1      17.968 -33.608  -2.374  0.00  0.00     0.241 C 
ATOM     26  O   LYS d   1      18.066 -34.491  -3.223  0.00  0.00    -0.271 OA
ATOM     27  N   SER d   1      18.997 -32.826  -2.048  0.00  0.00    -0.344 N 
ATOM     28  H91 SER d   1      18.895 -32.250  -1.237  0.00  0.00     0.163 HD
BRANCH  27  29
ATOM     29  CA  SER d   1      20.277 -32.738  -2.784  0.00  0.00     0.109 C 
ATOM     30  H92 SER d   1      20.025 -32.695  -3.854  0.00  0.00     0.090 H 
BRANCH  29  31
ATOM     31  C   SER d   1      21.258 -33.922  -2.613  0.00  0.00     0.243 C 
ATOM     32  O   SER d   1      22.372 -33.871  -3.149  0.00  0.00    -0.271 OA
ATOM     33  N   THR d   1      20.889 -34.978  -1.876  0.00  0.00    -0.344 N 
ATOM     34  H96 THR d   1      19.955 -34.986  -1.520  0.00  0.00     0.163 HD
BRANCH  33  35
ATOM     35  CA  THR d   1      21.754 -36.135  -1.546  0.00  0.00     0.113 C 
ATOM     36  H97 THR d   1      22.687 -35.717  -1.141  0.00  0.00     0.091 H 
BRANCH  35  37
ATOM     37  C   THR d   1      22.150 -37.004  -2.749  0.00  0.00     0.240 C 
ATOM     38  O   THR d   1      21.314 -37.241  -3.655  0.00  0.00    -0.271 OA
ATOM     39  N   NH2 d   1      23.314 -37.468  -2.778  0.00  0.00    -0.368 N 
ATOM     40 3H10 NH2 d   1      23.606 -38.038  -3.546  0.00  0.00     0.159 HD
ATOM     41 4H10 NH2 d   1      23.951 -37.268  -2.033  0.00  0.00     0.159 HD
ENDBRANCH  35  37
BRANCH  35  42
ATOM     42  CB  THR d   1      21.134 -37.006  -0.447  0.00  0.00     0.060 C 
ATOM     43  H98 THR d   1      21.804 -37.860  -0.268  0.00  0.00     0.086 H 
BRANCH  42  44
ATOM     44  OG1 THR d   1      19.865 -37.494  -0.833  0.00  0.00    -0.393 OA
ATOM     45  H99 THR d   1      19.955 -38.018  -1.620  0.00  0.00     0.210 HD
ENDBRANCH  42  44
BRANCH  42  46
ATOM     46  CG2 THR d   1      20.964 -36.230   0.863  0.00  0.00    -0.050 C 
ATOM     47 0H10 THR d   1      20.518 -36.888   1.623  0.00  0.00     0.031 H 
ATOM     48 1H10 THR d   1      20.305 -35.365   0.694  0.00  0.00     0.031 H 
ATOM     49 2H10 THR d   1      21.947 -35.880   1.212  0.00  0.00     0.031 H 
ENDBRANCH  42  46
ENDBRANCH  35  42
ENDBRANCH  33  35
ENDBRANCH  29  31
BRANCH  29  50
ATOM     50  CB  SER d   1      20.966 -31.419  -2.405  0.00  0.00     0.044 C 
ATOM     51  H93 SER d   1      20.303 -30.579  -2.659  0.00  0.00     0.077 H 
ATOM     52  H94 SER d   1      21.906 -31.328  -2.968  0.00  0.00     0.077 H 
BRANCH  50  53
ATOM     53  OG  SER d   1      21.251 -31.384  -1.011  0.00  0.00    -0.398 OA
ATOM     54  H95 SER d   1      21.676 -30.562  -0.796  0.00  0.00     0.209 HD
ENDBRANCH  50  53
ENDBRANCH  29  50
ENDBRANCH  27  29
ENDBRANCH  23  25
BRANCH  23  55
ATOM     55  CB  LYS d   1      16.716 -33.897  -0.158  0.00  0.00    -0.038 C 
ATOM     56  H80 LYS d   1      15.754 -33.682   0.331  0.00  0.00     0.036 H 
ATOM     57  H81 LYS d   1      17.520 -33.355   0.361  0.00  0.00     0.036 H 
BRANCH  55  58
ATOM     58  CG  LYS d   1      16.993 -35.404  -0.036  0.00  0.00    -0.061 C 
ATOM     59  H82 LYS d   1      17.966 -35.627  -0.498  0.00  0.00     0.033 H 
ATOM     60  H83 LYS d   1      16.201 -35.957  -0.563  0.00  0.00     0.033 H 
BRANCH  58  61
ATOM     61  CD  LYS d   1      17.023 -35.854   1.431  0.00  0.00    -0.043 C 
ATOM     62  H84 LYS d   1      16.052 -35.635   1.899  0.00  0.00     0.035 H 
ATOM     63  H85 LYS d   1      17.818 -35.310   1.963  0.00  0.00     0.035 H 
BRANCH  61  64
ATOM     64  CE  LYS d   1      17.297 -37.362   1.511  0.00  0.00     0.080 C 
ATOM     65  H86 LYS d   1      18.272 -37.571   1.047  0.00  0.00     0.075 H 
ATOM     66  H87 LYS d   1      16.508 -37.896   0.961  0.00  0.00     0.075 H 
BRANCH  64  67
ATOM     67  NZ  LYS d   1      17.319 -37.853   2.918  0.00  0.00    -0.079 N 
ATOM     68  H88 LYS d   1      17.501 -38.844   2.925  0.00  0.00     0.274 HD
ATOM     69  H89 LYS d   1      16.427 -37.672   3.351  0.00  0.00     0.274 HD
ATOM     70  H90 LYS d   1      18.044 -37.374   3.430  0.00  0.00     0.274 HD
ENDBRANCH  64  67
ENDBRANCH  61  64
ENDBRANCH  58  61
ENDBRANCH  55  58
ENDBRANCH  23  55
ENDBRANCH  21  23
ENDBRANCH  17  19
BRANCH  17  71
ATOM     71  CB  ARG d   1      14.317 -35.985  -4.305  0.00  0.00    -0.036 C 
ATOM     72  H67 ARG d   1      13.454 -36.519  -4.729  0.00  0.00     0.036 H 
ATOM     73  H68 ARG d   1      14.546 -36.391  -3.309  0.00  0.00     0.036 H 
BRANCH  71  74
ATOM     74  CG  ARG d   1      15.533 -36.236  -5.217  0.00  0.00    -0.048 C 
ATOM     75  H69 ARG d   1      16.373 -35.616  -4.872  0.00  0.00     0.035 H 
ATOM     76  H70 ARG d   1      15.271 -35.957  -6.248  0.00  0.00     0.035 H 
BRANCH  74  77
ATOM     77  CD  ARG d   1      15.957 -37.713  -5.191  0.00  0.00     0.009 C 
ATOM     78  H71 ARG d   1      15.224 -38.304  -5.759  0.00  0.00     0.064 H 
ATOM     79  H72 ARG d   1      15.978 -38.059  -4.147  0.00  0.00     0.064 H 
BRANCH  77  80
ATOM     80  NE  ARG d   1      17.295 -37.910  -5.787  0.00  0.00    -0.227 N 
ATOM     81  CZ  ARG d   1      18.463 -37.727  -5.188  0.00  0.00     0.665 C 
ATOM     82  NH1 ARG d   1      18.580 -37.332  -3.959  0.00  0.00    -0.235 N 
ATOM     83  NH2 ARG d   1      19.594 -37.928  -5.793  0.00  0.00    -0.235 N 
ATOM     84  H74 ARG d   1      19.515 -37.207  -3.545  0.00  0.00     0.174 HD
ATOM     85  H75 ARG d   1      17.738 -37.144  -3.396  0.00  0.00     0.174 HD
ATOM     86  H76 ARG d   1      19.605 -38.244  -6.773  0.00  0.00     0.174 HD
ATOM     87  H77 ARG d   1      20.481 -37.772  -5.293  0.00  0.00     0.174 HD
ATOM     88  H73 ARG d   1      17.323 -38.221  -6.768  0.00  0.00     0.177 HD
ENDBRANCH  77  80
ENDBRANCH  74  77
ENDBRANCH  71  74
ENDBRANCH  17  71
ENDBRANCH  15  17
ENDBRANCH  11  13
BRANCH  11  89
ATOM     89  CB  ALA d   1      12.277 -34.428  -8.424  0.00  0.00    -0.049 C 
ATOM     90  H62 ALA d   1      11.766 -35.389  -8.266  0.00  0.00     0.030 H 
ATOM     91  H63 ALA d   1      13.366 -34.586  -8.419  0.00  0.00     0.030 H 
ATOM     92  H64 ALA d   1      11.972 -34.006  -9.393  0.00  0.00     0.030 H 
ENDBRANCH  11  89
ENDBRANCH   9  11
ENDBRANCH   5   7
BRANCH   5  93
ATOM     93  CB  THR d   1      13.106 -29.124  -7.215  0.00  0.00     0.060 C 
ATOM     94  H55 THR d   1      13.740 -28.246  -7.408  0.00  0.00     0.086 H 
BRANCH  93  95
ATOM     95  OG1 THR d   1      13.671 -29.884  -6.164  0.00  0.00    -0.393 OA
ATOM     96  H56 THR d   1      13.696 -29.359  -5.373  0.00  0.00     0.210 HD
ENDBRANCH  93  95
BRANCH  93  97
ATOM     97  CG2 THR d   1      11.736 -28.634  -6.747  0.00  0.00    -0.050 C 
ATOM     98  H57 THR d   1      11.853 -28.041  -5.828  0.00  0.00     0.031 H 
ATOM     99  H58 THR d   1      11.087 -29.499  -6.545  0.00  0.00     0.031 H 
ATOM    100  H59 THR d   1      11.282 -28.010  -7.531  0.00  0.00     0.031 H 
ENDBRANCH  93  97
ENDBRANCH   5  93
ENDBRANCH   1   5
BRANCH   3 101
ATOM    101  CA  GLN d   1      13.002 -27.692 -11.620  0.00  0.00     0.090 C 
ATOM    102  H46 GLN d   1      11.936 -27.469 -11.468  0.00  0.00     0.087 H 
BRANCH 101 103
ATOM    103  N   GLN d   1      13.691 -26.427 -11.886  0.00  0.00    -0.346 N 
ATOM    104  C   MLY d   1      13.086 -25.300 -12.276  0.00  0.00     0.241 C 
ATOM    105  O   MLY d   1      11.872 -25.221 -12.472  0.00  0.00    -0.271 OA
ATOM    106  H45 GLN d   1      14.684 -26.405 -11.768  0.00  0.00     0.163 HD
BRANCH 104 107
ATOM    107  CA  MLY d   1      13.991 -24.072 -12.434  0.00  0.00     0.089 C 
ATOM    108  H29 MLY d   1      14.959 -24.410 -12.833  0.00  0.00     0.087 H 
BRANCH 107 109
ATOM    109  N   MLY d   1      13.401 -23.124 -13.376  0.00  0.00    -0.346 N 
ATOM    110  C   THR d   1      14.081 -22.299 -14.184  0.00  0.00     0.243 C 
ATOM    111  O   THR d   1      15.311 -22.304 -14.289  0.00  0.00    -0.271 OA
ATOM    112  H28 MLY d   1      12.403 -23.087 -13.422  0.00  0.00     0.163 HD
BRANCH 110 113
ATOM    113  CA  THR d   1      13.224 -21.319 -14.981  0.00  0.00     0.113 C 
ATOM    114  H22 THR d   1      12.399 -21.014 -14.321  0.00  0.00     0.091 H 
BRANCH 113 115
ATOM    115  N   THR d   1      13.926 -20.068 -15.358  0.00  0.00    -0.344 N 
ATOM    116  C   ARG d   1      13.326 -18.882 -15.435  0.00  0.00     0.241 C 
ATOM    117  O   ARG d   1      12.139 -18.731 -15.153  0.00  0.00    -0.271 OA
ATOM    118  H21 THR d   1      14.903 -20.118 -15.566  0.00  0.00     0.163 HD
BRANCH 116 119
ATOM    119  CA  ARG d   1      14.160 -17.656 -15.843  0.00  0.00     0.089 C 
ATOM    120  H9  ARG d   1      14.946 -17.989 -16.536  0.00  0.00     0.087 H 
BRANCH 119 121
ATOM    121  N   ARG d   1      13.307 -16.642 -16.538  0.00  0.00    -0.346 N 
ATOM    122  C   ALA d   1      12.601 -16.889 -17.659  0.00  0.00     0.248 C 
ATOM    123  O   ALA d   1      12.668 -17.976 -18.227  0.00  0.00    -0.271 OA
ATOM    124  H8  ARG d   1      13.258 -15.723 -16.146  0.00  0.00     0.163 HD
BRANCH 122 125
ATOM    125  CA  ALA d   1      11.737 -15.773 -18.299  0.00  0.00     0.172 C 
ATOM    126  H4  ALA d   1      11.711 -14.909 -17.619  0.00  0.00     0.098 H 
BRANCH 125 127
ATOM    127  N   ALA d   1      12.377 -15.355 -19.585  0.00  0.00    -0.067 N 
ATOM    128  H1  ALA d   1      11.826 -14.628 -20.014  0.00  0.00     0.275 HD
ATOM    129  H2  ALA d   1      12.431 -16.147 -20.206  0.00  0.00     0.275 HD
ATOM    130  H3  ALA d   1      13.305 -15.008 -19.401  0.00  0.00     0.275 HD
ENDBRANCH 125 127
BRANCH 125 131
ATOM    131  CB  ALA d   1      10.279 -16.262 -18.522  0.00  0.00    -0.042 C 
ATOM    132  H5  ALA d   1       9.841 -16.560 -17.558  0.00  0.00     0.030 H 
ATOM    133  H6  ALA d   1      10.282 -17.123 -19.206  0.00  0.00     0.030 H 
ATOM    134  H7  ALA d   1       9.682 -15.448 -18.960  0.00  0.00     0.030 H 
ENDBRANCH 125 131
ENDBRANCH 122 125
ENDBRANCH 119 121
BRANCH 119 135
ATOM    135  CB  ARG d   1      14.834 -17.001 -14.610  0.00  0.00    -0.036 C 
ATOM    136  H10 ARG d   1      14.218 -17.245 -13.732  0.00  0.00     0.036 H 
ATOM    137  H11 ARG d   1      14.826 -15.913 -14.772  0.00  0.00     0.036 H 
BRANCH 135 138
ATOM    138  CG  ARG d   1      16.272 -17.402 -14.283  0.00  0.00    -0.048 C 
ATOM    139  H12 ARG d   1      16.895 -17.286 -15.182  0.00  0.00     0.035 H 
ATOM    140  H13 ARG d   1      16.291 -18.453 -13.957  0.00  0.00     0.035 H 
BRANCH 138 141
ATOM    141  CD  ARG d   1      16.835 -16.509 -13.155  0.00  0.00     0.009 C 
ATOM    142  H14 ARG d   1      16.141 -16.516 -12.302  0.00  0.00     0.064 H 
ATOM    143  H15 ARG d   1      16.949 -15.480 -13.526  0.00  0.00     0.064 H 
BRANCH 141 144
ATOM    144  NE  ARG d   1      18.151 -17.024 -12.722  0.00  0.00    -0.227 N 
ATOM    145  CZ  ARG d   1      18.661 -17.081 -11.502  0.00  0.00     0.665 C 
ATOM    146  NH1 ARG d   1      18.043 -16.650 -10.439  0.00  0.00    -0.235 N 
ATOM    147  NH2 ARG d   1      19.847 -17.589 -11.323  0.00  0.00    -0.235 N 
ATOM    148  H17 ARG d   1      18.494 -16.723  -9.516  0.00  0.00     0.174 HD
ATOM    149  H18 ARG d   1      17.103 -16.237 -10.522  0.00  0.00     0.174 HD
ATOM    150  H19 ARG d   1      20.381 -17.945 -12.128  0.00  0.00     0.174 HD
ATOM    151  H20 ARG d   1      20.250 -17.634 -10.376  0.00  0.00     0.174 HD
ATOM    152  H16 ARG d   1      18.754 -17.389 -13.473  0.00  0.00     0.177 HD
ENDBRANCH 141 144
ENDBRANCH 138 141
ENDBRANCH 135 138
ENDBRANCH 119 135
ENDBRANCH 116 119
ENDBRANCH 113 115
BRANCH 113 153
ATOM    153  CB  THR d   1      12.590 -22.043 -16.178  0.00  0.00     0.060 C 
ATOM    154  H23 THR d   1      12.489 -23.107 -15.919  0.00  0.00     0.086 H 
BRANCH 153 155
ATOM    155  OG1 THR d   1      13.364 -21.946 -17.362  0.00  0.00    -0.393 OA
ATOM    156  H24 THR d   1      12.925 -22.410 -18.065  0.00  0.00     0.210 HD
ENDBRANCH 153 155
BRANCH 153 157
ATOM    157  CG2 THR d   1      11.206 -21.466 -16.449  0.00  0.00    -0.050 C 
ATOM    158  H25 THR d   1      10.754 -21.986 -17.306  0.00  0.00     0.031 H 
ATOM    159  H26 THR d   1      11.294 -20.393 -16.675  0.00  0.00     0.031 H 
ATOM    160  H27 THR d   1      10.571 -21.603 -15.561  0.00  0.00     0.031 H 
ENDBRANCH 153 157
ENDBRANCH 113 153
ENDBRANCH 110 113
ENDBRANCH 107 109
BRANCH 107 161
ATOM    161  CB  MLY d   1      14.243 -23.357 -11.083  0.00  0.00    -0.038 C 
ATOM    162  H30 MLY d   1      14.762 -22.407 -11.277  0.00  0.00     0.036 H 
ATOM    163  H31 MLY d   1      14.877 -24.000 -10.455  0.00  0.00     0.036 H 
BRANCH 161 164
ATOM    164  CG  MLY d   1      12.941 -23.063 -10.330  0.00  0.00    -0.061 C 
ATOM    165  H32 MLY d   1      12.595 -23.992  -9.853  0.00  0.00     0.033 H 
ATOM    166  H33 MLY d   1      12.187 -22.719 -11.054  0.00  0.00     0.033 H 
BRANCH 164 167
ATOM    167  CD  MLY d   1      13.105 -21.983  -9.241  0.00  0.00    -0.042 C 
ATOM    168  H34 MLY d   1      12.157 -21.433  -9.148  0.00  0.00     0.035 H 
ATOM    169  H35 MLY d   1      13.902 -21.291  -9.552  0.00  0.00     0.035 H 
BRANCH 167 170
ATOM    170  CE  MLY d   1      13.471 -22.565  -7.864  0.00  0.00     0.083 C 
ATOM    171  H36 MLY d   1      14.414 -23.124  -7.957  0.00  0.00     0.075 H 
ATOM    172  H37 MLY d   1      12.670 -23.248  -7.545  0.00  0.00     0.075 H 
BRANCH 170 173
ATOM    173  NZ  MLY d   1      13.642 -21.506  -6.820  0.00  0.00    -0.079 N 
ATOM    174  H38 MLY d   1      14.307 -20.829  -7.160  0.00  0.00     0.278 HD
BRANCH 173 175
ATOM    175  CH1 MLY d   1      12.359 -20.796  -6.511  0.00  0.00     0.066 C 
ATOM    176  H39 MLY d   1      12.539 -20.031  -5.741  0.00  0.00     0.068 H 
ATOM    177  H40 MLY d   1      11.619 -21.521  -6.141  0.00  0.00     0.068 H 
ATOM    178  H41 MLY d   1      11.977 -20.315  -7.423  0.00  0.00     0.068 H 
ENDBRANCH 173 175
BRANCH 173 179
ATOM    179  CH2 MLY d   1      14.171 -22.124  -5.572  0.00  0.00     0.066 C 
ATOM    180  H42 MLY d   1      15.113 -22.647  -5.793  0.00  0.00     0.068 H 
ATOM    181  H43 MLY d   1      13.437 -22.842  -5.179  0.00  0.00     0.068 H 
ATOM    182  H44 MLY d   1      14.354 -21.339  -4.823  0.00  0.00     0.068 H 
ENDBRANCH 173 179
ENDBRANCH 170 173
ENDBRANCH 167 170
ENDBRANCH 164 167
ENDBRANCH 161 164
ENDBRANCH 107 161
ENDBRANCH 104 107
ENDBRANCH 101 103
BRANCH 101 183
ATOM    183  CB  GLN d   1      13.125 -28.661 -12.812  0.00  0.00    -0.030 C 
ATOM    184  H47 GLN d   1      12.661 -29.614 -12.519  0.00  0.00     0.037 H 
ATOM    185  H48 GLN d   1      14.196 -28.819 -13.008  0.00  0.00     0.037 H 
BRANCH 183 186
ATOM    186  CG  GLN d   1      12.468 -28.202 -14.129  0.00  0.00     0.011 C 
ATOM    187  H49 GLN d   1      11.498 -27.745 -13.882  0.00  0.00     0.047 H 
ATOM    188  H50 GLN d   1      12.306 -29.092 -14.755  0.00  0.00     0.047 H 
BRANCH 186 189
ATOM    189  CD  GLN d   1      13.272 -27.187 -14.952  0.00  0.00     0.215 C 
ATOM    190  OE1 GLN d   1      12.753 -26.184 -15.430  0.00  0.00    -0.274 OA
ATOM    191  NE2 GLN d   1      14.559 -27.391 -15.165  0.00  0.00    -0.370 N 
ATOM    192  H51 GLN d   1      15.088 -26.733 -15.701  0.00  0.00     0.159 HD
ATOM    193  H52 GLN d   1      15.005 -28.204 -14.791  0.00  0.00     0.159 HD
ENDBRANCH 186 189
ENDBRANCH 183 186
ENDBRANCH 101 183
ENDBRANCH   3 101
TORSDOF 58
