REMARK  8 active torsions:
REMARK  status: ('A' for Active; 'I' for Inactive)
REMARK    1  A    between atoms: C11_1  and  C14_5 
REMARK    2  A    between atoms: C14_5  and  C16_3 
REMARK    3  A    between atoms: C14_5  and  C15_4 
REMARK    4  A    between atoms: C22_7  and  C23_8 
REMARK    5  A    between atoms: C03_12  and  C22_7 
REMARK    6  A    between atoms: C02_11  and  C01_10 
REMARK    7  A    between atoms: C07_16  and  C06_15 
REMARK    8  A    between atoms: C07_16  and  C08_17 
ROOT
ATOM      1  C19 7A4 d   1      15.934  12.633  24.986  0.00  0.00     0.117 A 
ATOM      2  C20 7A4 d   1      16.116  11.531  24.145  0.00  0.00    -0.034 A 
ATOM      3  C02 7A4 d   1      13.418   9.574  22.204  0.00  0.00    -0.043 A 
ATOM      4  C03 7A4 d   1      14.868   9.683  22.499  0.00  0.00    -0.030 A 
ATOM      5  C04 7A4 d   1      15.030  10.948  23.522  0.00  0.00    -0.015 A 
ATOM      6  C05 7A4 d   1      13.693  11.455  23.718  0.00  0.00    -0.014 A 
ATOM      7  C06 7A4 d   1      12.797  10.603  22.909  0.00  0.00    -0.018 A 
ATOM      8  C17 7A4 d   1      13.530  12.552  24.558  0.00  0.00    -0.069 A 
ATOM      9  C18 7A4 d   1      14.632  13.144  25.190  0.00  0.00    -0.045 A 
ATOM     10  F21 7A4 d   1      16.986  13.201  25.594  0.00  0.00    -0.206 F 
ATOM     11  H11 7A4 d   1      17.111  11.133  23.982  0.00  0.00     0.089 H 
ATOM     12  H19 7A4 d   1      12.537  12.954  24.726  0.00  0.00     0.085 H 
ATOM     13  H20 7A4 d   1      14.485  13.999  25.840  0.00  0.00     0.088 H 
ENDROOT
BRANCH   7  14
ATOM     14  C07 7A4 d   1      11.452  10.766  22.824  0.00  0.00    -0.062 C 
ATOM     15  H15 7A4 d   1      10.947  10.090  22.135  0.00  0.00     0.086 H 
BRANCH  14  16
ATOM     16  C08 7A4 d   1      10.547  11.745  23.542  0.00  0.00    -0.035 A 
ATOM     17  C13 7A4 d   1       9.545  11.270  24.377  0.00  0.00    -0.072 A 
ATOM     18  C12 7A4 d   1       8.705  12.158  25.034  0.00  0.00    -0.076 A 
ATOM     19  H1  7A4 d   1       9.418  10.203  24.516  0.00  0.00     0.084 H 
ATOM     20  C11 7A4 d   1       8.865  13.524  24.849  0.00  0.00    -0.055 A 
ATOM     21  H18 7A4 d   1       7.926  11.786  25.690  0.00  0.00     0.084 H 
ATOM     22  C10 7A4 d   1       9.865  13.996  24.015  0.00  0.00    -0.076 A 
ATOM     23  C09 7A4 d   1      10.693  13.108  23.350  0.00  0.00    -0.072 A 
ATOM     24  H17 7A4 d   1      10.000  15.063  23.883  0.00  0.00     0.084 H 
ATOM     25  H16 7A4 d   1      11.457  13.481  22.678  0.00  0.00     0.084 H 
BRANCH  20  26
ATOM     26  C14 7A4 d   1       7.978  14.527  25.552  0.00  0.00    -0.036 C 
ATOM     27  H8  7A4 d   1       7.815  15.365  24.859  0.00  0.00     0.046 H 
BRANCH  26  28
ATOM     28  C16 7A4 d   1       6.611  13.976  25.903  0.00  0.00    -0.069 C 
ATOM     29  H2  7A4 d   1       6.021  14.754  26.409  0.00  0.00     0.028 H 
ATOM     30  H3  7A4 d   1       6.725  13.110  26.571  0.00  0.00     0.028 H 
ATOM     31  H4  7A4 d   1       6.094  13.664  24.983  0.00  0.00     0.028 H 
ENDBRANCH  26  28
BRANCH  26  32
ATOM     32  C15 7A4 d   1       8.703  15.069  26.765  0.00  0.00    -0.069 C 
ATOM     33  H5  7A4 d   1       9.687  15.456  26.461  0.00  0.00     0.028 H 
ATOM     34  H6  7A4 d   1       8.838  14.264  27.502  0.00  0.00     0.028 H 
ATOM     35  H7  7A4 d   1       8.112  15.881  27.213  0.00  0.00     0.028 H 
ENDBRANCH  26  32
ENDBRANCH  20  26
ENDBRANCH  14  16
ENDBRANCH   7  14
BRANCH   3  36
ATOM     36  C01 7A4 d   1      12.797   8.549  21.294  0.00  0.00    -0.050 C 
ATOM     37  H12 7A4 d   1      13.581   7.884  20.902  0.00  0.00     0.033 H 
ATOM     38  H13 7A4 d   1      12.296   9.057  20.457  0.00  0.00     0.033 H 
ATOM     39  H14 7A4 d   1      12.061   7.957  21.857  0.00  0.00     0.033 H 
ENDBRANCH   3  36
BRANCH   4  40
ATOM     40  C22 7A4 d   1      15.974   8.804  21.979  0.00  0.00     0.041 C 
ATOM     41  H9  7A4 d   1      15.633   8.315  21.054  0.00  0.00     0.056 H 
ATOM     42  H10 7A4 d   1      16.852   9.430  21.761  0.00  0.00     0.056 H 
BRANCH  40  43
ATOM     43  C23 7A4 d   1      16.371   7.738  22.976  0.00  0.00     0.177 C 
ATOM     44  O24 7A4 d   1      16.107   7.887  24.197  0.00  0.00    -0.648 OA
ATOM     45  O25 7A4 d   1      16.968   6.701  22.583  0.00  0.00    -0.648 OA
ENDBRANCH  40  43
ENDBRANCH   4  40
TORSDOF 8
