REMARK  6 active torsions:
REMARK  status: ('A' for Active; 'I' for Inactive)
REMARK    1  A    between atoms: C15_4  and  C17_5 
REMARK    2  A    between atoms: C22_8  and  N23_25 
REMARK    3  A    between atoms: C24_9  and  C26_10 
REMARK       I    between atoms: N23_25  and  C24_9 
REMARK    4  A    between atoms: S2_13  and  C1_12 
REMARK    5  A    between atoms: N5_16  and  S2_13 
REMARK    6  A    between atoms: C9_18  and  C12_20 
ROOT
ATOM      1  C13 79Y d   1      14.191  13.231  15.609  0.00  0.00    -0.016 A 
ATOM      2  C15 79Y d   1      15.485  15.139  14.673  0.00  0.00     0.110 A 
ATOM      3  C12 79Y d   1      13.705  14.456  15.834  0.00  0.00     0.073 A 
ATOM      4  S14 79Y d   1      15.686  13.398  14.678  0.00  0.00    -0.079 SA
ATOM      5  N16 79Y d   1      14.402  15.454  15.337  0.00  0.00    -0.242 NA
ATOM      6  H5  79Y d   1      13.745  12.295  15.941  0.00  0.00     0.098 H 
ENDROOT
BRANCH   2   7
ATOM      7  C17 79Y d   1      16.442  16.059  14.023  0.00  0.00     0.026 A 
ATOM      8  C22 79Y d   1      16.481  17.414  14.406  0.00  0.00     0.048 A 
ATOM      9  C21 79Y d   1      17.422  18.246  13.774  0.00  0.00    -0.056 A 
ATOM     10  C20 79Y d   1      18.278  17.756  12.784  0.00  0.00    -0.081 A 
ATOM     11  H7  79Y d   1      17.485  19.290  14.061  0.00  0.00     0.086 H 
ATOM     12  C19 79Y d   1      18.219  16.413  12.413  0.00  0.00    -0.082 A 
ATOM     13  H6  79Y d   1      18.988  18.420  12.304  0.00  0.00     0.083 H 
ATOM     14  C18 79Y d   1      17.309  15.570  13.027  0.00  0.00    -0.068 A 
ATOM     15  H16 79Y d   1      18.883  16.031  11.646  0.00  0.00     0.083 H 
ATOM     16  H15 79Y d   1      17.263  14.526  12.739  0.00  0.00     0.085 H 
BRANCH   8  17
ATOM     17  N23 79Y d   1      15.612  17.811  15.444  0.00  0.00    -0.320 N 
ATOM     18  C24 79Y d   1      15.621  18.959  16.164  0.00  0.00     0.292 C 
ATOM     19  O25 79Y d   1      16.380  19.881  15.952  0.00  0.00    -0.264 OA
ATOM     20  H17 79Y d   1      14.893  17.157  15.680  0.00  0.00     0.169 HD
BRANCH  18  21
ATOM     21  C26 79Y d   1      14.659  19.107  17.258  0.00  0.00     0.196 A 
ATOM     22  N27 79Y d   1      13.689  18.266  17.557  0.00  0.00    -0.237 NA
ATOM     23  C28 79Y d   1      13.038  18.719  18.629  0.00  0.00     0.019 A 
ATOM     24  C29 79Y d   1      13.621  19.880  19.026  0.00  0.00    -0.004 A 
ATOM     25  H8  79Y d   1      12.184  18.240  19.105  0.00  0.00     0.117 H 
ATOM     26  N30 79Y d   1      14.659  20.125  18.176  0.00  0.00    -0.345 N 
ATOM     27  H18 79Y d   1      13.316  20.500  19.867  0.00  0.00     0.113 H 
ATOM     28  H19 79Y d   1      15.314  20.919  18.216  0.00  0.00     0.167 HD
ENDBRANCH  18  21
ENDBRANCH   8  17
ENDBRANCH   2   7
BRANCH   3  29
ATOM     29  C9  79Y d   1      12.446  14.684  16.628  0.00  0.00     0.096 C 
ATOM     30  O8  79Y d   1      11.582  13.544  16.542  0.00  0.00    -0.376 OA
ATOM     31  C7  79Y d   1      10.339  13.646  17.260  0.00  0.00     0.036 C 
ATOM     32  C6  79Y d   1      10.596  13.807  18.764  0.00  0.00     0.025 C 
ATOM     33  H3  79Y d   1       9.780  14.520  16.893  0.00  0.00     0.076 H 
ATOM     34  H4  79Y d   1       9.747  12.734  17.090  0.00  0.00     0.076 H 
ATOM     35  N5  79Y d   1      11.798  14.618  19.080  0.00  0.00    -0.306 N 
ATOM     36  H1  79Y d   1      10.726  12.807  19.203  0.00  0.00     0.068 H 
ATOM     37  H2  79Y d   1       9.720  14.294  19.216  0.00  0.00     0.068 H 
ATOM     38  C11 79Y d   1      12.867  14.893  18.086  0.00  0.00     0.034 C 
ATOM     39  H13 79Y d   1      13.714  14.224  18.298  0.00  0.00     0.069 H 
ATOM     40  H14 79Y d   1      13.186  15.939  18.205  0.00  0.00     0.069 H 
ATOM     41  H12 79Y d   1      11.920  15.574  16.252  0.00  0.00     0.096 H 
BRANCH  35  42
ATOM     42  S2  79Y d   1      11.999  15.203  20.623  0.00  0.00     0.224 S 
ATOM     43  O3  79Y d   1      10.732  15.150  21.266  0.00  0.00    -0.206 OA
ATOM     44  O4  79Y d   1      12.722  16.421  20.545  0.00  0.00    -0.206 OA
BRANCH  42  45
ATOM     45  C1  79Y d   1      13.116  13.966  21.317  0.00  0.00     0.032 C 
ATOM     46  H9  79Y d   1      12.592  13.002  21.395  0.00  0.00     0.051 H 
ATOM     47  H10 79Y d   1      13.443  14.287  22.317  0.00  0.00     0.051 H 
ATOM     48  H11 79Y d   1      13.993  13.855  20.662  0.00  0.00     0.051 H 
ENDBRANCH  42  45
ENDBRANCH  35  42
ENDBRANCH   3  29
TORSDOF 6
