REMARK  5 active torsions:
REMARK  status: ('A' for Active; 'I' for Inactive)
REMARK       I    between atoms: C2_2  and  N1_3 
REMARK    1  A    between atoms: C2_2  and  C3_11 
REMARK    2  A    between atoms: N1_3  and  C1_4 
REMARK       I    between atoms: N2_12  and  C6_16 
REMARK    3  A    between atoms: C6_16  and  C7_18 
REMARK    4  A    between atoms: C7_18  and  N3_19 
REMARK    5  A    between atoms: C8_26  and  C9_28 
REMARK       I    between atoms: C9_28  and  N5_30 
ROOT
ATOM      1  C3  J55 d   1      37.114  22.660  76.802  0.00  0.00     0.137 C 
ATOM      2  N2  J55 d   1      37.870  21.365  76.684  0.00  0.00    -0.328 N 
ATOM      3  C5  J55 d   1      38.467  20.970  77.972  0.00  0.00     0.007 C 
ATOM      4  C4  J55 d   1      38.860  22.219  78.696  0.00  0.00    -0.006 C 
ATOM      5  S   J55 d   1      37.403  23.270  78.489  0.00  0.00    -0.133 SA
ATOM      6  C6  J55 d   1      38.040  20.693  75.518  0.00  0.00     0.241 C 
ATOM      7  O1  J55 d   1      37.455  21.017  74.494  0.00  0.00    -0.271 OA
ATOM      8  H5  J55 d   1      36.039  22.505  76.625  0.00  0.00     0.105 H 
ATOM      9  H6  J55 d   1      39.354  20.344  77.797  0.00  0.00     0.065 H 
ATOM     10  H7  J55 d   1      37.733  20.407  78.568  0.00  0.00     0.065 H 
ATOM     11  H8  J55 d   1      39.749  22.679  78.240  0.00  0.00     0.051 H 
ATOM     12  H9  J55 d   1      39.056  22.017  79.759  0.00  0.00     0.051 H 
ENDROOT
BRANCH   1  13
ATOM     13  C2  J55 d   1      37.693  23.673  75.759  0.00  0.00     0.256 C 
ATOM     14  O2  J55 d   1      38.893  23.734  75.477  0.00  0.00    -0.270 OA
ATOM     15  N1  J55 d   1      36.732  24.446  75.197  0.00  0.00    -0.309 N 
ATOM     16  H1  J55 d   1      35.817  24.363  75.592  0.00  0.00     0.170 HD
BRANCH  15  17
ATOM     17  C1  J55 d   1      36.860  25.348  74.131  0.00  0.00     0.131 A 
ATOM     18  N   J55 d   1      35.728  25.515  73.435  0.00  0.00    -0.224 NA
ATOM     19  C   J55 d   1      35.790  26.315  72.379  0.00  0.00     0.105 A 
ATOM     20  C17 J55 d   1      36.918  26.987  71.945  0.00  0.00    -0.048 A 
ATOM     21 BR   J55 d   1      34.161  26.536  71.402  0.00  0.00    -0.029 Br
ATOM     22  C16 J55 d   1      38.067  26.815  72.694  0.00  0.00    -0.077 A 
ATOM     23  H4  J55 d   1      36.902  27.616  71.063  0.00  0.00     0.087 H 
ATOM     24  C15 J55 d   1      38.056  25.992  73.805  0.00  0.00    -0.038 A 
ATOM     25  H3  J55 d   1      38.979  27.327  72.409  0.00  0.00     0.083 H 
ATOM     26  H2  J55 d   1      38.948  25.851  74.405  0.00  0.00     0.089 H 
ENDBRANCH  15  17
ENDBRANCH   1  13
BRANCH   6  27
ATOM     27  C7  J55 d   1      38.988  19.493  75.535  0.00  0.00     0.092 C 
ATOM     28  H10 J55 d   1      38.633  18.754  76.269  0.00  0.00     0.082 H 
ATOM     29  H11 J55 d   1      39.999  19.827  75.810  0.00  0.00     0.082 H 
BRANCH  27  30
ATOM     30  N3  J55 d   1      39.017  18.895  74.222  0.00  0.00    -0.242 N 
ATOM     31  C11 J55 d   1      39.855  19.190  73.205  0.00  0.00     0.159 A 
ATOM     32  N6  J55 d   1      40.911  20.010  73.141  0.00  0.00    -0.241 NA
ATOM     33  C10 J55 d   1      39.360  18.383  72.160  0.00  0.00     0.048 A 
ATOM     34  C12 J55 d   1      41.535  20.056  71.956  0.00  0.00     0.004 A 
ATOM     35  C13 J55 d   1      41.139  19.328  70.847  0.00  0.00    -0.065 A 
ATOM     36  H12 J55 d   1      42.401  20.701  71.860  0.00  0.00     0.114 H 
ATOM     37  C14 J55 d   1      40.043  18.482  70.948  0.00  0.00    -0.065 A 
ATOM     38  H13 J55 d   1      41.678  19.418  69.911  0.00  0.00     0.085 H 
ATOM     39  H14 J55 d   1      39.720  17.902  70.091  0.00  0.00     0.085 H 
ATOM     40  C8  J55 d   1      38.233  17.613  72.633  0.00  0.00     0.158 A 
ATOM     41  N4  J55 d   1      38.074  17.973  73.904  0.00  0.00    -0.164 NA
BRANCH  40  42
ATOM     42  C9  J55 d   1      37.451  16.630  71.905  0.00  0.00     0.270 C 
ATOM     43  O   J55 d   1      37.559  16.511  70.674  0.00  0.00    -0.266 OA
ATOM     44  N5  J55 d   1      36.628  15.887  72.639  0.00  0.00    -0.365 N 
ATOM     45  H15 J55 d   1      36.059  15.190  72.202  0.00  0.00     0.159 HD
ATOM     46  H16 J55 d   1      36.578  16.025  73.628  0.00  0.00     0.159 HD
ENDBRANCH  40  42
ENDBRANCH  27  30
ENDBRANCH   6  27
TORSDOF 5
