REMARK  4 active torsions:
REMARK  status: ('A' for Active; 'I' for Inactive)
REMARK       I    between atoms: C2_2  and  N1_3 
REMARK    1  A    between atoms: C2_2  and  C3_11 
REMARK    2  A    between atoms: N1_3  and  C1_4 
REMARK       I    between atoms: N2_12  and  C6_16 
REMARK    3  A    between atoms: C6_16  and  C7_18 
REMARK    4  A    between atoms: C7_18  and  N3_19 
ROOT
ATOM      1  C3  J56 d   1     -12.407  22.476  76.584  0.00  0.00     0.137 C 
ATOM      2  N2  J56 d   1     -11.596  21.236  76.401  0.00  0.00    -0.328 N 
ATOM      3  C5  J56 d   1     -10.829  20.885  77.607  0.00  0.00     0.007 C 
ATOM      4  C4  J56 d   1     -10.640  22.112  78.450  0.00  0.00    -0.006 C 
ATOM      5  S   J56 d   1     -12.216  22.983  78.323  0.00  0.00    -0.133 SA
ATOM      6  C6  J56 d   1     -11.591  20.569  75.219  0.00  0.00     0.241 C 
ATOM      7  O   J56 d   1     -12.241  20.950  74.259  0.00  0.00    -0.271 OA
ATOM      8  H5  J56 d   1     -13.467  22.288  76.358  0.00  0.00     0.105 H 
ATOM      9  H6  J56 d   1      -9.847  20.486  77.314  0.00  0.00     0.065 H 
ATOM     10  H7  J56 d   1     -11.377  20.125  78.183  0.00  0.00     0.065 H 
ATOM     11  H8  J56 d   1      -9.819  22.731  78.059  0.00  0.00     0.051 H 
ATOM     12  H9  J56 d   1     -10.428  21.839  79.494  0.00  0.00     0.051 H 
ENDROOT
BRANCH   1  13
ATOM     13  C2  J56 d   1     -11.842  23.554  75.622  0.00  0.00     0.256 C 
ATOM     14  O1  J56 d   1     -10.651  23.554  75.309  0.00  0.00    -0.270 OA
ATOM     15  N1  J56 d   1     -12.761  24.420  75.138  0.00  0.00    -0.309 N 
ATOM     16  H1  J56 d   1     -13.635  24.451  75.622  0.00  0.00     0.170 HD
BRANCH  15  17
ATOM     17  C1  J56 d   1     -12.634  25.281  74.037  0.00  0.00     0.131 A 
ATOM     18  N   J56 d   1     -13.786  25.443  73.378  0.00  0.00    -0.224 NA
ATOM     19  C   J56 d   1     -13.743  26.166  72.272  0.00  0.00     0.105 A 
ATOM     20  C17 J56 d   1     -12.620  26.785  71.755  0.00  0.00    -0.048 A 
ATOM     21 BR   J56 d   1     -15.384  26.311  71.320  0.00  0.00    -0.029 Br
ATOM     22  C16 J56 d   1     -11.441  26.619  72.462  0.00  0.00    -0.077 A 
ATOM     23  H4  J56 d   1     -12.660  27.370  70.843  0.00  0.00     0.087 H 
ATOM     24  C15 J56 d   1     -11.427  25.865  73.621  0.00  0.00    -0.038 A 
ATOM     25  H3  J56 d   1     -10.527  27.081  72.106  0.00  0.00     0.083 H 
ATOM     26  H2  J56 d   1     -10.514  25.729  74.190  0.00  0.00     0.089 H 
ENDBRANCH  15  17
ENDBRANCH   1  13
BRANCH   6  27
ATOM     27  C7  J56 d   1     -10.716  19.323  75.110  0.00  0.00     0.091 C 
ATOM     28  H10 J56 d   1     -11.128  18.571  75.799  0.00  0.00     0.082 H 
ATOM     29  H11 J56 d   1      -9.703  19.603  75.436  0.00  0.00     0.082 H 
BRANCH  27  30
ATOM     30  N3  J56 d   1     -10.595  18.700  73.812  0.00  0.00    -0.261 N 
ATOM     31  C10 J56 d   1      -9.719  19.014  72.816  0.00  0.00     0.065 A 
ATOM     32  C11 J56 d   1      -8.610  19.852  72.767  0.00  0.00    -0.055 A 
ATOM     33  C9  J56 d   1     -10.149  18.292  71.682  0.00  0.00     0.011 A 
ATOM     34  C12 J56 d   1      -7.928  19.977  71.564  0.00  0.00    -0.081 A 
ATOM     35  H12 J56 d   1      -8.286  20.395  73.647  0.00  0.00     0.087 H 
ATOM     36  C13 J56 d   1      -8.358  19.293  70.423  0.00  0.00    -0.082 A 
ATOM     37  H13 J56 d   1      -7.052  20.613  71.509  0.00  0.00     0.083 H 
ATOM     38  C14 J56 d   1      -9.459  18.450  70.476  0.00  0.00    -0.069 A 
ATOM     39  H14 J56 d   1      -7.826  19.422  69.487  0.00  0.00     0.083 H 
ATOM     40  H15 J56 d   1      -9.782  17.918  69.589  0.00  0.00     0.085 H 
ATOM     41  C8  J56 d   1     -11.276  17.557  72.132  0.00  0.00     0.034 A 
ATOM     42  N4  J56 d   1     -11.536  17.796  73.396  0.00  0.00    -0.183 NA
ATOM     43  H16 J56 d   1     -11.854  16.878  71.506  0.00  0.00     0.118 H 
ENDBRANCH  27  30
ENDBRANCH   6  27
TORSDOF 4
