REMARK  4 active torsions:
REMARK  status: ('A' for Active; 'I' for Inactive)
REMARK    1  A    between atoms: C14_4  and  C19_1 
REMARK    2  A    between atoms: C19_1  and  O20_20 
REMARK    3  A    between atoms: C10_5  and  C13_8 
REMARK    4  A    between atoms: C05_13  and  C07_15 
ROOT
ATOM      1  C17 79V d   1      70.946 -11.008  21.671  0.00  0.00     0.093 C 
ATOM      2  C16 79V d   1      69.809 -10.541  22.484  0.00  0.00     0.193 A 
ATOM      3  C14 79V d   1      69.205 -11.141  24.493  0.00  0.00     0.133 A 
ATOM      4  C13 79V d   1      68.816 -11.600  23.037  0.00  0.00     0.041 A 
ATOM      5  N15 79V d   1      70.256 -10.222  23.904  0.00  0.00    -0.051 N 
ATOM      6  N18 79V d   1      71.862 -11.420  21.069  0.00  0.00    -0.195 NA
ATOM      7  H3  79V d   1      69.308  -9.713  21.962  0.00  0.00     0.109 H 
ATOM      8  H4  79V d   1      69.601 -11.975  25.091  0.00  0.00     0.088 H 
ATOM      9  H7  79V d   1      69.166 -12.621  22.825  0.00  0.00     0.055 H 
ATOM     10  H14 79V d   1      70.136  -9.254  24.159  0.00  0.00     0.279 HD
ATOM     11  H15 79V d   1      71.202 -10.507  24.105  0.00  0.00     0.279 HD
ENDROOT
BRANCH   4  12
ATOM     12  C10 79V d   1      67.325 -11.577  22.633  0.00  0.00    -0.049 A 
ATOM     13  C11 79V d   1      66.654 -12.794  22.317  0.00  0.00    -0.075 A 
ATOM     14  C12 79V d   1      65.279 -12.816  21.958  0.00  0.00    -0.072 A 
ATOM     15  H5  79V d   1      67.206 -13.726  22.351  0.00  0.00     0.084 H 
ATOM     16  C07 79V d   1      64.515 -11.626  21.876  0.00  0.00    -0.023 A 
ATOM     17  H6  79V d   1      64.804 -13.766  21.742  0.00  0.00     0.084 H 
ATOM     18  C08 79V d   1      65.169 -10.432  22.195  0.00  0.00    -0.072 A 
ATOM     19  C09 79V d   1      66.537 -10.390  22.553  0.00  0.00    -0.075 A 
ATOM     20  H12 79V d   1      64.608  -9.505  22.167  0.00  0.00     0.084 H 
ATOM     21  H13 79V d   1      66.998  -9.433  22.772  0.00  0.00     0.084 H 
BRANCH  16  22
ATOM     22  C05 79V d   1      63.051 -11.633  21.530  0.00  0.00     0.013 A 
ATOM     23  C04 79V d   1      62.545 -12.280  20.373  0.00  0.00     0.127 A 
ATOM     24  C03 79V d   1      61.137 -12.280  20.102  0.00  0.00    -0.045 A 
ATOM     25  F21 79V d   1      63.377 -12.873  19.542  0.00  0.00    -0.205 F 
ATOM     26  C02 79V d   1      60.233 -11.639  20.987  0.00  0.00    -0.080 A 
ATOM     27  H10 79V d   1      60.761 -12.774  19.213  0.00  0.00     0.088 H 
ATOM     28  C01 79V d   1      60.725 -11.002  22.147  0.00  0.00    -0.082 A 
ATOM     29  H9  79V d   1      59.170 -11.638  20.774  0.00  0.00     0.083 H 
ATOM     30  C06 79V d   1      62.106 -11.009  22.401  0.00  0.00    -0.069 A 
ATOM     31  H8  79V d   1      60.044 -10.513  22.834  0.00  0.00     0.083 H 
ATOM     32  H11 79V d   1      62.471 -10.520  23.297  0.00  0.00     0.085 H 
ENDBRANCH  16  22
ENDBRANCH   4  12
BRANCH   3  33
ATOM     33  C19 79V d   1      68.288 -10.340  25.359  0.00  0.00     0.044 C 
ATOM     34  H1  79V d   1      68.486 -10.586  26.413  0.00  0.00     0.077 H 
ATOM     35  H2  79V d   1      67.248 -10.598  25.112  0.00  0.00     0.077 H 
BRANCH  33  36
ATOM     36  O20 79V d   1      68.487  -8.846  25.156  0.00  0.00    -0.399 OA
ATOM     37  H16 79V d   1      67.890  -8.369  25.720  0.00  0.00     0.209 HD
ENDBRANCH  33  36
ENDBRANCH   3  33
TORSDOF 4
