REMARK  8 active torsions:
REMARK  status: ('A' for Active; 'I' for Inactive)
REMARK    1  A    between atoms: NBR_6  and  CAX_7 
REMARK    2  A    between atoms: CAX_7  and  CAS_8 
REMARK    3  A    between atoms: CAS_8  and  NBA_9 
REMARK       I    between atoms: NBA_9  and  CBE_10 
REMARK    4  A    between atoms: CBE_10  and  CBL_12 
REMARK    5  A    between atoms: CBH_27  and  NBC_28 
REMARK    6  A    between atoms: NBC_28  and  CBI_29 
REMARK    7  A    between atoms: CBO_35  and  NBB_36 
REMARK       I    between atoms: NBB_36  and  CBF_37 
REMARK    8  A    between atoms: CBF_37  and  CBK_39 
ROOT
ATOM      1  CBL 79Q d   1      20.348   6.094 -26.270  0.00  0.00     0.033 A 
ATOM      2  CAR 79Q d   1      20.350   4.679 -26.208  0.00  0.00    -0.053 A 
ATOM      3  CBQ 79Q d   1      19.441   3.962 -25.407  0.00  0.00     0.022 A 
ATOM      4  CBG 79Q d   1      19.550   2.552 -25.407  0.00  0.00     0.193 C 
ATOM      5  OAC 79Q d   1      19.809   1.985 -26.471  0.00  0.00    -0.287 OA
ATOM      6  CAM 79Q d   1      19.399   6.772 -25.480  0.00  0.00    -0.067 A 
ATOM      7  CAN 79Q d   1      18.500   6.070 -24.678  0.00  0.00    -0.075 A 
ATOM      8  CBM 79Q d   1      18.528   4.666 -24.658  0.00  0.00    -0.044 A 
ATOM      9  CAV 79Q d   1      17.642   4.060 -23.803  0.00  0.00    -0.036 C 
ATOM     10  CAW 79Q d   1      18.562   3.602 -22.648  0.00  0.00    -0.036 C 
ATOM     11  CBN 79Q d   1      19.216   2.348 -22.917  0.00  0.00    -0.042 A 
ATOM     12  CAP 79Q d   1      19.418   1.566 -21.752  0.00  0.00    -0.050 A 
ATOM     13  CBP 79Q d   1      19.630   1.841 -24.163  0.00  0.00     0.021 A 
ATOM     14  CAO 79Q d   1      20.268   0.566 -24.214  0.00  0.00    -0.067 A 
ATOM     15  CAK 79Q d   1      20.487  -0.202 -23.069  0.00  0.00    -0.056 A 
ATOM     16  CBH 79Q d   1      20.054   0.291 -21.825  0.00  0.00     0.033 A 
ATOM     17  H15 79Q d   1      21.076   4.130 -26.797  0.00  0.00     0.086 H 
ATOM     18  H16 79Q d   1      19.367   7.855 -25.496  0.00  0.00     0.085 H 
ATOM     19  H17 79Q d   1      17.780   6.607 -24.071  0.00  0.00     0.084 H 
ATOM     20  H18 79Q d   1      17.148   3.202 -24.283  0.00  0.00     0.040 H 
ATOM     21  H19 79Q d   1      16.881   4.771 -23.448  0.00  0.00     0.040 H 
ATOM     22  H20 79Q d   1      17.955   3.493 -21.737  0.00  0.00     0.040 H 
ATOM     23  H21 79Q d   1      19.331   4.371 -22.486  0.00  0.00     0.040 H 
ATOM     24  H22 79Q d   1      19.084   1.942 -20.792  0.00  0.00     0.087 H 
ATOM     25  H23 79Q d   1      20.593   0.181 -25.174  0.00  0.00     0.085 H 
ATOM     26  H24 79Q d   1      20.983  -1.163 -23.138  0.00  0.00     0.086 H 
ENDROOT
BRANCH  16  27
ATOM     27  NBC 79Q d   1      20.219  -0.378 -20.642  0.00  0.00    -0.356 N 
ATOM     28  H25 79Q d   1      19.721   0.000 -19.823  0.00  0.00     0.166 HD
BRANCH  27  29
ATOM     29  CBI 79Q d   1      20.969  -1.485 -20.439  0.00  0.00     0.034 A 
ATOM     30  CAQ 79Q d   1      20.440  -2.382 -19.528  0.00  0.00    -0.028 A 
ATOM     31  CBO 79Q d   1      21.089  -3.563 -19.165  0.00  0.00     0.076 A 
ATOM     32  H26 79Q d   1      19.480  -2.158 -19.077  0.00  0.00     0.090 H 
ATOM     33  CBJ 79Q d   1      22.338  -3.844 -19.720  0.00  0.00     0.143 A 
ATOM     34  CAL 79Q d   1      22.902  -2.961 -20.637  0.00  0.00    -0.041 A 
ATOM     35  FAD 79Q d   1      22.994  -4.956 -19.403  0.00  0.00    -0.204 F 
ATOM     36  CAJ 79Q d   1      22.235  -1.773 -20.970  0.00  0.00    -0.054 A 
ATOM     37  H28 79Q d   1      23.858  -3.192 -21.094  0.00  0.00     0.088 H 
ATOM     38  H27 79Q d   1      22.704  -1.068 -21.647  0.00  0.00     0.087 H 
BRANCH  31  39
ATOM     39  NBB 79Q d   1      20.574  -4.463 -18.292  0.00  0.00    -0.320 N 
ATOM     40  CBF 79Q d   1      19.263  -4.832 -18.305  0.00  0.00     0.256 C 
ATOM     41  OAB 79Q d   1      18.473  -4.483 -19.160  0.00  0.00    -0.267 OA
ATOM     42  H29 79Q d   1      21.181  -4.872 -17.611  0.00  0.00     0.169 HD
BRANCH  40  43
ATOM     43  CBK 79Q d   1      18.842  -5.757 -17.306  0.00  0.00     0.032 A 
ATOM     44  CAH 79Q d   1      19.149  -5.568 -15.936  0.00  0.00    -0.068 A 
ATOM     45  CAF 79Q d   1      18.719  -6.472 -14.935  0.00  0.00    -0.082 A 
ATOM     46  H30 79Q d   1      19.733  -4.702 -15.644  0.00  0.00     0.085 H 
ATOM     47  CAE 79Q d   1      18.016  -7.588 -15.314  0.00  0.00    -0.083 A 
ATOM     48  H31 79Q d   1      18.941  -6.286 -13.890  0.00  0.00     0.083 H 
ATOM     49  CAG 79Q d   1      17.731  -7.816 -16.644  0.00  0.00    -0.082 A 
ATOM     50  H32 79Q d   1      17.683  -8.295 -14.563  0.00  0.00     0.083 H 
ATOM     51  CAI 79Q d   1      18.133  -6.912 -17.647  0.00  0.00    -0.068 A 
ATOM     52  H33 79Q d   1      17.186  -8.710 -16.924  0.00  0.00     0.083 H 
ATOM     53  H34 79Q d   1      17.892  -7.113 -18.685  0.00  0.00     0.085 H 
ENDBRANCH  40  43
ENDBRANCH  31  39
ENDBRANCH  27  29
ENDBRANCH  16  27
BRANCH   1  54
ATOM     54  CBE 79Q d   1      21.335   6.706 -27.120  0.00  0.00     0.251 C 
ATOM     55  NBA 79Q d   1      21.767   7.994 -27.007  0.00  0.00    -0.355 N 
ATOM     56  H14 79Q d   1      22.522   8.215 -27.625  0.00  0.00     0.162 HD
ATOM     57  OAA 79Q d   1      21.955   6.000 -27.906  0.00  0.00    -0.268 OA
BRANCH  55  58
ATOM     58  CAS 79Q d   1      21.344   9.147 -26.148  0.00  0.00     0.018 C 
ATOM     59  H12 79Q d   1      20.248   9.242 -26.159  0.00  0.00     0.066 H 
ATOM     60  H13 79Q d   1      21.689   8.993 -25.115  0.00  0.00     0.066 H 
BRANCH  58  61
ATOM     61  CAX 79Q d   1      22.002  10.441 -26.747  0.00  0.00     0.098 C 
ATOM     62  H10 79Q d   1      21.812  11.271 -26.050  0.00  0.00     0.078 H 
ATOM     63  H11 79Q d   1      23.085  10.266 -26.822  0.00  0.00     0.078 H 
BRANCH  61  64
ATOM     64  NBR 79Q d   1      21.511  10.851 -28.092  0.00  0.00    -0.066 N 
ATOM     65  CAY 79Q d   1      22.621  10.703 -29.018  0.00  0.00     0.103 C 
ATOM     66  CAT 79Q d   1      22.118  10.845 -30.358  0.00  0.00     0.042 C 
ATOM     67  H1  79Q d   1      23.375  11.479 -28.820  0.00  0.00     0.079 H 
ATOM     68  H2  79Q d   1      23.076   9.709 -28.896  0.00  0.00     0.079 H 
ATOM     69  OBD 79Q d   1      20.792  11.509 -30.321  0.00  0.00    -0.388 OA
ATOM     70  H3  79Q d   1      22.018   9.851 -30.819  0.00  0.00     0.076 H 
ATOM     71  H4  79Q d   1      22.817  11.455 -30.949  0.00  0.00     0.076 H 
ATOM     72  CAU 79Q d   1      19.747  10.768 -29.734  0.00  0.00     0.042 C 
ATOM     73  CAZ 79Q d   1      20.355  10.066 -28.490  0.00  0.00     0.103 C 
ATOM     74  H5  79Q d   1      19.365  10.020 -30.444  0.00  0.00     0.076 H 
ATOM     75  H6  79Q d   1      18.929  11.438 -29.431  0.00  0.00     0.076 H 
ATOM     76  H7  79Q d   1      20.662   9.041 -28.745  0.00  0.00     0.079 H 
ATOM     77  H8  79Q d   1      19.618  10.035 -27.674  0.00  0.00     0.079 H 
ATOM     78  H9  79Q d   1      21.237  11.821 -28.062  0.00  0.00     0.280 HD
ENDBRANCH  61  64
ENDBRANCH  58  61
ENDBRANCH  55  58
ENDBRANCH   1  54
TORSDOF 8
