REMARK  7 active torsions:
REMARK  status: ('A' for Active; 'I' for Inactive)
REMARK    1  A    between atoms: C15_4  and  C17_5 
REMARK    2  A    between atoms: C22_8  and  N23_25 
REMARK    3  A    between atoms: C24_9  and  C26_10 
REMARK       I    between atoms: N23_25  and  C24_9 
REMARK    4  A    between atoms: S2_13  and  C1_12 
REMARK    5  A    between atoms: N5_16  and  S2_13 
REMARK    6  A    between atoms: C9_18  and  C12_20 
REMARK    7  A    between atoms: C19_24  and  N32_30 
ROOT
ATOM      1  C17 7AE d   1      16.698  15.489  14.051  0.00  0.00     0.029 A 
ATOM      2  C20 7AE d   1      18.552  17.161  12.839  0.00  0.00    -0.055 A 
ATOM      3  C21 7AE d   1      17.678  17.681  13.784  0.00  0.00    -0.054 A 
ATOM      4  C22 7AE d   1      16.731  16.861  14.398  0.00  0.00     0.048 A 
ATOM      5  C18 7AE d   1      17.576  14.975  13.099  0.00  0.00    -0.043 A 
ATOM      6  C19 7AE d   1      18.500  15.801  12.488  0.00  0.00     0.031 A 
ATOM      7  H6  7AE d   1      19.281  17.810  12.367  0.00  0.00     0.087 H 
ATOM      8  H7  7AE d   1      17.732  18.731  14.047  0.00  0.00     0.087 H 
ATOM      9  H15 7AE d   1      17.534  13.924  12.837  0.00  0.00     0.088 H 
ENDROOT
BRANCH   1  10
ATOM     10  C15 7AE d   1      15.739  14.541  14.652  0.00  0.00     0.110 A 
ATOM     11  S14 7AE d   1      15.833  12.797  14.474  0.00  0.00    -0.079 SA
ATOM     12  C13 7AE d   1      14.380  12.625  15.463  0.00  0.00    -0.016 A 
ATOM     13  C12 7AE d   1      13.966  13.844  15.812  0.00  0.00     0.073 A 
ATOM     14  H5  7AE d   1      13.904  11.686  15.740  0.00  0.00     0.098 H 
ATOM     15  N16 7AE d   1      14.697  14.839  15.372  0.00  0.00    -0.242 NA
BRANCH  13  16
ATOM     16  C9  7AE d   1      12.759  14.096  16.675  0.00  0.00     0.096 C 
ATOM     17  O8  7AE d   1      11.884  12.957  16.714  0.00  0.00    -0.376 OA
ATOM     18  C7  7AE d   1      10.696  13.151  17.494  0.00  0.00     0.036 C 
ATOM     19  C6  7AE d   1      11.060  13.396  18.969  0.00  0.00     0.025 C 
ATOM     20  H3  7AE d   1      10.146  14.021  17.107  0.00  0.00     0.076 H 
ATOM     21  H4  7AE d   1      10.063  12.254  17.420  0.00  0.00     0.076 H 
ATOM     22  N5  7AE d   1      12.275  14.230  19.160  0.00  0.00    -0.306 N 
ATOM     23  H1  7AE d   1      11.230  12.421  19.450  0.00  0.00     0.068 H 
ATOM     24  H2  7AE d   1      10.213  13.902  19.455  0.00  0.00     0.068 H 
ATOM     25  C11 7AE d   1      13.281  14.408  18.085  0.00  0.00     0.034 C 
ATOM     26  H13 7AE d   1      14.130  13.741  18.294  0.00  0.00     0.069 H 
ATOM     27  H14 7AE d   1      13.623  15.453  18.102  0.00  0.00     0.069 H 
ATOM     28  H12 7AE d   1      12.201  14.960  16.283  0.00  0.00     0.096 H 
BRANCH  22  29
ATOM     29  S2  7AE d   1      12.556  14.946  20.637  0.00  0.00     0.224 S 
ATOM     30  O3  7AE d   1      11.277  15.073  21.240  0.00  0.00    -0.206 OA
ATOM     31  O4  7AE d   1      13.383  16.090  20.425  0.00  0.00    -0.206 OA
BRANCH  29  32
ATOM     32  C1  7AE d   1      13.516  13.703  21.529  0.00  0.00     0.032 C 
ATOM     33  H9  7AE d   1      12.893  12.813  21.701  0.00  0.00     0.051 H 
ATOM     34  H10 7AE d   1      13.842  14.115  22.495  0.00  0.00     0.051 H 
ATOM     35  H11 7AE d   1      14.398  13.424  20.933  0.00  0.00     0.051 H 
ENDBRANCH  29  32
ENDBRANCH  22  29
ENDBRANCH  13  16
ENDBRANCH   1  10
BRANCH   4  36
ATOM     36  N23 7AE d   1      15.847  17.302  15.399  0.00  0.00    -0.320 N 
ATOM     37  C24 7AE d   1      15.877  18.446  16.121  0.00  0.00     0.292 C 
ATOM     38  O25 7AE d   1      16.678  19.331  15.942  0.00  0.00    -0.264 OA
ATOM     39  H16 7AE d   1      15.090  16.683  15.606  0.00  0.00     0.169 HD
BRANCH  37  40
ATOM     40  C26 7AE d   1      14.900  18.640  17.188  0.00  0.00     0.196 A 
ATOM     41  N27 7AE d   1      13.819  17.924  17.395  0.00  0.00    -0.237 NA
ATOM     42  C28 7AE d   1      13.203  18.392  18.480  0.00  0.00     0.019 A 
ATOM     43  C29 7AE d   1      13.929  19.420  18.992  0.00  0.00    -0.004 A 
ATOM     44  H8  7AE d   1      12.268  18.012  18.890  0.00  0.00     0.117 H 
ATOM     45  N30 7AE d   1      15.013  19.572  18.186  0.00  0.00    -0.345 N 
ATOM     46  H17 7AE d   1      13.689  20.008  19.877  0.00  0.00     0.113 H 
ATOM     47  H18 7AE d   1      15.774  20.257  18.303  0.00  0.00     0.167 HD
ENDBRANCH  37  40
ENDBRANCH   4  36
BRANCH   6  48
ATOM     48  N32 7AE d   1      19.364  15.221  11.548  0.00  0.00    -0.377 N 
ATOM     49  C33 7AE d   1      18.874  15.047  10.161  0.00  0.00     0.015 C 
ATOM     50  C34 7AE d   1      19.725  13.910   9.569  0.00  0.00     0.034 C 
ATOM     51  H19 7AE d   1      19.014  15.973   9.584  0.00  0.00     0.067 H 
ATOM     52  H20 7AE d   1      17.809  14.771  10.160  0.00  0.00     0.067 H 
ATOM     53  O35 7AE d   1      21.130  14.208   9.738  0.00  0.00    -0.388 OA
ATOM     54  H21 7AE d   1      19.500  13.806   8.497  0.00  0.00     0.076 H 
ATOM     55  H22 7AE d   1      19.487  12.969  10.086  0.00  0.00     0.076 H 
ATOM     56  C36 7AE d   1      21.628  14.447  11.070  0.00  0.00     0.034 C 
ATOM     57  C37 7AE d   1      20.794  15.573  11.686  0.00  0.00     0.015 C 
ATOM     58  H23 7AE d   1      22.686  14.746  11.026  0.00  0.00     0.076 H 
ATOM     59  H24 7AE d   1      21.530  13.534  11.676  0.00  0.00     0.076 H 
ATOM     60  H25 7AE d   1      21.049  15.685  12.750  0.00  0.00     0.067 H 
ATOM     61  H26 7AE d   1      20.997  16.517  11.159  0.00  0.00     0.067 H 
ENDBRANCH   6  48
TORSDOF 7
