REMARK  14 active torsions:
REMARK  status: ('A' for Active; 'I' for Inactive)
REMARK    1  A    between atoms: NH1_11  and  C1_1 
REMARK    2  A    between atoms: NH1_11  and  C2_2 
REMARK    3  A    between atoms: CA_4  and  N_3 
REMARK    4  A    between atoms: CB_5  and  CA_4 
REMARK    5  A    between atoms: CA_4  and  C_12 
REMARK    6  A    between atoms: CG_6  and  CB_5 
REMARK    7  A    between atoms: CD_7  and  CG_6 
REMARK    8  A    between atoms: NE_8  and  CD_7 
REMARK       I    between atoms: CZ_9  and  NE_8 
REMARK       I    between atoms: CZ_9  and  NH1_11 
REMARK       I    between atoms: C_12  and  N_14 
REMARK    9  A    between atoms: N_14  and  CA_15 
REMARK   10  A    between atoms: CA_15  and  C_16 
REMARK   11  A    between atoms: CA_15  and  CB_18 
REMARK   12  A    between atoms: CB_18  and  CG1_19 
REMARK   13  A    between atoms: CB_18  and  CG2_20 
REMARK   14  A    between atoms: CG1_19  and  CD1_21 
ROOT
ATOM      1  CA  DA2 d   1      13.867   1.483   8.889  0.00  0.00     0.176 C 
ATOM      2  H10 DA2 d   1      13.181   0.929   8.232  0.00  0.00     0.099 H 
ENDROOT
BRANCH   1   3
ATOM      3  N   DA2 d   1      13.394   1.407  10.270  0.00  0.00    -0.067 N 
ATOM      4  H7  DA2 d   1      12.462   1.787  10.327  0.00  0.00     0.275 HD
ATOM      5  H8  DA2 d   1      14.010   1.937  10.866  0.00  0.00     0.275 HD
ATOM      6  H9  DA2 d   1      13.383   0.445  10.569  0.00  0.00     0.275 HD
ENDBRANCH   1   3
BRANCH   1   7
ATOM      7  CB  DA2 d   1      13.998   2.940   8.419  0.00  0.00    -0.029 C 
ATOM      8  H11 DA2 d   1      14.230   2.937   7.344  0.00  0.00     0.036 H 
ATOM      9  H12 DA2 d   1      14.826   3.408   8.971  0.00  0.00     0.036 H 
BRANCH   7  10
ATOM     10  CG  DA2 d   1      12.742   3.780   8.636  0.00  0.00    -0.047 C 
ATOM     11  H13 DA2 d   1      12.970   4.838   8.439  0.00  0.00     0.035 H 
ATOM     12  H14 DA2 d   1      12.401   3.666   9.675  0.00  0.00     0.035 H 
BRANCH  10  13
ATOM     13  CD  DA2 d   1      11.647   3.314   7.690  0.00  0.00     0.009 C 
ATOM     14  H15 DA2 d   1      11.335   2.298   7.975  0.00  0.00     0.064 H 
ATOM     15  H16 DA2 d   1      12.041   3.303   6.663  0.00  0.00     0.064 H 
BRANCH  13  16
ATOM     16  NE  DA2 d   1      10.484   4.203   7.745  0.00  0.00    -0.227 N 
ATOM     17  CZ  DA2 d   1      10.108   5.051   6.669  0.00  0.00     0.668 C 
ATOM     18  NH2 DA2 d   1      10.824   5.091   5.639  0.00  0.00    -0.235 N 
ATOM     19  NH1 DA2 d   1       8.904   5.821   6.836  0.00  0.00    -0.227 N 
ATOM     20  H18 DA2 d   1      11.675   4.514   5.581  0.00  0.00     0.174 HD
ATOM     21  H19 DA2 d   1      10.560   5.700   4.852  0.00  0.00     0.174 HD
ATOM     22  H17 DA2 d   1       9.913   4.214   8.602  0.00  0.00     0.177 HD
BRANCH  19  23
ATOM     23  C1  DA2 d   1       8.099   5.788   8.029  0.00  0.00    -0.003 C 
ATOM     24  H1  DA2 d   1       7.237   6.461   7.909  0.00  0.00     0.057 H 
ATOM     25  H2  DA2 d   1       8.703   6.116   8.888  0.00  0.00     0.057 H 
ATOM     26  H3  DA2 d   1       7.742   4.762   8.202  0.00  0.00     0.057 H 
ENDBRANCH  19  23
BRANCH  19  27
ATOM     27  C2  DA2 d   1       8.481   6.725   5.789  0.00  0.00    -0.003 C 
ATOM     28  H4  DA2 d   1       9.177   6.654   4.940  0.00  0.00     0.057 H 
ATOM     29  H5  DA2 d   1       8.477   7.755   6.174  0.00  0.00     0.057 H 
ATOM     30  H6  DA2 d   1       7.468   6.453   5.457  0.00  0.00     0.057 H 
ENDBRANCH  19  27
ENDBRANCH  13  16
ENDBRANCH  10  13
ENDBRANCH   7  10
ENDBRANCH   1   7
BRANCH   1  31
ATOM     31  C   DA2 d   1      15.277   0.906   8.813  0.00  0.00     0.249 C 
ATOM     32  O   DA2 d   1      15.994   0.879   9.838  0.00  0.00    -0.271 OA
ATOM     33  N   ILE d   1      15.685   0.463   7.626  0.00  0.00    -0.344 N 
ATOM     34  H20 ILE d   1      15.018   0.302   6.899  0.00  0.00     0.163 HD
BRANCH  33  35
ATOM     35  CA  ILE d   1      17.104   0.210   7.380  0.00  0.00     0.099 C 
ATOM     36  H21 ILE d   1      17.603   0.175   8.360  0.00  0.00     0.090 H 
BRANCH  35  37
ATOM     37  C   ILE d   1      17.736   1.341   6.582  0.00  0.00     0.197 C 
ATOM     38  O   ILE d   1      17.036   2.201   6.048  0.00  0.00    -0.646 OA
ATOM     39  OXT ILE d   1      18.958   1.415   6.457  0.00  0.00    -0.646 OA
ENDBRANCH  35  37
BRANCH  35  40
ATOM     40  CB  ILE d   1      17.350  -1.137   6.695  0.00  0.00    -0.029 C 
ATOM     41  H22 ILE d   1      18.404  -1.176   6.381  0.00  0.00     0.043 H 
BRANCH  40  42
ATOM     42  CG1 ILE d   1      16.480  -1.284   5.445  0.00  0.00    -0.063 C 
ATOM     43  H23 ILE d   1      16.619  -0.392   4.816  0.00  0.00     0.033 H 
ATOM     44  H24 ILE d   1      15.428  -1.352   5.758  0.00  0.00     0.033 H 
BRANCH  42  45
ATOM     45  CD1 ILE d   1      16.819  -2.520   4.614  0.00  0.00    -0.076 C 
ATOM     46  H28 ILE d   1      16.159  -2.563   3.735  0.00  0.00     0.027 H 
ATOM     47  H29 ILE d   1      16.676  -3.423   5.225  0.00  0.00     0.027 H 
ATOM     48  H30 ILE d   1      17.867  -2.463   4.283  0.00  0.00     0.027 H 
ENDBRANCH  42  45
ENDBRANCH  40  42
BRANCH  40  49
ATOM     49  CG2 ILE d   1      17.109  -2.263   7.669  0.00  0.00    -0.070 C 
ATOM     50  H25 ILE d   1      17.749  -2.126   8.553  0.00  0.00     0.028 H 
ATOM     51  H26 ILE d   1      17.349  -3.222   7.187  0.00  0.00     0.028 H 
ATOM     52  H27 ILE d   1      16.053  -2.262   7.977  0.00  0.00     0.028 H 
ENDBRANCH  40  49
ENDBRANCH  35  40
ENDBRANCH  33  35
ENDBRANCH   1  31
TORSDOF 14
