REMARK  14 active torsions:
REMARK  status: ('A' for Active; 'I' for Inactive)
REMARK    1  A    between atoms: C19_4  and  C22_22 
REMARK    2  A    between atoms: C09_17  and  C12_5 
REMARK    3  A    between atoms: C15_7  and  C16_8 
REMARK    4  A    between atoms: N14_19  and  C15_7 
REMARK    5  A    between atoms: C15_7  and  C32_32 
REMARK    6  A    between atoms: C02_10  and  C01_9 
REMARK    7  A    between atoms: C02_10  and  C03_11 
REMARK    8  A    between atoms: C04_12  and  C02_10 
REMARK    9  A    between atoms: C05_13  and  C04_12 
REMARK   10  A    between atoms: C06_14  and  C05_13 
REMARK   11  A    between atoms: C05_13  and  N14_19 
REMARK       I    between atoms: N08_16  and  C06_14 
REMARK   12  A    between atoms: N08_16  and  C09_17 
REMARK   13  A    between atoms: C25_25  and  S28_28 
REMARK   14  A    between atoms: S28_28  and  C31_31 
ROOT
ATOM      1  C15 7AS d   1       1.815  -0.378 -18.088  0.00  0.00     0.220 C 
ATOM      2  H8  7AS d   1       2.196   0.654 -18.080  0.00  0.00     0.106 H 
ENDROOT
BRANCH   1   3
ATOM      3  C16 7AS d   1       2.990  -1.296 -17.799  0.00  0.00    -0.019 A 
ATOM      4  C17 7AS d   1       2.751  -2.620 -17.387  0.00  0.00    -0.074 A 
ATOM      5  C18 7AS d   1       3.808  -3.488 -17.143  0.00  0.00    -0.072 A 
ATOM      6  H1  7AS d   1       1.732  -2.966 -17.259  0.00  0.00     0.084 H 
ATOM      7  C19 7AS d   1       5.136  -3.031 -17.313  0.00  0.00    -0.026 A 
ATOM      8  H4  7AS d   1       3.617  -4.507 -16.825  0.00  0.00     0.084 H 
ATOM      9  C20 7AS d   1       5.378  -1.704 -17.734  0.00  0.00    -0.072 A 
ATOM     10  C21 7AS d   1       4.317  -0.841 -17.973  0.00  0.00    -0.074 A 
ATOM     11  H22 7AS d   1       6.396  -1.358 -17.871  0.00  0.00     0.084 H 
ATOM     12  H23 7AS d   1       4.505   0.178 -18.292  0.00  0.00     0.084 H 
BRANCH   7  13
ATOM     13  C22 7AS d   1       6.277  -3.953 -17.072  0.00  0.00    -0.026 A 
ATOM     14  C23 7AS d   1       6.184  -5.001 -16.120  0.00  0.00    -0.071 A 
ATOM     15  C24 7AS d   1       7.246  -5.853 -15.913  0.00  0.00    -0.061 A 
ATOM     16  H24 7AS d   1       5.270  -5.132 -15.552  0.00  0.00     0.084 H 
ATOM     17  C25 7AS d   1       8.418  -5.697 -16.668  0.00  0.00     0.058 A 
ATOM     18  H25 7AS d   1       7.177  -6.640 -15.171  0.00  0.00     0.085 H 
ATOM     19  C26 7AS d   1       8.521  -4.686 -17.606  0.00  0.00    -0.061 A 
ATOM     20  C27 7AS d   1       7.451  -3.829 -17.813  0.00  0.00    -0.071 A 
ATOM     21  H26 7AS d   1       9.434  -4.564 -18.177  0.00  0.00     0.085 H 
ATOM     22  H27 7AS d   1       7.529  -3.050 -18.563  0.00  0.00     0.084 H 
BRANCH  17  23
ATOM     23  S28 7AS d   1       9.797  -6.768 -16.424  0.00  0.00     0.171 S 
ATOM     24  O29 7AS d   1      10.575  -6.760 -17.657  0.00  0.00    -0.223 OA
ATOM     25  O30 7AS d   1       9.321  -8.039 -15.925  0.00  0.00    -0.223 OA
BRANCH  23  26
ATOM     26  C31 7AS d   1      10.704  -5.944 -15.163  0.00  0.00     0.020 C 
ATOM     27  H28 7AS d   1      11.605  -6.526 -14.919  0.00  0.00     0.049 H 
ATOM     28  H29 7AS d   1      10.077  -5.846 -14.265  0.00  0.00     0.049 H 
ATOM     29  H30 7AS d   1      10.998  -4.945 -15.516  0.00  0.00     0.049 H 
ENDBRANCH  23  26
ENDBRANCH  17  23
ENDBRANCH   7  13
ENDBRANCH   1   3
BRANCH   1  30
ATOM     30  N14 7AS d   1       0.781  -0.461 -17.068  0.00  0.00    -0.045 N 
ATOM     31  H20 7AS d   1       1.180  -0.871 -16.238  0.00  0.00     0.279 HD
ATOM     32  H21 7AS d   1       0.038  -1.050 -17.410  0.00  0.00     0.279 HD
BRANCH  30  33
ATOM     33  C05 7AS d   1       0.205   0.877 -16.712  0.00  0.00     0.182 C 
ATOM     34  H17 7AS d   1      -0.081   1.361 -17.657  0.00  0.00     0.099 H 
BRANCH  33  35
ATOM     35  C04 7AS d   1      -1.065   0.742 -15.858  0.00  0.00     0.003 C 
ATOM     36  H15 7AS d   1      -0.759   0.273 -14.912  0.00  0.00     0.041 H 
ATOM     37  H16 7AS d   1      -1.422   1.764 -15.662  0.00  0.00     0.041 H 
BRANCH  35  38
ATOM     38  C02 7AS d   1      -2.254  -0.041 -16.363  0.00  0.00     0.098 C 
ATOM     39  F36 7AS d   1      -3.327   0.357 -15.633  0.00  0.00    -0.244 F 
BRANCH  38  40
ATOM     40  C01 7AS d   1      -2.532   0.262 -17.843  0.00  0.00    -0.043 C 
ATOM     41  H9  7AS d   1      -3.401  -0.322 -18.180  0.00  0.00     0.032 H 
ATOM     42  H10 7AS d   1      -1.652  -0.010 -18.445  0.00  0.00     0.032 H 
ATOM     43  H11 7AS d   1      -2.742   1.335 -17.965  0.00  0.00     0.032 H 
ENDBRANCH  38  40
BRANCH  38  44
ATOM     44  C03 7AS d   1      -2.042  -1.509 -16.130  0.00  0.00    -0.043 C 
ATOM     45  H12 7AS d   1      -1.846  -1.686 -15.062  0.00  0.00     0.032 H 
ATOM     46  H13 7AS d   1      -1.182  -1.854 -16.723  0.00  0.00     0.032 H 
ATOM     47  H14 7AS d   1      -2.942  -2.062 -16.434  0.00  0.00     0.032 H 
ENDBRANCH  38  44
ENDBRANCH  35  38
ENDBRANCH  33  35
BRANCH  33  48
ATOM     48  C06 7AS d   1       1.194   1.801 -16.013  0.00  0.00     0.249 C 
ATOM     49  O07 7AS d   1       2.006   1.336 -15.205  0.00  0.00    -0.271 OA
ATOM     50  N08 7AS d   1       1.138   3.108 -16.301  0.00  0.00    -0.345 N 
ATOM     51  H18 7AS d   1       0.468   3.414 -16.977  0.00  0.00     0.163 HD
BRANCH  50  52
ATOM     52  C09 7AS d   1       1.997   4.106 -15.686  0.00  0.00     0.066 A 
ATOM     53  C10 7AS d   1       3.476   4.001 -15.939  0.00  0.00    -0.034 A 
ATOM     54  C11 7AS d   1       2.674   5.071 -16.624  0.00  0.00    -0.034 A 
ATOM     55  H2  7AS d   1       4.190   4.271 -15.147  0.00  0.00     0.037 H 
ATOM     56  H3  7AS d   1       3.876   3.157 -16.520  0.00  0.00     0.037 H 
ATOM     57  H6  7AS d   1       2.486   5.010 -17.706  0.00  0.00     0.037 H 
ATOM     58  H7  7AS d   1       2.800   6.124 -16.333  0.00  0.00     0.037 H 
BRANCH  52  59
ATOM     59  C12 7AS d   1       1.564   4.633 -14.349  0.00  0.00     0.000 C 
ATOM     60  N13 7AS d   1       2.134   5.657 -13.733  0.00  0.00    -0.314 NA
ATOM     61  H19 7AS d   1       1.791   5.959 -12.834  0.00  0.00     0.185 HD
ATOM     62  H5  7AS d   1       0.728   4.142 -13.854  0.00  0.00     0.110 H 
ENDBRANCH  52  59
ENDBRANCH  50  52
ENDBRANCH  33  48
ENDBRANCH  30  33
ENDBRANCH   1  30
BRANCH   1  63
ATOM     63  C32 7AS d   1       1.257  -0.645 -19.465  0.00  0.00     0.419 C 
ATOM     64  F33 7AS d   1       2.230  -0.650 -20.376  0.00  0.00    -0.168 F 
ATOM     65  F34 7AS d   1       0.339   0.216 -19.801  0.00  0.00    -0.168 F 
ATOM     66  F35 7AS d   1       0.689  -1.886 -19.491  0.00  0.00    -0.168 F 
ENDBRANCH   1  63
TORSDOF 14
