REMARK WARNING: 32 MAX_TORS EXCEEDED!!!
REMARK  58 active torsions:
REMARK  status: ('A' for Active; 'I' for Inactive)
REMARK    1  A    between atoms: N_1  and  CA_2 
REMARK    2  A    between atoms: CA_2  and  C_3 
REMARK    3  A    between atoms: CA_2  and  CB_5 
REMARK       I    between atoms: C_3  and  N_6 
REMARK    4  A    between atoms: N_6  and  CA_7 
REMARK    5  A    between atoms: CA_7  and  C_8 
REMARK    6  A    between atoms: CA_7  and  CB_10 
REMARK       I    between atoms: C_8  and  N_17 
REMARK    7  A    between atoms: CB_10  and  CG_11 
REMARK    8  A    between atoms: CG_11  and  CD_12 
REMARK    9  A    between atoms: CD_12  and  NE_13 
REMARK       I    between atoms: NE_13  and  CZ_14 
REMARK       I    between atoms: CZ_14  and  NH1_15 
REMARK       I    between atoms: CZ_14  and  NH2_16 
REMARK   10  A    between atoms: N_17  and  CA_18 
REMARK   11  A    between atoms: CA_18  and  C_19 
REMARK   12  A    between atoms: CA_18  and  CB_21 
REMARK       I    between atoms: C_19  and  N_24 
REMARK   13  A    between atoms: CB_21  and  OG1_22 
REMARK   14  A    between atoms: CB_21  and  CG2_23 
REMARK   15  A    between atoms: N_24  and  CA_25 
REMARK   16  A    between atoms: CA_25  and  CB_26 
REMARK   17  A    between atoms: CA_25  and  C_33 
REMARK   18  A    between atoms: CB_26  and  CG_27 
REMARK   19  A    between atoms: CG_27  and  CD_28 
REMARK   20  A    between atoms: CD_28  and  CE_29 
REMARK   21  A    between atoms: CE_29  and  NZ_30 
REMARK   22  A    between atoms: NZ_30  and  CH1_31 
REMARK   23  A    between atoms: NZ_30  and  CH2_32 
REMARK       I    between atoms: C_33  and  N_35 
REMARK   24  A    between atoms: N_35  and  CA_36 
REMARK   25  A    between atoms: CA_36  and  C_37 
REMARK   26  A    between atoms: CA_36  and  CB_39 
REMARK       I    between atoms: C_37  and  N_44 
REMARK   27  A    between atoms: CB_39  and  CG_40 
REMARK   28  A    between atoms: CG_40  and  CD_41 
REMARK       I    between atoms: CD_41  and  NE2_43 
REMARK   29  A    between atoms: N_44  and  CA_45 
REMARK   30  A    between atoms: CA_45  and  C_46 
REMARK   31  A    between atoms: CA_45  and  CB_48 
REMARK       I    between atoms: C_46  and  N_51 
REMARK   32  A    between atoms: CB_48  and  OG1_49 
REMARK   33  A    between atoms: CB_48  and  CG2_50 
REMARK   34  A    between atoms: N_51  and  CA_52 
REMARK   35  A    between atoms: CA_52  and  C_53 
REMARK   36  A    between atoms: CA_52  and  CB_55 
REMARK       I    between atoms: C_53  and  N_56 
REMARK   37  A    between atoms: N_56  and  CA_57 
REMARK   38  A    between atoms: CA_57  and  C_58 
REMARK   39  A    between atoms: CA_57  and  CB_60 
REMARK       I    between atoms: C_58  and  N_67 
REMARK   40  A    between atoms: CB_60  and  CG_61 
REMARK   41  A    between atoms: CG_61  and  CD_62 
REMARK   42  A    between atoms: CD_62  and  NE_63 
REMARK       I    between atoms: NE_63  and  CZ_64 
REMARK       I    between atoms: CZ_64  and  NH1_65 
REMARK   43  A    between atoms: N_67  and  CA_68 
REMARK   44  A    between atoms: CA_68  and  C_69 
REMARK   45  A    between atoms: CA_68  and  CB_71 
REMARK       I    between atoms: C_69  and  N_76 
REMARK   46  A    between atoms: CB_71  and  CG_72 
REMARK   47  A    between atoms: CG_72  and  CD_73 
REMARK   48  A    between atoms: CD_73  and  CE_74 
REMARK   49  A    between atoms: CE_74  and  NZ_75 
REMARK   50  A    between atoms: N_76  and  CA_77 
REMARK   51  A    between atoms: CA_77  and  C_78 
REMARK   52  A    between atoms: CA_77  and  CB_80 
REMARK       I    between atoms: C_78  and  N_82 
REMARK   53  A    between atoms: CB_80  and  OG_81 
REMARK   54  A    between atoms: N_82  and  CA_83 
REMARK   55  A    between atoms: CA_83  and  C_84 
REMARK   56  A    between atoms: CA_83  and  CB_86 
REMARK   57  A    between atoms: CB_86  and  OG1_87 
REMARK   58  A    between atoms: CB_86  and  CG2_88 
ROOT
ATOM      1  N   THR d   1       4.043   0.684   2.578  0.00  0.00    -0.344 N 
ATOM      2  H53 THR d   1       4.457   0.838   3.475  0.00  0.00     0.163 HD
ATOM      3  C   GLN d   1       3.350   1.659   2.003  0.00  0.00     0.241 C 
ATOM      4  O   GLN d   1       2.784   1.543   0.910  0.00  0.00    -0.271 OA
ENDROOT
BRANCH   1   5
ATOM      5  CA  THR d   1       4.211  -0.605   1.925  0.00  0.00     0.113 C 
ATOM      6  H54 THR d   1       3.941  -0.489   0.865  0.00  0.00     0.091 H 
BRANCH   5   7
ATOM      7  C   THR d   1       3.293  -1.642   2.546  0.00  0.00     0.243 C 
ATOM      8  O   THR d   1       3.321  -1.881   3.755  0.00  0.00    -0.271 OA
ATOM      9  N   ALA d   1       2.460  -2.233   1.701  0.00  0.00    -0.346 N 
ATOM     10  H60 ALA d   1       2.460  -1.942   0.744  0.00  0.00     0.163 HD
BRANCH   9  11
ATOM     11  CA  ALA d   1       1.549  -3.285   2.110  0.00  0.00     0.086 C 
ATOM     12  H61 ALA d   1       1.401  -3.219   3.198  0.00  0.00     0.086 H 
BRANCH  11  13
ATOM     13  C   ALA d   1       2.140  -4.644   1.781  0.00  0.00     0.240 C 
ATOM     14  O   ALA d   1       2.622  -4.865   0.673  0.00  0.00    -0.271 OA
ATOM     15  N   ARG d   1       2.104  -5.553   2.746  0.00  0.00    -0.346 N 
ATOM     16  H65 ARG d   1       1.721  -5.303   3.635  0.00  0.00     0.163 HD
BRANCH  15  17
ATOM     17  CA  ARG d   1       2.606  -6.904   2.546  0.00  0.00     0.089 C 
ATOM     18  H66 ARG d   1       3.023  -6.976   1.530  0.00  0.00     0.087 H 
BRANCH  17  19
ATOM     19  C   ARG d   1       1.474  -7.911   2.678  0.00  0.00     0.241 C 
ATOM     20  O   ARG d   1       0.877  -8.055   3.743  0.00  0.00    -0.271 OA
ATOM     21  N   LYS d   1       1.180  -8.603   1.586  0.00  0.00    -0.346 N 
ATOM     22  H78 LYS d   1       1.734  -8.471   0.764  0.00  0.00     0.163 HD
BRANCH  21  23
ATOM     23  CA  LYS d   1       0.073  -9.551   1.548  0.00  0.00     0.089 C 
ATOM     24  H79 LYS d   1      -0.282  -9.707   2.577  0.00  0.00     0.087 H 
BRANCH  23  25
ATOM     25  C   LYS d   1       0.510 -10.899   0.980  0.00  0.00     0.241 C 
ATOM     26  O   LYS d   1       1.213 -10.946  -0.028  0.00  0.00    -0.271 OA
ATOM     27  N   SER d   1       0.099 -11.988   1.626  0.00  0.00    -0.344 N 
ATOM     28  H91 SER d   1      -0.382 -11.888   2.497  0.00  0.00     0.163 HD
BRANCH  27  29
ATOM     29  CA  SER d   1       0.335 -13.329   1.089  0.00  0.00     0.109 C 
ATOM     30  H92 SER d   1       1.022 -13.246   0.234  0.00  0.00     0.090 H 
BRANCH  29  31
ATOM     31  C   SER d   1      -0.985 -13.918   0.590  0.00  0.00     0.243 C 
ATOM     32  O   SER d   1      -1.911 -14.126   1.377  0.00  0.00    -0.271 OA
ATOM     33  N   THR d   1      -1.042 -14.198  -0.716  0.00  0.00    -0.342 N 
ATOM     34  H96 THR d   1      -0.182 -14.293  -1.218  0.00  0.00     0.163 HD
BRANCH  33  35
ATOM     35  CA  THR d   1      -2.304 -14.374  -1.454  0.00  0.00     0.120 C 
ATOM     36  H97 THR d   1      -2.077 -14.287  -2.527  0.00  0.00     0.093 H 
BRANCH  35  37
ATOM     37  C   THR d   1      -3.301 -13.278  -1.083  0.00  0.00     0.199 C 
ATOM     38  O   THR d   1      -2.936 -12.102  -1.007  0.00  0.00    -0.646 OA
ATOM     39  OXT THR d   1      -4.481 -13.558  -0.856  0.00  0.00    -0.646 OA
ENDBRANCH  35  37
BRANCH  35  40
ATOM     40  CB  THR d   1      -2.955 -15.757  -1.216  0.00  0.00     0.061 C 
ATOM     41  H98 THR d   1      -3.917 -15.786  -1.749  0.00  0.00     0.086 H 
BRANCH  40  42
ATOM     42  OG1 THR d   1      -3.193 -15.953   0.183  0.00  0.00    -0.393 OA
ATOM     43  H99 THR d   1      -2.368 -15.911   0.652  0.00  0.00     0.210 HD
ENDBRANCH  40  42
BRANCH  40  44
ATOM     44  CG2 THR d   1      -2.083 -16.872  -1.735  0.00  0.00    -0.050 C 
ATOM     45 0H10 THR d   1      -2.575 -17.838  -1.550  0.00  0.00     0.031 H 
ATOM     46 1H10 THR d   1      -1.112 -16.849  -1.218  0.00  0.00     0.031 H 
ATOM     47 2H10 THR d   1      -1.926 -16.742  -2.816  0.00  0.00     0.031 H 
ENDBRANCH  40  44
ENDBRANCH  35  40
ENDBRANCH  33  35
ENDBRANCH  29  31
BRANCH  29  48
ATOM     48  CB  SER d   1       0.994 -14.232   2.143  0.00  0.00     0.044 C 
ATOM     49  H93 SER d   1       1.932 -13.766   2.479  0.00  0.00     0.077 H 
ATOM     50  H94 SER d   1       1.212 -15.211   1.691  0.00  0.00     0.077 H 
BRANCH  48  51
ATOM     51  OG  SER d   1       0.145 -14.419   3.261  0.00  0.00    -0.398 OA
ATOM     52  H95 SER d   1      -0.665 -14.825   2.977  0.00  0.00     0.209 HD
ENDBRANCH  48  51
ENDBRANCH  29  48
ENDBRANCH  27  29
ENDBRANCH  23  25
BRANCH  23  53
ATOM     53  CB  LYS d   1      -1.080  -8.991   0.715  0.00  0.00    -0.038 C 
ATOM     54  H80 LYS d   1      -1.906  -9.717   0.743  0.00  0.00     0.036 H 
ATOM     55  H81 LYS d   1      -0.729  -8.874  -0.321  0.00  0.00     0.036 H 
BRANCH  53  56
ATOM     56  CG  LYS d   1      -1.614  -7.649   1.187  0.00  0.00    -0.061 C 
ATOM     57  H82 LYS d   1      -0.785  -6.927   1.234  0.00  0.00     0.033 H 
ATOM     58  H83 LYS d   1      -2.054  -7.768   2.188  0.00  0.00     0.033 H 
BRANCH  56  59
ATOM     59  CD  LYS d   1      -2.676  -7.128   0.234  0.00  0.00    -0.043 C 
ATOM     60  H84 LYS d   1      -3.592  -7.723   0.361  0.00  0.00     0.035 H 
ATOM     61  H85 LYS d   1      -2.311  -7.232  -0.798  0.00  0.00     0.035 H 
BRANCH  59  62
ATOM     62  CE  LYS d   1      -2.996  -5.668   0.498  0.00  0.00     0.080 C 
ATOM     63  H86 LYS d   1      -2.059  -5.091   0.495  0.00  0.00     0.075 H 
ATOM     64  H87 LYS d   1      -3.477  -5.580   1.483  0.00  0.00     0.075 H 
BRANCH  62  65
ATOM     65  NZ  LYS d   1      -3.911  -5.111  -0.538  0.00  0.00    -0.079 N 
ATOM     66  H88 LYS d   1      -4.102  -4.143  -0.332  0.00  0.00     0.274 HD
ATOM     67  H89 LYS d   1      -4.775  -5.631  -0.538  0.00  0.00     0.274 HD
ATOM     68  H90 LYS d   1      -3.476  -5.182  -1.444  0.00  0.00     0.274 HD
ENDBRANCH  62  65
ENDBRANCH  59  62
ENDBRANCH  56  59
ENDBRANCH  53  56
ENDBRANCH  23  53
ENDBRANCH  21  23
ENDBRANCH  17  19
BRANCH  17  69
ATOM     69  CB  ARG d   1       3.713  -7.215   3.547  0.00  0.00    -0.036 C 
ATOM     70  H67 ARG d   1       4.025  -8.261   3.408  0.00  0.00     0.036 H 
ATOM     71  H68 ARG d   1       3.311  -7.084   4.563  0.00  0.00     0.036 H 
BRANCH  69  72
ATOM     72  CG  ARG d   1       4.932  -6.325   3.394  0.00  0.00    -0.048 C 
ATOM     73  H69 ARG d   1       4.606  -5.275   3.381  0.00  0.00     0.035 H 
ATOM     74  H70 ARG d   1       5.431  -6.566   2.444  0.00  0.00     0.035 H 
BRANCH  72  75
ATOM     75  CD  ARG d   1       5.921  -6.517   4.529  0.00  0.00     0.009 C 
ATOM     76  H71 ARG d   1       6.219  -7.575   4.572  0.00  0.00     0.064 H 
ATOM     77  H72 ARG d   1       5.441  -6.232   5.477  0.00  0.00     0.064 H 
BRANCH  75  78
ATOM     78  NE  ARG d   1       7.110  -5.694   4.329  0.00  0.00    -0.227 N 
ATOM     79  CZ  ARG d   1       8.201  -6.106   3.692  0.00  0.00     0.665 C 
ATOM     80  NH1 ARG d   1       8.262  -7.338   3.202  0.00  0.00    -0.235 N 
ATOM     81  NH2 ARG d   1       9.234  -5.288   3.551  0.00  0.00    -0.235 N 
ATOM     82  H74 ARG d   1       9.109  -7.655   2.709  0.00  0.00     0.174 HD
ATOM     83  H75 ARG d   1       7.462  -7.977   3.315  0.00  0.00     0.174 HD
ATOM     84  H76 ARG d   1       9.189  -4.332   3.930  0.00  0.00     0.174 HD
ATOM     85  H77 ARG d   1      10.082  -5.609   3.062  0.00  0.00     0.174 HD
ATOM     86  H73 ARG d   1       7.103  -4.735   4.705  0.00  0.00     0.177 HD
ENDBRANCH  75  78
ENDBRANCH  72  75
ENDBRANCH  69  72
ENDBRANCH  17  69
ENDBRANCH  15  17
ENDBRANCH  11  13
BRANCH  11  87
ATOM     87  CB  ALA d   1       0.205  -3.116   1.426  0.00  0.00    -0.049 C 
ATOM     88  H62 ALA d   1      -0.473  -3.921   1.746  0.00  0.00     0.030 H 
ATOM     89  H63 ALA d   1       0.340  -3.163   0.335  0.00  0.00     0.030 H 
ATOM     90  H64 ALA d   1      -0.226  -2.142   1.700  0.00  0.00     0.030 H 
ENDBRANCH  11  87
ENDBRANCH   9  11
ENDBRANCH   5   7
BRANCH   5  91
ATOM     91  CB  THR d   1       5.662  -1.092   2.003  0.00  0.00     0.060 C 
ATOM     92  H55 THR d   1       5.948  -1.212   3.058  0.00  0.00     0.086 H 
BRANCH  91  93
ATOM     93  OG1 THR d   1       6.520  -0.125   1.383  0.00  0.00    -0.393 OA
ATOM     94  H56 THR d   1       6.438   0.706   1.836  0.00  0.00     0.210 HD
ENDBRANCH  91  93
BRANCH  91  95
ATOM     95  CG2 THR d   1       5.810  -2.431   1.287  0.00  0.00    -0.050 C 
ATOM     96  H57 THR d   1       6.855  -2.768   1.351  0.00  0.00     0.031 H 
ATOM     97  H58 THR d   1       5.526  -2.315   0.231  0.00  0.00     0.031 H 
ATOM     98  H59 THR d   1       5.155  -3.176   1.763  0.00  0.00     0.031 H 
ENDBRANCH  91  95
ENDBRANCH   5  91
ENDBRANCH   1   5
BRANCH   3  99
ATOM     99  CA  GLN d   1       3.290   2.957   2.777  0.00  0.00     0.090 C 
ATOM    100  H46 GLN d   1       3.983   2.884   3.628  0.00  0.00     0.087 H 
BRANCH  99 101
ATOM    101  N   GLN d   1       3.719   4.068   1.942  0.00  0.00    -0.346 N 
ATOM    102  C   MLY d   1       4.480   5.028   2.450  0.00  0.00     0.241 C 
ATOM    103  O   MLY d   1       4.879   4.982   3.606  0.00  0.00    -0.271 OA
ATOM    104  H45 GLN d   1       3.439   4.108   0.983  0.00  0.00     0.163 HD
BRANCH 102 105
ATOM    105  CA  MLY d   1       4.969   6.116   1.517  0.00  0.00     0.089 C 
ATOM    106  H29 MLY d   1       4.472   6.049   0.538  0.00  0.00     0.087 H 
BRANCH 105 107
ATOM    107  N   MLY d   1       4.658   7.390   2.153  0.00  0.00    -0.346 N 
ATOM    108  C   THR d   1       3.979   8.363   1.552  0.00  0.00     0.243 C 
ATOM    109  O   THR d   1       3.718   8.364   0.347  0.00  0.00    -0.271 OA
ATOM    110  H28 MLY d   1       4.972   7.540   3.091  0.00  0.00     0.163 HD
BRANCH 108 111
ATOM    111  CA  THR d   1       3.537   9.511   2.458  0.00  0.00     0.113 C 
ATOM    112  H22 THR d   1       4.353   9.716   3.167  0.00  0.00     0.091 H 
BRANCH 111 113
ATOM    113  N   THR d   1       3.256  10.758   1.745  0.00  0.00    -0.344 N 
ATOM    114  C   ARG d   1       3.787  11.913   2.138  0.00  0.00     0.241 C 
ATOM    115  O   ARG d   1       4.584  11.998   3.072  0.00  0.00    -0.271 OA
ATOM    116  H21 THR d   1       2.653  10.742   0.947  0.00  0.00     0.163 HD
BRANCH 114 117
ATOM    117  CA  ARG d   1       3.369  13.158   1.362  0.00  0.00     0.089 C 
ATOM    118  H9  ARG d   1       2.559  12.885   0.670  0.00  0.00     0.087 H 
BRANCH 117 119
ATOM    119  N   ARG d   1       2.876  14.191   2.270  0.00  0.00    -0.346 N 
ATOM    120  C   ALA d   1       1.596  14.271   2.622  0.00  0.00     0.248 C 
ATOM    121  O   ALA d   1       0.726  13.558   2.145  0.00  0.00    -0.271 OA
ATOM    122  H8  ARG d   1       3.522  14.860   2.639  0.00  0.00     0.163 HD
BRANCH 120 123
ATOM    123  CA  ALA d   1       1.245  15.310   3.674  0.00  0.00     0.172 C 
ATOM    124  H4  ALA d   1       1.573  16.298   3.319  0.00  0.00     0.098 H 
BRANCH 123 125
ATOM    125  N   ALA d   1      -0.200  15.343   3.881  0.00  0.00    -0.067 N 
ATOM    126  H1  ALA d   1      -0.424  16.034   4.580  0.00  0.00     0.275 HD
ATOM    127  H2  ALA d   1      -0.516  14.437   4.191  0.00  0.00     0.275 HD
ATOM    128  H3  ALA d   1      -0.658  15.580   3.015  0.00  0.00     0.275 HD
ENDBRANCH 123 125
BRANCH 123 129
ATOM    129  CB  ALA d   1       1.965  14.996   4.983  0.00  0.00    -0.042 C 
ATOM    130  H5  ALA d   1       3.051  14.975   4.808  0.00  0.00     0.030 H 
ATOM    131  H6  ALA d   1       1.635  14.016   5.357  0.00  0.00     0.030 H 
ATOM    132  H7  ALA d   1       1.728  15.771   5.727  0.00  0.00     0.030 H 
ENDBRANCH 123 129
ENDBRANCH 120 123
ENDBRANCH 117 119
BRANCH 117 133
ATOM    133  CB  ARG d   1       4.548  13.685   0.550  0.00  0.00    -0.036 C 
ATOM    134  H10 ARG d   1       4.903  12.878  -0.108  0.00  0.00     0.036 H 
ATOM    135  H11 ARG d   1       5.350  13.968   1.248  0.00  0.00     0.036 H 
BRANCH 133 136
ATOM    136  CG  ARG d   1       4.216  14.891  -0.310  0.00  0.00    -0.048 C 
ATOM    137  H12 ARG d   1       3.547  15.561   0.251  0.00  0.00     0.035 H 
ATOM    138  H13 ARG d   1       3.711  14.552  -1.227  0.00  0.00     0.035 H 
BRANCH 136 139
ATOM    139  CD  ARG d   1       5.479  15.649  -0.687  0.00  0.00     0.009 C 
ATOM    140  H14 ARG d   1       5.216  16.446  -1.398  0.00  0.00     0.064 H 
ATOM    141  H15 ARG d   1       6.183  14.951  -1.163  0.00  0.00     0.064 H 
BRANCH 139 142
ATOM    142  NE  ARG d   1       6.126  16.251   0.476  0.00  0.00    -0.227 N 
ATOM    143  CZ  ARG d   1       7.302  16.869   0.441  0.00  0.00     0.665 C 
ATOM    144  NH1 ARG d   1       7.971  16.961  -0.700  0.00  0.00    -0.235 N 
ATOM    145  NH2 ARG d   1       7.816  17.385   1.551  0.00  0.00    -0.235 N 
ATOM    146  H17 ARG d   1       8.882  17.440  -0.726  0.00  0.00     0.174 HD
ATOM    147  H18 ARG d   1       7.579  16.553  -1.561  0.00  0.00     0.174 HD
ATOM    148  H19 ARG d   1       7.299  17.315   2.439  0.00  0.00     0.174 HD
ATOM    149  H20 ARG d   1       8.732  17.855   1.524  0.00  0.00     0.174 HD
ATOM    150  H16 ARG d   1       5.639  16.193   1.382  0.00  0.00     0.177 HD
ENDBRANCH 139 142
ENDBRANCH 136 139
ENDBRANCH 133 136
ENDBRANCH 117 133
ENDBRANCH 114 117
ENDBRANCH 111 113
BRANCH 111 151
ATOM    151  CB  THR d   1       2.294   9.031   3.261  0.00  0.00     0.060 C 
ATOM    152  H23 THR d   1       2.543   8.087   3.768  0.00  0.00     0.086 H 
BRANCH 151 153
ATOM    153  OG1 THR d   1       1.195   8.809   2.366  0.00  0.00    -0.393 OA
ATOM    154  H24 THR d   1       1.435   8.145   1.730  0.00  0.00     0.210 HD
ENDBRANCH 151 153
BRANCH 151 155
ATOM    155  CG2 THR d   1       1.886  10.060   4.306  0.00  0.00    -0.050 C 
ATOM    156  H25 THR d   1       1.007   9.694   4.857  0.00  0.00     0.031 H 
ATOM    157  H26 THR d   1       1.638  11.009   3.809  0.00  0.00     0.031 H 
ATOM    158  H27 THR d   1       2.718  10.220   5.008  0.00  0.00     0.031 H 
ENDBRANCH 151 155
ENDBRANCH 111 151
ENDBRANCH 108 111
ENDBRANCH 105 107
BRANCH 105 159
ATOM    159  CB  MLY d   1       6.478   5.930   1.355  0.00  0.00    -0.038 C 
ATOM    160  H30 MLY d   1       6.680   4.850   1.311  0.00  0.00     0.036 H 
ATOM    161  H31 MLY d   1       6.966   6.358   2.243  0.00  0.00     0.036 H 
BRANCH 159 162
ATOM    162  CG  MLY d   1       7.099   6.563   0.140  0.00  0.00    -0.061 C 
ATOM    163  H32 MLY d   1       7.038   7.658   0.229  0.00  0.00     0.033 H 
ATOM    164  H33 MLY d   1       6.554   6.237  -0.758  0.00  0.00     0.033 H 
BRANCH 162 165
ATOM    165  CD  MLY d   1       8.563   6.147   0.021  0.00  0.00    -0.042 C 
ATOM    166  H34 MLY d   1       8.977   6.554  -0.913  0.00  0.00     0.035 H 
ATOM    167  H35 MLY d   1       8.624   5.049   0.001  0.00  0.00     0.035 H 
BRANCH 165 168
ATOM    168  CE  MLY d   1       9.380   6.668   1.195  0.00  0.00     0.083 C 
ATOM    169  H36 MLY d   1       9.006   6.206   2.121  0.00  0.00     0.075 H 
ATOM    170  H37 MLY d   1       9.259   7.760   1.255  0.00  0.00     0.075 H 
BRANCH 168 171
ATOM    171  NZ  MLY d   1      10.834   6.351   1.052  0.00  0.00    -0.079 N 
ATOM    172  H38 MLY d   1      11.176   6.534   0.122  0.00  0.00     0.278 HD
BRANCH 171 173
ATOM    173  CH1 MLY d   1      11.546   7.130   2.076  0.00  0.00     0.066 C 
ATOM    174  H39 MLY d   1      12.625   6.927   2.007  0.00  0.00     0.068 H 
ATOM    175  H40 MLY d   1      11.182   6.844   3.074  0.00  0.00     0.068 H 
ATOM    176  H41 MLY d   1      11.364   8.203   1.913  0.00  0.00     0.068 H 
ENDBRANCH 171 173
BRANCH 171 177
ATOM    177  CH2 MLY d   1      10.988   4.946   1.442  0.00  0.00     0.066 C 
ATOM    178  H42 MLY d   1      10.474   4.304   0.711  0.00  0.00     0.068 H 
ATOM    179  H43 MLY d   1      10.549   4.792   2.438  0.00  0.00     0.068 H 
ATOM    180  H44 MLY d   1      12.057   4.688   1.469  0.00  0.00     0.068 H 
ENDBRANCH 171 177
ENDBRANCH 168 171
ENDBRANCH 165 168
ENDBRANCH 162 165
ENDBRANCH 159 162
ENDBRANCH 105 159
ENDBRANCH 102 105
ENDBRANCH  99 101
BRANCH  99 181
ATOM    181  CB  GLN d   1       1.883   3.179   3.329  0.00  0.00    -0.030 C 
ATOM    182  H47 GLN d   1       1.160   3.102   2.503  0.00  0.00     0.037 H 
ATOM    183  H48 GLN d   1       1.828   4.185   3.772  0.00  0.00     0.037 H 
BRANCH 181 184
ATOM    184  CG  GLN d   1       1.524   2.145   4.401  0.00  0.00     0.011 C 
ATOM    185  H49 GLN d   1       2.394   2.009   5.060  0.00  0.00     0.047 H 
ATOM    186  H50 GLN d   1       1.288   1.193   3.903  0.00  0.00     0.047 H 
BRANCH 184 187
ATOM    187  CD  GLN d   1       0.330   2.552   5.255  0.00  0.00     0.215 C 
ATOM    188  OE1 GLN d   1      -0.533   3.314   4.818  0.00  0.00    -0.274 OA
ATOM    189  NE2 GLN d   1       0.291   2.059   6.490  0.00  0.00    -0.370 N 
ATOM    190  H51 GLN d   1      -0.469   2.291   7.097  0.00  0.00     0.159 HD
ATOM    191  H52 GLN d   1       1.022   1.456   6.811  0.00  0.00     0.159 HD
ENDBRANCH 184 187
ENDBRANCH 181 184
ENDBRANCH  99 181
ENDBRANCH   3  99
TORSDOF 58
