REMARK WARNING: 32 MAX_TORS EXCEEDED!!!
REMARK  59 active torsions:
REMARK  status: ('A' for Active; 'I' for Inactive)
REMARK    1  A    between atoms: N_1  and  CA_2 
REMARK    2  A    between atoms: CA_2  and  C_3 
REMARK    3  A    between atoms: CA_2  and  CB_5 
REMARK       I    between atoms: C_3  and  N_6 
REMARK    4  A    between atoms: N_6  and  CA_7 
REMARK    5  A    between atoms: CA_7  and  C_8 
REMARK    6  A    between atoms: CA_7  and  CB_10 
REMARK       I    between atoms: C_8  and  N_17 
REMARK    7  A    between atoms: CB_10  and  CG_11 
REMARK    8  A    between atoms: CG_11  and  CD_12 
REMARK    9  A    between atoms: CD_12  and  NE_13 
REMARK       I    between atoms: NE_13  and  CZ_14 
REMARK       I    between atoms: CZ_14  and  NH1_15 
REMARK       I    between atoms: CZ_14  and  NH2_16 
REMARK   10  A    between atoms: N_17  and  CA_18 
REMARK   11  A    between atoms: CA_18  and  C_19 
REMARK   12  A    between atoms: CA_18  and  CB_21 
REMARK       I    between atoms: C_19  and  N_24 
REMARK   13  A    between atoms: CB_21  and  OG1_22 
REMARK   14  A    between atoms: CB_21  and  CG2_23 
REMARK   15  A    between atoms: N_24  and  CA_25 
REMARK   16  A    between atoms: CA_25  and  CB_26 
REMARK   17  A    between atoms: CA_25  and  C_31 
REMARK   18  A    between atoms: CB_26  and  CG_27 
REMARK   19  A    between atoms: CG_27  and  CD_28 
REMARK   20  A    between atoms: CD_28  and  CE_29 
REMARK   21  A    between atoms: CE_29  and  NZ_30 
REMARK   22  A    between atoms: NZ_30  and  CM1_33 
REMARK   23  A    between atoms: NZ_30  and  CM2_34 
REMARK   24  A    between atoms: NZ_30  and  CM3_35 
REMARK       I    between atoms: C_31  and  N_36 
REMARK   25  A    between atoms: N_36  and  CA_37 
REMARK   26  A    between atoms: CA_37  and  C_38 
REMARK   27  A    between atoms: CA_37  and  CB_40 
REMARK       I    between atoms: C_38  and  N_45 
REMARK   28  A    between atoms: CB_40  and  CG_41 
REMARK   29  A    between atoms: CG_41  and  CD_42 
REMARK       I    between atoms: CD_42  and  NE2_44 
REMARK   30  A    between atoms: N_45  and  CA_46 
REMARK   31  A    between atoms: CA_46  and  C_47 
REMARK   32  A    between atoms: CA_46  and  CB_49 
REMARK       I    between atoms: C_47  and  N_52 
REMARK   33  A    between atoms: CB_49  and  OG1_50 
REMARK   34  A    between atoms: CB_49  and  CG2_51 
REMARK   35  A    between atoms: N_52  and  CA_53 
REMARK   36  A    between atoms: CA_53  and  C_54 
REMARK   37  A    between atoms: CA_53  and  CB_56 
REMARK       I    between atoms: C_54  and  N_57 
REMARK   38  A    between atoms: N_57  and  CA_58 
REMARK   39  A    between atoms: CA_58  and  C_59 
REMARK   40  A    between atoms: CA_58  and  CB_61 
REMARK       I    between atoms: C_59  and  N_68 
REMARK   41  A    between atoms: CB_61  and  CG_62 
REMARK   42  A    between atoms: CG_62  and  CD_63 
REMARK   43  A    between atoms: CD_63  and  NE_64 
REMARK       I    between atoms: NE_64  and  CZ_65 
REMARK       I    between atoms: CZ_65  and  NH1_66 
REMARK   44  A    between atoms: N_68  and  CA_69 
REMARK   45  A    between atoms: CA_69  and  C_70 
REMARK   46  A    between atoms: CA_69  and  CB_72 
REMARK       I    between atoms: C_70  and  N_77 
REMARK   47  A    between atoms: CB_72  and  CG_73 
REMARK   48  A    between atoms: CG_73  and  CD_74 
REMARK   49  A    between atoms: CD_74  and  CE_75 
REMARK   50  A    between atoms: CE_75  and  NZ_76 
REMARK   51  A    between atoms: N_77  and  CA_78 
REMARK   52  A    between atoms: CA_78  and  C_79 
REMARK   53  A    between atoms: CA_78  and  CB_81 
REMARK       I    between atoms: C_79  and  N_83 
REMARK   54  A    between atoms: CB_81  and  OG_82 
REMARK   55  A    between atoms: N_83  and  CA_84 
REMARK   56  A    between atoms: CA_84  and  C_85 
REMARK   57  A    between atoms: CA_84  and  CB_87 
REMARK   58  A    between atoms: CB_87  and  OG1_88 
REMARK   59  A    between atoms: CB_87  and  CG2_89 
ROOT
ATOM      1  N   THR d   1       4.006   0.692  87.686  0.00  0.00    -0.344 N 
ATOM      2  H55 THR d   1       4.365   0.823  88.610  0.00  0.00     0.163 HD
ATOM      3  C   GLN d   1       3.348   1.679  87.092  0.00  0.00     0.241 C 
ATOM      4  O   GLN d   1       2.828   1.571  85.986  0.00  0.00    -0.271 OA
ENDROOT
BRANCH   3   5
ATOM      5  CA  GLN d   1       3.258   2.981  87.869  0.00  0.00     0.090 C 
ATOM      6  H48 GLN d   1       3.960   2.927  88.714  0.00  0.00     0.087 H 
BRANCH   5   7
ATOM      7  N   GLN d   1       3.654   4.115  87.023  0.00  0.00    -0.346 N 
ATOM      8  C   M3L d   1       4.456   5.055  87.521  0.00  0.00     0.241 C 
ATOM      9  O   M3L d   1       4.853   5.013  88.687  0.00  0.00    -0.271 OA
ATOM     10  H47 GLN d   1       3.324   4.181  86.081  0.00  0.00     0.163 HD
BRANCH   8  11
ATOM     11  CA  M3L d   1       4.867   6.189  86.599  0.00  0.00     0.089 C 
ATOM     12  H29 M3L d   1       4.373   6.145  85.617  0.00  0.00     0.087 H 
BRANCH  11  13
ATOM     13  N   M3L d   1       4.548   7.424  87.266  0.00  0.00    -0.346 N 
ATOM     14  C   THR d   1       3.820   8.391  86.714  0.00  0.00     0.243 C 
ATOM     15  O   THR d   1       3.491   8.384  85.532  0.00  0.00    -0.271 OA
ATOM     16  H28 M3L d   1       4.892   7.563  88.195  0.00  0.00     0.163 HD
BRANCH  14  17
ATOM     17  CA  THR d   1       3.411   9.535  87.649  0.00  0.00     0.113 C 
ATOM     18  H22 THR d   1       4.240   9.717  88.349  0.00  0.00     0.091 H 
BRANCH  17  19
ATOM     19  N   THR d   1       3.144  10.794  86.944  0.00  0.00    -0.344 N 
ATOM     20  C   ARG d   1       3.738  11.932  87.297  0.00  0.00     0.241 C 
ATOM     21  O   ARG d   1       4.590  12.001  88.186  0.00  0.00    -0.271 OA
ATOM     22  H21 THR d   1       2.500  10.797  86.179  0.00  0.00     0.163 HD
BRANCH  20  23
ATOM     23  CA  ARG d   1       3.322  13.180  86.531  0.00  0.00     0.089 C 
ATOM     24  H9  ARG d   1       2.517  12.911  85.831  0.00  0.00     0.087 H 
BRANCH  23  25
ATOM     25  N   ARG d   1       2.821  14.199  87.444  0.00  0.00    -0.346 N 
ATOM     26  C   ALA d   1       1.543  14.272  87.803  0.00  0.00     0.248 C 
ATOM     27  O   ALA d   1       0.674  13.521  87.368  0.00  0.00    -0.271 OA
ATOM     28  H8  ARG d   1       3.463  14.870  87.815  0.00  0.00     0.163 HD
BRANCH  26  29
ATOM     29  CA  ALA d   1       1.191  15.349  88.818  0.00  0.00     0.172 C 
ATOM     30  H4  ALA d   1       1.610  16.305  88.471  0.00  0.00     0.098 H 
BRANCH  29  31
ATOM     31  N   ALA d   1      -0.255  15.497  88.946  0.00  0.00    -0.067 N 
ATOM     32  H1  ALA d   1      -0.461  16.215  89.623  0.00  0.00     0.275 HD
ATOM     33  H2  ALA d   1      -0.657  14.624  89.250  0.00  0.00     0.275 HD
ATOM     34  H3  ALA d   1      -0.647  15.755  88.054  0.00  0.00     0.275 HD
ENDBRANCH  29  31
BRANCH  29  35
ATOM     35  CB  ALA d   1       1.796  15.015  90.158  0.00  0.00    -0.042 C 
ATOM     36  H5  ALA d   1       2.885  14.905  90.051  0.00  0.00     0.030 H 
ATOM     37  H6  ALA d   1       1.367  14.072  90.529  0.00  0.00     0.030 H 
ATOM     38  H7  ALA d   1       1.577  15.823  90.871  0.00  0.00     0.030 H 
ENDBRANCH  29  35
ENDBRANCH  26  29
ENDBRANCH  23  25
BRANCH  23  39
ATOM     39  CB  ARG d   1       4.504  13.716  85.734  0.00  0.00    -0.036 C 
ATOM     40  H10 ARG d   1       4.855  12.922  85.058  0.00  0.00     0.036 H 
ATOM     41  H11 ARG d   1       5.306  13.979  86.439  0.00  0.00     0.036 H 
BRANCH  39  42
ATOM     42  CG  ARG d   1       4.179  14.940  84.903  0.00  0.00    -0.048 C 
ATOM     43  H12 ARG d   1       3.564  15.628  85.501  0.00  0.00     0.035 H 
ATOM     44  H13 ARG d   1       3.619  14.630  84.009  0.00  0.00     0.035 H 
BRANCH  42  45
ATOM     45  CD  ARG d   1       5.444  15.652  84.473  0.00  0.00     0.009 C 
ATOM     46  H14 ARG d   1       5.179  16.435  83.747  0.00  0.00     0.064 H 
ATOM     47  H15 ARG d   1       6.116  14.923  83.997  0.00  0.00     0.064 H 
BRANCH  45  48
ATOM     48  NE  ARG d   1       6.143  16.270  85.596  0.00  0.00    -0.227 N 
ATOM     49  CZ  ARG d   1       7.313  16.888  85.483  0.00  0.00     0.665 C 
ATOM     50  NH1 ARG d   1       7.910  16.955  84.302  0.00  0.00    -0.235 N 
ATOM     51  NH2 ARG d   1       7.894  17.425  86.548  0.00  0.00    -0.235 N 
ATOM     52  H17 ARG d   1       8.818  17.433  84.210  0.00  0.00     0.174 HD
ATOM     53  H18 ARG d   1       7.467  16.529  83.476  0.00  0.00     0.174 HD
ATOM     54  H19 ARG d   1       7.432  17.374  87.467  0.00  0.00     0.174 HD
ATOM     55  H20 ARG d   1       8.807  17.893  86.456  0.00  0.00     0.174 HD
ATOM     56  H16 ARG d   1       5.705  16.224  86.527  0.00  0.00     0.177 HD
ENDBRANCH  45  48
ENDBRANCH  42  45
ENDBRANCH  39  42
ENDBRANCH  23  39
ENDBRANCH  20  23
ENDBRANCH  17  19
BRANCH  17  57
ATOM     57  CB  THR d   1       2.172   9.073  88.462  0.00  0.00     0.060 C 
ATOM     58  H23 THR d   1       2.430   8.164  89.025  0.00  0.00     0.086 H 
BRANCH  57  59
ATOM     59  OG1 THR d   1       1.089   8.792  87.563  0.00  0.00    -0.393 OA
ATOM     60  H24 THR d   1       1.349   8.104  86.961  0.00  0.00     0.210 HD
ENDBRANCH  57  59
BRANCH  57  61
ATOM     61  CG2 THR d   1       1.721  10.152  89.430  0.00  0.00    -0.050 C 
ATOM     62  H25 THR d   1       0.844   9.798  89.991  0.00  0.00     0.031 H 
ATOM     63  H26 THR d   1       1.455  11.060  88.869  0.00  0.00     0.031 H 
ATOM     64  H27 THR d   1       2.537  10.380  90.131  0.00  0.00     0.031 H 
ENDBRANCH  57  61
ENDBRANCH  17  57
ENDBRANCH  14  17
ENDBRANCH  11  13
BRANCH  11  65
ATOM     65  CB  M3L d   1       6.377   5.926  86.488  0.00  0.00    -0.038 C 
ATOM     66  H30 M3L d   1       6.553   4.853  86.656  0.00  0.00     0.036 H 
ATOM     67  H31 M3L d   1       6.886   6.508  87.271  0.00  0.00     0.036 H 
BRANCH  65  68
ATOM     68  CG  M3L d   1       6.977   6.299  85.160  0.00  0.00    -0.061 C 
ATOM     69  H32 M3L d   1       6.864   7.382  85.001  0.00  0.00     0.033 H 
ATOM     70  H33 M3L d   1       6.455   5.755  84.359  0.00  0.00     0.033 H 
BRANCH  68  71
ATOM     71  CD  M3L d   1       8.457   5.938  85.131  0.00  0.00    -0.042 C 
ATOM     72  H34 M3L d   1       8.924   6.430  84.265  0.00  0.00     0.035 H 
ATOM     73  H35 M3L d   1       8.553   4.847  85.029  0.00  0.00     0.035 H 
BRANCH  71  74
ATOM     74  CE  M3L d   1       9.189   6.380  86.403  0.00  0.00     0.084 C 
ATOM     75  H36 M3L d   1       8.783   5.799  87.244  0.00  0.00     0.076 H 
ATOM     76  H37 M3L d   1       8.977   7.448  86.559  0.00  0.00     0.076 H 
BRANCH  74  77
ATOM     77  NZ  M3L d   1      10.698   6.202  86.402  0.00  0.00    -0.079 N 
BRANCH  77  78
ATOM     78  CM1 M3L d   1      11.113   4.851  85.925  0.00  0.00     0.067 C 
ATOM     79  H38 M3L d   1      12.210   4.776  85.944  0.00  0.00     0.068 H 
ATOM     80  H39 M3L d   1      10.753   4.699  84.897  0.00  0.00     0.068 H 
ATOM     81  H40 M3L d   1      10.682   4.082  86.582  0.00  0.00     0.068 H 
ENDBRANCH  77  78
BRANCH  77  82
ATOM     82  CM2 M3L d   1      11.308   6.439  87.746  0.00  0.00     0.067 C 
ATOM     83  H41 M3L d   1      11.012   7.433  88.113  0.00  0.00     0.068 H 
ATOM     84  H42 M3L d   1      12.404   6.390  87.665  0.00  0.00     0.068 H 
ATOM     85  H43 M3L d   1      10.957   5.669  88.449  0.00  0.00     0.068 H 
ENDBRANCH  77  82
BRANCH  77  86
ATOM     86  CM3 M3L d   1      11.253   7.234  85.482  0.00  0.00     0.067 C 
ATOM     87  H44 M3L d   1      10.828   7.096  84.477  0.00  0.00     0.068 H 
ATOM     88  H45 M3L d   1      12.347   7.133  85.435  0.00  0.00     0.068 H 
ATOM     89  H46 M3L d   1      10.993   8.236  85.855  0.00  0.00     0.068 H 
ENDBRANCH  77  86
ENDBRANCH  74  77
ENDBRANCH  71  74
ENDBRANCH  68  71
ENDBRANCH  65  68
ENDBRANCH  11  65
ENDBRANCH   8  11
ENDBRANCH   5   7
BRANCH   5  90
ATOM     90  CB  GLN d   1       1.847   3.166  88.436  0.00  0.00    -0.030 C 
ATOM     91  H49 GLN d   1       1.122   3.088  87.612  0.00  0.00     0.037 H 
ATOM     92  H50 GLN d   1       1.778   4.165  88.892  0.00  0.00     0.037 H 
BRANCH  90  93
ATOM     93  CG  GLN d   1       1.498   2.105  89.508  0.00  0.00     0.011 C 
ATOM     94  H51 GLN d   1       2.375   1.965  90.157  0.00  0.00     0.047 H 
ATOM     95  H52 GLN d   1       1.264   1.159  88.998  0.00  0.00     0.047 H 
BRANCH  93  96
ATOM     96  CD  GLN d   1       0.307   2.488  90.383  0.00  0.00     0.215 C 
ATOM     97  OE1 GLN d   1      -0.582   3.231  89.964  0.00  0.00    -0.274 OA
ATOM     98  NE2 GLN d   1       0.303   1.993  91.619  0.00  0.00    -0.370 N 
ATOM     99  H53 GLN d   1      -0.450   2.208  92.241  0.00  0.00     0.159 HD
ATOM    100  H54 GLN d   1       1.053   1.407  91.925  0.00  0.00     0.159 HD
ENDBRANCH  93  96
ENDBRANCH  90  93
ENDBRANCH   5  90
ENDBRANCH   3   5
BRANCH   1 101
ATOM    101  CA  THR d   1       4.211  -0.580  87.006  0.00  0.00     0.113 C 
ATOM    102  H56 THR d   1       3.941  -0.461  85.946  0.00  0.00     0.091 H 
BRANCH 101 103
ATOM    103  C   THR d   1       3.307  -1.631  87.626  0.00  0.00     0.243 C 
ATOM    104  O   THR d   1       3.324  -1.846  88.847  0.00  0.00    -0.271 OA
ATOM    105  N   ALA d   1       2.509  -2.269  86.776  0.00  0.00    -0.346 N 
ATOM    106  H62 ALA d   1       2.533  -2.016  85.809  0.00  0.00     0.163 HD
BRANCH 105 107
ATOM    107  CA  ALA d   1       1.598  -3.328  87.206  0.00  0.00     0.086 C 
ATOM    108  H63 ALA d   1       1.516  -3.301  88.303  0.00  0.00     0.086 H 
BRANCH 107 109
ATOM    109  C   ALA d   1       2.160  -4.667  86.787  0.00  0.00     0.240 C 
ATOM    110  O   ALA d   1       2.596  -4.822  85.648  0.00  0.00    -0.271 OA
ATOM    111  N   ARG d   1       2.137  -5.623  87.706  0.00  0.00    -0.346 N 
ATOM    112  H67 ARG d   1       1.776  -5.407  88.613  0.00  0.00     0.163 HD
BRANCH 111 113
ATOM    113  CA  ARG d   1       2.618  -6.979  87.448  0.00  0.00     0.089 C 
ATOM    114  H68 ARG d   1       2.986  -7.032  86.413  0.00  0.00     0.087 H 
BRANCH 113 115
ATOM    115  C   ARG d   1       1.471  -7.956  87.614  0.00  0.00     0.241 C 
ATOM    116  O   ARG d   1       0.850  -8.014  88.664  0.00  0.00    -0.271 OA
ATOM    117  N   LYS d   1       1.191  -8.723  86.571  0.00  0.00    -0.346 N 
ATOM    118  H80 LYS d   1       1.784  -8.696  85.766  0.00  0.00     0.163 HD
BRANCH 117 119
ATOM    119  CA  LYS d   1       0.036  -9.602  86.578  0.00  0.00     0.089 C 
ATOM    120  H81 LYS d   1      -0.323  -9.688  87.614  0.00  0.00     0.087 H 
BRANCH 119 121
ATOM    121  C   LYS d   1       0.401 -10.998  86.088  0.00  0.00     0.241 C 
ATOM    122  O   LYS d   1       1.434 -11.187  85.440  0.00  0.00    -0.271 OA
ATOM    123  N   SER d   1      -0.443 -11.975  86.413  0.00  0.00    -0.344 N 
ATOM    124  H93 SER d   1      -1.291 -11.746  86.890  0.00  0.00     0.163 HD
BRANCH 123 125
ATOM    125  CA  SER d   1      -0.165 -13.372  86.092  0.00  0.00     0.109 C 
ATOM    126  H94 SER d   1       0.473 -13.408  85.197  0.00  0.00     0.090 H 
BRANCH 125 127
ATOM    127  C   SER d   1      -1.464 -14.095  85.802  0.00  0.00     0.243 C 
ATOM    128  O   SER d   1      -2.353 -14.138  86.651  0.00  0.00    -0.271 OA
ATOM    129  N   THR d   1      -1.588 -14.653  84.604  0.00  0.00    -0.342 N 
ATOM    130  H98 THR d   1      -0.827 -14.606  83.958  0.00  0.00     0.163 HD
BRANCH 129 131
ATOM    131  CA  THR d   1      -2.823 -15.336  84.215  0.00  0.00     0.120 C 
ATOM    132  H99 THR d   1      -3.479 -15.384  85.096  0.00  0.00     0.093 H 
BRANCH 131 133
ATOM    133  C   THR d   1      -2.537 -16.752  83.742  0.00  0.00     0.199 C 
ATOM    134  O   THR d   1      -1.481 -17.011  83.164  0.00  0.00    -0.646 OA
ATOM    135  OXT THR d   1      -3.360 -17.648  83.934  0.00  0.00    -0.646 OA
ENDBRANCH 131 133
BRANCH 131 136
ATOM    136  CB  THR d   1      -3.560 -14.581  83.096  0.00  0.00     0.061 C 
ATOM    137 0H10 THR d   1      -4.609 -14.909  83.072  0.00  0.00     0.086 H 
BRANCH 136 138
ATOM    138  OG1 THR d   1      -2.944 -14.871  81.836  0.00  0.00    -0.393 OA
ATOM    139 1H10 THR d   1      -2.035 -14.596  81.858  0.00  0.00     0.210 HD
ENDBRANCH 136 138
BRANCH 136 140
ATOM    140  CG2 THR d   1      -3.513 -13.077  83.346  0.00  0.00    -0.050 C 
ATOM    141 2H10 THR d   1      -4.044 -12.554  82.537  0.00  0.00     0.031 H 
ATOM    142 3H10 THR d   1      -2.466 -12.742  83.373  0.00  0.00     0.031 H 
ATOM    143 4H10 THR d   1      -3.995 -12.850  84.308  0.00  0.00     0.031 H 
ENDBRANCH 136 140
ENDBRANCH 131 136
ENDBRANCH 129 131
ENDBRANCH 125 127
BRANCH 125 144
ATOM    144  CB  SER d   1       0.562 -14.071  87.241  0.00  0.00     0.044 C 
ATOM    145  H95 SER d   1       0.697 -15.133  86.986  0.00  0.00     0.077 H 
ATOM    146  H96 SER d   1      -0.047 -13.988  88.153  0.00  0.00     0.077 H 
BRANCH 144 147
ATOM    147  OG  SER d   1       1.831 -13.491  87.481  0.00  0.00    -0.398 OA
ATOM    148  H97 SER d   1       2.256 -13.947  88.198  0.00  0.00     0.209 HD
ENDBRANCH 144 147
ENDBRANCH 125 144
ENDBRANCH 123 125
ENDBRANCH 119 121
BRANCH 119 149
ATOM    149  CB  LYS d   1      -1.085  -9.004  85.734  0.00  0.00    -0.038 C 
ATOM    150  H82 LYS d   1      -1.941  -9.694  85.758  0.00  0.00     0.036 H 
ATOM    151  H83 LYS d   1      -0.723  -8.904  84.700  0.00  0.00     0.036 H 
BRANCH 149 152
ATOM    152  CG  LYS d   1      -1.557  -7.644  86.207  0.00  0.00    -0.061 C 
ATOM    153  H84 LYS d   1      -0.688  -6.977  86.302  0.00  0.00     0.033 H 
ATOM    154  H85 LYS d   1      -2.042  -7.755  87.188  0.00  0.00     0.033 H 
BRANCH 152 155
ATOM    155  CD  LYS d   1      -2.551  -7.027  85.229  0.00  0.00    -0.043 C 
ATOM    156  H86 LYS d   1      -3.491  -7.598  85.266  0.00  0.00     0.035 H 
ATOM    157  H87 LYS d   1      -2.131  -7.077  84.213  0.00  0.00     0.035 H 
BRANCH 155 158
ATOM    158  CE  LYS d   1      -2.841  -5.573  85.574  0.00  0.00     0.080 C 
ATOM    159  H88 LYS d   1      -1.890  -5.021  85.615  0.00  0.00     0.075 H 
ATOM    160  H89 LYS d   1      -3.331  -5.532  86.558  0.00  0.00     0.075 H 
BRANCH 158 161
ATOM    161  NZ  LYS d   1      -3.731  -4.926  84.565  0.00  0.00    -0.079 N 
ATOM    162  H90 LYS d   1      -3.898  -3.968  84.829  0.00  0.00     0.274 HD
ATOM    163  H91 LYS d   1      -4.608  -5.421  84.524  0.00  0.00     0.274 HD
ATOM    164  H92 LYS d   1      -3.288  -4.952  83.660  0.00  0.00     0.274 HD
ENDBRANCH 158 161
ENDBRANCH 155 158
ENDBRANCH 152 155
ENDBRANCH 149 152
ENDBRANCH 119 149
ENDBRANCH 117 119
ENDBRANCH 113 115
BRANCH 113 165
ATOM    165  CB  ARG d   1       3.760  -7.347  88.388  0.00  0.00    -0.036 C 
ATOM    166  H69 ARG d   1       3.959  -8.424  88.286  0.00  0.00     0.036 H 
ATOM    167  H70 ARG d   1       3.444  -7.129  89.419  0.00  0.00     0.036 H 
BRANCH 165 168
ATOM    168  CG  ARG d   1       5.041  -6.599  88.116  0.00  0.00    -0.048 C 
ATOM    169  H71 ARG d   1       4.817  -5.526  88.024  0.00  0.00     0.035 H 
ATOM    170  H72 ARG d   1       5.477  -6.965  87.175  0.00  0.00     0.035 H 
BRANCH 168 171
ATOM    171  CD  ARG d   1       6.039  -6.801  89.233  0.00  0.00     0.009 C 
ATOM    172  H73 ARG d   1       6.329  -7.862  89.265  0.00  0.00     0.064 H 
ATOM    173  H74 ARG d   1       5.568  -6.521  90.187  0.00  0.00     0.064 H 
BRANCH 171 174
ATOM    174  NE  ARG d   1       7.235  -5.989  89.039  0.00  0.00    -0.227 N 
ATOM    175  CZ  ARG d   1       8.349  -6.431  88.465  0.00  0.00     0.665 C 
ATOM    176  NH1 ARG d   1       8.423  -7.684  88.024  0.00  0.00    -0.235 N 
ATOM    177  NH2 ARG d   1       9.385  -5.614  88.331  0.00  0.00    -0.235 N 
ATOM    178  H76 ARG d   1       9.288  -8.023  87.580  0.00  0.00     0.174 HD
ATOM    179  H77 ARG d   1       7.615  -8.315  88.127  0.00  0.00     0.174 HD
ATOM    180  H78 ARG d   1       9.324  -4.645  88.674  0.00  0.00     0.174 HD
ATOM    181  H79 ARG d   1      10.251  -5.949  87.884  0.00  0.00     0.174 HD
ATOM    182  H75 ARG d   1       7.215  -5.013  89.367  0.00  0.00     0.177 HD
ENDBRANCH 171 174
ENDBRANCH 168 171
ENDBRANCH 165 168
ENDBRANCH 113 165
ENDBRANCH 111 113
ENDBRANCH 107 109
BRANCH 107 183
ATOM    183  CB  ALA d   1       0.200  -3.133  86.606  0.00  0.00    -0.049 C 
ATOM    184  H64 ALA d   1      -0.462  -3.943  86.947  0.00  0.00     0.030 H 
ATOM    185  H65 ALA d   1       0.266  -3.151  85.508  0.00  0.00     0.030 H 
ATOM    186  H66 ALA d   1      -0.208  -2.165  86.933  0.00  0.00     0.030 H 
ENDBRANCH 107 183
ENDBRANCH 105 107
ENDBRANCH 101 103
BRANCH 101 187
ATOM    187  CB  THR d   1       5.669  -1.013  87.087  0.00  0.00     0.060 C 
ATOM    188  H57 THR d   1       5.980  -1.052  88.141  0.00  0.00     0.086 H 
BRANCH 187 189
ATOM    189  OG1 THR d   1       6.474  -0.048  86.385  0.00  0.00    -0.393 OA
ATOM    190  H58 THR d   1       6.367   0.805  86.788  0.00  0.00     0.210 HD
ENDBRANCH 187 189
BRANCH 187 191
ATOM    191  CG2 THR d   1       5.852  -2.408  86.456  0.00  0.00    -0.050 C 
ATOM    192  H59 THR d   1       6.909  -2.705  86.523  0.00  0.00     0.031 H 
ATOM    193  H60 THR d   1       5.546  -2.376  85.400  0.00  0.00     0.031 H 
ATOM    194  H61 THR d   1       5.231  -3.139  86.995  0.00  0.00     0.031 H 
ENDBRANCH 187 191
ENDBRANCH 101 187
ENDBRANCH   1 101
TORSDOF 59
