REMARK WARNING: 32 MAX_TORS EXCEEDED!!!
REMARK  46 active torsions:
REMARK  status: ('A' for Active; 'I' for Inactive)
REMARK    1  A    between atoms: N_1  and  CA_2 
REMARK    2  A    between atoms: CA_2  and  C_3 
REMARK    3  A    between atoms: CA_2  and  CB_5 
REMARK       I    between atoms: C_3  and  N_10 
REMARK    4  A    between atoms: CB_5  and  CG_6 
REMARK    5  A    between atoms: CG_6  and  CD_7 
REMARK    6  A    between atoms: CD_7  and  CE_8 
REMARK    7  A    between atoms: CE_8  and  NZ_9 
REMARK    8  A    between atoms: N_10  and  CA_11 
REMARK    9  A    between atoms: CA_11  and  C_12 
REMARK   10  A    between atoms: CA_11  and  CB_14 
REMARK       I    between atoms: C_12  and  N_21 
REMARK   11  A    between atoms: CB_14  and  CG_15 
REMARK   12  A    between atoms: CG_15  and  CD_16 
REMARK   13  A    between atoms: CD_16  and  NE_17 
REMARK       I    between atoms: NE_17  and  CZ_18 
REMARK       I    between atoms: CZ_18  and  NH1_19 
REMARK       I    between atoms: CZ_18  and  NH2_20 
REMARK   14  A    between atoms: N_21  and  CA_22 
REMARK   15  A    between atoms: CA_22  and  C_23 
REMARK   16  A    between atoms: CA_22  and  CB_25 
REMARK       I    between atoms: C_23  and  N_31 
REMARK   17  A    between atoms: CB_25  and  CG_26 
REMARK   18  A    between atoms: N_31  and  CA_32 
REMARK   19  A    between atoms: CA_32  and  C_33 
REMARK   20  A    between atoms: CA_32  and  CB_35 
REMARK       I    between atoms: C_33  and  N_42 
REMARK   21  A    between atoms: CB_35  and  CG_36 
REMARK   22  A    between atoms: CG_36  and  CD_37 
REMARK   23  A    between atoms: CD_37  and  NE_38 
REMARK       I    between atoms: NE_38  and  CZ_39 
REMARK       I    between atoms: CZ_39  and  NH1_40 
REMARK       I    between atoms: CZ_39  and  NH2_41 
REMARK   24  A    between atoms: N_42  and  CA_43 
REMARK   25  A    between atoms: CA_43  and  C_44 
REMARK   26  A    between atoms: CA_43  and  CB_46 
REMARK       I    between atoms: C_44  and  N_50 
REMARK   27  A    between atoms: CB_46  and  CG_47 
REMARK   28  A    between atoms: CG_47  and  CD_48 
REMARK   29  A    between atoms: CD_48  and  CE_49 
REMARK   30  A    between atoms: N_50  and  CA_51 
REMARK   31  A    between atoms: CA_51  and  C_52 
REMARK   32  A    between atoms: CA_51  and  CB_54 
REMARK       I    between atoms: C_52  and  N_57 
REMARK   33  A    between atoms: CB_54  and  CG1_55 
REMARK   34  A    between atoms: CB_54  and  CG2_56 
REMARK   35  A    between atoms: N_57  and  CA_58 
REMARK   36  A    between atoms: CA_58  and  C_59 
REMARK   37  A    between atoms: CA_58  and  CB_61 
REMARK       I    between atoms: C_59  and  N_65 
REMARK   38  A    between atoms: CB_61  and  CG_62 
REMARK   39  A    between atoms: CG_62  and  CD1_63 
REMARK   40  A    between atoms: CG_62  and  CD2_64 
REMARK   41  A    between atoms: N_65  and  CA_66 
REMARK   42  A    between atoms: CA_66  and  C_67 
REMARK   43  A    between atoms: CA_66  and  CB_69 
REMARK   44  A    between atoms: CB_69  and  CG_70 
REMARK   45  A    between atoms: CG_70  and  CD_71 
REMARK   46  A    between atoms: CD_71  and  NE_72 
REMARK       I    between atoms: NE_72  and  CZ_73 
REMARK       I    between atoms: CZ_73  and  NH1_74 
REMARK       I    between atoms: CZ_73  and  NH2_75 
ROOT
ATOM      1  CA  ARG d   1      -8.402  10.085  -2.879  0.00  0.00     0.089 C 
ATOM      2  H37 ARG d   1      -7.724  10.017  -3.742  0.00  0.00     0.087 H 
ENDROOT
BRANCH   1   3
ATOM      3  N   ARG d   1      -9.772  10.124  -3.338  0.00  0.00    -0.346 N 
ATOM      4  C   HIS d   1     -10.097  10.150  -4.608  0.00  0.00     0.241 C 
ATOM      5  O   HIS d   1      -9.261  10.115  -5.520  0.00  0.00    -0.271 OA
ATOM      6  H36 ARG d   1     -10.504  10.132  -2.657  0.00  0.00     0.163 HD
BRANCH   4   7
ATOM      7  CA  HIS d   1     -11.589  10.104  -4.921  0.00  0.00     0.094 C 
ATOM      8  H30 HIS d   1     -12.097  10.920  -4.386  0.00  0.00     0.088 H 
BRANCH   7   9
ATOM      9  N   HIS d   1     -11.739  10.320  -6.366  0.00  0.00    -0.346 N 
ATOM     10  C   ARG d   1     -12.144  11.511  -6.837  0.00  0.00     0.241 C 
ATOM     11  O   ARG d   1     -12.494  12.437  -6.113  0.00  0.00    -0.271 OA
ATOM     12  H29 HIS d   1     -11.538   9.576  -7.003  0.00  0.00     0.163 HD
BRANCH  10  13
ATOM     13  CA  ARG d   1     -12.083  11.709  -8.339  0.00  0.00     0.089 C 
ATOM     14  H17 ARG d   1     -12.178  10.726  -8.824  0.00  0.00     0.087 H 
BRANCH  13  15
ATOM     15  N   ARG d   1     -13.148  12.579  -8.824  0.00  0.00    -0.346 N 
ATOM     16  C   LYS d   1     -14.298  12.121  -9.284  0.00  0.00     0.248 C 
ATOM     17  O   LYS d   1     -14.600  10.929  -9.288  0.00  0.00    -0.271 OA
ATOM     18  H16 ARG d   1     -13.001  13.568  -8.807  0.00  0.00     0.163 HD
BRANCH  16  19
ATOM     19  CA  LYS d   1     -15.249  13.155  -9.862  0.00  0.00     0.176 C 
ATOM     20  H4  LYS d   1     -14.742  14.131  -9.899  0.00  0.00     0.099 H 
BRANCH  19  21
ATOM     21  N   LYS d   1     -15.588  12.741 -11.216  0.00  0.00    -0.067 N 
ATOM     22  H1  LYS d   1     -16.220  13.412 -11.624  0.00  0.00     0.275 HD
ATOM     23  H2  LYS d   1     -16.030  11.836 -11.190  0.00  0.00     0.275 HD
ATOM     24  H3  LYS d   1     -14.749  12.689 -11.772  0.00  0.00     0.275 HD
ENDBRANCH  19  21
BRANCH  19  25
ATOM     25  CB  LYS d   1     -16.507  13.292  -8.994  0.00  0.00    -0.030 C 
ATOM     26  H5  LYS d   1     -16.730  12.312  -8.547  0.00  0.00     0.036 H 
ATOM     27  H6  LYS d   1     -17.343  13.600  -9.639  0.00  0.00     0.036 H 
BRANCH  25  28
ATOM     28  CG  LYS d   1     -16.364  14.310  -7.874  0.00  0.00    -0.061 C 
ATOM     29  H7  LYS d   1     -17.341  14.786  -7.702  0.00  0.00     0.033 H 
ATOM     30  H8  LYS d   1     -15.634  15.073  -8.181  0.00  0.00     0.033 H 
BRANCH  28  31
ATOM     31  CD  LYS d   1     -15.892  13.679  -6.571  0.00  0.00    -0.043 C 
ATOM     32  H9  LYS d   1     -15.330  12.762  -6.801  0.00  0.00     0.035 H 
ATOM     33  H10 LYS d   1     -16.769  13.427  -5.957  0.00  0.00     0.035 H 
BRANCH  31  34
ATOM     34  CE  LYS d   1     -15.004  14.616  -5.795  0.00  0.00     0.080 C 
ATOM     35  H11 LYS d   1     -15.595  15.486  -5.474  0.00  0.00     0.075 H 
ATOM     36  H12 LYS d   1     -14.182  14.950  -6.445  0.00  0.00     0.075 H 
BRANCH  34  37
ATOM     37  NZ  LYS d   1     -14.431  13.952  -4.594  0.00  0.00    -0.079 N 
ATOM     38  H13 LYS d   1     -13.843  14.604  -4.098  0.00  0.00     0.274 HD
ATOM     39  H14 LYS d   1     -13.883  13.156  -4.880  0.00  0.00     0.274 HD
ATOM     40  H15 LYS d   1     -15.178  13.647  -3.990  0.00  0.00     0.274 HD
ENDBRANCH  34  37
ENDBRANCH  31  34
ENDBRANCH  28  31
ENDBRANCH  25  28
ENDBRANCH  19  25
ENDBRANCH  16  19
ENDBRANCH  13  15
BRANCH  13  41
ATOM     41  CB  ARG d   1     -10.743  12.340  -8.731  0.00  0.00    -0.036 C 
ATOM     42  H18 ARG d   1      -9.939  11.790  -8.221  0.00  0.00     0.036 H 
ATOM     43  H19 ARG d   1     -10.742  13.387  -8.394  0.00  0.00     0.036 H 
BRANCH  41  44
ATOM     44  CG  ARG d   1     -10.463  12.319 -10.224  0.00  0.00    -0.048 C 
ATOM     45  H20 ARG d   1     -11.360  12.659 -10.762  0.00  0.00     0.035 H 
ATOM     46  H21 ARG d   1     -10.220  11.290 -10.529  0.00  0.00     0.035 H 
BRANCH  44  47
ATOM     47  CD  ARG d   1      -9.297  13.230 -10.580  0.00  0.00     0.009 C 
ATOM     48  H22 ARG d   1      -9.574  14.272 -10.365  0.00  0.00     0.064 H 
ATOM     49  H23 ARG d   1      -9.071  13.125 -11.651  0.00  0.00     0.064 H 
BRANCH  47  50
ATOM     50  NE  ARG d   1      -8.107  12.878  -9.800  0.00  0.00    -0.227 N 
ATOM     51  CZ  ARG d   1      -7.320  11.838 -10.064  0.00  0.00     0.665 C 
ATOM     52  NH1 ARG d   1      -7.522  11.101 -11.156  0.00  0.00    -0.235 N 
ATOM     53  NH2 ARG d   1      -6.350  11.502  -9.221  0.00  0.00    -0.235 N 
ATOM     54  H25 ARG d   1      -6.910  10.297 -11.355  0.00  0.00     0.174 HD
ATOM     55  H26 ARG d   1      -8.290  11.335 -11.801  0.00  0.00     0.174 HD
ATOM     56  H27 ARG d   1      -6.186  12.065  -8.374  0.00  0.00     0.174 HD
ATOM     57  H28 ARG d   1      -5.762  10.678  -9.414  0.00  0.00     0.174 HD
ATOM     58  H24 ARG d   1      -7.864  13.474  -8.996  0.00  0.00     0.177 HD
ENDBRANCH  47  50
ENDBRANCH  44  47
ENDBRANCH  41  44
ENDBRANCH  13  41
ENDBRANCH  10  13
ENDBRANCH   7   9
BRANCH   7  59
ATOM     59  CB  HIS d   1     -12.204   8.760  -4.449  0.00  0.00     0.002 C 
ATOM     60  H31 HIS d   1     -13.234   8.697  -4.829  0.00  0.00     0.046 H 
ATOM     61  H32 HIS d   1     -12.218   8.751  -3.349  0.00  0.00     0.046 H 
BRANCH  59  62
ATOM     62  CG  HIS d   1     -11.448   7.554  -4.924  0.00  0.00     0.030 A 
ATOM     63  ND1 HIS d   1     -10.338   7.063  -4.235  0.00  0.00    -0.353 N 
ATOM     64  CE1 HIS d   1      -9.899   6.025  -4.938  0.00  0.00     0.063 A 
ATOM     65  H33 HIS d   1      -9.940   7.431  -3.359  0.00  0.00     0.166 HD
ATOM     66  NE2 HIS d   1     -10.675   5.796  -5.996  0.00  0.00    -0.254 NA
ATOM     67  H35 HIS d   1      -9.019   5.437  -4.682  0.00  0.00     0.143 H 
ATOM     68  CD2 HIS d   1     -11.681   6.744  -5.982  0.00  0.00     0.025 A 
ATOM     69  H34 HIS d   1     -12.505   6.824  -6.689  0.00  0.00     0.117 H 
ENDBRANCH  59  62
ENDBRANCH   7  59
ENDBRANCH   4   7
ENDBRANCH   1   3
BRANCH   1  70
ATOM     70  C   ARG d   1      -8.225   8.863  -1.999  0.00  0.00     0.241 C 
ATOM     71  O   ARG d   1      -9.165   8.060  -1.809  0.00  0.00    -0.271 OA
ATOM     72  N   NLE d   1      -7.004   8.689  -1.511  0.00  0.00    -0.346 N 
ATOM     73  H49 NLE d   1      -6.265   9.254  -1.878  0.00  0.00     0.163 HD
BRANCH  72  74
ATOM     74  CA  NLE d   1      -6.678   7.726  -0.475  0.00  0.00     0.089 C 
ATOM     75  H50 NLE d   1      -7.602   7.271  -0.089  0.00  0.00     0.087 H 
BRANCH  74  76
ATOM     76  C   NLE d   1      -5.995   8.580   0.603  0.00  0.00     0.241 C 
ATOM     77  O   NLE d   1      -5.214   9.489   0.268  0.00  0.00    -0.271 OA
ATOM     78  N   VAL d   1      -6.328   8.354   1.882  0.00  0.00    -0.346 N 
ATOM     79  H60 VAL d   1      -6.967   7.618   2.104  0.00  0.00     0.163 HD
BRANCH  78  80
ATOM     80  CA  VAL d   1      -5.766   9.173   2.957  0.00  0.00     0.092 C 
ATOM     81  H61 VAL d   1      -4.880   9.710   2.586  0.00  0.00     0.088 H 
BRANCH  80  82
ATOM     82  C   VAL d   1      -5.371   8.280   4.089  0.00  0.00     0.241 C 
ATOM     83  O   VAL d   1      -6.189   7.456   4.528  0.00  0.00    -0.271 OA
ATOM     84  N   LEU d   1      -4.132   8.459   4.609  0.00  0.00    -0.346 N 
ATOM     85  H69 LEU d   1      -3.507   9.104   4.169  0.00  0.00     0.163 HD
BRANCH  84  86
ATOM     86  CA  LEU d   1      -3.686   7.732   5.799  0.00  0.00     0.089 C 
ATOM     87  H70 LEU d   1      -4.145   6.733   5.829  0.00  0.00     0.087 H 
BRANCH  86  88
ATOM     88  C   LEU d   1      -4.178   8.582   6.984  0.00  0.00     0.241 C 
ATOM     89  O   LEU d   1      -3.720   9.694   7.194  0.00  0.00    -0.271 OA
ATOM     90  N   ARG d   1      -5.166   8.080   7.689  0.00  0.00    -0.345 N 
ATOM     91  H80 ARG d   1      -5.492   7.157   7.484  0.00  0.00     0.163 HD
BRANCH  90  92
ATOM     92  CA  ARG d   1      -5.804   8.842   8.771  0.00  0.00     0.096 C 
ATOM     93  H81 ARG d   1      -5.770   9.904   8.485  0.00  0.00     0.089 H 
BRANCH  92  94
ATOM     94  C   ARG d   1      -5.095   8.724  10.095  0.00  0.00     0.196 C 
ATOM     95  O   ARG d   1      -4.557   7.669  10.386  0.00  0.00    -0.646 OA
ATOM     96  OXT ARG d   1      -5.076   9.686  10.844  0.00  0.00    -0.646 OA
ENDBRANCH  92  94
BRANCH  92  97
ATOM     97  CB  ARG d   1      -7.275   8.440   8.884  0.00  0.00    -0.035 C 
ATOM     98  H82 ARG d   1      -7.746   9.045   9.673  0.00  0.00     0.036 H 
ATOM     99  H83 ARG d   1      -7.330   7.376   9.156  0.00  0.00     0.036 H 
BRANCH  97 100
ATOM    100  CG  ARG d   1      -8.037   8.651   7.588  0.00  0.00    -0.047 C 
ATOM    101  H84 ARG d   1      -7.428   8.284   6.748  0.00  0.00     0.035 H 
ATOM    102  H85 ARG d   1      -8.234   9.725   7.457  0.00  0.00     0.035 H 
BRANCH 100 103
ATOM    103  CD  ARG d   1      -9.347   7.908   7.609  0.00  0.00     0.009 C 
ATOM    104  H86 ARG d   1      -9.927   8.178   6.715  0.00  0.00     0.064 H 
ATOM    105  H87 ARG d   1      -9.908   8.195   8.511  0.00  0.00     0.064 H 
BRANCH 103 106
ATOM    106  NE  ARG d   1      -9.135   6.464   7.620  0.00  0.00    -0.227 N 
ATOM    107  CZ  ARG d   1     -10.123   5.586   7.587  0.00  0.00     0.665 C 
ATOM    108  NH1 ARG d   1     -11.389   5.998   7.537  0.00  0.00    -0.235 N 
ATOM    109  NH2 ARG d   1      -9.862   4.283   7.596  0.00  0.00    -0.235 N 
ATOM    110  H89 ARG d   1     -12.154   5.309   7.511  0.00  0.00     0.174 HD
ATOM    111  H90 ARG d   1     -11.603   7.005   7.524  0.00  0.00     0.174 HD
ATOM    112  H91 ARG d   1      -8.887   3.953   7.635  0.00  0.00     0.174 HD
ATOM    113  H92 ARG d   1     -10.635   3.603   7.564  0.00  0.00     0.174 HD
ATOM    114  H88 ARG d   1      -8.168   6.112   7.655  0.00  0.00     0.177 HD
ENDBRANCH 103 106
ENDBRANCH 100 103
ENDBRANCH  97 100
ENDBRANCH  92  97
ENDBRANCH  90  92
ENDBRANCH  86  88
BRANCH  86 115
ATOM    115  CB  LEU d   1      -2.162   7.581   5.826  0.00  0.00    -0.035 C 
ATOM    116  H71 LEU d   1      -1.719   8.588   5.822  0.00  0.00     0.037 H 
ATOM    117  H72 LEU d   1      -1.856   7.042   4.917  0.00  0.00     0.037 H 
BRANCH 115 118
ATOM    118  CG  LEU d   1      -1.610   6.823   7.037  0.00  0.00    -0.059 C 
ATOM    119  H73 LEU d   1      -1.979   7.338   7.936  0.00  0.00     0.038 H 
BRANCH 118 120
ATOM    120  CD1 LEU d   1      -2.137   5.395   7.099  0.00  0.00    -0.073 C 
ATOM    121  H74 LEU d   1      -1.718   4.887   7.980  0.00  0.00     0.028 H 
ATOM    122  H75 LEU d   1      -1.839   4.854   6.188  0.00  0.00     0.028 H 
ATOM    123  H76 LEU d   1      -3.234   5.412   7.173  0.00  0.00     0.028 H 
ENDBRANCH 118 120
BRANCH 118 124
ATOM    124  CD2 LEU d   1      -0.097   6.886   7.081  0.00  0.00    -0.073 C 
ATOM    125  H77 LEU d   1       0.228   7.936   7.034  0.00  0.00     0.028 H 
ATOM    126  H78 LEU d   1       0.318   6.335   6.224  0.00  0.00     0.028 H 
ATOM    127  H79 LEU d   1       0.262   6.433   8.017  0.00  0.00     0.028 H 
ENDBRANCH 118 124
ENDBRANCH 115 118
ENDBRANCH  86 115
ENDBRANCH  84  86
ENDBRANCH  80  82
BRANCH  80 128
ATOM    128  CB  VAL d   1      -6.823  10.201   3.445  0.00  0.00    -0.033 C 
ATOM    129  H62 VAL d   1      -7.683   9.635   3.833  0.00  0.00     0.042 H 
BRANCH 128 130
ATOM    130  CG1 VAL d   1      -6.275  11.063   4.572  0.00  0.00    -0.071 C 
ATOM    131  H63 VAL d   1      -7.046  11.779   4.894  0.00  0.00     0.028 H 
ATOM    132  H64 VAL d   1      -5.391  11.612   4.217  0.00  0.00     0.028 H 
ATOM    133  H65 VAL d   1      -5.993  10.422   5.420  0.00  0.00     0.028 H 
ENDBRANCH 128 130
BRANCH 128 134
ATOM    134  CG2 VAL d   1      -7.321  11.097   2.315  0.00  0.00    -0.071 C 
ATOM    135  H66 VAL d   1      -7.717  10.473   1.500  0.00  0.00     0.028 H 
ATOM    136  H67 VAL d   1      -6.488  11.708   1.937  0.00  0.00     0.028 H 
ATOM    137  H68 VAL d   1      -8.117  11.756   2.693  0.00  0.00     0.028 H 
ENDBRANCH 128 134
ENDBRANCH  80 128
ENDBRANCH  78  80
ENDBRANCH  74  76
BRANCH  74 138
ATOM    138  CB  NLE d   1      -5.735   6.620  -0.896  0.00  0.00    -0.038 C 
ATOM    139  H51 NLE d   1      -5.497   5.995  -0.023  0.00  0.00     0.036 H 
ATOM    140  H52 NLE d   1      -4.810   7.064  -1.293  0.00  0.00     0.036 H 
BRANCH 138 141
ATOM    141  CG  NLE d   1      -6.398   5.730  -2.004  0.00  0.00    -0.063 C 
ATOM    142  H53 NLE d   1      -6.884   6.359  -2.764  0.00  0.00     0.033 H 
ATOM    143  H54 NLE d   1      -7.141   5.051  -1.560  0.00  0.00     0.033 H 
BRANCH 141 144
ATOM    144  CD  NLE d   1      -5.247   4.935  -2.622  0.00  0.00    -0.068 C 
ATOM    145  H55 NLE d   1      -4.885   4.218  -1.871  0.00  0.00     0.032 H 
ATOM    146  H56 NLE d   1      -4.441   5.640  -2.874  0.00  0.00     0.032 H 
BRANCH 144 147
ATOM    147  CE  NLE d   1      -5.606   4.168  -3.868  0.00  0.00    -0.077 C 
ATOM    148  H57 NLE d   1      -4.719   3.631  -4.237  0.00  0.00     0.027 H 
ATOM    149  H58 NLE d   1      -5.958   4.867  -4.640  0.00  0.00     0.027 H 
ATOM    150  H59 NLE d   1      -6.402   3.445  -3.637  0.00  0.00     0.027 H 
ENDBRANCH 144 147
ENDBRANCH 141 144
ENDBRANCH 138 141
ENDBRANCH  74 138
ENDBRANCH  72  74
ENDBRANCH   1  70
BRANCH   1 151
ATOM    151  CB  ARG d   1      -8.089  11.368  -2.085  0.00  0.00    -0.036 C 
ATOM    152  H38 ARG d   1      -7.101  11.259  -1.615  0.00  0.00     0.036 H 
ATOM    153  H39 ARG d   1      -8.854  11.495  -1.305  0.00  0.00     0.036 H 
BRANCH 151 154
ATOM    154  CG  ARG d   1      -8.077  12.601  -2.957  0.00  0.00    -0.048 C 
ATOM    155  H40 ARG d   1      -9.027  12.677  -3.507  0.00  0.00     0.035 H 
ATOM    156  H41 ARG d   1      -7.243  12.543  -3.672  0.00  0.00     0.035 H 
BRANCH 154 157
ATOM    157  CD  ARG d   1      -7.903  13.819  -2.059  0.00  0.00     0.009 C 
ATOM    158  H42 ARG d   1      -7.035  13.651  -1.404  0.00  0.00     0.064 H 
ATOM    159  H43 ARG d   1      -8.809  13.935  -1.446  0.00  0.00     0.064 H 
BRANCH 157 160
ATOM    160  NE  ARG d   1      -7.688  15.051  -2.808  0.00  0.00    -0.227 N 
ATOM    161  CZ  ARG d   1      -8.140  16.236  -2.414  0.00  0.00     0.665 C 
ATOM    162  NH1 ARG d   1      -8.881  16.341  -1.314  0.00  0.00    -0.235 N 
ATOM    163  NH2 ARG d   1      -7.880  17.322  -3.129  0.00  0.00    -0.235 N 
ATOM    164  H45 ARG d   1      -9.229  17.263  -1.013  0.00  0.00     0.174 HD
ATOM    165  H46 ARG d   1      -9.107  15.501  -0.763  0.00  0.00     0.174 HD
ATOM    166  H47 ARG d   1      -7.307  17.252  -3.982  0.00  0.00     0.174 HD
ATOM    167  H48 ARG d   1      -8.251  18.236  -2.831  0.00  0.00     0.174 HD
ATOM    168  H44 ARG d   1      -7.157  15.000  -3.689  0.00  0.00     0.177 HD
ENDBRANCH 157 160
ENDBRANCH 154 157
ENDBRANCH 151 154
ENDBRANCH   1 151
TORSDOF 46
