REMARK  14 active torsions:
REMARK  status: ('A' for Active; 'I' for Inactive)
REMARK       I    between atoms: C21_2  and  N4_3 
REMARK    1  A    between atoms: C21_2  and  C19_7 
REMARK    2  A    between atoms: N4_3  and  C22_4 
REMARK    3  A    between atoms: C22_4  and  C24_5 
REMARK    4  A    between atoms: C22_4  and  C23_6 
REMARK    5  A    between atoms: C19_7  and  C18_10 
REMARK    6  A    between atoms: C18_10  and  C17_11 
REMARK    7  A    between atoms: N5_12  and  C25_13 
REMARK    8  A    between atoms: C25_13  and  C26_14 
REMARK    9  A    between atoms: C26_14  and  O2_15 
REMARK   10  A    between atoms: O2_15  and  C27_16 
REMARK   11  A    between atoms: C4_21  and  C5_25 
REMARK   12  A    between atoms: C_23  and  N_24 
REMARK   13  A    between atoms: C8_28  and  O_31 
REMARK   14  A    between atoms: O_31  and  C9_32 
ROOT
ATOM      1  C19 S56 d   1      -5.079 -40.554   5.463  0.00  0.00     0.112 C 
ATOM      2  C20 S56 d   1      -3.750 -40.415   6.081  0.00  0.00     0.073 C 
ATOM      3  N3  S56 d   1      -2.720 -40.260   6.554  0.00  0.00    -0.196 NA
ATOM      4  H9  S56 d   1      -5.287 -39.642   4.885  0.00  0.00     0.078 H 
ENDROOT
BRANCH   1   5
ATOM      5  C21 S56 d   1      -5.154 -41.745   4.502  0.00  0.00     0.236 C 
ATOM      6  O1  S56 d   1      -5.425 -42.880   4.903  0.00  0.00    -0.272 OA
ATOM      7  N4  S56 d   1      -4.984 -41.454   3.204  0.00  0.00    -0.356 N 
ATOM      8  H1  S56 d   1      -5.499 -40.688   2.820  0.00  0.00     0.162 HD
BRANCH   7   9
ATOM      9  C22 S56 d   1      -4.085 -42.198   2.319  0.00  0.00     0.005 C 
ATOM     10  H2  S56 d   1      -4.110 -41.730   1.324  0.00  0.00     0.071 H 
BRANCH   9  11
ATOM     11  C24 S56 d   1      -2.662 -42.111   2.841  0.00  0.00    -0.058 C 
ATOM     12  H3  S56 d   1      -1.992 -42.671   2.173  0.00  0.00     0.030 H 
ATOM     13  H4  S56 d   1      -2.615 -42.541   3.852  0.00  0.00     0.030 H 
ATOM     14  H5  S56 d   1      -2.348 -41.057   2.876  0.00  0.00     0.030 H 
ENDBRANCH   9  11
BRANCH   9  15
ATOM     15  C23 S56 d   1      -4.568 -43.632   2.172  0.00  0.00    -0.058 C 
ATOM     16  H6  S56 d   1      -3.887 -44.182   1.506  0.00  0.00     0.030 H 
ATOM     17  H7  S56 d   1      -5.581 -43.636   1.744  0.00  0.00     0.030 H 
ATOM     18  H8  S56 d   1      -4.585 -44.116   3.160  0.00  0.00     0.030 H 
ENDBRANCH   9  15
ENDBRANCH   7   9
ENDBRANCH   1   5
BRANCH   1  19
ATOM     19  C18 S56 d   1      -6.143 -40.679   6.584  0.00  0.00    -0.002 C 
ATOM     20  H10 S56 d   1      -5.649 -40.621   7.565  0.00  0.00     0.045 H 
ATOM     21  H11 S56 d   1      -6.661 -41.645   6.490  0.00  0.00     0.045 H 
BRANCH  19  22
ATOM     22  C17 S56 d   1      -7.215 -39.482   6.453  0.00  0.00     0.027 C 
ATOM     23  N5  S56 d   1      -8.293 -39.525   5.583  0.00  0.00    -0.332 N 
ATOM     24  C2  S56 d   1      -9.124 -38.461   5.934  0.00  0.00     0.146 A 
ATOM     25  N2  S56 d   1     -10.412 -38.316   5.566  0.00  0.00    -0.223 NA
ATOM     26  C3  S56 d   1      -8.392 -37.569   6.756  0.00  0.00     0.069 A 
ATOM     27  C1  S56 d   1     -10.966 -37.208   6.082  0.00  0.00     0.091 A 
ATOM     28  N1  S56 d   1     -10.408 -36.275   6.861  0.00  0.00    -0.224 NA
ATOM     29  H19 S56 d   1     -12.009 -37.047   5.833  0.00  0.00     0.146 H 
ATOM     30  C   S56 d   1      -9.110 -36.424   7.206  0.00  0.00     0.137 A 
ATOM     31  C4  S56 d   1      -7.143 -38.230   7.042  0.00  0.00     0.015 C 
BRANCH  23  32
ATOM     32  C25 S56 d   1      -8.331 -40.303   4.334  0.00  0.00     0.021 C 
ATOM     33  H12 S56 d   1      -8.126 -41.352   4.595  0.00  0.00     0.068 H 
ATOM     34  H13 S56 d   1      -7.528 -39.922   3.686  0.00  0.00     0.068 H 
BRANCH  32  35
ATOM     35  C26 S56 d   1      -9.628 -40.281   3.516  0.00  0.00     0.034 C 
ATOM     36  H14 S56 d   1      -9.567 -41.029   2.712  0.00  0.00     0.076 H 
ATOM     37  H15 S56 d   1      -9.768 -39.282   3.078  0.00  0.00     0.076 H 
BRANCH  35  38
ATOM     38  O2  S56 d   1     -10.746 -40.590   4.377  0.00  0.00    -0.394 OA
BRANCH  38  39
ATOM     39  C27 S56 d   1     -11.992 -40.285   3.757  0.00  0.00     0.004 C 
ATOM     40  H16 S56 d   1     -12.814 -40.534   4.444  0.00  0.00     0.066 H 
ATOM     41  H17 S56 d   1     -12.095 -40.873   2.833  0.00  0.00     0.066 H 
ATOM     42  H18 S56 d   1     -12.029 -39.212   3.515  0.00  0.00     0.066 H 
ENDBRANCH  38  39
ENDBRANCH  35  38
ENDBRANCH  32  35
ENDBRANCH  23  32
BRANCH  30  43
ATOM     43  N   S56 d   1      -8.564 -35.455   7.959  0.00  0.00    -0.383 N 
ATOM     44  H20 S56 d   1      -7.578 -35.522   8.248  0.00  0.00     0.157 HD
ATOM     45  H21 S56 d   1      -9.132 -34.645   8.247  0.00  0.00     0.157 HD
ENDBRANCH  30  43
BRANCH  31  46
ATOM     46  C5  S56 d   1      -5.972 -37.640   7.735  0.00  0.00    -0.023 A 
ATOM     47  C16 S56 d   1      -6.075 -37.212   9.052  0.00  0.00    -0.070 A 
ATOM     48  C15 S56 d   1      -4.977 -36.697   9.723  0.00  0.00    -0.049 A 
ATOM     49  H22 S56 d   1      -7.029 -37.282   9.563  0.00  0.00     0.085 H 
ATOM     50  C8  S56 d   1      -3.750 -36.614   9.076  0.00  0.00     0.076 A 
ATOM     51  H23 S56 d   1      -5.075 -36.360  10.749  0.00  0.00     0.087 H 
ATOM     52  C7  S56 d   1      -3.630 -37.035   7.759  0.00  0.00    -0.049 A 
ATOM     53  C6  S56 d   1      -4.741 -37.530   7.092  0.00  0.00    -0.070 A 
ATOM     54  H24 S56 d   1      -2.673 -36.977   7.254  0.00  0.00     0.087 H 
ATOM     55  H25 S56 d   1      -4.650 -37.836   6.056  0.00  0.00     0.085 H 
BRANCH  50  56
ATOM     56  O   S56 d   1      -2.723 -36.137   9.895  0.00  0.00    -0.311 OA
BRANCH  56  57
ATOM     57  C9  S56 d   1      -1.694 -35.326   9.420  0.00  0.00     0.076 A 
ATOM     58  C14 S56 d   1      -0.567 -35.271  10.233  0.00  0.00    -0.050 A 
ATOM     59  C13 S56 d   1       0.479 -34.432   9.889  0.00  0.00    -0.080 A 
ATOM     60  H26 S56 d   1      -0.508 -35.880  11.128  0.00  0.00     0.087 H 
ATOM     61  C12 S56 d   1       0.402 -33.648   8.755  0.00  0.00    -0.083 A 
ATOM     62  H27 S56 d   1       1.364 -34.390  10.514  0.00  0.00     0.083 H 
ATOM     63  C11 S56 d   1      -0.732 -33.689   7.967  0.00  0.00    -0.080 A 
ATOM     64  H28 S56 d   1       1.229 -33.002   8.484  0.00  0.00     0.083 H 
ATOM     65  C10 S56 d   1      -1.777 -34.545   8.276  0.00  0.00    -0.050 A 
ATOM     66  H29 S56 d   1      -0.805 -33.045   7.098  0.00  0.00     0.083 H 
ATOM     67  H30 S56 d   1      -2.647 -34.604   7.633  0.00  0.00     0.087 H 
ENDBRANCH  56  57
ENDBRANCH  50  56
ENDBRANCH  31  46
ENDBRANCH  19  22
ENDBRANCH   1  19
TORSDOF 14
