REMARK  6 active torsions:
REMARK  status: ('A' for Active; 'I' for Inactive)
REMARK    1  A    between atoms: NAX_6  and  CAU_7 
REMARK    2  A    between atoms: CAR_12  and  CAH_13 
REMARK    3  A    between atoms: NAG_14  and  CBD_15 
REMARK    4  A    between atoms: CAI_23  and  CAJ_24 
REMARK    5  A    between atoms: CAM_29  and  CAP_30 
REMARK    6  A    between atoms: CAP_30  and  OAQ_31 
ROOT
ATOM      1  CAH 7AU d   1      75.047  35.264   1.881  0.00  0.00     0.058 A 
ATOM      2  NAG 7AU d   1      75.328  34.543   0.849  0.00  0.00    -0.334 N 
ATOM      3  CAF 7AU d   1      75.019  35.230  -0.187  0.00  0.00     0.142 A 
ATOM      4  NAD 7AU d   1      75.144  34.859  -1.443  0.00  0.00    -0.242 NA
ATOM      5  CAC 7AU d   1      74.779  35.701  -2.436  0.00  0.00     0.006 A 
ATOM      6  CAB 7AU d   1      74.261  36.921  -2.125  0.00  0.00    -0.044 A 
ATOM      7  CAA 7AU d   1      74.147  37.264  -0.799  0.00  0.00     0.050 A 
ATOM      8 CL1  7AU d   1      73.547  38.700  -0.596  0.00  0.00    -0.083 Cl
ATOM      9  CAE 7AU d   1      74.524  36.412   0.165  0.00  0.00     0.045 A 
ATOM     10  CAI 7AU d   1      74.539  36.410   1.497  0.00  0.00     0.018 A 
ATOM     11  H18 7AU d   1      74.898  35.407  -3.473  0.00  0.00     0.114 H 
ATOM     12  H19 7AU d   1      73.946  37.605  -2.904  0.00  0.00     0.088 H 
ENDROOT
BRANCH   1  13
ATOM     13  CAR 7AU d   1      75.220  34.840   3.110  0.00  0.00    -0.008 A 
ATOM     14  CAW 7AU d   1      75.852  35.604   4.037  0.00  0.00    -0.069 A 
ATOM     15  CAV 7AU d   1      76.004  35.145   5.323  0.00  0.00    -0.057 A 
ATOM     16  H12 7AU d   1      76.238  36.579   3.762  0.00  0.00     0.085 H 
ATOM     17  CAU 7AU d   1      75.513  33.923   5.699  0.00  0.00     0.030 A 
ATOM     18  H11 7AU d   1      76.521  35.760   6.051  0.00  0.00     0.086 H 
ATOM     19  CAT 7AU d   1      74.863  33.157   4.769  0.00  0.00    -0.057 A 
ATOM     20  CAS 7AU d   1      74.712  33.624   3.482  0.00  0.00    -0.069 A 
ATOM     21  H13 7AU d   1      74.468  32.186   5.045  0.00  0.00     0.086 H 
ATOM     22  H14 7AU d   1      74.183  33.020   2.753  0.00  0.00     0.085 H 
BRANCH  17  23
ATOM     23  NAX 7AU d   1      75.670  33.499   6.950  0.00  0.00    -0.378 N 
ATOM     24  CAY 7AU d   1      75.606  32.093   7.300  0.00  0.00     0.018 C 
ATOM     25  CAZ 7AU d   1      75.023  31.927   8.686  0.00  0.00     0.096 C 
ATOM     26  H1  7AU d   1      74.971  31.566   6.573  0.00  0.00     0.066 H 
ATOM     27  H2  7AU d   1      76.620  31.666   7.279  0.00  0.00     0.066 H 
ATOM     28  NBA 7AU d   1      74.034  32.954   9.008  0.00  0.00    -0.072 N 
ATOM     29  H3  7AU d   1      75.840  31.982   9.421  0.00  0.00     0.078 H 
ATOM     30  H4  7AU d   1      74.540  30.941   8.749  0.00  0.00     0.078 H 
ATOM     31  CBB 7AU d   1      74.764  34.223   9.141  0.00  0.00     0.096 C 
ATOM     32  H5  7AU d   1      73.570  32.729   9.874  0.00  0.00     0.277 HD
ATOM     33  H6  7AU d   1      73.352  33.022   8.269  0.00  0.00     0.277 HD
ATOM     34  CBC 7AU d   1      75.840  34.425   8.069  0.00  0.00     0.018 C 
ATOM     35  H7  7AU d   1      75.248  34.244  10.129  0.00  0.00     0.078 H 
ATOM     36  H8  7AU d   1      74.042  35.049   9.069  0.00  0.00     0.078 H 
ATOM     37  H9  7AU d   1      76.829  34.260   8.521  0.00  0.00     0.066 H 
ATOM     38  H10 7AU d   1      75.777  35.456   7.691  0.00  0.00     0.066 H 
ENDBRANCH  17  23
ENDBRANCH   1  13
BRANCH   2  39
ATOM     39  CBD 7AU d   1      75.866  33.240   0.747  0.00  0.00    -0.012 C 
ATOM     40  H15 7AU d   1      76.055  32.841   1.755  0.00  0.00     0.057 H 
ATOM     41  H16 7AU d   1      76.810  33.276   0.184  0.00  0.00     0.057 H 
ATOM     42  H17 7AU d   1      75.151  32.588   0.223  0.00  0.00     0.057 H 
ENDBRANCH   2  39
BRANCH  10  43
ATOM     43  CAJ 7AU d   1      74.187  37.354   2.375  0.00  0.00    -0.023 A 
ATOM     44  CAK 7AU d   1      74.585  38.670   2.275  0.00  0.00    -0.071 A 
ATOM     45  CAL 7AU d   1      74.230  39.619   3.222  0.00  0.00    -0.074 A 
ATOM     46  H20 7AU d   1      75.194  38.972   1.431  0.00  0.00     0.084 H 
ATOM     47  CAM 7AU d   1      73.479  39.242   4.310  0.00  0.00    -0.035 A 
ATOM     48  H21 7AU d   1      74.542  40.650   3.105  0.00  0.00     0.084 H 
ATOM     49  CAN 7AU d   1      73.089  37.951   4.415  0.00  0.00    -0.074 A 
ATOM     50  CAO 7AU d   1      73.444  37.029   3.469  0.00  0.00    -0.071 A 
ATOM     51  H23 7AU d   1      72.486  37.642   5.261  0.00  0.00     0.084 H 
ATOM     52  H22 7AU d   1      73.122  36.002   3.595  0.00  0.00     0.084 H 
BRANCH  47  53
ATOM     53  CAP 7AU d   1      73.060  40.081   5.291  0.00  0.00     0.040 C 
ATOM     54  H24 7AU d   1      73.035  39.535   6.245  0.00  0.00     0.081 H 
ATOM     55  H25 7AU d   1      72.050  40.443   5.048  0.00  0.00     0.081 H 
BRANCH  53  56
ATOM     56  OAQ 7AU d   1      73.913  41.166   5.412  0.00  0.00    -0.396 OA
ATOM     57  H26 7AU d   1      74.786  40.859   5.625  0.00  0.00     0.209 HD
ENDBRANCH  53  56
ENDBRANCH  47  53
ENDBRANCH  10  43
TORSDOF 6
