REMARK  7 active torsions:
REMARK  status: ('A' for Active; 'I' for Inactive)
REMARK    1  A    between atoms: C26_10  and  C27_11 
REMARK    2  A    between atoms: C04_19  and  C05_22 
REMARK    3  A    between atoms: C05_22  and  C06_23 
REMARK    4  A    between atoms: C06_23  and  C07_24 
REMARK    5  A    between atoms: C06_23  and  C08_25 
REMARK    6  A    between atoms: C11_27  and  C12_32 
REMARK    7  A    between atoms: C12_32  and  O13_33 
ROOT
ATOM      1  O01 V56 d   1      74.895 -51.326 133.371  0.00  0.00    -0.238 OA
ATOM      2  C02 V56 d   1      75.067 -52.495 133.521  0.00  0.00     0.361 C 
ATOM      3  N17 V56 d   1      71.772 -50.880 130.631  0.00  0.00    -0.361 N 
ATOM      4  C18 V56 d   1      70.703 -51.782 130.192  0.00  0.00    -0.005 C 
ATOM      5  C19 V56 d   1      71.050 -53.150 130.790  0.00  0.00    -0.050 C 
ATOM      6  C20 V56 d   1      71.057 -53.029 132.300  0.00  0.00    -0.064 C 
ATOM      7  C21 V56 d   1      71.673 -54.250 133.051  0.00  0.00    -0.062 C 
ATOM      8  C22 V56 d   1      71.839 -53.871 134.539  0.00  0.00    -0.036 C 
ATOM      9  O25 V56 d   1      74.128 -53.401 134.090  0.00  0.00    -0.294 OA
ATOM     10  C26 V56 d   1      72.958 -52.836 134.667  0.00  0.00     0.075 C 
ATOM     11  N03 V56 d   1      76.298 -53.135 133.103  0.00  0.00    -0.324 N 
ATOM     12  C04 V56 d   1      77.146 -52.417 132.199  0.00  0.00     0.092 C 
ATOM     13  C09 V56 d   1      76.380 -52.117 130.908  0.00  0.00     0.240 C 
ATOM     14  O24 V56 d   1      75.578 -52.846 130.396  0.00  0.00    -0.271 OA
ATOM     15  N10 V56 d   1      76.698 -50.847 130.313  0.00  0.00    -0.353 N 
ATOM     16  C11 V56 d   1      76.027 -50.437 129.078  0.00  0.00     0.033 C 
ATOM     17  C14 V56 d   1      75.043 -49.298 129.376  0.00  0.00    -0.036 C 
ATOM     18  C15 V56 d   1      73.963 -49.700 130.366  0.00  0.00     0.011 C 
ATOM     19  C16 V56 d   1      72.899 -50.630 129.760  0.00  0.00     0.217 C 
ATOM     20  O23 V56 d   1      72.974 -51.114 128.677  0.00  0.00    -0.274 OA
ATOM     21  H1  V56 d   1      71.722 -50.440 131.528  0.00  0.00     0.162 HD
ATOM     22  H2  V56 d   1      70.674 -51.839 129.094  0.00  0.00     0.064 H 
ATOM     23  H3  V56 d   1      69.729 -51.435 130.567  0.00  0.00     0.064 H 
ATOM     24  H4  V56 d   1      72.043 -53.467 130.439  0.00  0.00     0.035 H 
ATOM     25  H5  V56 d   1      70.298 -53.891 130.481  0.00  0.00     0.035 H 
ATOM     26  H6  V56 d   1      70.017 -52.908 132.638  0.00  0.00     0.033 H 
ATOM     27  H7  V56 d   1      71.637 -52.134 132.569  0.00  0.00     0.033 H 
ATOM     28  H8  V56 d   1      72.654 -54.496 132.618  0.00  0.00     0.033 H 
ATOM     29  H9  V56 d   1      71.004 -55.118 132.961  0.00  0.00     0.033 H 
ATOM     30  H10 V56 d   1      72.097 -54.768 135.121  0.00  0.00     0.037 H 
ATOM     31  H11 V56 d   1      70.898 -53.446 134.919  0.00  0.00     0.037 H 
ATOM     32  H12 V56 d   1      72.672 -51.934 134.106  0.00  0.00     0.092 H 
ATOM     33  H17 V56 d   1      76.547 -54.045 133.434  0.00  0.00     0.165 HD
ATOM     34  H18 V56 d   1      77.458 -51.471 132.666  0.00  0.00     0.087 H 
ATOM     35  H28 V56 d   1      77.374 -50.247 130.741  0.00  0.00     0.163 HD
ATOM     36  H29 V56 d   1      75.469 -51.289 128.661  0.00  0.00     0.075 H 
ATOM     37  H30 V56 d   1      74.562 -48.993 128.435  0.00  0.00     0.036 H 
ATOM     38  H31 V56 d   1      75.604 -48.449 129.793  0.00  0.00     0.036 H 
ATOM     39  H32 V56 d   1      73.465 -48.789 130.728  0.00  0.00     0.047 H 
ATOM     40  H33 V56 d   1      74.439 -50.218 131.211  0.00  0.00     0.047 H 
ENDROOT
BRANCH  12  41
ATOM     41  C05 V56 d   1      78.363 -53.243 131.885  0.00  0.00    -0.035 C 
ATOM     42  H19 V56 d   1      78.991 -52.690 131.172  0.00  0.00     0.037 H 
ATOM     43  H20 V56 d   1      78.039 -54.191 131.430  0.00  0.00     0.037 H 
BRANCH  41  44
ATOM     44  C06 V56 d   1      79.200 -53.557 133.144  0.00  0.00    -0.059 C 
ATOM     45  H21 V56 d   1      78.533 -54.081 133.844  0.00  0.00     0.038 H 
BRANCH  44  46
ATOM     46  C07 V56 d   1      80.345 -54.531 132.785  0.00  0.00    -0.073 C 
ATOM     47  H22 V56 d   1      80.936 -54.750 133.686  0.00  0.00     0.028 H 
ATOM     48  H23 V56 d   1      80.993 -54.071 132.024  0.00  0.00     0.028 H 
ATOM     49  H24 V56 d   1      79.921 -55.465 132.389  0.00  0.00     0.028 H 
ENDBRANCH  44  46
BRANCH  44  50
ATOM     50  C08 V56 d   1      79.722 -52.320 133.888  0.00  0.00    -0.073 C 
ATOM     51  H25 V56 d   1      78.880 -51.653 134.126  0.00  0.00     0.028 H 
ATOM     52  H26 V56 d   1      80.444 -51.787 133.252  0.00  0.00     0.028 H 
ATOM     53  H27 V56 d   1      80.216 -52.634 134.820  0.00  0.00     0.028 H 
ENDBRANCH  44  50
ENDBRANCH  41  44
ENDBRANCH  12  41
BRANCH  16  54
ATOM     54  C12 V56 d   1      77.117 -49.997 128.066  0.00  0.00     0.035 C 
ATOM     55  H34 V56 d   1      77.768 -49.234 128.518  0.00  0.00     0.077 H 
ATOM     56  H35 V56 d   1      76.648 -49.588 127.159  0.00  0.00     0.077 H 
BRANCH  54  57
ATOM     57  O13 V56 d   1      77.868 -51.149 127.747  0.00  0.00    -0.399 OA
ATOM     58  H36 V56 d   1      78.263 -51.497 128.538  0.00  0.00     0.209 HD
ENDBRANCH  54  57
ENDBRANCH  16  54
BRANCH  10  59
ATOM     59  C27 V56 d   1      73.240 -52.430 136.117  0.00  0.00    -0.027 A 
ATOM     60  C28 V56 d   1      73.369 -53.350 137.134  0.00  0.00    -0.074 A 
ATOM     61  C29 V56 d   1      73.617 -52.907 138.436  0.00  0.00    -0.081 A 
ATOM     62  H13 V56 d   1      73.279 -54.410 136.926  0.00  0.00     0.084 H 
ATOM     63  C30 V56 d   1      73.728 -51.554 138.688  0.00  0.00    -0.062 A 
ATOM     64  H14 V56 d   1      73.722 -53.622 139.244  0.00  0.00     0.083 H 
ATOM     65  C31 V56 d   1      73.594 -50.651 137.645  0.00  0.00     0.034 A 
ATOM     66  H15 V56 d   1      73.919 -51.200 139.695  0.00  0.00     0.086 H 
ATOM     67 CL32 V56 d   1      73.726 -48.902 137.897  0.00  0.00    -0.084 Cl
ATOM     68  C33 V56 d   1      73.346 -51.081 136.367  0.00  0.00    -0.053 A 
ATOM     69  H16 V56 d   1      73.234 -50.365 135.561  0.00  0.00     0.087 H 
ENDBRANCH  10  59
TORSDOF 7
